data_PCOD9337034
_publ_section_title
;
Structure prediction by ZEFSAII (Michael W. Deem and Ramdas Pophale) SiO2 
 PCOD9337034
Probable space group: I 21 21 21
;
_chemical_formula_sum "Si O2"
_cell_formula_units_Z 28
_cell_length_a 15.000000
_cell_length_b 21.000000
_cell_length_c 9.000000
_cell_angle_alpha 90.000000
_cell_angle_beta 90.000000
_cell_angle_gamma 90.000000
_cell_volume 2835.000000
_symmetry_space_group_name_H-M "I 21 21 21"
_symmetry_group_IT_number 24
_symmetry_cell_setting 'orthorhombic'
loop_
_space_group_symop_operation_xyz
x,y,z
-x,1/2-y,z
x,-y,1/2-z
1/2-x,y,-z
1/2+x,1/2+y,1/2+z
1/2-x,-y,1/2+z
1/2+x,1/2-y,-z
-x,1/2+y,1/2-z
loop_
_atom_site_type_symbol
_atom_site_label
_atom_site_fract_x
_atom_site_fract_y
_atom_site_fract_z
Si Si1 0.550363 0.818381 0.306988
Si Si2 0.237267 0.709941 0.824298
Si Si3 0.759668 0.356803 0.672441
Si Si4 0.850671 0.497216 0.071366
Si Si5 0.409912 0.275126 0.879012
Si Si6 0.070310 0.068242 0.681119
Si Si7 0.349055 0.140159 0.934790
O O1 0.500000 0.750000 0.276410
O O2 0.650349 0.823283 0.241767
O O3 0.563436 0.822519 0.487153
O O4 0.494403 0.875102 0.230572
O O5 0.211348 0.784342 0.809091
O O6 0.329028 0.703323 0.727667
O O7 0.250000 0.696298 0.000000
O O8 0.750000 0.366912 0.500000
O O9 0.832299 0.405973 0.730718
O O10 0.667054 0.360911 0.757618
O O11 0.843907 0.500000 0.250000
O O12 0.891940 0.427523 0.032063
O O13 0.750000 0.499003 0.000000
O O14 0.911797 0.550277 0.992218
O O15 0.500000 0.250000 0.797699
O O16 0.381601 0.210682 0.967667
O O17 0.047823 0.000000 0.750000
O O18 0.250000 0.138901 0.000000
#
# Coordination Sequence:
#
# PCOD9337034 Si02
#       7
#     8   8   8   8   8   8   8
#     4  11  23  41  65  90 127 173 217 268 327 391
#     4  10  21  41  63  91 129 167 212 271 331 394
#     4  10  19  34  56  88 127 168 202 249 326 407
#     4  11  22  37  57  90 137 186 216 261 331 414
#     4  10  22  37  63  95 124 161 219 272 327 388
#     4  12  24  37  60  93 131 168 222 269 328 394
#     4  10  19  32  57  84 124 165 207 249 314 391
#
# _framework density 9.8765429999999999
#
# number of rings (size 3 to 8) (size 9 to 14) (size 15 to 20)
#    0.000    1.429    1.429    6.429    6.000    0.571 
#    5.143    0.000    0.000    1.714    0.000    0.000 
#    0.000    0.000    0.000    0.000    0.000    0.000 
#
# Total GULP energy -155930.706134 kJ/mol
# GULP energy per Si atom -5568.953791 kJ/mol
# Density = 0.985406 g / cm^3
# Si number density = 9.876543 Si / 1000 Ang^3
#
#
#
# Elastic Constant Matrix: (Units=GPa)
#
#
# Indices 1 2 3 4 5 6 
#
# 1 113.1375 28.9099 52.9646 0.0000 0.0000 0.0000
# 2 28.9099 88.9745 27.9122 0.0000 0.0000 0.0000
# 3 52.9646 27.9122 150.2112 0.0000 0.0000 0.0000
# 4 0.0000 0.0000 0.0000 27.4591 0.0000 0.0000
# 5 0.0000 0.0000 0.0000 0.0000 25.7140 0.0000
# 6 0.0000 0.0000 0.0000 0.0000 0.0000 20.6485
#
#
#
# Elastic Compliance Matrix: (Units=1/GPa)
#
#
# Indices 1 2 3 4 5 6 
#
# 1 0.011096 -0.002525 -0.003443 0.000000 0.000000 0.000000
# 2 -0.002525 0.012510 -0.001434 0.000000 0.000000 0.000000
# 3 -0.003443 -0.001434 0.008138 0.000000 0.000000 0.000000
# 4 0.000000 0.000000 0.000000 0.036418 0.000000 0.000000
# 5 0.000000 0.000000 0.000000 0.000000 0.038889 0.000000
# 6 0.000000 0.000000 0.000000 0.000000 0.000000 0.048430
#
#
# Mechanical properties :
#
#
# Convention : Reuss Voigt Hill
#
# Bulk Modulus (GPa) = 59.03766 63.54404 61.29085
# Shear Modulus (GPa) = 28.42017 30.93343 29.67680
#
# Velocity S-wave (km/s) = 3.79723 3.96157 3.88027
# Velocity P-wave (km/s) = 7.01270 7.29139 7.15340
#
# Compressibility (1/GPa) = 0.01693834
#
# Stress axis : x y z
#
# Youngs Moduli (GPa) = 90.12278 79.93885 122.88233
#
# Poissons Ratio (x) = 0.20186 0.42311
# Poissons Ratio (y) = 0.22757 0.17623
# Poissons Ratio (z) = 0.31031 0.11464
#
# Static dielectric constant tensor:
#      x y z
#    x 1.734340 0.000000 0.000000 
#    y 0.000000 1.767330 0.000000 
#    z 0.000000 0.000000 1.831840 
# 
# From -- ./inp_files/13166.got.cif
#   From: 2010.05.17/outbox.ucp.g08.bks.cvg/sg24_7_cif.got.tgz:13166.got - 2010.06.11 15:20:44.
