data_PCOD9337988
_publ_section_title
;
Structure prediction by ZEFSAII (Michael W. Deem and Ramdas Pophale) SiO2 
 PCOD9337988
Probable space group: P M C 21
;
_chemical_formula_sum "Si O2"
_cell_formula_units_Z 20
_cell_length_a 8.654454
_cell_length_b 8.241231
_cell_length_c 13.347420
_cell_angle_alpha 90.000000
_cell_angle_beta 90.000000
_cell_angle_gamma 90.000000
_cell_volume 951.982770
_symmetry_space_group_name_H-M "P M C 21"
_symmetry_group_IT_number 26
_symmetry_cell_setting 'orthorhombic'
loop_
_space_group_symop_operation_xyz
x,y,z
-x,-y,1/2+z
-x,y,z
x,-y,1/2+z
loop_
_atom_site_type_symbol
_atom_site_label
_atom_site_fract_x
_atom_site_fract_y
_atom_site_fract_z
Si Si1 0.500000 0.450421 0.627430
Si Si2 0.168246 0.196337 0.347137
Si Si3 0.500000 0.337528 0.852983
Si Si4 0.500000 0.040707 0.345293
Si Si5 0.500000 0.847549 0.619191
Si Si6 0.833835 0.201563 0.106193
Si Si7 0.242540 0.488362 0.482626
O O1 0.500000 0.381235 0.737156
O O2 0.500000 0.649225 0.630316
O O3 0.350803 0.400201 0.564390
O O4 0.333924 0.117046 0.375726
O O5 0.178645 0.230423 0.226806
O O6 0.160187 0.357291 0.414355
O O7 0.000000 0.109408 0.360346
O O8 0.645741 0.417599 0.906219
O O9 0.500000 0.147391 0.869724
O O10 0.500000 0.064734 0.225411
O O11 0.328888 0.881927 0.575404
O O12 0.000000 0.116952 0.089161
O O13 0.838801 0.370980 0.046269
#
# Coordination Sequence:
#
# PCOD9337988 Si02
#       7
#     2   4   2   2   2   4   4
#     4   9  18  33  55  82 108 139 189 236 273 324
#     4  10  20  37  60  82 112 152 188 227 278 334
#     4  11  21  34  57  86 114 147 184 232 284 331
#     4  10  20  36  56  78 114 154 185 220 277 345
#     4   8  15  31  52  72 102 142 178 216 264 326
#     4   9  17  30  52  80 105 135 179 227 271 316
#     4  10  18  33  57  83 110 140 187 238 277 323
#
# _framework density 21.008783000000001
#
# number of rings (size 3 to 8) (size 9 to 14) (size 15 to 20)
#    0.000    2.400    0.000    6.000    0.000    0.000 
#    0.000   14.000    0.000    8.400    0.000    0.000 
#    0.000    0.000    0.000    0.000    0.000    0.000 
#
# Total GULP energy -111349.569804 kJ/mol
# GULP energy per Si atom -5567.478490 kJ/mol
# Density = 2.096097 g / cm^3
# Si number density = 21.008783 Si / 1000 Ang^3
#
#
#
# Elastic Constant Matrix: (Units=GPa)
#
#
# Indices 1 2 3 4 5 6 
#
# 1 226.2442 40.8697 39.4685 0.0000 0.0000 0.0000
# 2 40.8697 44.2203 26.8631 0.0000 0.0000 0.0000
# 3 39.4685 26.8631 121.6934 0.0000 0.0000 0.0000
# 4 0.0000 0.0000 0.0000 22.5784 0.0000 0.0000
# 5 0.0000 0.0000 0.0000 0.0000 1.9746 0.0000
# 6 0.0000 0.0000 0.0000 0.0000 0.0000 -45.4936
#
#
#
# Elastic Compliance Matrix: (Units=1/GPa)
#
#
# Indices 1 2 3 4 5 6 
#
# 1 0.005364 -0.004505 -0.000745 0.000000 0.000000 0.000000
# 2 -0.004505 0.029899 -0.005139 0.000000 0.000000 0.000000
# 3 -0.000745 -0.005139 0.009594 0.000000 0.000000 0.000000
# 4 0.000000 0.000000 0.000000 0.044290 0.000000 0.000000
# 5 0.000000 0.000000 0.000000 0.000000 0.506425 0.000000
# 6 0.000000 0.000000 0.000000 0.000000 0.000000 -0.021981
#
#
# Mechanical properties :
#
#
# Convention : Reuss Voigt Hill
#
# Bulk Modulus (GPa) = 41.53071 67.39563 54.46317
# Shear Modulus (GPa) = 8.30021 14.80899 11.55460
#
# Velocity S-wave (km/s) = 1.98983 2.65787 2.34773
# Velocity P-wave (km/s) = 5.00903 6.44736 5.77316
#
# Compressibility (1/GPa) = 0.02407857
#
# Stress axis : x y z
#
# Youngs Moduli (GPa) = 186.43699 33.44562 104.23713
#
# Poissons Ratio (x) = 0.15066 0.07768
# Poissons Ratio (y) = 0.83983 0.53569
# Poissons Ratio (z) = 0.13894 0.17188
#
# Static dielectric constant tensor:
#      x y z
#    x 1.860820 0.000000 0.000000 
#    y 0.000000 1.715110 0.000000 
#    z 0.000000 0.000000 1.743440 
# 
# From -- ./inp_files/3831.got.cif
#   From: 2010.05.17/outbox.cif.g08.bks.cpg/sg26_2_cif.got.tgz:3831.got - 2010.06.04 01:07:29.
