data_PCOD9338807
_publ_section_title
;
Structure prediction by ZEFSAII (Michael W. Deem and Ramdas Pophale) SiO2 
 PCOD9338807
Probable space group: P C C 2
;
_chemical_formula_sum "Si O2"
_cell_formula_units_Z 24
_cell_length_a 5.717822
_cell_length_b 7.410827
_cell_length_c 24.382079
_cell_angle_alpha 90.000000
_cell_angle_beta 90.000000
_cell_angle_gamma 90.000000
_cell_volume 1033.161087
_symmetry_space_group_name_H-M "P C C 2"
_symmetry_group_IT_number 27
_symmetry_cell_setting 'orthorhombic'
loop_
_space_group_symop_operation_xyz
x,y,z
-x,-y,z
-x,y,1/2+z
x,-y,1/2+z
loop_
_atom_site_type_symbol
_atom_site_label
_atom_site_fract_x
_atom_site_fract_y
_atom_site_fract_z
Si Si1 0.350531 0.314287 0.407600
Si Si2 0.751587 0.723312 0.530875
Si Si3 0.624779 0.242850 0.300350
Si Si4 0.000000 0.000000 0.254832
Si Si5 0.258731 0.307174 0.072245
Si Si6 0.644548 0.189171 0.690289
Si Si7 0.000000 0.500000 0.837878
O O1 0.500000 0.500000 0.418420
O O2 0.276869 0.239240 0.466270
O O3 0.498290 0.223802 0.358789
O O4 0.106703 0.351588 0.377469
O O5 0.748588 0.507106 0.545272
O O6 0.498820 0.787703 0.552771
O O7 0.005660 0.779200 0.555923
O O8 0.483995 0.263095 0.244086
O O9 0.789683 0.416880 0.304753
O O10 0.789652 0.071541 0.290748
O O11 0.900652 0.851655 0.214184
O O12 0.307499 0.309660 0.137347
O O13 0.500000 0.000000 0.677163
#
# Coordination Sequence:
#
# PCOD9338807 Si02
#       7
#     4   4   4   2   4   4   2
#     4  10  19  36  62  97 130 171 210 267 337 396
#     4  10  21  39  63  98 129 167 213 268 338 388
#     4  10  22  39  64  99 128 171 221 271 343 401
#     4  10  22  44  62  88 130 180 214 274 334 406
#     4  10  21  39  62  96 127 171 214 272 325 398
#     4  10  23  42  65  91 126 176 223 272 332 396
#     4  10  20  36  62 100 130 162 204 278 330 400
#
# _framework density 23.229679000000001
#
# number of rings (size 3 to 8) (size 9 to 14) (size 15 to 20)
#    0.000    2.000    1.667    2.000    7.000    0.000 
#   15.000    0.000    0.000    6.000    0.000    0.000 
#    0.000    0.000    0.000    0.000    0.000    0.000 
#
# Total GULP energy -133764.886500 kJ/mol
# GULP energy per Si atom -5573.536938 kJ/mol
# Density = 2.317681 g / cm^3
# Si number density = 23.229679 Si / 1000 Ang^3
#
#
#
# Elastic Constant Matrix: (Units=GPa)
#
#
# Indices 1 2 3 4 5 6 
#
# 1 169.6312 5.8461 74.1625 0.0000 0.0000 0.0000
# 2 5.8461 31.7624 30.6619 0.0000 0.0000 0.0000
# 3 74.1625 30.6619 198.8725 0.0000 0.0000 0.0000
# 4 0.0000 0.0000 0.0000 5.7329 0.0000 0.0000
# 5 0.0000 0.0000 0.0000 0.0000 -30.9874 0.0000
# 6 0.0000 0.0000 0.0000 0.0000 0.0000 14.4638
#
#
#
# Elastic Compliance Matrix: (Units=1/GPa)
#
#
# Indices 1 2 3 4 5 6 
#
# 1 0.007101 0.001468 -0.002874 0.000000 0.000000 0.000000
# 2 0.001468 0.037293 -0.006297 0.000000 0.000000 0.000000
# 3 -0.002874 -0.006297 0.007071 0.000000 0.000000 0.000000
# 4 0.000000 0.000000 0.000000 0.174433 0.000000 0.000000
# 5 0.000000 0.000000 0.000000 0.000000 -0.032271 0.000000
# 6 0.000000 0.000000 0.000000 0.000000 0.000000 0.069138
#
#
# Mechanical properties :
#
#
# Convention : Reuss Voigt Hill
#
# Bulk Modulus (GPa) = 27.73347 69.06746 48.40046
# Shear Modulus (GPa) = 17.23000 17.14822 17.18911
#
# Velocity S-wave (km/s) = 2.72641 2.71994 2.72318
# Velocity P-wave (km/s) = 4.67716 6.29770 5.54693
#
# Compressibility (1/GPa) = 0.03605752
#
# Stress axis : x y z
#
# Youngs Moduli (GPa) = 140.81972 26.81501 141.41930
#
# Poissons Ratio (x) = -0.03936 0.40651
# Poissons Ratio (y) = -0.20670 0.89053
# Poissons Ratio (z) = 0.40478 0.16886
#
# Static dielectric constant tensor:
#      x y z
#    x 1.956650 0.000000 0.000000 
#    y 0.000000 2.012130 0.000000 
#    z 0.000000 0.000000 1.914760 
# 
# From -- ./inp_files/4987.got.cif
#   From: 2010.05.17/outbox.cif.g08.bks.cpg/sg27_3_cif.got.tgz:4987.got - 2010.06.04 01:11:05.
