data_PCOD9338394
_publ_section_title
;
Structure prediction by ZEFSAII (Michael W. Deem and Ramdas Pophale) SiO2 
 PCOD9338394
Probable space group: P M C 21
;
_chemical_formula_sum "Si O2"
_cell_formula_units_Z 32
_cell_length_a 8.211107
_cell_length_b 12.350605
_cell_length_c 15.618655
_cell_angle_alpha 90.000000
_cell_angle_beta 90.000000
_cell_angle_gamma 90.000000
_cell_volume 1583.921215
_symmetry_space_group_name_H-M "P M C 21"
_symmetry_group_IT_number 26
_symmetry_cell_setting 'orthorhombic'
loop_
_space_group_symop_operation_xyz
x,y,z
-x,-y,1/2+z
-x,y,z
x,-y,1/2+z
loop_
_atom_site_type_symbol
_atom_site_label
_atom_site_fract_x
_atom_site_fract_y
_atom_site_fract_z
Si Si1 0.802921 0.395862 0.599330
Si Si2 0.687564 0.523800 0.767457
Si Si3 0.188302 0.747294 0.709100
Si Si4 0.802494 0.982178 0.447429
Si Si5 0.801281 0.009263 0.250842
Si Si6 0.686339 0.242140 0.026469
Si Si7 0.198825 0.853989 0.095387
Si Si8 0.189701 0.447936 0.945253
O O1 0.741417 0.459547 0.682556
O O2 0.747294 0.270778 0.597636
O O3 0.754407 0.462406 0.514401
O O4 0.000000 0.394778 0.602080
O O5 0.500000 0.500314 0.784793
O O6 0.713428 0.651152 0.752078
O O7 0.789826 0.489042 0.849449
O O8 0.247925 0.868698 0.726956
O O9 0.201803 0.731357 0.607568
O O10 0.000000 0.739352 0.736726
O O11 0.735628 0.872785 0.488533
O O12 0.000000 0.978150 0.448657
O O13 0.750318 0.988321 0.348485
O O14 0.753383 0.082115 0.508800
O O15 0.000000 0.007175 0.248998
O O16 0.747503 0.923346 0.178699
O O17 0.500000 0.240467 0.055830
O O18 0.712507 0.337680 0.959158
O O19 0.000000 0.853286 0.096678
O O20 0.000000 0.425379 0.961945
#
# Coordination Sequence:
#
# PCOD9338394 Si02
#       8
#     4   4   4   4   4   4   4   4
#     4  10  22  40  65  92 122 163 214 261 306 367
#     4  12  26  42  62  92 130 165 202 259 324 376
#     4  11  21  40  67  92 119 160 213 258 303 368
#     4  10  20  37  63  91 120 158 201 249 303 361
#     4   9  19  34  61  94 119 151 202 257 299 349
#     4  12  24  40  62  91 127 162 202 257 315 369
#     4   9  18  35  58  90 122 152 201 256 297 348
#     4  11  24  42  66  92 121 165 217 261 303 368
#
# _framework density 20.203025
#
# number of rings (size 3 to 8) (size 9 to 14) (size 15 to 20)
#    0.000    1.500    2.500    3.000    3.500    0.500 
#    0.000    1.875    0.000    0.000    0.000    0.000 
#    0.000    0.000    0.000    0.000    0.000    0.000 
#
# Total GULP energy -178814.620314 kJ/mol
# GULP energy per Si atom -5587.956885 kJ/mol
# Density = 2.015704 g / cm^3
# Si number density = 20.203025 Si / 1000 Ang^3
#
#
#
# Elastic Constant Matrix: (Units=GPa)
#
#
# Indices 1 2 3 4 5 6 
#
# 1 27.2632 19.8155 8.5367 0.0000 0.0000 0.0000
# 2 19.8155 96.4499 3.4704 0.0000 0.0000 0.0000
# 3 8.5367 3.4704 70.9062 0.0000 0.0000 0.0000
# 4 0.0000 0.0000 0.0000 29.6200 0.0000 0.0000
# 5 0.0000 0.0000 0.0000 0.0000 -5.1950 0.0000
# 6 0.0000 0.0000 0.0000 0.0000 0.0000 -410.3762
#
#
#
# Elastic Compliance Matrix: (Units=1/GPa)
#
#
# Indices 1 2 3 4 5 6 
#
# 1 0.044788 -0.009024 -0.004951 0.000000 0.000000 0.000000
# 2 -0.009024 0.012204 0.000489 0.000000 0.000000 0.000000
# 3 -0.004951 0.000489 0.014675 0.000000 0.000000 0.000000
# 4 0.000000 0.000000 0.000000 0.033761 0.000000 0.000000
# 5 0.000000 0.000000 0.000000 0.000000 -0.192493 0.000000
# 6 0.000000 0.000000 0.000000 0.000000 0.000000 -0.002437
#
#
# Mechanical properties :
#
#
# Convention : Reuss Voigt Hill
#
# Bulk Modulus (GPa) = 22.37261 28.69607 25.53434
# Shear Modulus (GPa) = -104.97224 -66.33713 -85.65468
#
# Velocity S-wave (km/s) = -7.21606 -5.73642 -6.51836
# Velocity P-wave (km/s) = 7.63745 5.44433 6.63217
#
# Compressibility (1/GPa) = 0.04469752
#
# Stress axis : x y z
#
# Youngs Moduli (GPa) = 22.32737 81.93803 68.14200
#
# Poissons Ratio (x) = 0.73937 0.33734
# Poissons Ratio (y) = 0.20147 -0.03333
# Poissons Ratio (z) = 0.11053 -0.04007
#
# Static dielectric constant tensor:
#      x y z
#    x 1.700530 0.000000 0.000000 
#    y 0.000000 1.702560 0.000000 
#    z 0.000000 0.000000 1.705010 
# 
# From -- ./inp_files/4259.got.cif
#   From: 2010.05.17/outbox.cif.g08.bks.cpg/sg26_3_cif.got.tgz:4259.got - 2010.06.04 01:07:29.
