data_PCOD9338637
_publ_section_title
;
Structure prediction by ZEFSAII (Michael W. Deem and Ramdas Pophale) SiO2 
 PCOD9338637
Probable space group: P M C 21
;
_chemical_formula_sum "Si O2"
_cell_formula_units_Z 24
_cell_length_a 7.352910
_cell_length_b 25.939696
_cell_length_c 4.998688
_cell_angle_alpha 90.000000
_cell_angle_beta 90.000000
_cell_angle_gamma 90.000000
_cell_volume 953.411010
_symmetry_space_group_name_H-M "P M C 21"
_symmetry_group_IT_number 26
_symmetry_cell_setting 'orthorhombic'
loop_
_space_group_symop_operation_xyz
x,y,z
-x,-y,1/2+z
-x,y,z
x,-y,1/2+z
loop_
_atom_site_type_symbol
_atom_site_label
_atom_site_fract_x
_atom_site_fract_y
_atom_site_fract_z
Si Si1 0.278554 0.638964 0.297940
Si Si2 0.278382 0.469427 0.557637
Si Si3 0.706171 0.197295 0.019480
Si Si4 0.206169 0.133093 0.519476
Si Si5 0.778607 0.969923 0.300372
Si Si6 0.721467 0.699622 0.799246
O O1 0.500000 0.637295 0.298160
O O2 0.216720 0.584804 0.177481
O O3 0.226523 0.653717 0.597234
O O4 0.221670 0.684476 0.096041
O O5 0.500000 0.467461 0.554854
O O6 0.223777 0.485153 0.260830
O O7 0.500000 0.210106 0.938705
O O8 0.704821 0.153860 0.250230
O O9 0.785419 0.247279 0.167987
O O10 0.795189 0.176550 0.750157
O O11 0.285195 0.083130 0.668461
O O12 0.000000 0.120261 0.438819
O O13 0.000000 0.967288 0.305541
O O14 0.724059 0.984146 0.599396
O O15 0.500000 0.702646 0.806713
#
# Coordination Sequence:
#
# PCOD9338637 Si02
#       6
#     4   4   4   4   4   4
#     4   9  15  24  37  54  79 113 160 209 244 289
#     4   9  15  21  30  47  73 107 149 198 248 293
#     4  11  22  37  56  79 110 145 182 223 268 317
#     4  11  22  37  59  85 110 139 179 223 268 317
#     4   9  17  31  53  79 104 133 173 217 256 305
#     4   9  17  28  43  62  85 121 167 208 244 293
#
# _framework density 25.172775999999999
#
# number of rings (size 3 to 8) (size 9 to 14) (size 15 to 20)
#    0.000    2.333    0.000    4.000    0.000    9.333 
#    0.000    0.000    0.000   10.000    0.000    0.000 
#    0.000    0.000    0.000    0.000    0.000  210.000 
#
# Total GULP energy -134261.927778 kJ/mol
# GULP energy per Si atom -5594.246991 kJ/mol
# Density = 2.511548 g / cm^3
# Si number density = 25.172776 Si / 1000 Ang^3
#
#
#
# Elastic Constant Matrix: (Units=GPa)
#
#
# Indices 1 2 3 4 5 6 
#
# 1 90.4768 -7.6612 -8.7883 0.0000 0.0000 0.0000
# 2 -7.6612 62.8796 -16.0530 0.0000 0.0000 0.0000
# 3 -8.7883 -16.0530 101.9637 0.0000 0.0000 0.0000
# 4 0.0000 0.0000 0.0000 38.8572 0.0000 0.0000
# 5 0.0000 0.0000 0.0000 0.0000 -0.9946 0.0000
# 6 0.0000 0.0000 0.0000 0.0000 0.0000 16.5289
#
#
#
# Elastic Compliance Matrix: (Units=1/GPa)
#
#
# Indices 1 2 3 4 5 6 
#
# 1 0.011317 0.001696 0.001242 0.000000 0.000000 0.000000
# 2 0.001696 0.016824 0.002795 0.000000 0.000000 0.000000
# 3 0.001242 0.002795 0.010355 0.000000 0.000000 0.000000
# 4 0.000000 0.000000 0.000000 0.025735 0.000000 0.000000
# 5 0.000000 0.000000 0.000000 0.000000 -1.005422 0.000000
# 6 0.000000 0.000000 0.000000 0.000000 0.000000 0.060500
#
#
# Mechanical properties :
#
#
# Convention : Reuss Voigt Hill
#
# Bulk Modulus (GPa) = 20.01539 21.14612 20.58076
# Shear Modulus (GPa) = -5.71100 30.06646 12.17773
#
# Velocity S-wave (km/s) = -1.50786 3.45976 2.20185
# Velocity P-wave (km/s) = 2.22192 4.93747 3.82855
#
# Compressibility (1/GPa) = 0.04996156
#
# Stress axis : x y z
#
# Youngs Moduli (GPa) = 88.36380 59.44037 96.57628
#
# Poissons Ratio (x) = -0.10081 -0.11999
# Poissons Ratio (y) = -0.14987 -0.26992
# Poissons Ratio (z) = -0.10979 -0.16613
#
# Static dielectric constant tensor:
#      x y z
#    x 1.995470 0.000000 0.000000 
#    y 0.000000 2.000310 0.000000 
#    z 0.000000 0.000000 1.870410 
# 
# From -- ./inp_files/191.got.cif
#   From: 2010.05.17/outbox.cif.g08.bks.cpg/sg26_1_cif.got.tgz:191.got - 2010.06.04 01:07:29.
