data_PCOD9338768
_publ_section_title
;
Structure prediction by ZEFSAII (Michael W. Deem and Ramdas Pophale) SiO2 
 PCOD9338768
Probable space group: P C C 2
;
_chemical_formula_sum "Si O2"
_cell_formula_units_Z 22
_cell_length_a 9.358592
_cell_length_b 9.895620
_cell_length_c 11.751381
_cell_angle_alpha 90.000000
_cell_angle_beta 90.000000
_cell_angle_gamma 90.000000
_cell_volume 1088.284468
_symmetry_space_group_name_H-M "P C C 2"
_symmetry_group_IT_number 27
_symmetry_cell_setting 'orthorhombic'
loop_
_space_group_symop_operation_xyz
x,y,z
-x,-y,z
-x,y,1/2+z
x,-y,1/2+z
loop_
_atom_site_type_symbol
_atom_site_label
_atom_site_fract_x
_atom_site_fract_y
_atom_site_fract_z
Si Si1 0.705401 0.757477 0.115010
Si Si2 0.308107 0.109485 0.824310
Si Si3 0.958414 0.150225 0.459114
Si Si4 0.731064 0.802197 0.383050
Si Si5 0.500000 0.000000 0.629091
Si Si6 0.472161 0.646177 0.443752
O O1 0.718850 0.759210 0.250419
O O2 0.600735 0.882953 0.079123
O O3 0.856603 0.780891 0.052540
O O4 0.622081 0.633178 0.058096
O O5 0.140351 0.136141 0.845689
O O6 0.382322 0.079923 0.704710
O O7 0.386015 0.244626 0.868118
O O8 0.320605 0.959641 0.883620
O O9 0.108486 0.214250 0.426369
O O10 0.000000 0.000000 0.500029
O O11 0.625373 0.714931 0.458607
O O12 0.500000 0.500000 0.391443
#
# Coordination Sequence:
#
# PCOD9338768 Si02
#       6
#     4   4   4   4   2   4
#     4  10  22  35  58  90 117 151 204 238 301 362
#     4   9  17  37  57  88 113 151 194 239 298 352
#     4   9  20  32  58  88 122 149 191 245 305 359
#     4  10  20  41  59  85 125 153 196 255 297 354
#     4  10  18  32  64  86 116 152 198 252 294 354
#     4  11  22  37  60  87 119 158 207 249 294 355
#
# _framework density 20.215301
#
# number of rings (size 3 to 8) (size 9 to 14) (size 15 to 20)
#    0.000    2.182    3.636    0.000    7.636    4.364 
#    0.000    3.636    0.000    4.364    0.000    0.000 
#    0.000    0.000    0.000    0.000    0.000    0.000 
#
# Total GULP energy -122475.594572 kJ/mol
# GULP energy per Si atom -5567.072481 kJ/mol
# Density = 2.016929 g / cm^3
# Si number density = 20.215301 Si / 1000 Ang^3
#
#
#
# Elastic Constant Matrix: (Units=GPa)
#
#
# Indices 1 2 3 4 5 6 
#
# 1 137.9593 37.8826 19.5966 0.0000 0.0000 0.0000
# 2 37.8826 74.8106 6.5455 0.0000 0.0000 0.0000
# 3 19.5966 6.5455 60.7111 0.0000 0.0000 0.0000
# 4 0.0000 0.0000 0.0000 11.1521 0.0000 0.0000
# 5 0.0000 0.0000 0.0000 0.0000 32.3982 0.0000
# 6 0.0000 0.0000 0.0000 0.0000 0.0000 13.0483
#
#
#
# Elastic Compliance Matrix: (Units=1/GPa)
#
#
# Indices 1 2 3 4 5 6 
#
# 1 0.008744 -0.004221 -0.002367 0.000000 0.000000 0.000000
# 2 -0.004221 0.015532 -0.000312 0.000000 0.000000 0.000000
# 3 -0.002367 -0.000312 0.017269 0.000000 0.000000 0.000000
# 4 0.000000 0.000000 0.000000 0.089669 0.000000 0.000000
# 5 0.000000 0.000000 0.000000 0.000000 0.030866 0.000000
# 6 0.000000 0.000000 0.000000 0.000000 0.000000 0.076638
#
#
# Mechanical properties :
#
#
# Convention : Reuss Voigt Hill
#
# Bulk Modulus (GPa) = 36.04319 44.61450 40.32884
# Shear Modulus (GPa) = 19.10102 25.28348 22.19225
#
# Velocity S-wave (km/s) = 3.07722 3.54037 3.31689
# Velocity P-wave (km/s) = 5.52215 6.23137 5.88745
#
# Compressibility (1/GPa) = 0.02774450
#
# Stress axis : x y z
#
# Youngs Moduli (GPa) = 114.36802 64.38494 57.90643
#
# Poissons Ratio (x) = 0.27174 0.13708
# Poissons Ratio (y) = 0.48269 0.01808
# Poissons Ratio (z) = 0.27074 0.02010
#
# Static dielectric constant tensor:
#      x y z
#    x 1.722370 0.000000 0.000000 
#    y 0.000000 1.809550 0.000000 
#    z 0.000000 0.000000 1.802530 
# 
# From -- ./inp_files/3269.got.cif
#   From: 2010.05.17/outbox.cif.g08.bks.cpg/sg27_2_cif.got.tgz:3269.got - 2010.06.04 01:11:05.
