data_PCOD9338481
_publ_section_title
;
Structure prediction by ZEFSAII (Michael W. Deem and Ramdas Pophale) SiO2 
 PCOD9338481
Probable space group: P M C 21
;
_chemical_formula_sum "Si O2"
_cell_formula_units_Z 32
_cell_length_a 11.106955
_cell_length_b 11.175035
_cell_length_c 13.771944
_cell_angle_alpha 90.000000
_cell_angle_beta 90.000000
_cell_angle_gamma 90.000000
_cell_volume 1709.382102
_symmetry_space_group_name_H-M "P M C 21"
_symmetry_group_IT_number 26
_symmetry_cell_setting 'orthorhombic'
loop_
_space_group_symop_operation_xyz
x,y,z
-x,-y,1/2+z
-x,y,z
x,-y,1/2+z
loop_
_atom_site_type_symbol
_atom_site_label
_atom_site_fract_x
_atom_site_fract_y
_atom_site_fract_z
Si Si1 0.249999 0.105784 0.649920
Si Si2 0.250000 0.476539 0.149920
Si Si3 0.140849 0.036702 0.325183
Si Si4 0.359280 0.677080 0.478520
Si Si5 0.862047 0.320814 0.532131
Si Si6 0.359151 0.963298 0.474657
Si Si7 0.637953 0.679186 0.267709
Si Si8 0.859280 0.322920 0.321320
O O1 0.182505 0.198072 0.578843
O O2 0.331612 0.026868 0.577931
O O3 0.317493 0.198073 0.720997
O O4 0.168387 0.026868 0.721909
O O5 0.154076 0.569709 0.105476
O O6 0.345926 0.569708 0.194365
O O7 0.205354 0.393548 0.236376
O O8 0.294646 0.393548 0.063464
O O9 0.250000 1.000000 0.399920
O O10 0.148190 0.179535 0.311229
O O11 0.000000 0.009480 0.355298
O O12 0.500000 0.642021 0.483602
O O13 0.304175 0.650383 0.371966
O O14 0.351810 0.820465 0.488612
O O15 0.804175 0.349617 0.427874
O O16 0.000000 0.301195 0.509833
O O17 0.500000 0.990520 0.444543
O O18 0.500000 0.698807 0.290007
O O19 0.000000 0.357979 0.316238
#
# Coordination Sequence:
#
# PCOD9338481 Si02
#       8
#     4   4   4   4   4   4   4   4
#     4  11  21  38  64  90 121 161 210 246 308 377
#     4  11  21  36  60  86 117 155 208 244 304 369
#     4  11  23  40  65  94 127 165 206 258 312 371
#     4  10  21  39  59  84 121 158 197 252 310 357
#     4  10  21  37  59  85 119 159 201 253 304 361
#     4  11  23  40  65  94 127 165 206 258 312 371
#     4  10  21  37  59  85 119 159 201 253 304 361
#     4  10  21  39  59  84 121 158 197 252 310 357
#
# _framework density 18.720215
#
# number of rings (size 3 to 8) (size 9 to 14) (size 15 to 20)
#    0.000    1.500    2.500    3.000    0.000    1.000 
#    0.000    2.500    0.000    0.000    0.000    0.000 
#    0.000    0.000    0.000    0.000    0.000    0.000 
#
# Total GULP energy -178305.774935 kJ/mol
# GULP energy per Si atom -5572.055467 kJ/mol
# Density = 1.867761 g / cm^3
# Si number density = 18.720215 Si / 1000 Ang^3
#
#
#
# Elastic Constant Matrix: (Units=GPa)
#
#
# Indices 1 2 3 4 5 6 
#
# 1 67.1565 12.1236 23.5811 0.0000 0.0000 0.0000
# 2 12.1236 60.7559 30.0554 0.0000 0.0000 0.0000
# 3 23.5811 30.0554 121.5857 0.0000 0.0000 0.0000
# 4 0.0000 0.0000 0.0000 43.8195 0.0000 0.0000
# 5 0.0000 0.0000 0.0000 0.0000 26.4399 0.0000
# 6 0.0000 0.0000 0.0000 0.0000 0.0000 -1.3633
#
#
#
# Elastic Compliance Matrix: (Units=1/GPa)
#
#
# Indices 1 2 3 4 5 6 
#
# 1 0.016171 -0.001909 -0.002664 0.000000 0.000000 0.000000
# 2 -0.001909 0.018978 -0.004321 0.000000 0.000000 0.000000
# 3 -0.002664 -0.004321 0.009810 0.000000 0.000000 0.000000
# 4 0.000000 0.000000 0.000000 0.022821 0.000000 0.000000
# 5 0.000000 0.000000 0.000000 0.000000 0.037822 0.000000
# 6 0.000000 0.000000 0.000000 0.000000 0.000000 -0.733507
#
#
# Mechanical properties :
#
#
# Convention : Reuss Voigt Hill
#
# Bulk Modulus (GPa) = 36.80574 42.33538 39.57056
# Shear Modulus (GPa) = -8.31862 26.02842 8.85490
#
# Velocity S-wave (km/s) = -2.11028 3.73284 2.17725
# Velocity P-wave (km/s) = 3.71024 6.42205 5.24445
#
# Compressibility (1/GPa) = 0.02716967
#
# Stress axis : x y z
#
# Youngs Moduli (GPa) = 61.84011 52.69320 101.94159
#
# Poissons Ratio (x) = 0.10058 0.27161
# Poissons Ratio (y) = 0.11804 0.44049
# Poissons Ratio (z) = 0.16477 0.22769
#
# Static dielectric constant tensor:
#      x y z
#    x 1.665630 0.000000 0.000000 
#    y 0.000000 1.611010 0.000000 
#    z 0.000000 0.000000 1.768320 
# 
# From -- ./inp_files/3379.got.cif
#   From: 2010.05.17/outbox.cif.g08.bks.cpg/sg26_2_cif.got.tgz:3379.got - 2010.06.04 01:07:29.
