data_PCOD9338230
_publ_section_title
;
Structure prediction by ZEFSAII (Michael W. Deem and Ramdas Pophale) SiO2 
 PCOD9338230
Probable space group: P M C 21
;
_chemical_formula_sum "Si O2"
_cell_formula_units_Z 32
_cell_length_a 8.361712
_cell_length_b 12.518443
_cell_length_c 15.644594
_cell_angle_alpha 90.000000
_cell_angle_beta 90.000000
_cell_angle_gamma 90.000000
_cell_volume 1637.607499
_symmetry_space_group_name_H-M "P M C 21"
_symmetry_group_IT_number 26
_symmetry_cell_setting 'orthorhombic'
loop_
_space_group_symop_operation_xyz
x,y,z
-x,-y,1/2+z
-x,y,z
x,-y,1/2+z
loop_
_atom_site_type_symbol
_atom_site_label
_atom_site_fract_x
_atom_site_fract_y
_atom_site_fract_z
Si Si1 0.193236 0.474032 0.868630
Si Si2 0.814818 0.248408 0.132161
Si Si3 0.307055 0.875036 0.014837
Si Si4 0.691242 0.370852 0.517363
Si Si5 0.193989 0.516937 0.673532
Si Si6 0.185151 0.758987 0.428134
Si Si7 0.189898 0.982700 0.672470
Si Si8 0.687677 0.023991 0.858753
O O1 0.239699 0.488410 0.770126
O O2 0.244838 0.356375 0.898335
O O3 0.000000 0.476935 0.873852
O O4 0.255335 0.563827 0.933433
O O5 0.744489 0.362869 0.156364
O O6 0.741736 0.137874 0.164530
O O7 0.000000 0.250779 0.162972
O O8 0.816176 0.241215 0.030221
O O9 0.500000 0.873862 0.011612
O O10 0.249953 0.752132 0.016446
O O11 0.258724 0.939515 0.099898
O O12 0.251880 0.940057 0.930509
O O13 0.500000 0.367953 0.518739
O O14 0.748177 0.435250 0.601168
O O15 0.000000 0.517751 0.667732
O O16 0.286270 0.857945 0.395625
O O17 0.000000 0.772145 0.398998
O O18 0.000000 0.977756 0.656844
O O19 0.224305 0.018483 0.768452
O O20 0.500000 0.003831 0.844574
#
# Coordination Sequence:
#
# PCOD9338230 Si02
#       8
#     4   4   4   4   4   4   4   4
#     4  10  22  39  64  91 120 157 197 245 300 355
#     4   9  18  36  61  87 118 148 191 252 297 341
#     4  10  24  44  60  83 124 166 201 242 296 358
#     4  11  24  41  60  86 123 161 201 246 293 354
#     4  10  21  40  63  90 120 156 199 244 299 355
#     4  10  19  38  62  88 119 152 200 253 294 346
#     4  11  23  39  63  92 118 153 202 253 298 350
#     4  11  24  41  61  87 122 161 197 243 303 363
#
# _framework density 19.540702
#
# number of rings (size 3 to 8) (size 9 to 14) (size 15 to 20)
#    0.000    1.750    2.500    1.125    3.500    2.500 
#    0.000    1.250    0.000    0.000    0.000    0.000 
#    0.000    0.000    0.000    0.000    0.000    0.000 
#
# Total GULP energy -178660.133461 kJ/mol
# GULP energy per Si atom -5583.129171 kJ/mol
# Density = 1.949623 g / cm^3
# Si number density = 19.540702 Si / 1000 Ang^3
#
#
#
# Elastic Constant Matrix: (Units=GPa)
#
#
# Indices 1 2 3 4 5 6 
#
# 1 13.4330 10.4000 8.4481 0.0000 0.0000 0.0000
# 2 10.4000 120.3899 22.8995 0.0000 0.0000 0.0000
# 3 8.4481 22.8995 80.4580 0.0000 0.0000 0.0000
# 4 0.0000 0.0000 0.0000 34.6907 0.0000 0.0000
# 5 0.0000 0.0000 0.0000 0.0000 17.8462 0.0000
# 6 0.0000 0.0000 0.0000 0.0000 0.0000 25.8650
#
#
#
# Elastic Compliance Matrix: (Units=1/GPa)
#
#
# Indices 1 2 3 4 5 6 
#
# 1 0.083441 -0.005859 -0.007094 0.000000 0.000000 0.000000
# 2 -0.005859 0.009193 -0.002001 0.000000 0.000000 0.000000
# 3 -0.007094 -0.002001 0.013743 0.000000 0.000000 0.000000
# 4 0.000000 0.000000 0.000000 0.028826 0.000000 0.000000
# 5 0.000000 0.000000 0.000000 0.000000 0.056034 0.000000
# 6 0.000000 0.000000 0.000000 0.000000 0.000000 0.038662
#
#
# Mechanical properties :
#
#
# Convention : Reuss Voigt Hill
#
# Bulk Modulus (GPa) = 13.07714 33.08623 23.08169
# Shear Modulus (GPa) = 17.52556 27.18259 22.35408
#
# Velocity S-wave (km/s) = 2.99804 3.73376 3.38594
# Velocity P-wave (km/s) = 4.32332 5.96294 5.20806
#
# Compressibility (1/GPa) = 0.07646933
#
# Stress axis : x y z
#
# Youngs Moduli (GPa) = 11.98456 108.77678 72.76274
#
# Poissons Ratio (x) = 0.63730 0.51616
# Poissons Ratio (y) = 0.07022 0.14562
# Poissons Ratio (z) = 0.08502 0.21770
#
# Static dielectric constant tensor:
#      x y z
#    x 1.688050 0.000000 0.000000 
#    y 0.000000 1.636230 0.000000 
#    z 0.000000 0.000000 1.643600 
# 
# From -- ./inp_files/4082.got.cif
#   From: 2010.05.17/outbox.cif.g08.bks.cpg/sg26_3_cif.got.tgz:4082.got - 2010.06.04 01:07:29.
