data_PCOD9338916
_publ_section_title
;
Structure prediction by ZEFSAII (Michael W. Deem and Ramdas Pophale) SiO2 
 PCOD9338916
Probable space group: P C C 2
;
_chemical_formula_sum "Si O2"
_cell_formula_units_Z 32
_cell_length_a 11.241454
_cell_length_b 14.821720
_cell_length_c 9.482955
_cell_angle_alpha 90.000000
_cell_angle_beta 90.000000
_cell_angle_gamma 90.000000
_cell_volume 1580.027996
_symmetry_space_group_name_H-M "P C C 2"
_symmetry_group_IT_number 27
_symmetry_cell_setting 'orthorhombic'
loop_
_space_group_symop_operation_xyz
x,y,z
-x,-y,z
-x,y,1/2+z
x,-y,1/2+z
loop_
_atom_site_type_symbol
_atom_site_label
_atom_site_fract_x
_atom_site_fract_y
_atom_site_fract_z
Si Si1 0.216884 0.121761 0.296850
Si Si2 0.626709 0.295979 0.723387
Si Si3 0.146926 0.411059 0.203746
Si Si4 0.803639 0.434998 0.008031
Si Si5 0.054002 0.176794 0.855283
Si Si6 0.958263 0.716906 0.608168
Si Si7 0.858761 0.014325 0.525990
Si Si8 0.453298 0.603500 0.009734
O O1 0.321503 0.196021 0.268357
O O2 0.208406 0.056032 0.160278
O O3 0.083703 0.164545 0.307029
O O4 0.211610 0.066346 0.445986
O O5 0.746363 0.343945 0.668778
O O6 0.577737 0.345777 0.863644
O O7 0.531089 0.327418 0.604145
O O8 0.190422 0.459332 0.344850
O O9 0.028055 0.352814 0.208297
O O10 0.132347 0.485711 0.087286
O O11 0.675447 0.418693 0.075247
O O12 0.868314 0.339904 0.016112
O O13 0.109792 0.217911 0.714927
O O14 0.120319 0.087182 0.901789
O O15 0.045652 0.234981 0.998033
O O16 0.000000 0.000000 0.568944
O O17 0.500000 0.500000 0.987147
#
# Coordination Sequence:
#
# PCOD9338916 Si02
#       8
#     4   4   4   4   4   4   4   4
#     4  11  22  42  64  98 131 166 217 267 327 393
#     4  11  23  44  67  95 126 164 222 278 323 376
#     4  11  23  40  58  88 134 176 211 266 318 384
#     4  11  25  38  59  91 129 178 221 261 323 378
#     4  11  20  36  60  92 133 169 209 253 317 392
#     4  12  22  38  57  93 138 173 208 261 322 394
#     4  10  21  37  65  97 132 173 206 261 325 402
#     4  11  23  44  69  94 124 168 224 275 314 372
#
# _framework density 20.252804999999999
#
# number of rings (size 3 to 8) (size 9 to 14) (size 15 to 20)
#    0.000    1.000    5.000    2.625    5.250    1.000 
#    2.250    0.000    0.000    2.250    0.000    0.000 
#    0.000    0.000    0.000    0.000    0.000    0.000 
#
# Total GULP energy -178187.499572 kJ/mol
# GULP energy per Si atom -5568.359362 kJ/mol
# Density = 2.020671 g / cm^3
# Si number density = 20.252805 Si / 1000 Ang^3
#
#
#
# Elastic Constant Matrix: (Units=GPa)
#
#
# Indices 1 2 3 4 5 6 
#
# 1 65.2905 28.7735 18.0338 0.0000 0.0000 0.0000
# 2 28.7735 99.1365 43.5178 0.0000 0.0000 0.0000
# 3 18.0338 43.5178 92.9487 0.0000 0.0000 0.0000
# 4 0.0000 0.0000 0.0000 33.8977 0.0000 0.0000
# 5 0.0000 0.0000 0.0000 0.0000 25.7450 0.0000
# 6 0.0000 0.0000 0.0000 0.0000 0.0000 25.2059
#
#
#
# Elastic Compliance Matrix: (Units=1/GPa)
#
#
# Indices 1 2 3 4 5 6 
#
# 1 0.017685 -0.004565 -0.001294 0.000000 0.000000 0.000000
# 2 -0.004565 0.013875 -0.005610 0.000000 0.000000 0.000000
# 3 -0.001294 -0.005610 0.013636 0.000000 0.000000 0.000000
# 4 0.000000 0.000000 0.000000 0.029500 0.000000 0.000000
# 5 0.000000 0.000000 0.000000 0.000000 0.038843 0.000000
# 6 0.000000 0.000000 0.000000 0.000000 0.000000 0.039673
#
#
# Mechanical properties :
#
#
# Convention : Reuss Voigt Hill
#
# Bulk Modulus (GPa) = 44.92796 48.66954 46.79875
# Shear Modulus (GPa) = 27.23744 28.10644 27.67194
#
# Velocity S-wave (km/s) = 3.67123 3.72933 3.70040
# Velocity P-wave (km/s) = 6.34053 6.52894 6.43542
#
# Compressibility (1/GPa) = 0.02225785
#
# Stress axis : x y z
#
# Youngs Moduli (GPa) = 56.54397 72.07291 73.33299
#
# Poissons Ratio (x) = 0.32901 0.09489
# Poissons Ratio (y) = 0.25812 0.41143
# Poissons Ratio (z) = 0.07317 0.40436
#
# Static dielectric constant tensor:
#      x y z
#    x 1.728330 0.000000 0.000000 
#    y 0.000000 1.819940 0.000000 
#    z 0.000000 0.000000 1.765670 
# 
# From -- ./inp_files/1477.got.cif
#   From: 2010.05.17/outbox.cif.g08.bks.cpg/sg27_1_cif.got.tgz:1477.got - 2010.06.04 01:11:05.
