data_PCOD9338075
_publ_section_title
;
Structure prediction by ZEFSAII (Michael W. Deem and Ramdas Pophale) SiO2 
 PCOD9338075
Probable space group: P M C 21
;
_chemical_formula_sum "Si O2"
_cell_formula_units_Z 32
_cell_length_a 9.053011
_cell_length_b 10.961246
_cell_length_c 14.237050
_cell_angle_alpha 90.000000
_cell_angle_beta 90.000000
_cell_angle_gamma 90.000000
_cell_volume 1412.774941
_symmetry_space_group_name_H-M "P M C 21"
_symmetry_group_IT_number 26
_symmetry_cell_setting 'orthorhombic'
loop_
_space_group_symop_operation_xyz
x,y,z
-x,-y,1/2+z
-x,y,z
x,-y,1/2+z
loop_
_atom_site_type_symbol
_atom_site_label
_atom_site_fract_x
_atom_site_fract_y
_atom_site_fract_z
Si Si1 0.330715 0.064327 0.734050
Si Si2 0.170152 0.342916 0.183389
Si Si3 0.826854 0.304863 0.728426
Si Si4 0.673138 0.195699 0.337613
Si Si5 0.324259 0.437676 0.573650
Si Si6 0.674797 0.577204 0.394345
Si Si7 0.830511 0.797304 0.496593
Si Si8 0.673244 0.954524 0.009567
O O1 0.500000 0.102653 0.753744
O O2 0.223986 0.172802 0.764969
O O3 0.314104 0.055042 0.621489
O O4 0.308648 0.934176 0.783137
O O5 0.232491 0.294010 0.281259
O O6 0.270057 0.444517 0.132944
O O7 0.171981 0.231562 0.108125
O O8 0.000000 0.384941 0.190054
O O9 0.754443 0.328306 0.627161
O O10 0.763872 0.407328 0.798818
O O11 0.000000 0.311903 0.722305
O O12 0.500000 0.230655 0.331821
O O13 0.708989 0.162621 0.445363
O O14 0.500000 0.423443 0.579815
O O15 0.286764 0.467537 0.465515
O O16 0.500000 0.574013 0.376166
O O17 0.721214 0.699179 0.450756
O O18 0.000000 0.776857 0.464647
O O19 0.774307 0.932734 0.479328
O O20 0.500000 0.981964 0.989193
#
# Coordination Sequence:
#
# PCOD9338075 Si02
#       8
#     4   4   4   4   4   4   4   4
#     4  10  21  38  59  85 122 163 206 250 294 357
#     4  10  20  35  57  85 117 150 189 241 300 353
#     4  12  25  41  63  91 125 160 200 253 311 364
#     4  10  20  35  57  85 116 155 200 245 293 352
#     4  10  22  42  67  90 116 155 203 250 297 358
#     4  10  21  39  65  92 117 156 207 252 297 359
#     4  10  19  32  55  86 119 153 193 247 299 351
#     4  10  20  34  55  84 116 158 204 244 291 354
#
# _framework density 22.650458
#
# number of rings (size 3 to 8) (size 9 to 14) (size 15 to 20)
#    0.000    1.750    1.250    3.375    0.000    5.000 
#    2.250    0.000    0.000    0.000    0.000    0.000 
#    0.000    0.000    0.000    0.000    0.000    0.000 
#
# Total GULP energy -178998.590274 kJ/mol
# GULP energy per Si atom -5593.705946 kJ/mol
# Density = 2.259891 g / cm^3
# Si number density = 22.650458 Si / 1000 Ang^3
#
#
#
# Elastic Constant Matrix: (Units=GPa)
#
#
# Indices 1 2 3 4 5 6 
#
# 1 75.8541 23.3022 35.6604 0.0000 0.0000 0.0000
# 2 23.3022 49.9863 6.8026 0.0000 0.0000 0.0000
# 3 35.6604 6.8026 116.4959 0.0000 0.0000 0.0000
# 4 0.0000 0.0000 0.0000 38.0333 0.0000 0.0000
# 5 0.0000 0.0000 0.0000 0.0000 22.2482 0.0000
# 6 0.0000 0.0000 0.0000 0.0000 0.0000 0.6378
#
#
#
# Elastic Compliance Matrix: (Units=1/GPa)
#
#
# Indices 1 2 3 4 5 6 
#
# 1 0.017903 -0.007661 -0.005033 0.000000 0.000000 0.000000
# 2 -0.007661 0.023444 0.000976 0.000000 0.000000 0.000000
# 3 -0.005033 0.000976 0.010068 0.000000 0.000000 0.000000
# 4 0.000000 0.000000 0.000000 0.026293 0.000000 0.000000
# 5 0.000000 0.000000 0.000000 0.000000 0.044947 0.000000
# 6 0.000000 0.000000 0.000000 0.000000 0.000000 1.567988
#
#
# Mechanical properties :
#
#
# Convention : Reuss Voigt Hill
#
# Bulk Modulus (GPa) = 35.74105 41.54073 38.64089
# Shear Modulus (GPa) = 2.90124 23.95527 13.42825
#
# Velocity S-wave (km/s) = 1.13298 3.25561 2.43749
# Velocity P-wave (km/s) = 4.18631 5.70191 5.00185
#
# Compressibility (1/GPa) = 0.02797903
#
# Stress axis : x y z
#
# Youngs Moduli (GPa) = 55.85789 42.65506 99.32874
#
# Poissons Ratio (x) = 0.32677 0.49990
# Poissons Ratio (y) = 0.42791 -0.09695
# Poissons Ratio (z) = 0.28112 -0.04163
#
# Static dielectric constant tensor:
#      x y z
#    x 1.767300 0.000000 0.000000 
#    y 0.000000 1.863650 0.000000 
#    z 0.000000 0.000000 1.891490 
# 
# From -- ./inp_files/4135.got.cif
#   From: 2010.05.17/outbox.cif.g08.bks.cpg/sg26_3_cif.got.tgz:4135.got - 2010.06.04 01:07:29.
