data_PCOD9338068
_publ_section_title
;
Structure prediction by ZEFSAII (Michael W. Deem and Ramdas Pophale) SiO2 
 PCOD9338068
Probable space group: P M C 21
;
_chemical_formula_sum "Si O2"
_cell_formula_units_Z 32
_cell_length_a 7.903158
_cell_length_b 10.950464
_cell_length_c 14.462770
_cell_angle_alpha 90.000000
_cell_angle_beta 90.000000
_cell_angle_gamma 90.000000
_cell_volume 1251.655079
_symmetry_space_group_name_H-M "P M C 21"
_symmetry_group_IT_number 26
_symmetry_cell_setting 'orthorhombic'
loop_
_space_group_symop_operation_xyz
x,y,z
-x,-y,1/2+z
-x,y,z
x,-y,1/2+z
loop_
_atom_site_type_symbol
_atom_site_label
_atom_site_fract_x
_atom_site_fract_y
_atom_site_fract_z
Si Si1 0.701134 0.702117 0.984680
Si Si2 0.306972 0.528102 0.251900
Si Si3 0.805562 0.699915 0.639775
Si Si4 0.804053 0.079551 0.921107
Si Si5 0.802374 0.943239 0.090149
Si Si6 0.793289 0.792167 0.250712
Si Si7 0.695066 0.851635 0.807441
Si Si8 0.199089 0.564125 0.462720
O O1 0.500000 0.703294 0.004137
O O2 0.721911 0.735723 0.875893
O O3 0.776562 0.570676 0.005847
O O4 0.789448 0.813765 0.036711
O O5 0.500000 0.492914 0.235217
O O6 0.201647 0.422998 0.202218
O O7 0.269244 0.663264 0.213935
O O8 0.277935 0.547050 0.361435
O O9 0.729816 0.806602 0.703790
O O10 0.734671 0.660689 0.539156
O O11 0.000000 0.732781 0.625327
O O12 0.800252 0.959900 0.854683
O O13 0.000000 0.108788 0.938556
O O14 0.733759 0.184421 0.855496
O O15 0.725485 0.040217 0.018637
O O16 0.728814 0.904684 0.188358
O O17 0.000000 0.973045 0.103703
O O18 0.000000 0.791663 0.249777
O O19 0.500000 0.887624 0.817472
O O20 0.000000 0.588367 0.448755
#
# Coordination Sequence:
#
# PCOD9338068 Si02
#       8
#     4   4   4   4   4   4   4   4
#     4  10  19  32  54  84 115 149 188 238 292 345
#     4  12  25  40  60  88 124 161 196 244 303 361
#     4  11  23  39  61  88 118 156 201 244 292 354
#     4   9  19  37  60  84 113 151 198 251 295 343
#     4   9  18  34  58  85 111 150 199 246 295 345
#     4  10  21  39  60  84 117 156 202 249 294 352
#     4  10  20  35  57  84 115 148 187 239 296 348
#     4  11  23  38  58  85 117 157 199 241 291 354
#
# _framework density 25.566147999999998
#
# number of rings (size 3 to 8) (size 9 to 14) (size 15 to 20)
#    0.000    1.750    1.250    3.375    0.000    7.000 
#    2.250    0.000    0.000    0.000    0.000    0.000 
#    0.000    0.000    0.000    0.000    0.000    0.000 
#
# Total GULP energy -178998.893972 kJ/mol
# GULP energy per Si atom -5593.715437 kJ/mol
# Density = 2.550796 g / cm^3
# Si number density = 25.566148 Si / 1000 Ang^3
#
#
#
# Elastic Constant Matrix: (Units=GPa)
#
#
# Indices 1 2 3 4 5 6 
#
# 1 59.0700 3.3016 3.0116 0.0000 0.0000 0.0000
# 2 3.3016 106.4470 23.4029 0.0000 0.0000 0.0000
# 3 3.0116 23.4029 147.1870 0.0000 0.0000 0.0000
# 4 0.0000 0.0000 0.0000 56.7754 0.0000 0.0000
# 5 0.0000 0.0000 0.0000 0.0000 1.0201 0.0000
# 6 0.0000 0.0000 0.0000 0.0000 0.0000 10.1580
#
#
#
# Elastic Compliance Matrix: (Units=1/GPa)
#
#
# Indices 1 2 3 4 5 6 
#
# 1 0.016969 -0.000466 -0.000273 0.000000 0.000000 0.000000
# 2 -0.000466 0.009747 -0.001540 0.000000 0.000000 0.000000
# 3 -0.000273 -0.001540 0.007045 0.000000 0.000000 0.000000
# 4 0.000000 0.000000 0.000000 0.017613 0.000000 0.000000
# 5 0.000000 0.000000 0.000000 0.000000 0.980327 0.000000
# 6 0.000000 0.000000 0.000000 0.000000 0.000000 0.098444
#
#
# Mechanical properties :
#
#
# Convention : Reuss Voigt Hill
#
# Bulk Modulus (GPa) = 34.24451 41.34845 37.79648
# Shear Modulus (GPa) = 4.36895 32.45658 18.41277
#
# Velocity S-wave (km/s) = 1.30866 3.56689 2.68657
# Velocity P-wave (km/s) = 3.96321 5.75950 4.94362
#
# Compressibility (1/GPa) = 0.02920176
#
# Stress axis : x y z
#
# Youngs Moduli (GPa) = 58.93086 102.59092 141.95322
#
# Poissons Ratio (x) = 0.04784 0.03876
# Poissons Ratio (y) = 0.02748 0.21865
# Poissons Ratio (z) = 0.01609 0.15802
#
# Static dielectric constant tensor:
#      x y z
#    x 1.923320 0.000000 0.000000 
#    y 0.000000 2.029610 0.000000 
#    z 0.000000 0.000000 2.093790 
# 
# From -- ./inp_files/4136.got.cif
#   From: 2010.05.17/outbox.cif.g08.bks.cpg/sg26_3_cif.got.tgz:4136.got - 2010.06.04 01:07:29.
