data_PCOD9338780
_publ_section_title
;
Structure prediction by ZEFSAII (Michael W. Deem and Ramdas Pophale) SiO2 
 PCOD9338780
Probable space group: P C C 2
;
_chemical_formula_sum "Si O2"
_cell_formula_units_Z 20
_cell_length_a 9.292674
_cell_length_b 15.693852
_cell_length_c 5.565989
_cell_angle_alpha 90.000000
_cell_angle_beta 90.000000
_cell_angle_gamma 90.000000
_cell_volume 811.731871
_symmetry_space_group_name_H-M "P C C 2"
_symmetry_group_IT_number 27
_symmetry_cell_setting 'orthorhombic'
loop_
_space_group_symop_operation_xyz
x,y,z
-x,-y,z
-x,y,1/2+z
x,-y,1/2+z
loop_
_atom_site_type_symbol
_atom_site_label
_atom_site_fract_x
_atom_site_fract_y
_atom_site_fract_z
Si Si1 0.164817 0.467394 0.184570
Si Si2 0.260411 0.718628 0.792698
Si Si3 0.337581 0.033373 0.658405
Si Si4 0.703938 0.227704 0.291369
Si Si5 0.989145 0.853809 0.333204
O O1 0.229917 0.511511 0.423023
O O2 0.175007 0.367217 0.233413
O O3 0.000000 0.500000 0.168302
O O4 0.349642 0.740986 0.551891
O O5 0.154569 0.798752 0.825256
O O6 0.324933 0.712997 0.061168
O O7 0.346304 0.132550 0.725997
O O8 0.500000 0.000000 0.632509
O O9 0.272837 0.013350 0.394372
O O10 0.877304 0.213959 0.327124
O O11 0.998527 0.901368 0.583318
#
# Coordination Sequence:
#
# PCOD9338780 Si02
#       5
#     4   4   4   4   4
#     4  10  21  27  43  67 106 149 196 223 264 279
#     4  10  19  31  47  71 106 148 196 214 245 313
#     4  10  21  38  59  81 104 129 161 223 305 341
#     4  10  19  31  53  72  98 140 182 218 271 315
#     4   8  16  25  44  61  94 128 183 206 240 275
#
# _framework density 24.638677999999999
#
# number of rings (size 3 to 8) (size 9 to 14) (size 15 to 20)
#    0.000    2.400    0.000    2.400   16.800    0.000 
#    0.000    0.000    0.000   32.400    0.000    0.000 
#    0.000    0.000    0.000  252.000    0.000    0.000 
#
# Total GULP energy -111634.958018 kJ/mol
# GULP energy per Si atom -5581.747901 kJ/mol
# Density = 2.458260 g / cm^3
# Si number density = 24.638678 Si / 1000 Ang^3
#
#
#
# Elastic Constant Matrix: (Units=GPa)
#
#
# Indices 1 2 3 4 5 6 
#
# 1 57.8318 -1.0868 -3.2683 0.0000 0.0000 0.0000
# 2 -1.0868 99.8308 13.6370 0.0000 0.0000 0.0000
# 3 -3.2683 13.6370 289.5202 0.0000 0.0000 0.0000
# 4 0.0000 0.0000 0.0000 35.0479 0.0000 0.0000
# 5 0.0000 0.0000 0.0000 0.0000 -9.3431 0.0000
# 6 0.0000 0.0000 0.0000 0.0000 0.0000 15.1510
#
#
#
# Elastic Compliance Matrix: (Units=1/GPa)
#
#
# Indices 1 2 3 4 5 6 
#
# 1 0.017305 0.000163 0.000188 0.000000 0.000000 0.000000
# 2 0.000163 0.010083 -0.000473 0.000000 0.000000 0.000000
# 3 0.000188 -0.000473 0.003478 0.000000 0.000000 0.000000
# 4 0.000000 0.000000 0.000000 0.028532 0.000000 0.000000
# 5 0.000000 0.000000 0.000000 0.000000 -0.107031 0.000000
# 6 0.000000 0.000000 0.000000 0.000000 0.000000 0.066002
#
#
# Mechanical properties :
#
#
# Convention : Reuss Voigt Hill
#
# Bulk Modulus (GPa) = 32.65669 51.74962 42.20316
# Shear Modulus (GPa) = 173.46808 37.36454 105.41631
#
# Velocity S-wave (km/s) = 8.39986 3.89845 6.54811
# Velocity P-wave (km/s) = 10.36146 6.42751 8.62185
#
# Compressibility (1/GPa) = 0.03062160
#
# Stress axis : x y z
#
# Youngs Moduli (GPa) = 57.78612 99.17343 287.48905
#
# Poissons Ratio (x) = -0.01614 -0.05396
# Poissons Ratio (y) = -0.00940 0.13601
# Poissons Ratio (z) = -0.01085 0.04692
#
# Static dielectric constant tensor:
#      x y z
#    x 2.097050 0.000000 0.000000 
#    y 0.000000 1.867430 0.000000 
#    z 0.000000 0.000000 2.132320 
# 
# From -- ./inp_files/276.got.cif
#   From: 2010.05.17/outbox.cif.g08.bks.cpg/sg27_1_cif.got.tgz:276.got - 2010.06.04 01:11:05.
