data_PCOD9338163
_publ_section_title
;
Structure prediction by ZEFSAII (Michael W. Deem and Ramdas Pophale) SiO2 
 PCOD9338163
Probable space group: P M C 21
;
_chemical_formula_sum "Si O2"
_cell_formula_units_Z 32
_cell_length_a 8.847320
_cell_length_b 14.938848
_cell_length_c 12.398171
_cell_angle_alpha 90.000000
_cell_angle_beta 90.000000
_cell_angle_gamma 90.000000
_cell_volume 1638.650995
_symmetry_space_group_name_H-M "P M C 21"
_symmetry_group_IT_number 26
_symmetry_cell_setting 'orthorhombic'
loop_
_space_group_symop_operation_xyz
x,y,z
-x,-y,1/2+z
-x,y,z
x,-y,1/2+z
loop_
_atom_site_type_symbol
_atom_site_label
_atom_site_fract_x
_atom_site_fract_y
_atom_site_fract_z
Si Si1 0.820747 0.051570 0.009750
Si Si2 0.681605 0.272527 0.618679
Si Si3 0.680669 0.166565 0.205242
Si Si4 0.681960 0.130478 0.449341
Si Si5 0.170039 0.330339 0.928800
Si Si6 0.824263 0.359167 0.177856
Si Si7 0.822493 0.554712 0.219039
Si Si8 0.323819 0.831393 0.333690
O O1 0.754952 0.111889 0.106992
O O2 0.000000 0.052774 0.016389
O O3 0.766899 0.091842 0.894656
O O4 0.756473 0.951487 0.012417
O O5 0.500000 0.280126 0.624202
O O6 0.723771 0.223817 0.507638
O O7 0.749288 0.369992 0.642543
O O8 0.726608 0.204867 0.716607
O O9 0.500000 0.161506 0.193527
O O10 0.722984 0.128976 0.323337
O O11 0.733992 0.269595 0.204644
O O12 0.500000 0.121919 0.457169
O O13 0.189655 0.405404 0.838883
O O14 0.294757 0.255157 0.908889
O O15 0.000000 0.290438 0.913003
O O16 0.176169 0.366429 0.048401
O O17 0.761207 0.453998 0.217889
O O18 0.000000 0.348293 0.212972
O O19 0.000000 0.548429 0.190538
O O20 0.500000 0.855737 0.328401
#
# Coordination Sequence:
#
# PCOD9338163 Si02
#       8
#     4   4   4   4   4   4   4   4
#     4  12  25  40  61  90 121 154 197 248 303 364
#     4   9  20  39  61  86 118 155 200 250 299 352
#     4  11  24  42  64  89 121 159 204 251 302 362
#     4  10  24  44  63  87 122 163 202 248 306 362
#     4   9  17  32  52  78 113 154 197 245 298 349
#     4  10  20  35  57  85 120 160 201 250 303 356
#     4   9  19  34  55  85 120 160 205 248 300 359
#     4  10  19  34  59  86 111 147 196 246 297 350
#
# _framework density 19.528257
#
# number of rings (size 3 to 8) (size 9 to 14) (size 15 to 20)
#    0.000    2.000    1.250    1.875    1.750    3.500 
#    0.000    1.250    0.000    0.000    0.000    0.000 
#    0.000    0.000    0.000    0.000    0.000    0.000 
#
# Total GULP energy -178573.888813 kJ/mol
# GULP energy per Si atom -5580.434025 kJ/mol
# Density = 1.948381 g / cm^3
# Si number density = 19.528257 Si / 1000 Ang^3
#
#
#
# Elastic Constant Matrix: (Units=GPa)
#
#
# Indices 1 2 3 4 5 6 
#
# 1 38.6717 29.2313 25.2581 0.0000 0.0000 0.0000
# 2 29.2313 115.2011 29.4078 0.0000 0.0000 0.0000
# 3 25.2581 29.4078 55.9681 0.0000 0.0000 0.0000
# 4 0.0000 0.0000 0.0000 13.2268 0.0000 0.0000
# 5 0.0000 0.0000 0.0000 0.0000 14.9311 0.0000
# 6 0.0000 0.0000 0.0000 0.0000 0.0000 34.1746
#
#
#
# Elastic Compliance Matrix: (Units=1/GPa)
#
#
# Indices 1 2 3 4 5 6 
#
# 1 0.040454 -0.006473 -0.014856 0.000000 0.000000 0.000000
# 2 -0.006473 0.011061 -0.002891 0.000000 0.000000 0.000000
# 3 -0.014856 -0.002891 0.026091 0.000000 0.000000 0.000000
# 4 0.000000 0.000000 0.000000 0.075604 0.000000 0.000000
# 5 0.000000 0.000000 0.000000 0.000000 0.066974 0.000000
# 6 0.000000 0.000000 0.000000 0.000000 0.000000 0.029262
#
#
# Mechanical properties :
#
#
# Convention : Reuss Voigt Hill
#
# Bulk Modulus (GPa) = 34.28500 41.95947 38.12224
# Shear Modulus (GPa) = 16.25457 20.86276 18.55866
#
# Velocity S-wave (km/s) = 2.88820 3.27209 3.08612
# Velocity P-wave (km/s) = 5.35882 5.98403 5.68003
#
# Compressibility (1/GPa) = 0.02916727
#
# Stress axis : x y z
#
# Youngs Moduli (GPa) = 24.71933 90.40978 38.32809
#
# Poissons Ratio (x) = 0.58519 0.56939
# Poissons Ratio (y) = 0.16000 0.11079
# Poissons Ratio (z) = 0.36723 0.26135
#
# Static dielectric constant tensor:
#      x y z
#    x 1.677190 0.000000 0.000000 
#    y 0.000000 1.682080 0.000000 
#    z 0.000000 0.000000 1.693280 
# 
# From -- ./inp_files/3106.got.cif
#   From: 2010.05.17/outbox.cif.g08.bks.cpg/sg26_2_cif.got.tgz:3106.got - 2010.06.04 01:07:29.
