data_PCOD9338320
_publ_section_title
;
Structure prediction by ZEFSAII (Michael W. Deem and Ramdas Pophale) SiO2 
 PCOD9338320
Probable space group: P M C 21
;
_chemical_formula_sum "Si O2"
_cell_formula_units_Z 32
_cell_length_a 9.225908
_cell_length_b 11.425466
_cell_length_c 15.922969
_cell_angle_alpha 90.000000
_cell_angle_beta 90.000000
_cell_angle_gamma 90.000000
_cell_volume 1678.444910
_symmetry_space_group_name_H-M "P M C 21"
_symmetry_group_IT_number 26
_symmetry_cell_setting 'orthorhombic'
loop_
_space_group_symop_operation_xyz
x,y,z
-x,-y,1/2+z
-x,y,z
x,-y,1/2+z
loop_
_atom_site_type_symbol
_atom_site_label
_atom_site_fract_x
_atom_site_fract_y
_atom_site_fract_z
Si Si1 0.670830 0.483172 0.072590
Si Si2 0.660623 0.789424 0.613884
Si Si3 0.326329 0.834174 0.277776
Si Si4 0.164558 0.833867 0.913962
Si Si5 0.175303 0.436111 0.402720
Si Si6 0.174888 0.588983 0.236394
Si Si7 0.163520 0.053379 0.228948
Si Si8 0.335907 0.952873 0.452201
O O1 0.500000 0.516416 0.071200
O O2 0.679092 0.344883 0.090263
O O3 0.754150 0.545193 0.149495
O O4 0.745213 0.508985 0.983164
O O5 0.500000 0.803501 0.653338
O O6 0.783577 0.839811 0.672860
O O7 0.664966 0.868302 0.531064
O O8 0.500000 0.818557 0.271845
O O9 0.242812 0.715524 0.256718
O O10 0.286028 0.876452 0.372212
O O11 0.270881 0.943218 0.222065
O O12 0.217498 0.701338 0.903143
O O13 0.165927 0.895531 0.823026
O O14 0.000000 0.826955 0.944872
O O15 0.251267 0.927313 0.968763
O O16 0.209904 0.501793 0.314927
O O17 0.000000 0.443619 0.412416
O O18 0.000000 0.594652 0.229017
O O19 0.000000 0.016649 0.208981
O O20 0.500000 0.988109 0.431213
#
# Coordination Sequence:
#
# PCOD9338320 Si02
#       8
#     4   4   4   4   4   4   4   4
#     4  11  24  40  60  87 118 155 200 248 297 355
#     4  10  21  37  55  79 112 146 184 231 284 340
#     4  10  20  37  59  83 113 148 188 234 287 345
#     4   9  19  36  56  80 110 143 183 229 280 338
#     4  10  22  40  61  85 118 158 197 244 297 350
#     4  11  23  40  62  87 118 157 199 245 297 351
#     4  10  20  35  57  84 112 145 186 232 283 340
#     4   9  19  35  56  81 109 142 181 229 279 333
#
# _framework density 19.065266000000001
#
# number of rings (size 3 to 8) (size 9 to 14) (size 15 to 20)
#    0.000    2.000    0.000    3.000    0.000    7.000 
#    0.000    2.500    0.000    0.000    0.000    0.000 
#    0.000    0.000    0.000    0.000    0.000    0.000 
#
# Total GULP energy -178536.186692 kJ/mol
# GULP energy per Si atom -5579.255834 kJ/mol
# Density = 1.902187 g / cm^3
# Si number density = 19.065266 Si / 1000 Ang^3
#
#
#
# Elastic Constant Matrix: (Units=GPa)
#
#
# Indices 1 2 3 4 5 6 
#
# 1 58.5060 31.0255 23.3420 0.0000 0.0000 0.0000
# 2 31.0255 83.0569 -11.1479 0.0000 0.0000 0.0000
# 3 23.3420 -11.1479 35.8915 0.0000 0.0000 0.0000
# 4 0.0000 0.0000 0.0000 26.5222 0.0000 0.0000
# 5 0.0000 0.0000 0.0000 0.0000 26.0926 0.0000
# 6 0.0000 0.0000 0.0000 0.0000 0.0000 33.3274
#
#
#
# Elastic Compliance Matrix: (Units=1/GPa)
#
#
# Indices 1 2 3 4 5 6 
#
# 1 0.040129 -0.019298 -0.032092 0.000000 0.000000 0.000000
# 2 -0.019298 0.021844 0.019335 0.000000 0.000000 0.000000
# 3 -0.032092 0.019335 0.054738 0.000000 0.000000 0.000000
# 4 0.000000 0.000000 0.000000 0.037704 0.000000 0.000000
# 5 0.000000 0.000000 0.000000 0.000000 0.038325 0.000000
# 6 0.000000 0.000000 0.000000 0.000000 0.000000 0.030005
#
#
# Mechanical properties :
#
#
# Convention : Reuss Voigt Hill
#
# Bulk Modulus (GPa) = 19.01078 29.32151 24.16614
# Shear Modulus (GPa) = 16.42634 26.13741 21.28187
#
# Velocity S-wave (km/s) = 2.93846 3.70664 3.34468
# Velocity P-wave (km/s) = 4.63743 5.80791 5.25536
#
# Compressibility (1/GPa) = 0.05260174
#
# Stress axis : x y z
#
# Youngs Moduli (GPa) = 24.91941 45.78004 18.26876
#
# Poissons Ratio (x) = 0.88344 0.58628
# Poissons Ratio (y) = 0.48088 -0.35322
# Poissons Ratio (z) = 0.79971 -0.88515
#
# Static dielectric constant tensor:
#      x y z
#    x 1.677070 0.000000 0.000000 
#    y 0.000000 1.640180 0.000000 
#    z 0.000000 0.000000 1.670170 
# 
# From -- ./inp_files/4239.got.cif
#   From: 2010.05.17/outbox.cif.g08.bks.cpg/sg26_3_cif.got.tgz:4239.got - 2010.06.04 01:07:29.
