data_PCOD9338439
_publ_section_title
;
Structure prediction by ZEFSAII (Michael W. Deem and Ramdas Pophale) SiO2 
 PCOD9338439
Probable space group: P M C 21
;
_chemical_formula_sum "Si O2"
_cell_formula_units_Z 32
_cell_length_a 7.528476
_cell_length_b 12.851186
_cell_length_c 14.204337
_cell_angle_alpha 90.000000
_cell_angle_beta 90.000000
_cell_angle_gamma 90.000000
_cell_volume 1374.267408
_symmetry_space_group_name_H-M "P M C 21"
_symmetry_group_IT_number 26
_symmetry_cell_setting 'orthorhombic'
loop_
_space_group_symop_operation_xyz
x,y,z
-x,-y,1/2+z
-x,y,z
x,-y,1/2+z
loop_
_atom_site_type_symbol
_atom_site_label
_atom_site_fract_x
_atom_site_fract_y
_atom_site_fract_z
Si Si1 0.789365 0.255675 0.992720
Si Si2 0.280995 0.688491 0.827461
Si Si3 0.796580 0.825418 0.095044
Si Si4 0.783873 0.948915 0.601260
Si Si5 0.295474 0.077421 0.320222
Si Si6 0.702237 0.425323 0.139333
Si Si7 0.297363 0.607403 0.020336
Si Si8 0.712095 0.851814 0.310921
O O1 0.751714 0.240235 0.883169
O O2 0.000000 0.265228 0.006617
O O3 0.727012 0.147870 0.039406
O O4 0.703327 0.348480 0.050065
O O5 0.500000 0.693554 0.826917
O O6 0.219153 0.808275 0.841825
O O7 0.222157 0.638015 0.728510
O O8 0.221965 0.618159 0.915388
O O9 0.699274 0.724341 0.059035
O O10 0.789375 0.830614 0.208302
O O11 0.000000 0.815789 0.064198
O O12 0.725938 0.938227 0.063937
O O13 0.713117 0.930918 0.706333
O O14 0.000000 0.951470 0.606503
O O15 0.500000 0.079322 0.351374
O O16 0.217653 0.964477 0.348552
O O17 0.500000 0.450453 0.168817
O O18 0.786257 0.530712 0.097638
O O19 0.500000 0.570203 0.008260
O O20 0.500000 0.861644 0.300319
#
# Coordination Sequence:
#
# PCOD9338439 Si02
#       8
#     4   4   4   4   4   4   4   4
#     4  11  22  36  56  85 119 156 196 243 295 353
#     4   9  18  35  57  83 114 147 191 245 293 342
#     4  10  21  39  58  82 119 157 192 240 298 355
#     4   9  19  34  53  80 115 151 186 233 294 352
#     4   9  17  32  55  81 111 148 193 240 287 341
#     4  10  21  39  61  84 116 159 203 249 295 343
#     4  10  22  38  60  88 116 154 201 250 298 347
#     4  10  21  35  56  87 118 156 198 240 294 357
#
# _framework density 23.285132000000001
#
# number of rings (size 3 to 8) (size 9 to 14) (size 15 to 20)
#    0.000    2.250    1.250    1.125    1.750    3.000 
#    0.000    3.750    0.000    0.000    0.000    0.000 
#    0.000    0.000    0.000    0.000    0.000    0.000 
#
# Total GULP energy -178706.029914 kJ/mol
# GULP energy per Si atom -5584.563435 kJ/mol
# Density = 2.323213 g / cm^3
# Si number density = 23.285132 Si / 1000 Ang^3
#
#
#
# Elastic Constant Matrix: (Units=GPa)
#
#
# Indices 1 2 3 4 5 6 
#
# 1 74.1479 8.6921 -0.8730 0.0000 0.0000 0.0000
# 2 8.6921 102.2424 27.4201 0.0000 0.0000 0.0000
# 3 -0.8730 27.4201 66.4546 0.0000 0.0000 0.0000
# 4 0.0000 0.0000 0.0000 30.6123 0.0000 0.0000
# 5 0.0000 0.0000 0.0000 0.0000 -84.0925 0.0000
# 6 0.0000 0.0000 0.0000 0.0000 0.0000 4.8104
#
#
#
# Elastic Compliance Matrix: (Units=1/GPa)
#
#
# Indices 1 2 3 4 5 6 
#
# 1 0.013655 -0.001359 0.000740 0.000000 0.000000 0.000000
# 2 -0.001359 0.011133 -0.004611 0.000000 0.000000 0.000000
# 3 0.000740 -0.004611 0.016960 0.000000 0.000000 0.000000
# 4 0.000000 0.000000 0.000000 0.032667 0.000000 0.000000
# 5 0.000000 0.000000 0.000000 0.000000 -0.011892 0.000000
# 6 0.000000 0.000000 0.000000 0.000000 0.000000 0.207881
#
#
# Mechanical properties :
#
#
# Convention : Reuss Voigt Hill
#
# Bulk Modulus (GPa) = 31.96237 34.81371 33.38804
# Shear Modulus (GPa) = 17.16480 4.10643 10.63561
#
# Velocity S-wave (km/s) = 2.71801 1.32943 2.13950
# Velocity P-wave (km/s) = 4.85864 4.16413 4.52473
#
# Compressibility (1/GPa) = 0.03128679
#
# Stress axis : x y z
#
# Youngs Moduli (GPa) = 73.23523 89.82317 58.96103
#
# Poissons Ratio (x) = 0.12210 -0.04365
# Poissons Ratio (y) = 0.09955 0.27190
# Poissons Ratio (z) = -0.05421 0.41422
#
# Static dielectric constant tensor:
#      x y z
#    x 1.892990 0.000000 0.000000 
#    y 0.000000 1.878720 0.000000 
#    z 0.000000 0.000000 1.869060 
# 
# From -- ./inp_files/4291.got.cif
#   From: 2010.05.17/outbox.cif.g08.bks.cpg/sg26_3_cif.got.tgz:4291.got - 2010.06.04 01:07:29.
