data_PCOD9338155
_publ_section_title
;
Structure prediction by ZEFSAII (Michael W. Deem and Ramdas Pophale) SiO2 
 PCOD9338155
Probable space group: P M C 21
;
_chemical_formula_sum "Si O2"
_cell_formula_units_Z 20
_cell_length_a 10.614831
_cell_length_b 11.352557
_cell_length_c 9.027468
_cell_angle_alpha 90.000000
_cell_angle_beta 90.000000
_cell_angle_gamma 90.000000
_cell_volume 1087.859310
_symmetry_space_group_name_H-M "P M C 21"
_symmetry_group_IT_number 26
_symmetry_cell_setting 'orthorhombic'
loop_
_space_group_symop_operation_xyz
x,y,z
-x,-y,1/2+z
-x,y,z
x,-y,1/2+z
loop_
_atom_site_type_symbol
_atom_site_label
_atom_site_fract_x
_atom_site_fract_y
_atom_site_fract_z
Si Si1 0.348598 0.397210 0.436320
Si Si2 0.351364 0.152255 0.558162
Si Si3 0.863205 0.832091 0.554744
Si Si4 0.224896 0.004339 0.309580
Si Si5 0.348362 0.641803 0.588514
O O1 0.500000 0.394042 0.451303
O O2 0.300787 0.284187 0.527783
O O3 0.312156 0.523919 0.499425
O O4 0.323368 0.380859 0.262595
O O5 0.500000 0.158077 0.583629
O O6 0.288998 0.085410 0.694889
O O7 0.323483 0.076821 0.410168
O O8 0.855193 0.928508 0.424808
O O9 0.742143 0.747734 0.540198
O O10 0.000000 0.771893 0.549695
O O11 0.848729 0.902103 0.709110
O O12 0.500000 0.664889 0.569979
#
# Coordination Sequence:
#
# PCOD9338155 Si02
#       5
#     4   4   4   4   4
#     4   9  19  35  57  85 118 150 187 236 293 345
#     4  10  19  34  57  90 120 148 191 246 295 347
#     4  11  23  41  61  84 118 156 198 242 293 350
#     4  10  22  36  58  83 117 157 195 237 297 354
#     4  10  21  38  61  86 116 153 196 241 289 344
#
# _framework density 18.384730000000001
#
# number of rings (size 3 to 8) (size 9 to 14) (size 15 to 20)
#    0.000    2.000    2.000    1.200    2.800    4.000 
#    0.000    1.000    0.000    0.000    0.000    0.000 
#    0.000    0.000    0.000    0.000    0.000    0.000 
#
# Total GULP energy -111532.923536 kJ/mol
# GULP energy per Si atom -5576.646177 kJ/mol
# Density = 1.834289 g / cm^3
# Si number density = 18.384730 Si / 1000 Ang^3
#
#
#
# Elastic Constant Matrix: (Units=GPa)
#
#
# Indices 1 2 3 4 5 6 
#
# 1 66.2595 27.8938 8.1007 0.0000 0.0000 0.0000
# 2 27.8938 94.3556 15.3596 0.0000 0.0000 0.0000
# 3 8.1007 15.3596 52.7090 0.0000 0.0000 0.0000
# 4 0.0000 0.0000 0.0000 30.8254 0.0000 0.0000
# 5 0.0000 0.0000 0.0000 0.0000 -1.0806 0.0000
# 6 0.0000 0.0000 0.0000 0.0000 0.0000 8.0805
#
#
#
# Elastic Compliance Matrix: (Units=1/GPa)
#
#
# Indices 1 2 3 4 5 6 
#
# 1 0.017313 -0.004918 -0.001228 0.000000 0.000000 0.000000
# 2 -0.004918 0.012523 -0.002893 0.000000 0.000000 0.000000
# 3 -0.001228 -0.002893 0.020004 0.000000 0.000000 0.000000
# 4 0.000000 0.000000 0.000000 0.032441 0.000000 0.000000
# 5 0.000000 0.000000 0.000000 0.000000 -0.925424 0.000000
# 6 0.000000 0.000000 0.000000 0.000000 0.000000 0.123755
#
#
# Mechanical properties :
#
#
# Convention : Reuss Voigt Hill
#
# Bulk Modulus (GPa) = 31.48478 35.11469 33.29974
# Shear Modulus (GPa) = -7.23880 18.36306 5.56213
#
# Velocity S-wave (km/s) = -1.98644 3.16384 1.74126
# Velocity P-wave (km/s) = 3.44984 5.69982 4.71112
#
# Compressibility (1/GPa) = 0.03176137
#
# Stress axis : x y z
#
# Youngs Moduli (GPa) = 57.76097 79.85212 49.99020
#
# Poissons Ratio (x) = 0.39273 0.06137
# Poissons Ratio (y) = 0.28408 0.14464
# Poissons Ratio (z) = 0.07090 0.23105
#
# Static dielectric constant tensor:
#      x y z
#    x 1.623080 0.000000 0.000000 
#    y 0.000000 1.651090 0.000000 
#    z 0.000000 0.000000 1.627620 
# 
# From -- ./inp_files/1285.got.cif
#   From: 2010.05.17/outbox.cif.g08.bks.cpg/sg26_1_cif.got.tgz:1285.got - 2010.06.04 01:07:29.
