data_PCOD9338226
_publ_section_title
;
Structure prediction by ZEFSAII (Michael W. Deem and Ramdas Pophale) SiO2 
 PCOD9338226
Probable space group: P M C 21
;
_chemical_formula_sum "Si O2"
_cell_formula_units_Z 32
_cell_length_a 8.294900
_cell_length_b 15.901759
_cell_length_c 11.464083
_cell_angle_alpha 90.000000
_cell_angle_beta 90.000000
_cell_angle_gamma 90.000000
_cell_volume 1512.152680
_symmetry_space_group_name_H-M "P M C 21"
_symmetry_group_IT_number 26
_symmetry_cell_setting 'orthorhombic'
loop_
_space_group_symop_operation_xyz
x,y,z
-x,-y,1/2+z
-x,y,z
x,-y,1/2+z
loop_
_atom_site_type_symbol
_atom_site_label
_atom_site_fract_x
_atom_site_fract_y
_atom_site_fract_z
Si Si1 0.198447 0.968965 0.588230
Si Si2 0.689440 0.513153 0.659264
Si Si3 0.815327 0.211080 0.172709
Si Si4 0.188575 0.663840 0.106417
Si Si5 0.811403 0.051484 0.829650
Si Si6 0.682497 0.230503 0.799087
Si Si7 0.184284 0.357160 0.977849
Si Si8 0.803637 0.652190 0.838990
O O1 0.253723 0.874349 0.621842
O O2 0.252750 0.985341 0.453791
O O3 0.000000 0.972058 0.582807
O O4 0.251645 0.023120 0.701574
O O5 0.500000 0.496616 0.658619
O O6 0.782748 0.425894 0.666833
O O7 0.739892 0.562629 0.541210
O O8 0.734716 0.575212 0.764814
O O9 0.743690 0.260050 0.282671
O O10 0.000000 0.189530 0.204147
O O11 0.818876 0.283406 0.075109
O O12 0.282952 0.738393 0.168939
O O13 0.000000 0.685220 0.110779
O O14 0.238676 0.649997 0.973448
O O15 0.792596 0.152364 0.835495
O O16 0.000000 0.029397 0.827334
O O17 0.500000 0.203359 0.815881
O O18 0.718926 0.313375 0.875031
O O19 0.000000 0.375354 0.943031
O O20 0.000000 0.649167 0.827471
#
# Coordination Sequence:
#
# PCOD9338226 Si02
#       8
#     4   4   4   4   4   4   4   4
#     4   9  17  31  58  92 121 151 202 258 308 368
#     4  11  23  38  59  89 125 159 195 244 307 368
#     4   8  14  30  58  88 111 140 189 250 298 343
#     4  11  24  41  61  85 117 159 209 258 306 365
#     4  10  20  37  61  91 122 161 208 260 316 379
#     4  12  25  40  59  87 122 161 204 256 319 379
#     4  10  19  37  64  87 114 152 204 252 294 356
#     4   9  20  38  60  85 114 153 205 254 300 358
#
# _framework density 21.161883
#
# number of rings (size 3 to 8) (size 9 to 14) (size 15 to 20)
#    0.000    2.000    1.250    3.750    1.750    2.000 
#    0.000    4.375    0.000    0.000    0.000    0.000 
#    0.000    0.000    0.000    0.000    0.000    0.000 
#
# Total GULP energy -178528.295035 kJ/mol
# GULP energy per Si atom -5579.009220 kJ/mol
# Density = 2.111372 g / cm^3
# Si number density = 21.161883 Si / 1000 Ang^3
#
#
#
# Elastic Constant Matrix: (Units=GPa)
#
#
# Indices 1 2 3 4 5 6 
#
# 1 21.4909 -16.0118 5.4518 0.0000 0.0000 0.0000
# 2 -16.0118 40.7419 30.7526 0.0000 0.0000 0.0000
# 3 5.4518 30.7526 123.8918 0.0000 0.0000 0.0000
# 4 0.0000 0.0000 0.0000 24.5409 0.0000 0.0000
# 5 0.0000 0.0000 0.0000 0.0000 12.4126 0.0000
# 6 0.0000 0.0000 0.0000 0.0000 0.0000 -7.2845
#
#
#
# Elastic Compliance Matrix: (Units=1/GPa)
#
#
# Indices 1 2 3 4 5 6 
#
# 1 0.082351 0.043192 -0.014345 0.000000 0.000000 0.000000
# 2 0.043192 0.052857 -0.015021 0.000000 0.000000 0.000000
# 3 -0.014345 -0.015021 0.012431 0.000000 0.000000 0.000000
# 4 0.000000 0.000000 0.000000 0.040748 0.000000 0.000000
# 5 0.000000 0.000000 0.000000 0.000000 0.080564 0.000000
# 6 0.000000 0.000000 0.000000 0.000000 0.000000 -0.137277
#
#
# Mechanical properties :
#
#
# Convention : Reuss Voigt Hill
#
# Bulk Modulus (GPa) = 5.70478 25.16774 15.43626
# Shear Modulus (GPa) = 30.77824 16.99591 23.88708
#
# Velocity S-wave (km/s) = 3.81782 2.83704 3.36337
# Velocity P-wave (km/s) = 4.70489 4.75926 4.73215
#
# Compressibility (1/GPa) = 0.17529171
#
# Stress axis : x y z
#
# Youngs Moduli (GPa) = 12.14318 18.91880 80.44194
#
# Poissons Ratio (x) = -0.81714 1.15394
# Poissons Ratio (y) = -0.52449 1.20832
# Poissons Ratio (z) = 0.17419 0.28418
#
# Static dielectric constant tensor:
#      x y z
#    x 1.738900 0.000000 0.000000 
#    y 0.000000 1.739010 0.000000 
#    z 0.000000 0.000000 1.829470 
# 
# From -- ./inp_files/3061.got.cif
#   From: 2010.05.17/outbox.cif.g08.bks.cpg/sg26_2_cif.got.tgz:3061.got - 2010.06.04 01:07:29.
