data_PCOD9338696
_publ_section_title
;
Structure prediction by ZEFSAII (Michael W. Deem and Ramdas Pophale) SiO2 
 PCOD9338696
Probable space group: P M C 21
;
_chemical_formula_sum "Si O2"
_cell_formula_units_Z 32
_cell_length_a 9.000000
_cell_length_b 12.000000
_cell_length_c 15.000000
_cell_angle_alpha 90.000000
_cell_angle_beta 90.000000
_cell_angle_gamma 90.000000
_cell_volume 1620.000000
_symmetry_space_group_name_H-M "P M C 21"
_symmetry_group_IT_number 26
_symmetry_cell_setting 'orthorhombic'
loop_
_space_group_symop_operation_xyz
x,y,z
-x,-y,1/2+z
-x,y,z
x,-y,1/2+z
loop_
_atom_site_type_symbol
_atom_site_label
_atom_site_fract_x
_atom_site_fract_y
_atom_site_fract_z
Si Si1 0.178623 0.143072 0.176810
Si Si2 0.323601 0.760966 0.328703
Si Si3 0.321928 0.013307 0.343902
Si Si4 0.677129 0.968059 0.052149
Si Si5 0.677940 0.523997 0.351536
Si Si6 0.826279 0.759335 0.143917
Si Si7 0.676265 0.384374 0.181657
Si Si8 0.327783 0.425790 0.539155
O O1 0.232717 0.270676 0.178877
O O2 0.000000 0.134029 0.171291
O O3 0.238004 0.081871 0.267157
O O4 0.258309 0.082632 0.092641
O O5 0.500000 0.768944 0.344988
O O6 0.266270 0.884942 0.345902
O O7 0.264692 0.648256 0.374057
O O8 0.281847 0.737331 0.226876
O O9 0.500000 0.015780 0.323151
O O10 0.304558 0.050623 0.446298
O O11 0.500000 0.961536 0.071602
O O12 0.770843 0.874443 0.102472
O O13 0.500000 0.537995 0.338298
O O14 0.731512 0.464212 0.262071
O O15 0.698085 0.445922 0.435636
O O16 0.788959 0.661699 0.075683
O O17 0.000000 0.762832 0.168217
O O18 0.500000 0.358691 0.196240
O O19 0.685936 0.458498 0.092749
O O20 0.500000 0.387146 0.552444
#
# Coordination Sequence:
#
# PCOD9338696 Si02
#       8
#     4   4   4   4   4   4   4   4
#     4  12  26  42  61  90 132 169 201 251 317 378
#     4  10  19  39  67  92 117 153 203 262 309 358
#     4  10  23  41  68  95 119 159 213 263 307 362
#     4  11  24  43  67  93 120 161 216 262 303 363
#     4   9  19  36  63  94 117 149 205 257 301 350
#     4  12  24  39  61  91 126 163 200 250 314 373
#     4  10  21  39  62  88 121 162 209 252 298 360
#     4  10  21  39  65  91 118 158 205 257 301 354
#
# _framework density 19.753086
#
# number of rings (size 3 to 8) (size 9 to 14) (size 15 to 20)
#    0.000    1.500    2.500    2.625    3.500    1.500 
#    0.000    0.625    0.000    0.000    0.000    0.000 
#    0.000    0.000    0.000    0.000    0.000    0.000 
#
# Total GULP energy -178569.498475 kJ/mol
# GULP energy per Si atom -5580.296827 kJ/mol
# Density = 1.970813 g / cm^3
# Si number density = 19.753086 Si / 1000 Ang^3
#
#
#
# Elastic Constant Matrix: (Units=GPa)
#
#
# Indices 1 2 3 4 5 6 
#
# 1 28.0583 -2.6595 -11.8190 0.0000 0.0000 0.0000
# 2 -2.6595 57.3068 -24.4059 0.0000 0.0000 0.0000
# 3 -11.8190 -24.4059 35.9256 0.0000 0.0000 0.0000
# 4 0.0000 0.0000 0.0000 32.2005 0.0000 0.0000
# 5 0.0000 0.0000 0.0000 0.0000 8.0469 0.0000
# 6 0.0000 0.0000 0.0000 0.0000 0.0000 3.7535
#
#
#
# Elastic Compliance Matrix: (Units=1/GPa)
#
#
# Indices 1 2 3 4 5 6 
#
# 1 0.046806 0.012284 0.023744 0.000000 0.000000 0.000000
# 2 0.012284 0.027778 0.022912 0.000000 0.000000 0.000000
# 3 0.023744 0.022912 0.051212 0.000000 0.000000 0.000000
# 4 0.000000 0.000000 0.000000 0.031055 0.000000 0.000000
# 5 0.000000 0.000000 0.000000 0.000000 0.124272 0.000000
# 6 0.000000 0.000000 0.000000 0.000000 0.000000 0.266420
#
#
# Mechanical properties :
#
#
# Convention : Reuss Voigt Hill
#
# Bulk Modulus (GPa) = 4.10380 4.83575 4.46977
# Shear Modulus (GPa) = 9.78688 19.47851 14.63270
#
# Velocity S-wave (km/s) = 2.22831 3.14363 2.72468
# Velocity P-wave (km/s) = 2.95001 3.95347 3.48801
#
# Compressibility (1/GPa) = 0.24367684
#
# Stress axis : x y z
#
# Youngs Moduli (GPa) = 21.36470 35.99983 19.52666
#
# Poissons Ratio (x) = -0.44223 -0.46364
# Poissons Ratio (y) = -0.26245 -0.44740
# Poissons Ratio (z) = -0.50728 -0.82484
#
# Static dielectric constant tensor:
#      x y z
#    x 1.680240 0.000000 0.000000 
#    y 0.000000 1.550810 0.000000 
#    z 0.000000 0.000000 1.698540 
# 
# From -- ./inp_files/4318.got.cif
#   From: 2010.05.17/outbox.ucp.g08.bks.cvg/sg26_3_cif.got.tgz:4318.got - 2010.06.11 15:23:25.
