data_PCOD9338328
_publ_section_title
;
Structure prediction by ZEFSAII (Michael W. Deem and Ramdas Pophale) SiO2 
 PCOD9338328
Probable space group: P M C 21
;
_chemical_formula_sum "Si O2"
_cell_formula_units_Z 32
_cell_length_a 8.890388
_cell_length_b 12.426478
_cell_length_c 13.962213
_cell_angle_alpha 90.000000
_cell_angle_beta 90.000000
_cell_angle_gamma 90.000000
_cell_volume 1542.492388
_symmetry_space_group_name_H-M "P M C 21"
_symmetry_group_IT_number 26
_symmetry_cell_setting 'orthorhombic'
loop_
_space_group_symop_operation_xyz
x,y,z
-x,-y,1/2+z
-x,y,z
x,-y,1/2+z
loop_
_atom_site_type_symbol
_atom_site_label
_atom_site_fract_x
_atom_site_fract_y
_atom_site_fract_z
Si Si1 0.180893 0.905548 0.633490
Si Si2 0.669886 0.733102 0.308079
Si Si3 0.821958 0.585855 0.464819
Si Si4 0.327412 0.051179 0.930164
Si Si5 0.173041 0.165648 0.423628
Si Si6 0.320051 0.678047 0.659976
Si Si7 0.172664 0.146068 0.653668
Si Si8 0.677961 0.614185 0.867021
O O1 0.238482 0.909444 0.523952
O O2 0.250708 0.797140 0.676166
O O3 0.000000 0.900029 0.636081
O O4 0.226163 0.023364 0.673230
O O5 0.500000 0.689816 0.305445
O O6 0.770761 0.658924 0.375152
O O7 0.668556 0.849608 0.358522
O O8 0.733270 0.760741 0.204021
O O9 0.744818 0.629048 0.561911
O O10 0.766710 0.467864 0.434245
O O11 0.000000 0.589808 0.477420
O O12 0.500000 0.023177 0.956194
O O13 0.243404 0.946781 0.890378
O O14 0.173590 0.158715 0.539315
O O15 0.272769 0.265735 0.393601
O O16 0.000000 0.177049 0.391294
O O17 0.500000 0.688969 0.651321
O O18 0.287110 0.605160 0.753295
O O19 0.000000 0.153831 0.687679
O O20 0.500000 0.598788 0.879792
#
# Coordination Sequence:
#
# PCOD9338328 Si02
#       8
#     4   4   4   4   4   4   4   4
#     4  10  20  36  60  92 128 168 212 262 320 378
#     4  11  23  38  61  93 128 170 216 263 317 379
#     4  12  26  45  70  95 127 169 216 269 322 378
#     4  10  20  35  58  89 127 169 210 259 318 379
#     4  10  22  41  63  91 129 169 214 266 321 378
#     4  11  24  43  67  95 127 165 210 263 319 383
#     4   9  21  38  58  91 132 174 215 261 318 381
#     4  11  26  46  69  96 128 168 215 265 323 384
#
# _framework density 20.745643999999999
#
# number of rings (size 3 to 8) (size 9 to 14) (size 15 to 20)
#    0.000    1.500    1.250    4.125    1.750    7.500 
#    0.000    0.000    0.000    0.000    0.000    0.000 
#    0.000    0.000    0.000    0.000    0.000    0.000 
#
# Total GULP energy -178884.070054 kJ/mol
# GULP energy per Si atom -5590.127189 kJ/mol
# Density = 2.069843 g / cm^3
# Si number density = 20.745644 Si / 1000 Ang^3
#
#
#
# Elastic Constant Matrix: (Units=GPa)
#
#
# Indices 1 2 3 4 5 6 
#
# 1 70.4265 -0.2217 14.4088 0.0000 0.0000 0.0000
# 2 -0.2217 44.5525 5.1082 0.0000 0.0000 0.0000
# 3 14.4088 5.1082 53.2088 0.0000 0.0000 0.0000
# 4 0.0000 0.0000 0.0000 22.9499 0.0000 0.0000
# 5 0.0000 0.0000 0.0000 0.0000 -33.9950 0.0000
# 6 0.0000 0.0000 0.0000 0.0000 0.0000 48.8063
#
#
#
# Elastic Compliance Matrix: (Units=1/GPa)
#
#
# Indices 1 2 3 4 5 6 
#
# 1 0.015045 0.000548 -0.004127 0.000000 0.000000 0.000000
# 2 0.000548 0.022715 -0.002329 0.000000 0.000000 0.000000
# 3 -0.004127 -0.002329 0.020135 0.000000 0.000000 0.000000
# 4 0.000000 0.000000 0.000000 0.043573 0.000000 0.000000
# 5 0.000000 0.000000 0.000000 0.000000 -0.029416 0.000000
# 6 0.000000 0.000000 0.000000 0.000000 0.000000 0.020489
#
#
# Mechanical properties :
#
#
# Convention : Reuss Voigt Hill
#
# Bulk Modulus (GPa) = 21.70156 22.97537 22.33847
# Shear Modulus (GPa) = 41.76503 17.47842 29.62172
#
# Velocity S-wave (km/s) = 4.49173 2.90575 3.78279
# Velocity P-wave (km/s) = 6.11428 4.72829 5.46539
#
# Compressibility (1/GPa) = 0.04607963
#
# Stress axis : x y z
#
# Youngs Moduli (GPa) = 66.46612 44.02341 49.66473
#
# Poissons Ratio (x) = -0.02413 0.20496
# Poissons Ratio (y) = -0.03643 0.11567
# Poissons Ratio (z) = 0.27429 0.10254
#
# Static dielectric constant tensor:
#      x y z
#    x 1.749690 0.000000 0.000000 
#    y 0.000000 1.727920 0.000000 
#    z 0.000000 0.000000 1.752390 
# 
# From -- ./inp_files/4175.got.cif
#   From: 2010.05.17/outbox.cif.g08.bks.cpg/sg26_3_cif.got.tgz:4175.got - 2010.06.04 01:07:29.
