data_PCOD9338381
_publ_section_title
;
Structure prediction by ZEFSAII (Michael W. Deem and Ramdas Pophale) SiO2 
 PCOD9338381
Probable space group: P M C 21
;
_chemical_formula_sum "Si O2"
_cell_formula_units_Z 32
_cell_length_a 8.252959
_cell_length_b 15.651226
_cell_length_c 12.415452
_cell_angle_alpha 90.000000
_cell_angle_beta 90.000000
_cell_angle_gamma 90.000000
_cell_volume 1603.690607
_symmetry_space_group_name_H-M "P M C 21"
_symmetry_group_IT_number 26
_symmetry_cell_setting 'orthorhombic'
loop_
_space_group_symop_operation_xyz
x,y,z
-x,-y,1/2+z
-x,y,z
x,-y,1/2+z
loop_
_atom_site_type_symbol
_atom_site_label
_atom_site_fract_x
_atom_site_fract_y
_atom_site_fract_z
Si Si1 0.303757 0.891504 0.319680
Si Si2 0.696717 0.086374 0.278319
Si Si3 0.195841 0.405053 0.820854
Si Si4 0.195094 0.255410 0.659872
Si Si5 0.188826 0.334020 0.055100
Si Si6 0.689848 0.591183 0.763628
Si Si7 0.194525 0.748488 0.911548
Si Si8 0.688620 0.847522 0.555301
O O1 0.500000 0.886661 0.316907
O O2 0.243040 0.829417 0.225672
O O3 0.241819 0.860215 0.436309
O O4 0.257111 0.990568 0.310001
O O5 0.500000 0.091181 0.278150
O O6 0.756481 0.162391 0.355109
O O7 0.758312 0.102189 0.156630
O O8 0.250528 0.337967 0.729023
O O9 0.269780 0.498483 0.810087
O O10 0.000000 0.411991 0.814959
O O11 0.236510 0.367853 0.938227
O O12 0.252078 0.254698 0.535992
O O13 0.000000 0.259002 0.657414
O O14 0.215430 0.399968 0.151043
O O15 0.293235 0.251420 0.083471
O O16 0.000000 0.309086 0.051285
O O17 0.500000 0.598455 0.742266
O O18 0.740615 0.668191 0.842992
O O19 0.000000 0.742966 0.910840
O O20 0.500000 0.871891 0.547700
#
# Coordination Sequence:
#
# PCOD9338381 Si02
#       8
#     4   4   4   4   4   4   4   4
#     4  10  22  38  62  92 124 163 204 249 306 365
#     4  10  22  39  61  90 124 163 203 251 306 362
#     4  10  23  43  65  90 121 162 205 250 305 363
#     4  10  23  43  63  88 123 160 204 254 303 359
#     4  11  22  40  67  91 119 159 204 252 304 361
#     4  12  26  42  63  93 126 159 201 253 305 365
#     4  11  24  42  63  89 122 162 207 253 303 363
#     4  10  20  37  60  89 123 158 204 256 302 354
#
# _framework density 19.953973000000001
#
# number of rings (size 3 to 8) (size 9 to 14) (size 15 to 20)
#    0.000    1.500    2.500    1.875    3.500    3.000 
#    0.000    0.000    0.000    0.000    0.000    0.000 
#    0.000    0.000    0.000    0.000    0.000    0.000 
#
# Total GULP energy -178743.472570 kJ/mol
# GULP energy per Si atom -5585.733518 kJ/mol
# Density = 1.990856 g / cm^3
# Si number density = 19.953973 Si / 1000 Ang^3
#
#
#
# Elastic Constant Matrix: (Units=GPa)
#
#
# Indices 1 2 3 4 5 6 
#
# 1 18.2734 9.5144 15.1803 0.0000 0.0000 0.0000
# 2 9.5144 111.1993 33.6232 0.0000 0.0000 0.0000
# 3 15.1803 33.6232 125.0725 0.0000 0.0000 0.0000
# 4 0.0000 0.0000 0.0000 23.1848 0.0000 0.0000
# 5 0.0000 0.0000 0.0000 0.0000 16.7365 0.0000
# 6 0.0000 0.0000 0.0000 0.0000 0.0000 32.0720
#
#
#
# Elastic Compliance Matrix: (Units=1/GPa)
#
#
# Indices 1 2 3 4 5 6 
#
# 1 0.061951 -0.003295 -0.006633 0.000000 0.000000 0.000000
# 2 -0.003295 0.009964 -0.002279 0.000000 0.000000 0.000000
# 3 -0.006633 -0.002279 0.009413 0.000000 0.000000 0.000000
# 4 0.000000 0.000000 0.000000 0.043132 0.000000 0.000000
# 5 0.000000 0.000000 0.000000 0.000000 0.059750 0.000000
# 6 0.000000 0.000000 0.000000 0.000000 0.000000 0.031180
#
#
# Mechanical properties :
#
#
# Convention : Reuss Voigt Hill
#
# Bulk Modulus (GPa) = 17.57048 41.24234 29.40641
# Shear Modulus (GPa) = 19.32192 27.48047 23.40120
#
# Velocity S-wave (km/s) = 3.11517 3.71508 3.42827
# Velocity P-wave (km/s) = 4.66515 6.25428 5.51723
#
# Compressibility (1/GPa) = 0.05691365
#
# Stress axis : x y z
#
# Youngs Moduli (GPa) = 16.14190 100.36362 106.23567
#
# Poissons Ratio (x) = 0.33069 0.70470
# Poissons Ratio (y) = 0.05319 0.24207
# Poissons Ratio (z) = 0.10707 0.22869
#
# Static dielectric constant tensor:
#      x y z
#    x 1.706470 0.000000 0.000000 
#    y 0.000000 1.660280 0.000000 
#    z 0.000000 0.000000 1.707410 
# 
# From -- ./inp_files/2990.got.cif
#   From: 2010.05.17/outbox.cif.g08.bks.cpg/sg26_2_cif.got.tgz:2990.got - 2010.06.04 01:07:29.
