data_PCOD9338628
_publ_section_title
;
Structure prediction by ZEFSAII (Michael W. Deem and Ramdas Pophale) SiO2 
 PCOD9338628
Probable space group: P M C 21
;
_chemical_formula_sum "Si O2"
_cell_formula_units_Z 32
_cell_length_a 13.847337
_cell_length_b 11.026804
_cell_length_c 8.919388
_cell_angle_alpha 90.000000
_cell_angle_beta 90.000000
_cell_angle_gamma 90.000000
_cell_volume 1361.918042
_symmetry_space_group_name_H-M "P M C 21"
_symmetry_group_IT_number 26
_symmetry_cell_setting 'orthorhombic'
loop_
_space_group_symop_operation_xyz
x,y,z
-x,-y,1/2+z
-x,y,z
x,-y,1/2+z
loop_
_atom_site_type_symbol
_atom_site_label
_atom_site_fract_x
_atom_site_fract_y
_atom_site_fract_z
Si Si1 0.692701 0.384081 0.498410
Si Si2 0.160526 0.547395 0.630434
Si Si3 0.100385 0.646703 0.338869
Si Si4 0.885494 0.915395 0.948008
Si Si5 0.387625 0.861733 0.467331
Si Si6 0.795399 0.120400 0.778514
Si Si7 0.604879 0.599625 0.320161
Si Si8 0.732093 0.777898 0.748768
O O1 0.798829 0.423807 0.553175
O O2 0.669804 0.502450 0.401344
O O3 0.631896 0.377209 0.649153
O O4 0.677972 0.264669 0.400062
O O5 0.099479 0.622654 0.514229
O O6 0.109342 0.486592 0.769376
O O7 0.239368 0.647284 0.678426
O O8 0.188107 0.736966 0.306597
O O9 0.000000 0.702212 0.283214
O O10 0.828347 0.841194 0.816486
O O11 0.000000 0.887411 0.960988
O O12 0.869664 0.051786 0.888404
O O13 0.827845 0.901807 0.106389
O O14 0.500000 0.908827 0.475662
O O15 0.311270 0.915377 0.343376
O O16 0.397185 0.723376 0.411689
O O17 0.329920 0.852462 0.626656
O O18 0.500000 0.541263 0.322237
#
# Coordination Sequence:
#
# PCOD9338628 Si02
#       8
#     4   4   4   4   4   4   4   4
#     4  12  20  37  59  90 138 190 231 298 367 427
#     4  12  22  40  63  95 142 187 236 286 368 439
#     4  12  25  41  66 101 144 190 238 293 368 445
#     4  12  28  50  79 110 146 195 253 310 380 454
#     4  11  24  46  73 104 142 191 249 312 377 441
#     4  12  26  51  76 107 148 193 250 320 373 439
#     4  11  21  34  58  92 131 180 241 294 358 435
#     4  12  24  43  71 101 149 192 246 309 369 442
#
# _framework density 23.496274
#
# number of rings (size 3 to 8) (size 9 to 14) (size 15 to 20)
#    0.000    0.250    5.000    4.875    0.000    3.000 
#    0.000    3.125    0.000    0.000    0.000    0.000 
#    0.000    0.000    0.000    0.000    0.000    0.000 
#
# Total GULP energy -178517.623714 kJ/mol
# GULP energy per Si atom -5578.675741 kJ/mol
# Density = 2.344280 g / cm^3
# Si number density = 23.496274 Si / 1000 Ang^3
#
#
#
# Elastic Constant Matrix: (Units=GPa)
#
#
# Indices 1 2 3 4 5 6 
#
# 1 124.2913 7.3107 59.2121 0.0000 0.0000 0.0000
# 2 7.3107 55.1261 33.1597 0.0000 0.0000 0.0000
# 3 59.2121 33.1597 149.7732 0.0000 0.0000 0.0000
# 4 0.0000 0.0000 0.0000 43.3526 0.0000 0.0000
# 5 0.0000 0.0000 0.0000 0.0000 11.1113 0.0000
# 6 0.0000 0.0000 0.0000 0.0000 0.0000 17.9393
#
#
#
# Elastic Compliance Matrix: (Units=1/GPa)
#
#
# Indices 1 2 3 4 5 6 
#
# 1 0.009982 0.001211 -0.004215 0.000000 0.000000 0.000000
# 2 0.001211 0.021074 -0.005145 0.000000 0.000000 0.000000
# 3 -0.004215 -0.005145 0.009482 0.000000 0.000000 0.000000
# 4 0.000000 0.000000 0.000000 0.023067 0.000000 0.000000
# 5 0.000000 0.000000 0.000000 0.000000 0.089998 0.000000
# 6 0.000000 0.000000 0.000000 0.000000 0.000000 0.055743
#
#
# Mechanical properties :
#
#
# Convention : Reuss Voigt Hill
#
# Bulk Modulus (GPa) = 41.24982 58.72840 49.98911
# Shear Modulus (GPa) = 21.39279 29.78120 25.58700
#
# Velocity S-wave (km/s) = 3.02068 3.56404 3.30355
# Velocity P-wave (km/s) = 5.45528 6.47962 5.98939
#
# Compressibility (1/GPa) = 0.02424253
#
# Stress axis : x y z
#
# Youngs Moduli (GPa) = 100.17840 47.45124 105.46266
#
# Poissons Ratio (x) = -0.05748 0.44448
# Poissons Ratio (y) = -0.12135 0.54258
# Poissons Ratio (z) = 0.42221 0.24412
#
# Static dielectric constant tensor:
#      x y z
#    x 2.186760 0.000000 0.000000 
#    y 0.000000 1.883650 0.000000 
#    z 0.000000 0.000000 1.905960 
# 
# From -- ./inp_files/2233.got.cif
#   From: 2010.05.17/outbox.cif.g08.bks.cpg/sg26_2_cif.got.tgz:2233.got - 2010.06.04 01:07:29.
