data_PCOD9338498
_publ_section_title
;
Structure prediction by ZEFSAII (Michael W. Deem and Ramdas Pophale) SiO2 
 PCOD9338498
Probable space group: P M C 21
;
_chemical_formula_sum "Si O2"
_cell_formula_units_Z 32
_cell_length_a 21.008767
_cell_length_b 8.584317
_cell_length_c 7.878691
_cell_angle_alpha 90.000000
_cell_angle_beta 90.000000
_cell_angle_gamma 90.000000
_cell_volume 1420.889743
_symmetry_space_group_name_H-M "P M C 21"
_symmetry_group_IT_number 26
_symmetry_cell_setting 'orthorhombic'
loop_
_space_group_symop_operation_xyz
x,y,z
-x,-y,1/2+z
-x,y,z
x,-y,1/2+z
loop_
_atom_site_type_symbol
_atom_site_label
_atom_site_fract_x
_atom_site_fract_y
_atom_site_fract_z
Si Si1 0.690694 0.253151 0.864210
Si Si2 0.927891 0.432480 0.504871
Si Si3 0.572927 0.913228 0.520270
Si Si4 0.071807 0.250597 0.863134
Si Si5 0.810176 0.247492 0.390345
Si Si6 0.810233 0.065637 0.748120
Si Si7 0.427445 0.755541 0.890273
Si Si8 0.310128 0.569746 0.006360
O O1 0.748544 0.133610 0.843891
O O2 0.689220 0.352813 0.691246
O O3 0.625882 0.163866 0.903194
O O4 0.698793 0.385065 0.007119
O O5 0.916115 0.617756 0.504513
O O6 0.925882 0.352598 0.689180
O O7 0.873425 0.350132 0.396282
O O8 0.000000 0.410705 0.438265
O O9 0.500000 0.890251 0.459721
O O10 0.578346 0.835187 0.705074
O O11 0.583709 0.099176 0.517775
O O12 0.125576 0.121783 0.842667
O O13 0.000000 0.187628 0.882585
O O14 0.810492 0.144032 0.563321
O O15 0.748876 0.355877 0.405263
O O16 0.807369 0.120085 0.243855
O O17 0.500000 0.699468 0.910226
O O18 0.376261 0.621963 0.920421
#
# Coordination Sequence:
#
# PCOD9338498 Si02
#       8
#     4   4   4   4   4   4   4   4
#     4  11  23  38  57  81 110 144 183 227 274 325
#     4   9  18  34  55  79 108 141 178 220 266 317
#     4  10  21  38  60  85 113 145 181 222 269 322
#     4   9  18  34  55  79 108 141 178 220 266 317
#     4  10  22  37  54  79 109 142 180 223 270 320
#     4  10  22  37  54  79 109 142 180 223 270 320
#     4  10  21  38  60  85 113 145 181 222 269 322
#     4  11  23  38  57  81 110 144 183 227 274 325
#
# _framework density 22.521099
#
# number of rings (size 3 to 8) (size 9 to 14) (size 15 to 20)
#    0.000    2.000    0.000    3.000    0.000    7.500 
#    0.000    0.000    0.000    0.000    0.000    0.000 
#    0.000    0.000    0.000    0.000    0.000    0.000 
#
# Total GULP energy -179028.278442 kJ/mol
# GULP energy per Si atom -5594.633701 kJ/mol
# Density = 2.246984 g / cm^3
# Si number density = 22.521099 Si / 1000 Ang^3
#
#
#
# Elastic Constant Matrix: (Units=GPa)
#
#
# Indices 1 2 3 4 5 6 
#
# 1 94.6330 36.2500 29.9712 0.0000 0.0000 0.0000
# 2 36.2500 45.4602 -5.1960 0.0000 0.0000 0.0000
# 3 29.9712 -5.1960 51.8462 0.0000 0.0000 0.0000
# 4 0.0000 0.0000 0.0000 36.1994 0.0000 0.0000
# 5 0.0000 0.0000 0.0000 0.0000 16.2898 0.0000
# 6 0.0000 0.0000 0.0000 0.0000 0.0000 38.8084
#
#
#
# Elastic Compliance Matrix: (Units=1/GPa)
#
#
# Indices 1 2 3 4 5 6 
#
# 1 0.023245 -0.020304 -0.015472 0.000000 0.000000 0.000000
# 2 -0.020304 0.039987 0.015745 0.000000 0.000000 0.000000
# 3 -0.015472 0.015745 0.029810 0.000000 0.000000 0.000000
# 4 0.000000 0.000000 0.000000 0.027625 0.000000 0.000000
# 5 0.000000 0.000000 0.000000 0.000000 0.061388 0.000000
# 6 0.000000 0.000000 0.000000 0.000000 0.000000 0.025768
#
#
# Mechanical properties :
#
#
# Convention : Reuss Voigt Hill
#
# Bulk Modulus (GPa) = 18.87531 34.88777 26.88154
# Shear Modulus (GPa) = 18.82917 26.98715 22.90816
#
# Velocity S-wave (km/s) = 2.89462 3.46541 3.19280
# Velocity P-wave (km/s) = 4.42393 5.61577 5.05510
#
# Compressibility (1/GPa) = 0.05297927
#
# Stress axis : x y z
#
# Youngs Moduli (GPa) = 43.01997 25.00791 33.54584
#
# Poissons Ratio (x) = 0.50776 0.51903
# Poissons Ratio (y) = 0.87348 -0.52817
# Poissons Ratio (z) = 0.66562 -0.39375
#
# Static dielectric constant tensor:
#      x y z
#    x 1.782430 0.000000 0.000000 
#    y 0.000000 1.780440 0.000000 
#    z 0.000000 0.000000 1.891180 
# 
# From -- ./inp_files/2491.got.cif
#   From: 2010.05.17/outbox.cif.g08.bks.cpg/sg26_2_cif.got.tgz:2491.got - 2010.06.04 01:07:29.
