data_PCOD9338203
_publ_section_title
;
Structure prediction by ZEFSAII (Michael W. Deem and Ramdas Pophale) SiO2 
 PCOD9338203
Probable space group: P M C 21
;
_chemical_formula_sum "Si O2"
_cell_formula_units_Z 32
_cell_length_a 7.596092
_cell_length_b 16.060856
_cell_length_c 11.588967
_cell_angle_alpha 90.000000
_cell_angle_beta 90.000000
_cell_angle_gamma 90.000000
_cell_volume 1413.850958
_symmetry_space_group_name_H-M "P M C 21"
_symmetry_group_IT_number 26
_symmetry_cell_setting 'orthorhombic'
loop_
_space_group_symop_operation_xyz
x,y,z
-x,-y,1/2+z
-x,y,z
x,-y,1/2+z
loop_
_atom_site_type_symbol
_atom_site_label
_atom_site_fract_x
_atom_site_fract_y
_atom_site_fract_z
Si Si1 0.701849 0.151121 0.790300
Si Si2 0.198310 0.729113 0.483549
Si Si3 0.283261 0.833770 0.925009
Si Si4 0.715096 0.973679 0.103939
Si Si5 0.800352 0.476966 0.662595
Si Si6 0.783921 0.451007 0.916190
Si Si7 0.702822 0.702738 0.100101
Si Si8 0.295338 0.150088 0.168732
O O1 0.500000 0.136109 0.828738
O O2 0.798748 0.194496 0.894561
O O3 0.767059 0.068881 0.725812
O O4 0.701774 0.222121 0.691780
O O5 0.272047 0.646090 0.424667
O O6 0.286119 0.765588 0.596848
O O7 0.000000 0.708311 0.515755
O O8 0.500000 0.831997 0.928261
O O9 0.218614 0.840806 0.795437
O O10 0.226672 0.913151 0.001193
O O11 0.227730 0.747702 0.985546
O O12 0.500000 0.969708 0.100302
O O13 0.775248 0.068764 0.102292
O O14 0.722861 0.488933 0.792460
O O15 0.726402 0.510620 0.539924
O O16 0.802719 0.377225 0.645366
O O17 0.000000 0.509934 0.666988
O O18 0.000000 0.455886 0.910879
O O19 0.500000 0.676429 0.083366
O O20 0.500000 0.130588 0.186641
#
# Coordination Sequence:
#
# PCOD9338203 Si02
#       8
#     4   4   4   4   4   4   4   4
#     4   9  17  32  56  81 103 134 177 219 258 314
#     4  11  22  36  52  77 111 144 177 224 274 322
#     4   8  16  31  49  76 110 136 169 219 268 318
#     4   8  16  30  53  81 103 132 179 224 257 307
#     4  10  19  36  58  80 103 140 188 228 268 327
#     4   9  20  36  56  78 105 139 184 229 270 325
#     4   9  17  32  54  80 108 134 167 218 274 319
#     4  10  20  33  54  79 105 141 181 223 269 320
#
# _framework density 22.633220999999999
#
# number of rings (size 3 to 8) (size 9 to 14) (size 15 to 20)
#    0.000    2.750    1.250    1.875    1.750    1.000 
#    0.000    4.375    0.000    1.500    0.000    0.000 
#    0.000    0.000    0.000    0.000    0.000    0.000 
#
# Total GULP energy -178385.576199 kJ/mol
# GULP energy per Si atom -5574.549256 kJ/mol
# Density = 2.258171 g / cm^3
# Si number density = 22.633221 Si / 1000 Ang^3
#
#
#
# Elastic Constant Matrix: (Units=GPa)
#
#
# Indices 1 2 3 4 5 6 
#
# 1 42.5131 1.0432 4.6495 0.0000 0.0000 0.0000
# 2 1.0432 51.8891 41.0189 0.0000 0.0000 0.0000
# 3 4.6495 41.0189 162.9342 0.0000 0.0000 0.0000
# 4 0.0000 0.0000 0.0000 24.7732 0.0000 0.0000
# 5 0.0000 0.0000 0.0000 0.0000 45.5076 0.0000
# 6 0.0000 0.0000 0.0000 0.0000 0.0000 17.0500
#
#
#
# Elastic Compliance Matrix: (Units=1/GPa)
#
#
# Indices 1 2 3 4 5 6 
#
# 1 0.023596 0.000072 -0.000692 0.000000 0.000000 0.000000
# 2 0.000072 0.024060 -0.006059 0.000000 0.000000 0.000000
# 3 -0.000692 -0.006059 0.007683 0.000000 0.000000 0.000000
# 4 0.000000 0.000000 0.000000 0.040366 0.000000 0.000000
# 5 0.000000 0.000000 0.000000 0.000000 0.021974 0.000000
# 6 0.000000 0.000000 0.000000 0.000000 0.000000 0.058651
#
#
# Mechanical properties :
#
#
# Convention : Reuss Voigt Hill
#
# Bulk Modulus (GPa) = 23.81980 38.97329 31.39654
# Shear Modulus (GPa) = 24.54812 31.50781 28.02797
#
# Velocity S-wave (km/s) = 3.29691 3.73514 3.52284
# Velocity P-wave (km/s) = 5.00399 5.98820 5.51808
#
# Compressibility (1/GPa) = 0.04198188
#
# Stress axis : x y z
#
# Youngs Moduli (GPa) = 42.38002 41.56212 130.16392
#
# Poissons Ratio (x) = -0.00300 0.09001
# Poissons Ratio (y) = -0.00306 0.78870
# Poissons Ratio (z) = 0.02931 0.25184
#
# Static dielectric constant tensor:
#      x y z
#    x 1.868140 0.000000 0.000000 
#    y 0.000000 1.811940 0.000000 
#    z 0.000000 0.000000 1.871150 
# 
# From -- ./inp_files/3035.got.cif
#   From: 2010.05.17/outbox.cif.g08.bks.cpg/sg26_2_cif.got.tgz:3035.got - 2010.06.04 01:07:29.
