data_PCOD9338650
_publ_section_title
;
Structure prediction by ZEFSAII (Michael W. Deem and Ramdas Pophale) SiO2 
 PCOD9338650
Probable space group: P M C 21
;
_chemical_formula_sum "Si O2"
_cell_formula_units_Z 24
_cell_length_a 16.350192
_cell_length_b 8.410105
_cell_length_c 7.637587
_cell_angle_alpha 90.000000
_cell_angle_beta 90.000000
_cell_angle_gamma 90.000000
_cell_volume 1050.220389
_symmetry_space_group_name_H-M "P M C 21"
_symmetry_group_IT_number 26
_symmetry_cell_setting 'orthorhombic'
loop_
_space_group_symop_operation_xyz
x,y,z
-x,-y,1/2+z
-x,y,z
x,-y,1/2+z
loop_
_atom_site_type_symbol
_atom_site_label
_atom_site_fract_x
_atom_site_fract_y
_atom_site_fract_z
Si Si1 0.500000 0.751800 0.730120
Si Si2 0.500000 0.595239 0.343561
Si Si3 0.677767 0.246089 0.219139
Si Si4 0.159564 0.252499 0.742987
Si Si5 0.000000 0.244797 0.247825
Si Si6 0.839590 0.081808 0.119932
Si Si7 0.322528 0.589588 0.336118
Si Si8 0.000000 0.422003 0.617595
O O1 0.500000 0.676970 0.533706
O O2 0.500000 0.596717 0.854656
O O3 0.411459 0.833274 0.750085
O O4 0.412147 0.631261 0.257897
O O5 0.755368 0.131805 0.216002
O O6 0.685455 0.398916 0.344457
O O7 0.677753 0.330145 0.027315
O O8 0.244350 0.346121 0.734563
O O9 0.082519 0.365548 0.713454
O O10 0.157532 0.107450 0.607801
O O11 0.157012 0.168525 0.932891
O O12 0.919725 0.140334 0.221521
O O13 0.000000 0.335102 0.431637
O O14 0.000000 0.388309 0.107868
#
# Coordination Sequence:
#
# PCOD9338650 Si02
#       8
#     2   2   4   4   2   4   4   2
#     4   8  14  28  49  76 106 138 176 222 269 316
#     4   8  14  28  49  76 106 138 176 222 269 316
#     4   9  18  32  54  80 108 141 181 225 271 320
#     4  11  23  39  57  81 112 148 184 224 273 326
#     4  12  25  42  63  86 110 140 178 224 271 324
#     4  11  23  39  57  81 112 148 184 224 273 326
#     4   9  18  32  54  80 108 141 181 225 271 320
#     4  12  25  42  63  86 110 140 178 224 271 324
#
# _framework density 22.852347000000002
#
# number of rings (size 3 to 8) (size 9 to 14) (size 15 to 20)
#    0.000    2.000    0.000    4.000    0.000    5.333 
#    0.000    0.833    0.000    0.000    0.000    0.000 
#    0.000    0.000    0.000    0.000    0.000    0.000 
#
# Total GULP energy -134132.315528 kJ/mol
# GULP energy per Si atom -5588.846480 kJ/mol
# Density = 2.280033 g / cm^3
# Si number density = 22.852347 Si / 1000 Ang^3
#
#
#
# Elastic Constant Matrix: (Units=GPa)
#
#
# Indices 1 2 3 4 5 6 
#
# 1 204.2530 35.4685 28.8615 0.0000 0.0000 0.0000
# 2 35.4685 37.0329 -11.9307 0.0000 0.0000 0.0000
# 3 28.8615 -11.9307 56.7977 0.0000 0.0000 0.0000
# 4 0.0000 0.0000 0.0000 24.3095 0.0000 0.0000
# 5 0.0000 0.0000 0.0000 0.0000 17.1839 0.0000
# 6 0.0000 0.0000 0.0000 0.0000 0.0000 -4.1400
#
#
#
# Elastic Compliance Matrix: (Units=1/GPa)
#
#
# Indices 1 2 3 4 5 6 
#
# 1 0.007162 -0.008615 -0.005449 0.000000 0.000000 0.000000
# 2 -0.008615 0.039325 0.012638 0.000000 0.000000 0.000000
# 3 -0.005449 0.012638 0.023030 0.000000 0.000000 0.000000
# 4 0.000000 0.000000 0.000000 0.041136 0.000000 0.000000
# 5 0.000000 0.000000 0.000000 0.000000 0.058194 0.000000
# 6 0.000000 0.000000 0.000000 0.000000 0.000000 -0.241544
#
#
# Mechanical properties :
#
#
# Convention : Reuss Voigt Hill
#
# Bulk Modulus (GPa) = 15.00019 44.76470 29.88244
# Shear Modulus (GPa) = -104.98742 23.84964 -40.56889
#
# Velocity S-wave (km/s) = -6.78538 3.23405 -4.21796
# Velocity P-wave (km/s) = 7.40340 5.79453 3.25835
#
# Compressibility (1/GPa) = 0.06666584
#
# Stress axis : x y z
#
# Youngs Moduli (GPa) = 139.63106 25.42904 43.42207
#
# Poissons Ratio (x) = 0.21906 0.23660
# Poissons Ratio (y) = 1.20286 -0.54877
# Poissons Ratio (z) = 0.76081 -0.32137
#
# Static dielectric constant tensor:
#      x y z
#    x 1.853030 0.000000 0.000000 
#    y 0.000000 1.785690 0.000000 
#    z 0.000000 0.000000 1.911350 
# 
# From -- ./inp_files/2156.got.cif
#   From: 2010.05.17/outbox.cif.g08.bks.cpg/sg26_2_cif.got.tgz:2156.got - 2010.06.04 01:07:29.
