data_PCOD9338741
_publ_section_title
;
Structure prediction by ZEFSAII (Michael W. Deem and Ramdas Pophale) SiO2 
 PCOD9338741
Probable space group: P C C 2
;
_chemical_formula_sum "Si O2"
_cell_formula_units_Z 20
_cell_length_a 24.643508
_cell_length_b 7.253617
_cell_length_c 5.336290
_cell_angle_alpha 90.000000
_cell_angle_beta 90.000000
_cell_angle_gamma 90.000000
_cell_volume 953.886217
_symmetry_space_group_name_H-M "P C C 2"
_symmetry_group_IT_number 27
_symmetry_cell_setting 'orthorhombic'
loop_
_space_group_symop_operation_xyz
x,y,z
-x,-y,z
-x,y,1/2+z
x,-y,1/2+z
loop_
_atom_site_type_symbol
_atom_site_label
_atom_site_fract_x
_atom_site_fract_y
_atom_site_fract_z
Si Si1 0.522080 0.791275 0.470420
Si Si2 0.247179 0.382281 0.407624
Si Si3 0.631672 0.622827 0.346876
Si Si4 0.147187 0.884478 0.807572
Si Si5 0.976354 0.211591 0.835820
O O1 0.512681 0.706093 0.743799
O O2 0.584141 0.770215 0.388636
O O3 0.500000 0.000000 0.499750
O O4 0.243913 0.463266 0.688506
O O5 0.307437 0.298371 0.372096
O O6 0.197796 0.246495 0.358537
O O7 0.626516 0.474990 0.575582
O O8 0.088336 0.792157 0.841473
O O9 0.149308 0.960640 0.524671
O O10 0.998611 0.295992 0.582908
O O11 0.000000 0.000000 0.832027
#
# Coordination Sequence:
#
# PCOD9338741 Si02
#       5
#     4   4   4   4   4
#     4  10  21  37  55  85 120 146 178 240 295 323
#     4  10  23  43  60  83 124 161 192 243 303 352
#     4  10  21  39  62  82 109 158 200 221 274 361
#     4  12  21  35  61  95 112 149 209 251 287 346
#     4  10  16  30  51  82 114 149 184 247 287 340
#
# _framework density 20.96686
#
# number of rings (size 3 to 8) (size 9 to 14) (size 15 to 20)
#    0.000    1.600    4.000    2.400    0.000    2.400 
#    7.200    0.000    0.000    3.600    0.000    0.000 
#    0.000    0.000    0.000    0.000    0.000    0.000 
#
# Total GULP energy -111635.737235 kJ/mol
# GULP energy per Si atom -5581.786862 kJ/mol
# Density = 2.091914 g / cm^3
# Si number density = 20.966860 Si / 1000 Ang^3
#
#
#
# Elastic Constant Matrix: (Units=GPa)
#
#
# Indices 1 2 3 4 5 6 
#
# 1 177.4966 31.5429 -8.7013 0.0000 0.0000 0.0000
# 2 31.5429 42.8070 -8.6832 0.0000 0.0000 0.0000
# 3 -8.7013 -8.6832 124.2190 0.0000 0.0000 0.0000
# 4 0.0000 0.0000 0.0000 0.2372 0.0000 0.0000
# 5 0.0000 0.0000 0.0000 0.0000 30.0708 0.0000
# 6 0.0000 0.0000 0.0000 0.0000 0.0000 76.7401
#
#
#
# Elastic Compliance Matrix: (Units=1/GPa)
#
#
# Indices 1 2 3 4 5 6 
#
# 1 0.006485 -0.004754 0.000122 0.000000 0.000000 0.000000
# 2 -0.004754 0.027181 0.001567 0.000000 0.000000 0.000000
# 3 0.000122 0.001567 0.008168 0.000000 0.000000 0.000000
# 4 0.000000 0.000000 0.000000 4.216564 0.000000 0.000000
# 5 0.000000 0.000000 0.000000 0.000000 0.033255 0.000000
# 6 0.000000 0.000000 0.000000 0.000000 0.000000 0.013031
#
#
# Mechanical properties :
#
#
# Convention : Reuss Voigt Hill
#
# Bulk Modulus (GPa) = 28.00714 41.42659 34.71686
# Shear Modulus (GPa) = 1.15668 43.43388 22.29528
#
# Velocity S-wave (km/s) = 0.74355 4.55637 3.26445
# Velocity P-wave (km/s) = 3.75819 6.89069 5.55003
#
# Compressibility (1/GPa) = 0.03570519
#
# Stress axis : x y z
#
# Youngs Moduli (GPa) = 154.21054 36.79008 122.42325
#
# Poissons Ratio (x) = 0.17488 -0.01493
# Poissons Ratio (y) = 0.73305 -0.19184
# Poissons Ratio (z) = -0.01881 -0.05765
#
# Static dielectric constant tensor:
#      x y z
#    x 1.748890 0.000000 0.000000 
#    y 0.000000 1.640970 0.000000 
#    z 0.000000 0.000000 1.796320 
# 
# From -- ./inp_files/135.got.cif
#   From: 2010.05.17/outbox.cif.g08.bks.cpg/sg27_1_cif.got.tgz:135.got - 2010.06.04 01:11:05.
