data_PCOD9338615
_publ_section_title
;
Structure prediction by ZEFSAII (Michael W. Deem and Ramdas Pophale) SiO2 
 PCOD9338615
Probable space group: P M C 21
;
_chemical_formula_sum "Si O2"
_cell_formula_units_Z 20
_cell_length_a 14.571808
_cell_length_b 5.041469
_cell_length_c 9.837766
_cell_angle_alpha 90.000000
_cell_angle_beta 90.000000
_cell_angle_gamma 90.000000
_cell_volume 722.714935
_symmetry_space_group_name_H-M "P M C 21"
_symmetry_group_IT_number 26
_symmetry_cell_setting 'orthorhombic'
loop_
_space_group_symop_operation_xyz
x,y,z
-x,-y,1/2+z
-x,y,z
x,-y,1/2+z
loop_
_atom_site_type_symbol
_atom_site_label
_atom_site_fract_x
_atom_site_fract_y
_atom_site_fract_z
Si Si1 0.604229 0.487956 0.187560
Si Si2 0.249361 0.215539 0.374432
Si Si3 0.898609 0.936955 0.205923
Si Si4 0.103500 0.438399 0.024496
Si Si5 0.602651 0.843009 0.432681
O O1 0.500000 0.396562 0.222345
O O2 0.685943 0.328534 0.256894
O O3 0.894695 0.639179 0.152731
O O4 0.611443 0.419502 0.027442
O O5 0.179126 0.007828 0.310106
O O6 0.186726 0.446082 0.437331
O O7 0.390215 0.762195 0.273251
O O8 0.318382 0.049548 0.469567
O O9 0.887547 0.142441 0.081115
O O10 0.000000 0.989748 0.262782
O O11 0.000000 0.467702 0.964849
O O12 0.500000 0.949736 0.457737
#
# Coordination Sequence:
#
# PCOD9338615 Si02
#       5
#     4   4   4   4   4
#     4  10  24  44  69 101 146 193 247 315 381 450
#     4  12  24  38  73 102 139 188 255 306 371 450
#     4  10  24  44  67 101 145 189 237 300 369 440
#     4  10  24  44  66 100 145 189 237 299 368 440
#     4  10  24  46  69 104 147 197 252 314 383 450
#
# _framework density 27.673427
#
# number of rings (size 3 to 8) (size 9 to 14) (size 15 to 20)
#    0.000    1.600    0.000    2.400    8.400    1.600 
#    0.000   10.000    0.000    0.000    0.000    0.000 
#    0.000    0.000    0.000    0.000    0.000    0.000 
#
# Total GULP energy -112126.540280 kJ/mol
# GULP energy per Si atom -5606.327014 kJ/mol
# Density = 2.761044 g / cm^3
# Si number density = 27.673427 Si / 1000 Ang^3
#
#
#
# Elastic Constant Matrix: (Units=GPa)
#
#
# Indices 1 2 3 4 5 6 
#
# 1 218.5280 38.8366 63.2970 0.0000 0.0000 0.0000
# 2 38.8366 70.3375 31.2894 0.0000 0.0000 0.0000
# 3 63.2970 31.2894 91.8517 0.0000 0.0000 0.0000
# 4 0.0000 0.0000 0.0000 45.4650 0.0000 0.0000
# 5 0.0000 0.0000 0.0000 0.0000 34.7049 0.0000
# 6 0.0000 0.0000 0.0000 0.0000 0.0000 25.1402
#
#
#
# Elastic Compliance Matrix: (Units=1/GPa)
#
#
# Indices 1 2 3 4 5 6 
#
# 1 0.005886 -0.001704 -0.003476 0.000000 0.000000 0.000000
# 2 -0.001704 0.017249 -0.004702 0.000000 0.000000 0.000000
# 3 -0.003476 -0.004702 0.014884 0.000000 0.000000 0.000000
# 4 0.000000 0.000000 0.000000 0.021995 0.000000 0.000000
# 5 0.000000 0.000000 0.000000 0.000000 0.028814 0.000000
# 6 0.000000 0.000000 0.000000 0.000000 0.000000 0.039777
#
#
# Mechanical properties :
#
#
# Convention : Reuss Voigt Hill
#
# Bulk Modulus (GPa) = 54.77473 71.95145 63.36309
# Shear Modulus (GPa) = 32.37229 37.54831 34.96030
#
# Velocity S-wave (km/s) = 3.42394 3.68752 3.55817
# Velocity P-wave (km/s) = 5.95545 6.64734 6.31088
#
# Compressibility (1/GPa) = 0.01825659
#
# Stress axis : x y z
#
# Youngs Moduli (GPa) = 169.90847 57.97270 67.18657
#
# Poissons Ratio (x) = 0.09876 0.23351
# Poissons Ratio (y) = 0.28946 0.31592
# Poissons Ratio (z) = 0.59052 0.27259
#
# Static dielectric constant tensor:
#      x y z
#    x 2.088490 0.000000 0.000000 
#    y 0.000000 2.128960 0.000000 
#    z 0.000000 0.000000 2.178900 
# 
# From -- ./inp_files/4409.got.cif
#   From: 2010.05.17/outbox.cif.g08.bks.cpg/sg26_3_cif.got.tgz:4409.got - 2010.06.04 01:07:29.
