data_PCOD9338954
_publ_section_title
;
Structure prediction by ZEFSAII (Michael W. Deem and Ramdas Pophale) SiO2 
 PCOD9338954
Probable space group: P C C 2
;
_chemical_formula_sum "Si O2"
_cell_formula_units_Z 32
_cell_length_a 10.359817
_cell_length_b 11.963477
_cell_length_c 12.550482
_cell_angle_alpha 90.000000
_cell_angle_beta 90.000000
_cell_angle_gamma 90.000000
_cell_volume 1555.499615
_symmetry_space_group_name_H-M "P C C 2"
_symmetry_group_IT_number 27
_symmetry_cell_setting 'orthorhombic'
loop_
_space_group_symop_operation_xyz
x,y,z
-x,-y,z
-x,y,1/2+z
x,-y,1/2+z
loop_
_atom_site_type_symbol
_atom_site_label
_atom_site_fract_x
_atom_site_fract_y
_atom_site_fract_z
Si Si1 0.262315 0.858989 0.627890
Si Si2 0.810016 0.316842 0.116946
Si Si3 0.947713 0.741577 0.989652
Si Si4 0.692866 0.086973 0.024253
Si Si5 0.261825 0.357845 0.856954
Si Si6 0.894495 0.903275 0.339738
Si Si7 0.620985 0.556555 0.478413
Si Si8 0.538739 0.776264 0.972519
O O1 0.144897 0.828998 0.548869
O O2 0.195832 0.859035 0.743634
O O3 0.381021 0.780258 0.585375
O O4 0.310842 0.983700 0.604025
O O5 0.743409 0.198015 0.085620
O O6 0.788336 0.344543 0.238972
O O7 0.741080 0.414383 0.050707
O O8 0.955079 0.305269 0.077136
O O9 0.857485 0.648799 0.937650
O O10 0.025918 0.803342 0.895715
O O11 0.795399 0.057858 0.931761
O O12 0.554665 0.118014 0.973942
O O13 0.339325 0.471080 0.885276
O O14 0.351065 0.250064 0.886256
O O15 0.000000 0.000000 0.309845
O O16 0.500000 0.500000 0.538780
O O17 0.560871 0.675720 0.449481
#
# Coordination Sequence:
#
# PCOD9338954 Si02
#       8
#     4   4   4   4   4   4   4   4
#     4  11  22  36  63  91 131 182 220 267 335 400
#     4  10  22  38  63  93 124 167 216 276 336 409
#     4  10  22  40  58  96 133 164 220 286 320 411
#     4  10  22  39  59  93 135 171 220 279 322 392
#     4  10  21  40  67  90 121 174 215 276 350 401
#     4  11  23  36  61  92 129 182 223 264 332 405
#     4   9  20  41  62  87 121 159 214 279 337 402
#     4   9  21  41  61  92 130 161 222 276 326 397
#
# _framework density 20.572168999999999
#
# number of rings (size 3 to 8) (size 9 to 14) (size 15 to 20)
#    0.000    2.000    1.250    1.125    5.250    4.000 
#    0.000   13.750    0.000    0.000    0.000    0.000 
#    0.000    0.000    0.000    0.000    0.000    0.000 
#
# Total GULP energy -178270.500194 kJ/mol
# GULP energy per Si atom -5570.953131 kJ/mol
# Density = 2.052535 g / cm^3
# Si number density = 20.572169 Si / 1000 Ang^3
#
#
#
# Elastic Constant Matrix: (Units=GPa)
#
#
# Indices 1 2 3 4 5 6 
#
# 1 115.5075 39.7941 34.8725 0.0000 0.0000 0.0000
# 2 39.7941 75.8054 39.5859 0.0000 0.0000 0.0000
# 3 34.8725 39.5859 94.7964 0.0000 0.0000 0.0000
# 4 0.0000 0.0000 0.0000 20.7269 0.0000 0.0000
# 5 0.0000 0.0000 0.0000 0.0000 18.7692 0.0000
# 6 0.0000 0.0000 0.0000 0.0000 0.0000 22.5226
#
#
#
# Elastic Compliance Matrix: (Units=1/GPa)
#
#
# Indices 1 2 3 4 5 6 
#
# 1 0.010877 -0.004630 -0.002068 0.000000 0.000000 0.000000
# 2 -0.004630 0.018841 -0.006165 0.000000 0.000000 0.000000
# 3 -0.002068 -0.006165 0.013884 0.000000 0.000000 0.000000
# 4 0.000000 0.000000 0.000000 0.048247 0.000000 0.000000
# 5 0.000000 0.000000 0.000000 0.000000 0.053279 0.000000
# 6 0.000000 0.000000 0.000000 0.000000 0.000000 0.044400
#
#
# Mechanical properties :
#
#
# Convention : Reuss Voigt Hill
#
# Bulk Modulus (GPa) = 55.93739 57.17936 56.55838
# Shear Modulus (GPa) = 22.60281 23.86086 23.23183
#
# Velocity S-wave (km/s) = 3.31827 3.40937 3.36413
# Velocity P-wave (km/s) = 6.47542 6.58432 6.53010
#
# Compressibility (1/GPa) = 0.01787713
#
# Stress axis : x y z
#
# Youngs Moduli (GPa) = 91.93854 53.07451 72.02575
#
# Poissons Ratio (x) = 0.24573 0.14893
# Poissons Ratio (y) = 0.42567 0.44402
# Poissons Ratio (z) = 0.19011 0.32719
#
# Static dielectric constant tensor:
#      x y z
#    x 1.768150 0.000000 0.000000 
#    y 0.000000 1.793880 0.000000 
#    z 0.000000 0.000000 1.708440 
# 
# From -- ./inp_files/2646.got.cif
#   From: 2010.05.17/outbox.cif.g08.bks.cpg/sg27_2_cif.got.tgz:2646.got - 2010.06.04 01:11:05.
