data_PCOD9338357
_publ_section_title
;
Structure prediction by ZEFSAII (Michael W. Deem and Ramdas Pophale) SiO2 
 PCOD9338357
Probable space group: P M C 21
;
_chemical_formula_sum "Si O2"
_cell_formula_units_Z 32
_cell_length_a 8.725142
_cell_length_b 11.699774
_cell_length_c 16.786385
_cell_angle_alpha 90.000000
_cell_angle_beta 90.000000
_cell_angle_gamma 90.000000
_cell_volume 1713.590935
_symmetry_space_group_name_H-M "P M C 21"
_symmetry_group_IT_number 26
_symmetry_cell_setting 'orthorhombic'
loop_
_space_group_symop_operation_xyz
x,y,z
-x,-y,1/2+z
-x,y,z
x,-y,1/2+z
loop_
_atom_site_type_symbol
_atom_site_label
_atom_site_fract_x
_atom_site_fract_y
_atom_site_fract_z
Si Si1 0.315862 0.936917 0.733400
Si Si2 0.682504 0.564940 0.508779
Si Si3 0.830368 0.395952 0.292373
Si Si4 0.184779 0.188410 0.710361
Si Si5 0.320210 0.207138 0.385848
Si Si6 0.174262 0.257063 0.130129
Si Si7 0.313271 0.695993 0.050730
Si Si8 0.179706 0.360600 0.842091
O O1 0.500000 0.943534 0.736324
O O2 0.259776 0.881556 0.818470
O O3 0.266477 0.852085 0.662132
O O4 0.244046 0.059549 0.716565
O O5 0.500000 0.564595 0.515479
O O6 0.749941 0.665396 0.563265
O O7 0.734715 0.436200 0.533433
O O8 0.732186 0.599626 0.420148
O O9 0.707424 0.331084 0.345884
O O10 0.830566 0.338232 0.207239
O O11 0.807741 0.529829 0.284599
O O12 0.000000 0.377638 0.329407
O O13 0.250106 0.253693 0.633070
O O14 0.234214 0.253075 0.791565
O O15 0.000000 0.191773 0.706949
O O16 0.500000 0.183380 0.392337
O O17 0.261517 0.223794 0.475945
O O18 0.000000 0.224964 0.108533
O O19 0.500000 0.697420 0.052596
O O20 0.000000 0.344486 0.862581
#
# Coordination Sequence:
#
# PCOD9338357 Si02
#       8
#     4   4   4   4   4   4   4   4
#     4  10  21  40  63  85 114 154 201 248 295 349
#     4  11  22  36  58  90 122 153 193 242 297 356
#     4   9  17  31  55  84 112 146 186 230 287 345
#     4  11  24  41  60  85 118 160 205 248 298 353
#     4   9  18  35  59  86 115 149 190 239 291 347
#     4  10  20  36  59  86 117 152 191 238 290 350
#     4  10  21  38  60  89 122 154 195 246 299 358
#     4  10  21  37  56  81 118 156 191 239 295 354
#
# _framework density 18.674234999999999
#
# number of rings (size 3 to 8) (size 9 to 14) (size 15 to 20)
#    0.000    2.000    1.250    2.250    0.000    4.500 
#    2.250    0.000    0.000    0.000    0.000    0.000 
#    0.000    0.000    0.000    0.000    0.000    0.000 
#
# Total GULP energy -178377.673448 kJ/mol
# GULP energy per Si atom -5574.302295 kJ/mol
# Density = 1.863173 g / cm^3
# Si number density = 18.674235 Si / 1000 Ang^3
#
#
#
# Elastic Constant Matrix: (Units=GPa)
#
#
# Indices 1 2 3 4 5 6 
#
# 1 36.5370 29.1928 27.1416 0.0000 0.0000 0.0000
# 2 29.1928 125.3122 66.8542 0.0000 0.0000 0.0000
# 3 27.1416 66.8542 87.6615 0.0000 0.0000 0.0000
# 4 0.0000 0.0000 0.0000 22.5411 0.0000 0.0000
# 5 0.0000 0.0000 0.0000 0.0000 28.0472 0.0000
# 6 0.0000 0.0000 0.0000 0.0000 0.0000 28.0473
#
#
#
# Elastic Compliance Matrix: (Units=1/GPa)
#
#
# Indices 1 2 3 4 5 6 
#
# 1 0.036815 -0.004207 -0.008190 0.000000 0.000000 0.000000
# 2 -0.004207 0.013935 -0.009325 0.000000 0.000000 0.000000
# 3 -0.008190 -0.009325 0.021055 0.000000 0.000000 0.000000
# 4 0.000000 0.000000 0.000000 0.044363 0.000000 0.000000
# 5 0.000000 0.000000 0.000000 0.000000 0.035654 0.000000
# 6 0.000000 0.000000 0.000000 0.000000 0.000000 0.035654
#
#
# Mechanical properties :
#
#
# Convention : Reuss Voigt Hill
#
# Bulk Modulus (GPa) = 35.25994 55.09868 45.17931
# Shear Modulus (GPa) = 20.80094 24.14858 22.47476
#
# Velocity S-wave (km/s) = 3.34111 3.59994 3.47294
# Velocity P-wave (km/s) = 5.81435 6.84461 6.35041
#
# Compressibility (1/GPa) = 0.02836080
#
# Stress axis : x y z
#
# Youngs Moduli (GPa) = 27.16290 71.76229 47.49516
#
# Poissons Ratio (x) = 0.30190 0.38899
# Poissons Ratio (y) = 0.11427 0.44288
# Poissons Ratio (z) = 0.22247 0.66917
#
# Static dielectric constant tensor:
#      x y z
#    x 1.669090 0.000000 0.000000 
#    y 0.000000 1.633430 0.000000 
#    z 0.000000 0.000000 1.666910 
# 
# From -- ./inp_files/4254.got.cif
#   From: 2010.05.17/outbox.cif.g08.bks.cpg/sg26_3_cif.got.tgz:4254.got - 2010.06.04 01:07:29.
