data_PCOD9338766
_publ_section_title
;
Structure prediction by ZEFSAII (Michael W. Deem and Ramdas Pophale) SiO2 
 PCOD9338766
Probable space group: P C C 2
;
_chemical_formula_sum "Si O2"
_cell_formula_units_Z 24
_cell_length_a 13.005475
_cell_length_b 5.460972
_cell_length_c 15.115824
_cell_angle_alpha 90.000000
_cell_angle_beta 90.000000
_cell_angle_gamma 90.000000
_cell_volume 1073.564136
_symmetry_space_group_name_H-M "P C C 2"
_symmetry_group_IT_number 27
_symmetry_cell_setting 'orthorhombic'
loop_
_space_group_symop_operation_xyz
x,y,z
-x,-y,z
-x,y,1/2+z
x,-y,1/2+z
loop_
_atom_site_type_symbol
_atom_site_label
_atom_site_fract_x
_atom_site_fract_y
_atom_site_fract_z
Si Si1 0.120795 0.025625 0.765470
Si Si2 0.649374 0.428326 0.659370
Si Si3 0.769241 0.476144 0.825695
Si Si4 0.842816 0.048422 0.054682
Si Si5 0.603623 0.069465 0.073715
Si Si6 0.176640 0.549501 0.514037
O O1 0.162318 0.288274 0.798301
O O2 0.141064 0.027147 0.659553
O O3 0.176901 0.787120 0.807163
O O4 0.000000 0.000000 0.780960
O O5 0.671569 0.478431 0.761388
O O6 0.593950 0.662183 0.616335
O O7 0.757573 0.434836 0.604617
O O8 0.608518 0.155027 0.643897
O O9 0.750728 0.516140 0.929206
O O10 0.718932 0.059369 0.033802
O O11 0.887463 0.303212 0.021748
O O12 0.881114 0.805010 0.008081
O O13 0.500000 0.000000 0.019975
#
# Coordination Sequence:
#
# PCOD9338766 Si02
#       6
#     4   4   4   4   4   4
#     4  12  23  40  62  86 121 157 196 249 300 347
#     4  10  19  37  58  85 118 153 198 229 305 345
#     4  12  21  40  64  84 117 159 194 250 294 348
#     4  10  19  40  57  90 116 156 196 234 299 348
#     4  10  18  32  61  88 115 155 198 237 285 351
#     4  10  20  35  64  83 111 156 196 233 291 351
#
# _framework density 22.355440999999999
#
# number of rings (size 3 to 8) (size 9 to 14) (size 15 to 20)
#    0.000    1.333    6.667    2.000    0.000    0.000 
#    0.000    5.000    0.000   24.000    0.000    0.000 
#    0.000    0.000    0.000    0.000    0.000    0.000 
#
# Total GULP energy -133810.954603 kJ/mol
# GULP energy per Si atom -5575.456442 kJ/mol
# Density = 2.230456 g / cm^3
# Si number density = 22.355441 Si / 1000 Ang^3
#
#
#
# Elastic Constant Matrix: (Units=GPa)
#
#
# Indices 1 2 3 4 5 6 
#
# 1 68.2162 12.6930 -27.3144 0.0000 0.0000 0.0000
# 2 12.6930 223.3082 6.9771 0.0000 0.0000 0.0000
# 3 -27.3144 6.9771 73.8014 0.0000 0.0000 0.0000
# 4 0.0000 0.0000 0.0000 17.1843 0.0000 0.0000
# 5 0.0000 0.0000 0.0000 0.0000 -42.8930 0.0000
# 6 0.0000 0.0000 0.0000 0.0000 0.0000 18.9843
#
#
#
# Elastic Compliance Matrix: (Units=1/GPa)
#
#
# Indices 1 2 3 4 5 6 
#
# 1 0.017526 -0.001202 0.006600 0.000000 0.000000 0.000000
# 2 -0.001202 0.004574 -0.000877 0.000000 0.000000 0.000000
# 3 0.006600 -0.000877 0.016076 0.000000 0.000000 0.000000
# 4 0.000000 0.000000 0.000000 0.058193 0.000000 0.000000
# 5 0.000000 0.000000 0.000000 0.000000 -0.023314 0.000000
# 6 0.000000 0.000000 0.000000 0.000000 0.000000 0.052675
#
#
# Mechanical properties :
#
#
# Convention : Reuss Voigt Hill
#
# Bulk Modulus (GPa) = 21.17942 38.89301 30.03622
# Shear Modulus (GPa) = 37.75659 23.51979 30.63819
#
# Velocity S-wave (km/s) = 4.11411 3.24710 3.70605
# Velocity P-wave (km/s) = 5.66236 5.61191 5.63719
#
# Compressibility (1/GPa) = 0.04721564
#
# Stress axis : x y z
#
# Youngs Moduli (GPa) = 57.05900 218.63300 62.20628
#
# Poissons Ratio (x) = 0.26288 -0.41056
# Poissons Ratio (y) = 0.06861 0.05458
# Poissons Ratio (z) = -0.37659 0.19183
#
# Static dielectric constant tensor:
#      x y z
#    x 1.958760 0.000000 0.000000 
#    y 0.000000 1.922490 0.000000 
#    z 0.000000 0.000000 1.791560 
# 
# From -- ./inp_files/3706.got.cif
#   From: 2010.05.17/outbox.cif.g08.bks.cpg/sg27_2_cif.got.tgz:3706.got - 2010.06.04 01:11:05.
