data_PCOD9338588
_publ_section_title
;
Structure prediction by ZEFSAII (Michael W. Deem and Ramdas Pophale) SiO2 
 PCOD9338588
Probable space group: P M C 21
;
_chemical_formula_sum "Si O2"
_cell_formula_units_Z 30
_cell_length_a 16.230294
_cell_length_b 4.896614
_cell_length_c 15.645532
_cell_angle_alpha 90.000000
_cell_angle_beta 90.000000
_cell_angle_gamma 90.000000
_cell_volume 1243.404950
_symmetry_space_group_name_H-M "P M C 21"
_symmetry_group_IT_number 26
_symmetry_cell_setting 'orthorhombic'
loop_
_space_group_symop_operation_xyz
x,y,z
-x,-y,1/2+z
-x,y,z
x,-y,1/2+z
loop_
_atom_site_type_symbol
_atom_site_label
_atom_site_fract_x
_atom_site_fract_y
_atom_site_fract_z
Si Si1 0.284727 0.300482 0.051760
Si Si2 0.277547 0.025727 0.889968
Si Si3 0.592932 0.698781 0.150001
Si Si4 0.142192 0.625976 0.954659
Si Si5 0.854706 0.870377 0.666952
Si Si6 0.407555 0.202303 0.266564
Si Si7 0.000000 0.539037 0.570542
Si Si8 0.841638 0.636457 0.287761
O O1 0.342202 0.530934 0.093122
O O2 0.228623 0.104571 0.111756
O O3 0.214813 0.463321 0.000025
O O4 0.323687 0.125788 0.975219
O O5 0.190760 0.885983 0.918057
O O6 0.339144 0.840204 0.837275
O O7 0.244638 0.252891 0.823807
O O8 0.500000 0.694334 0.112704
O O9 0.609334 0.004876 0.183936
O O10 0.591074 0.510794 0.234486
O O11 0.108966 0.451659 0.873187
O O12 0.071547 0.651755 0.023863
O O13 0.831427 0.637076 0.734796
O O14 0.928032 0.739586 0.612171
O O15 0.877031 0.138710 0.722054
O O16 0.500000 0.127994 0.295591
#
# Coordination Sequence:
#
# PCOD9338588 Si02
#       8
#     4   4   4   4   4   4   2   4
#     4  10  24  38  65  98 134 173 222 270 351 403
#     4  11  23  42  69  97 138 183 224 279 343 414
#     4  10  22  42  66  98 135 177 226 286 339 398
#     4  10  24  46  66 101 134 184 217 287 339 418
#     4  11  24  44  68  97 125 176 218 286 325 413
#     4  10  23  41  66  97 134 179 231 282 334 400
#     4  10  26  48  66 100 142 168 224 282 358 404
#     4  11  23  45  69  96 127 169 237 260 341 400
#
# _framework density 24.127296999999999
#
# number of rings (size 3 to 8) (size 9 to 14) (size 15 to 20)
#    0.000    1.600    1.333    1.600    9.333    2.133 
#    4.800    1.333    0.000    0.000    0.000    0.000 
#    0.000    0.000    0.000    0.000    0.000    0.000 
#
# Total GULP energy -167171.810712 kJ/mol
# GULP energy per Si atom -5572.393690 kJ/mol
# Density = 2.407238 g / cm^3
# Si number density = 24.127297 Si / 1000 Ang^3
#
#
#
# Elastic Constant Matrix: (Units=GPa)
#
#
# Indices 1 2 3 4 5 6 
#
# 1 106.5252 3.3142 34.0387 0.0000 0.0000 0.0000
# 2 3.3142 87.4885 15.0178 0.0000 0.0000 0.0000
# 3 34.0387 15.0178 71.0830 0.0000 0.0000 0.0000
# 4 0.0000 0.0000 0.0000 34.6265 0.0000 0.0000
# 5 0.0000 0.0000 0.0000 0.0000 8.9600 0.0000
# 6 0.0000 0.0000 0.0000 0.0000 0.0000 162.2355
#
#
#
# Elastic Compliance Matrix: (Units=1/GPa)
#
#
# Indices 1 2 3 4 5 6 
#
# 1 0.011105 0.000511 -0.005426 0.000000 0.000000 0.000000
# 2 0.000511 0.011884 -0.002755 0.000000 0.000000 0.000000
# 3 -0.005426 -0.002755 0.017248 0.000000 0.000000 0.000000
# 4 0.000000 0.000000 0.000000 0.028880 0.000000 0.000000
# 5 0.000000 0.000000 0.000000 0.000000 0.111607 0.000000
# 6 0.000000 0.000000 0.000000 0.000000 0.000000 0.006164
#
#
# Mechanical properties :
#
#
# Convention : Reuss Voigt Hill
#
# Bulk Modulus (GPa) = 40.16598 41.09312 40.62955
# Shear Modulus (GPa) = 23.74993 55.34615 39.54804
#
# Velocity S-wave (km/s) = 3.14085 4.79469 4.05302
# Velocity P-wave (km/s) = 5.46232 6.90802 6.22727
#
# Compressibility (1/GPa) = 0.02489669
#
# Stress axis : x y z
#
# Youngs Moduli (GPa) = 90.04723 84.14903 57.97665
#
# Poissons Ratio (x) = -0.04297 0.31457
# Poissons Ratio (y) = -0.04598 0.15974
# Poissons Ratio (z) = 0.48857 0.23185
#
# Static dielectric constant tensor:
#      x y z
#    x 1.914000 0.000000 0.000000 
#    y 0.000000 1.980350 0.000000 
#    z 0.000000 0.000000 2.027530 
# 
# From -- ./inp_files/4700.got.cif
#   From: 2010.05.17/outbox.cif.g08.bks.cpg/sg26_3_cif.got.tgz:4700.got - 2010.06.04 01:07:29.
