data_PCOD9338888
_publ_section_title
;
Structure prediction by ZEFSAII (Michael W. Deem and Ramdas Pophale) SiO2 
 PCOD9338888
Probable space group: P C C 2
;
_chemical_formula_sum "Si O2"
_cell_formula_units_Z 26
_cell_length_a 8.178618
_cell_length_b 11.525373
_cell_length_c 12.165263
_cell_angle_alpha 90.000000
_cell_angle_beta 90.000000
_cell_angle_gamma 90.000000
_cell_volume 1146.717436
_symmetry_space_group_name_H-M "P C C 2"
_symmetry_group_IT_number 27
_symmetry_cell_setting 'orthorhombic'
loop_
_space_group_symop_operation_xyz
x,y,z
-x,-y,z
-x,y,1/2+z
x,-y,1/2+z
loop_
_atom_site_type_symbol
_atom_site_label
_atom_site_fract_x
_atom_site_fract_y
_atom_site_fract_z
Si Si1 0.690127 0.151240 0.510300
Si Si2 0.775449 0.289740 0.292535
Si Si3 0.832385 0.075559 0.937970
Si Si4 0.182955 0.468497 0.215794
Si Si5 0.872871 0.791006 0.229817
Si Si6 0.360142 0.263178 0.555290
Si Si7 0.500000 0.500000 0.561163
O O1 0.720482 0.229680 0.403087
O O2 0.817975 0.183537 0.606448
O O3 0.511293 0.178171 0.550420
O O4 0.705776 0.018696 0.478102
O O5 0.802612 0.428141 0.304566
O O6 0.664900 0.286298 0.184264
O O7 0.935117 0.219364 0.252953
O O8 0.808965 0.111069 0.811606
O O9 0.795885 0.196785 0.002375
O O10 0.000000 0.000000 0.950546
O O11 0.182844 0.338820 0.261043
O O12 0.338498 0.467666 0.133578
O O13 0.000000 0.500000 0.164950
O O14 0.428162 0.384232 0.502756
#
# Coordination Sequence:
#
# PCOD9338888 Si02
#       7
#     4   4   4   4   4   4   2
#     4  12  26  46  75 108 150 204 257 319 391 468
#     4  10  24  46  74 111 152 193 254 321 398 474
#     4  12  27  47  72 107 148 211 258 322 387 464
#     4   9  20  42  73 112 151 196 249 324 398 473
#     4  11  24  48  74 107 149 198 263 322 385 474
#     4  11  26  46  76 111 153 196 258 323 400 478
#     4  10  20  46  76 116 148 200 248 338 400 474
#
# _framework density 22.673417000000001
#
# number of rings (size 3 to 8) (size 9 to 14) (size 15 to 20)
#    0.000    1.231    3.077    1.385    4.308    1.846 
#    0.000    3.077    0.000    0.000    0.000    0.000 
#    0.000    0.000    0.000    0.000    0.000    0.000 
#
# Total GULP energy -144985.610171 kJ/mol
# GULP energy per Si atom -5576.369622 kJ/mol
# Density = 2.262181 g / cm^3
# Si number density = 22.673417 Si / 1000 Ang^3
#
#
#
# Elastic Constant Matrix: (Units=GPa)
#
#
# Indices 1 2 3 4 5 6 
#
# 1 79.3745 23.2381 17.0038 0.0000 0.0000 0.0000
# 2 23.2381 156.6604 45.9258 0.0000 0.0000 0.0000
# 3 17.0038 45.9258 99.8390 0.0000 0.0000 0.0000
# 4 0.0000 0.0000 0.0000 29.3983 0.0000 0.0000
# 5 0.0000 0.0000 0.0000 0.0000 -6.0615 0.0000
# 6 0.0000 0.0000 0.0000 0.0000 0.0000 22.5658
#
#
#
# Elastic Compliance Matrix: (Units=1/GPa)
#
#
# Indices 1 2 3 4 5 6 
#
# 1 0.013382 -0.001522 -0.001579 0.000000 0.000000 0.000000
# 2 -0.001522 0.007551 -0.003214 0.000000 0.000000 0.000000
# 3 -0.001579 -0.003214 0.011764 0.000000 0.000000 0.000000
# 4 0.000000 0.000000 0.000000 0.034016 0.000000 0.000000
# 5 0.000000 0.000000 0.000000 0.000000 -0.164976 0.000000
# 6 0.000000 0.000000 0.000000 0.000000 0.000000 0.044315
#
#
# Mechanical properties :
#
#
# Convention : Reuss Voigt Hill
#
# Bulk Modulus (GPa) = 49.83470 56.46769 53.15119
# Shear Modulus (GPa) = -144.39174 25.82759 -59.28207
#
# Velocity S-wave (km/s) = -7.98884 3.37874 -5.11887
# Velocity P-wave (km/s) = 7.94156 6.33877 3.38292
#
# Compressibility (1/GPa) = 0.02006634
#
# Stress axis : x y z
#
# Youngs Moduli (GPa) = 74.72497 132.42698 85.00772
#
# Poissons Ratio (x) = 0.20158 0.13423
# Poissons Ratio (y) = 0.11375 0.27324
# Poissons Ratio (z) = 0.11799 0.42567
#
# Static dielectric constant tensor:
#      x y z
#    x 1.951960 0.000000 0.000000 
#    y 0.000000 1.897410 0.000000 
#    z 0.000000 0.000000 1.852100 
# 
# From -- ./inp_files/2365.got.cif
#   From: 2010.05.17/outbox.cif.g08.bks.cpg/sg27_2_cif.got.tgz:2365.got - 2010.06.04 01:11:05.
