data_PCOD9338956
_publ_section_title
;
Structure prediction by ZEFSAII (Michael W. Deem and Ramdas Pophale) SiO2 
 PCOD9338956
Probable space group: P C C 2
;
_chemical_formula_sum "Si O2"
_cell_formula_units_Z 26
_cell_length_a 5.131876
_cell_length_b 16.564968
_cell_length_c 13.803252
_cell_angle_alpha 90.000000
_cell_angle_beta 90.000000
_cell_angle_gamma 90.000000
_cell_volume 1173.405642
_symmetry_space_group_name_H-M "P C C 2"
_symmetry_group_IT_number 27
_symmetry_cell_setting 'orthorhombic'
loop_
_space_group_symop_operation_xyz
x,y,z
-x,-y,z
-x,y,1/2+z
x,-y,1/2+z
loop_
_atom_site_type_symbol
_atom_site_label
_atom_site_fract_x
_atom_site_fract_y
_atom_site_fract_z
Si Si1 0.500000 0.000000 0.183450
Si Si2 0.819939 0.155823 0.427316
Si Si3 0.420866 0.683819 0.080651
Si Si4 0.679976 0.854976 0.552961
Si Si5 0.000000 0.000000 0.805175
Si Si6 0.078459 0.334010 0.949299
Si Si7 0.000000 0.500000 0.836638
Si Si8 0.254797 0.529106 0.152506
O O1 0.379810 0.932006 0.115519
O O2 0.746218 0.971194 0.246017
O O3 0.023253 0.149199 0.517376
O O4 0.861887 0.249151 0.393226
O O5 0.522478 0.146613 0.462834
O O6 0.898430 0.079100 0.362745
O O7 0.210612 0.673799 0.994110
O O8 0.705387 0.666574 0.035944
O O9 0.396496 0.775469 0.112844
O O10 0.309619 0.622921 0.160787
O O11 0.074862 0.418525 0.891918
O O12 0.225622 0.515664 0.755347
O O13 0.500000 0.500000 0.093147
O O14 0.000000 0.500000 0.098187
#
# Coordination Sequence:
#
# PCOD9338956 Si02
#       8
#     2   4   4   4   2   4   2   4
#     4  12  24  38  60 100 120 160 196 254 302 370
#     4  10  21  42  62  88 117 168 197 251 298 370
#     4  10  22  40  62  88 113 160 207 252 290 358
#     4  10  21  41  64  86 121 158 210 246 298 355
#     4  12  24  38  62  94 130 156 198 246 320 362
#     4  10  23  38  64  87 117 154 214 246 298 350
#     4  10  26  38  58  88 124 158 190 256 306 364
#     4  10  23  39  55  86 118 158 194 237 315 356
#
# _framework density 22.157724999999999
#
# number of rings (size 3 to 8) (size 9 to 14) (size 15 to 20)
#    0.462    1.231    0.000    3.692    5.385    1.231 
#    2.769    0.000    0.000    0.000    0.000    0.000 
#    0.000    0.000    0.000    0.000    0.000    0.000 
#
# Total GULP energy -144876.192097 kJ/mol
# GULP energy per Si atom -5572.161235 kJ/mol
# Density = 2.210729 g / cm^3
# Si number density = 22.157725 Si / 1000 Ang^3
#
#
#
# Elastic Constant Matrix: (Units=GPa)
#
#
# Indices 1 2 3 4 5 6 
#
# 1 107.7023 -8.7980 -8.1313 0.0000 0.0000 0.0000
# 2 -8.7980 130.4674 22.7893 0.0000 0.0000 0.0000
# 3 -8.1313 22.7893 22.0838 0.0000 0.0000 0.0000
# 4 0.0000 0.0000 0.0000 0.2194 0.0000 0.0000
# 5 0.0000 0.0000 0.0000 0.0000 20.4641 0.0000
# 6 0.0000 0.0000 0.0000 0.0000 0.0000 32.7199
#
#
#
# Elastic Compliance Matrix: (Units=1/GPa)
#
#
# Indices 1 2 3 4 5 6 
#
# 1 0.009550 0.000036 0.003479 0.000000 0.000000 0.000000
# 2 0.000036 0.009350 -0.009636 0.000000 0.000000 0.000000
# 3 0.003479 -0.009636 0.056507 0.000000 0.000000 0.000000
# 4 0.000000 0.000000 0.000000 4.557934 0.000000 0.000000
# 5 0.000000 0.000000 0.000000 0.000000 0.048866 0.000000
# 6 0.000000 0.000000 0.000000 0.000000 0.000000 0.030562
#
#
# Mechanical properties :
#
#
# Convention : Reuss Voigt Hill
#
# Bulk Modulus (GPa) = 15.83110 30.21928 23.02519
# Shear Modulus (GPa) = 1.05350 27.64024 14.34687
#
# Velocity S-wave (km/s) = 0.69028 3.53573 2.54734
# Velocity P-wave (km/s) = 2.79205 5.50785 4.36646
#
# Compressibility (1/GPa) = 0.06316680
#
# Stress axis : x y z
#
# Youngs Moduli (GPa) = 104.70676 106.94846 17.69704
#
# Poissons Ratio (x) = -0.00389 -0.06157
# Poissons Ratio (y) = -0.00380 0.17052
# Poissons Ratio (z) = -0.36428 1.03052
#
# Static dielectric constant tensor:
#      x y z
#    x 1.884230 0.000000 0.000000 
#    y 0.000000 1.916170 0.000000 
#    z 0.000000 0.000000 1.804640 
# 
# From -- ./inp_files/3109.got.cif
#   From: 2010.05.17/outbox.cif.g08.bks.cpg/sg27_2_cif.got.tgz:3109.got - 2010.06.04 01:11:05.
