data_PCOD9338287
_publ_section_title
;
Structure prediction by ZEFSAII (Michael W. Deem and Ramdas Pophale) SiO2 
 PCOD9338287
Probable space group: P M C 21
;
_chemical_formula_sum "Si O2"
_cell_formula_units_Z 32
_cell_length_a 8.666692
_cell_length_b 11.782080
_cell_length_c 16.657379
_cell_angle_alpha 90.000000
_cell_angle_beta 90.000000
_cell_angle_gamma 90.000000
_cell_volume 1700.912596
_symmetry_space_group_name_H-M "P M C 21"
_symmetry_group_IT_number 26
_symmetry_cell_setting 'orthorhombic'
loop_
_space_group_symop_operation_xyz
x,y,z
-x,-y,1/2+z
-x,y,z
x,-y,1/2+z
loop_
_atom_site_type_symbol
_atom_site_label
_atom_site_fract_x
_atom_site_fract_y
_atom_site_fract_z
Si Si1 0.687241 0.189946 0.555990
Si Si2 0.185140 0.438207 0.849442
Si Si3 0.314359 0.931775 0.582696
Si Si4 0.177652 0.260444 0.975075
Si Si5 0.815304 0.307463 0.395769
Si Si6 0.320957 0.367651 0.682677
Si Si7 0.320044 0.787483 0.735385
Si Si8 0.327227 0.600549 0.602874
O O1 0.500000 0.193772 0.553295
O O2 0.748512 0.252024 0.476507
O O3 0.735822 0.256936 0.636392
O O4 0.736721 0.059270 0.564388
O O5 0.244048 0.329712 0.899932
O O6 0.240817 0.562144 0.879752
O O7 0.227531 0.412476 0.758200
O O8 0.000000 0.439783 0.858896
O O9 0.500000 0.930224 0.586396
O O10 0.262629 0.848144 0.511464
O O11 0.262289 0.878883 0.668860
O O12 0.000000 0.230993 0.960652
O O13 0.196118 0.353381 0.045492
O O14 0.767814 0.232278 0.318243
O O15 0.000000 0.310611 0.401535
O O16 0.500000 0.352202 0.707107
O O17 0.317784 0.468327 0.617633
O O18 0.500000 0.812427 0.753081
O O19 0.314996 0.668851 0.686241
O O20 0.500000 0.628689 0.570820
#
# Coordination Sequence:
#
# PCOD9338287 Si02
#       8
#     4   4   4   4   4   4   4   4
#     4  10  22  40  60  83 112 149 191 238 286 330
#     4  10  22  37  53  82 121 150 178 224 283 341
#     4   9  20  40  60  80 110 146 190 236 281 330
#     4  10  20  34  55  81 110 146 184 225 273 331
#     4  11  22  36  57  86 117 150 187 227 280 344
#     4  10  20  35  57  83 111 144 185 230 277 334
#     4   9  17  33  57  81 110 146 184 232 277 324
#     4   9  17  31  53  82 111 139 177 226 277 326
#
# _framework density 18.813431000000001
#
# number of rings (size 3 to 8) (size 9 to 14) (size 15 to 20)
#    0.000    2.250    1.250    2.250    0.000    5.000 
#    2.250    0.000    0.000    0.000    0.000    0.000 
#    0.000    0.000    0.000    0.000    0.000    0.000 
#
# Total GULP energy -178363.041668 kJ/mol
# GULP energy per Si atom -5573.845052 kJ/mol
# Density = 1.877061 g / cm^3
# Si number density = 18.813431 Si / 1000 Ang^3
#
#
#
# Elastic Constant Matrix: (Units=GPa)
#
#
# Indices 1 2 3 4 5 6 
#
# 1 9.7838 18.4532 7.7118 0.0000 0.0000 0.0000
# 2 18.4532 142.8607 57.5833 0.0000 0.0000 0.0000
# 3 7.7118 57.5833 62.5668 0.0000 0.0000 0.0000
# 4 0.0000 0.0000 0.0000 23.3564 0.0000 0.0000
# 5 0.0000 0.0000 0.0000 0.0000 29.1823 0.0000
# 6 0.0000 0.0000 0.0000 0.0000 0.0000 18.4430
#
#
#
# Elastic Compliance Matrix: (Units=1/GPa)
#
#
# Indices 1 2 3 4 5 6 
#
# 1 0.135166 -0.017080 -0.000940 0.000000 0.000000 0.000000
# 2 -0.017080 0.013286 -0.010123 0.000000 0.000000 0.000000
# 3 -0.000940 -0.010123 0.025415 0.000000 0.000000 0.000000
# 4 0.000000 0.000000 0.000000 0.042815 0.000000 0.000000
# 5 0.000000 0.000000 0.000000 0.000000 0.034267 0.000000
# 6 0.000000 0.000000 0.000000 0.000000 0.000000 0.054221
#
#
# Mechanical properties :
#
#
# Convention : Reuss Voigt Hill
#
# Bulk Modulus (GPa) = 8.50479 42.52310 25.51394
# Shear Modulus (GPa) = 12.47968 22.96055 17.72012
#
# Velocity S-wave (km/s) = 2.57833 3.49726 3.07235
# Velocity P-wave (km/s) = 3.65980 6.24174 5.11632
#
# Compressibility (1/GPa) = 0.11758085
#
# Stress axis : x y z
#
# Youngs Moduli (GPa) = 7.39831 75.26567 39.34639
#
# Poissons Ratio (x) = 1.28556 0.03700
# Poissons Ratio (y) = 0.12636 0.39829
# Poissons Ratio (z) = 0.00696 0.76190
#
# Static dielectric constant tensor:
#      x y z
#    x 1.659900 0.000000 0.000000 
#    y 0.000000 1.661580 0.000000 
#    z 0.000000 0.000000 1.660520 
# 
# From -- ./inp_files/4190.got.cif
#   From: 2010.05.17/outbox.cif.g08.bks.cpg/sg26_3_cif.got.tgz:4190.got - 2010.06.04 01:07:29.
