data_PCOD9338785
_publ_section_title
;
Structure prediction by ZEFSAII (Michael W. Deem and Ramdas Pophale) SiO2 
 PCOD9338785
Probable space group: P C C 2
;
_chemical_formula_sum "Si O2"
_cell_formula_units_Z 20
_cell_length_a 7.560517
_cell_length_b 23.519117
_cell_length_c 5.244543
_cell_angle_alpha 90.000000
_cell_angle_beta 90.000000
_cell_angle_gamma 90.000000
_cell_volume 932.567245
_symmetry_space_group_name_H-M "P C C 2"
_symmetry_group_IT_number 27
_symmetry_cell_setting 'orthorhombic'
loop_
_space_group_symop_operation_xyz
x,y,z
-x,-y,z
-x,y,1/2+z
x,-y,1/2+z
loop_
_atom_site_type_symbol
_atom_site_label
_atom_site_fract_x
_atom_site_fract_y
_atom_site_fract_z
Si Si1 0.935561 0.564073 0.328320
Si Si2 0.375743 0.862969 0.680960
Si Si3 0.798979 0.976298 0.070896
Si Si4 0.616229 0.261976 0.737945
Si Si5 0.388398 0.616921 0.627337
O O1 0.744457 0.567342 0.202337
O O2 0.000000 0.500000 0.374830
O O3 0.941970 0.591134 0.608328
O O4 0.493739 0.868448 0.936948
O O5 0.228333 0.911724 0.656611
O O6 0.296385 0.799062 0.688412
O O7 0.715558 0.986067 0.794796
O O8 0.000000 0.000000 0.040773
O O9 0.456525 0.262743 0.527512
O O10 0.707034 0.322142 0.679335
O O11 0.458441 0.614697 0.341053
#
# Coordination Sequence:
#
# PCOD9338785 Si02
#       5
#     4   4   4   4   4
#     4  10  21  38  55  78 118 155 177 227 278 321
#     4  10  19  32  53  79 103 130 173 221 264 311
#     4  10  21  35  50  68 102 144 167 210 262 311
#     4   8  16  30  51  79 104 128 167 224 271 305
#     4  10  19  35  60  84 107 145 191 229 271 328
#
# _framework density 21.446175
#
# number of rings (size 3 to 8) (size 9 to 14) (size 15 to 20)
#    0.000    2.400    0.000    2.400    0.000    2.400 
#    0.000   12.000    8.800    0.000    0.000    0.000 
#    0.000    0.000    0.000    0.000    0.000    0.000 
#
# Total GULP energy -111339.215668 kJ/mol
# GULP energy per Si atom -5566.960783 kJ/mol
# Density = 2.139736 g / cm^3
# Si number density = 21.446175 Si / 1000 Ang^3
#
#
#
# Elastic Constant Matrix: (Units=GPa)
#
#
# Indices 1 2 3 4 5 6 
#
# 1 41.6147 32.5158 0.7034 0.0000 0.0000 0.0000
# 2 32.5158 97.0291 -16.0447 0.0000 0.0000 0.0000
# 3 0.7034 -16.0447 136.9370 0.0000 0.0000 0.0000
# 4 0.0000 0.0000 0.0000 24.8222 0.0000 0.0000
# 5 0.0000 0.0000 0.0000 0.0000 15.8040 0.0000
# 6 0.0000 0.0000 0.0000 0.0000 0.0000 14.6900
#
#
#
# Elastic Compliance Matrix: (Units=1/GPa)
#
#
# Indices 1 2 3 4 5 6 
#
# 1 0.032848 -0.011254 -0.001487 0.000000 0.000000 0.000000
# 2 -0.011254 0.014365 0.001741 0.000000 0.000000 0.000000
# 3 -0.001487 0.001741 0.007514 0.000000 0.000000 0.000000
# 4 0.000000 0.000000 0.000000 0.040287 0.000000 0.000000
# 5 0.000000 0.000000 0.000000 0.000000 0.063275 0.000000
# 6 0.000000 0.000000 0.000000 0.000000 0.000000 0.068073
#
#
# Mechanical properties :
#
#
# Convention : Reuss Voigt Hill
#
# Bulk Modulus (GPa) = 30.55528 34.43664 32.49596
# Shear Modulus (GPa) = 19.28469 28.29031 23.78750
#
# Velocity S-wave (km/s) = 3.00194 3.63592 3.33404
# Velocity P-wave (km/s) = 5.12776 5.80678 5.47780
#
# Compressibility (1/GPa) = 0.03272756
#
# Stress axis : x y z
#
# Youngs Moduli (GPa) = 30.44288 69.61163 133.08039
#
# Poissons Ratio (x) = 0.78340 0.19793
# Poissons Ratio (y) = 0.34260 -0.23169
# Poissons Ratio (z) = 0.04528 -0.12119
#
# Static dielectric constant tensor:
#      x y z
#    x 1.694700 0.000000 0.000000 
#    y 0.000000 1.860210 0.000000 
#    z 0.000000 0.000000 1.873890 
# 
# From -- ./inp_files/157.got.cif
#   From: 2010.05.17/outbox.cif.g08.bks.cpg/sg27_1_cif.got.tgz:157.got - 2010.06.04 01:11:05.
