data_PCOD9338871
_publ_section_title
;
Structure prediction by ZEFSAII (Michael W. Deem and Ramdas Pophale) SiO2 
 PCOD9338871
Probable space group: P C C 2
;
_chemical_formula_sum "Si O2"
_cell_formula_units_Z 22
_cell_length_a 8.012950
_cell_length_b 14.035125
_cell_length_c 8.942651
_cell_angle_alpha 90.000000
_cell_angle_beta 90.000000
_cell_angle_gamma 90.000000
_cell_volume 1005.715167
_symmetry_space_group_name_H-M "P C C 2"
_symmetry_group_IT_number 27
_symmetry_cell_setting 'orthorhombic'
loop_
_space_group_symop_operation_xyz
x,y,z
-x,-y,z
-x,y,1/2+z
x,-y,1/2+z
loop_
_atom_site_type_symbol
_atom_site_label
_atom_site_fract_x
_atom_site_fract_y
_atom_site_fract_z
Si Si1 0.732142 0.968538 0.856670
Si Si2 0.061818 0.146908 0.306147
Si Si3 0.332212 0.389652 0.535601
Si Si4 0.500000 0.000000 0.611448
Si Si5 0.998047 0.721024 0.559508
Si Si6 0.682719 0.397049 0.668950
O O1 0.777370 0.082039 0.843214
O O2 0.903533 0.915982 0.845114
O O3 0.614502 0.938766 0.720161
O O4 0.628864 0.947927 0.004208
O O5 0.039848 0.177901 0.136155
O O6 0.037257 0.246954 0.389892
O O7 0.177966 0.327896 0.598378
O O8 0.512025 0.354942 0.596851
O O9 0.310923 0.494850 0.606941
O O10 0.327194 0.394473 0.352006
O O11 0.154735 0.655114 0.600580
#
# Coordination Sequence:
#
# PCOD9338871 Si02
#       6
#     4   4   4   2   4   4
#     4  10  22  44  66  90 132 176 222 268 332 398
#     4  11  24  44  63  92 136 178 217 274 332 397
#     4  11  25  45  71  99 135 178 222 274 336 404
#     4  10  20  40  68  98 112 168 234 270 324 392
#     4  12  25  43  66 104 134 180 222 279 337 392
#     4  11  25  45  71  99 135 178 222 274 336 404
#
# _framework density 21.874980999999998
#
# number of rings (size 3 to 8) (size 9 to 14) (size 15 to 20)
#    0.000    1.091    1.818    4.909    5.091    4.364 
#   19.636    0.000    0.000    0.000    0.000    0.000 
#    0.000    0.000    0.000    0.000    0.000    0.000 
#
# Total GULP energy -122684.340184 kJ/mol
# GULP energy per Si atom -5576.560917 kJ/mol
# Density = 2.182519 g / cm^3
# Si number density = 21.874981 Si / 1000 Ang^3
#
#
#
# Elastic Constant Matrix: (Units=GPa)
#
#
# Indices 1 2 3 4 5 6 
#
# 1 164.1030 48.0015 34.2006 0.0000 0.0000 0.0000
# 2 48.0015 49.6112 19.1988 0.0000 0.0000 0.0000
# 3 34.2006 19.1988 118.9668 0.0000 0.0000 0.0000
# 4 0.0000 0.0000 0.0000 57.9465 0.0000 0.0000
# 5 0.0000 0.0000 0.0000 0.0000 25.5113 0.0000
# 6 0.0000 0.0000 0.0000 0.0000 0.0000 13.2981
#
#
#
# Elastic Compliance Matrix: (Units=1/GPa)
#
#
# Indices 1 2 3 4 5 6 
#
# 1 0.008660 -0.007910 -0.001213 0.000000 0.000000 0.000000
# 2 -0.007910 0.028724 -0.002362 0.000000 0.000000 0.000000
# 3 -0.001213 -0.002362 0.009136 0.000000 0.000000 0.000000
# 4 0.000000 0.000000 0.000000 0.017257 0.000000 0.000000
# 5 0.000000 0.000000 0.000000 0.000000 0.039198 0.000000
# 6 0.000000 0.000000 0.000000 0.000000 0.000000 0.075199
#
#
# Mechanical properties :
#
#
# Convention : Reuss Voigt Hill
#
# Bulk Modulus (GPa) = 42.46168 59.49808 50.97988
# Shear Modulus (GPa) = 23.92427 34.76986 29.34706
#
# Velocity S-wave (km/s) = 3.31067 3.99115 3.66673
# Velocity P-wave (km/s) = 5.83672 6.96400 6.42513
#
# Compressibility (1/GPa) = 0.02355065
#
# Stress axis : x y z
#
# Youngs Moduli (GPa) = 115.47010 34.81438 109.46226
#
# Poissons Ratio (x) = 0.27537 0.13280
# Poissons Ratio (y) = 0.91334 0.25850
# Poissons Ratio (z) = 0.14009 0.08221
#
# Static dielectric constant tensor:
#      x y z
#    x 1.760700 0.000000 0.000000 
#    y 0.000000 1.827530 0.000000 
#    z 0.000000 0.000000 1.823840 
# 
# From -- ./inp_files/1142.got.cif
#   From: 2010.05.17/outbox.cif.g08.bks.cpg/sg27_1_cif.got.tgz:1142.got - 2010.06.04 01:11:05.
