data_PCOD9338844
_publ_section_title
;
Structure prediction by ZEFSAII (Michael W. Deem and Ramdas Pophale) SiO2 
 PCOD9338844
Probable space group: P C C 2
;
_chemical_formula_sum "Si O2"
_cell_formula_units_Z 30
_cell_length_a 11.396758
_cell_length_b 15.167969
_cell_length_c 9.137678
_cell_angle_alpha 90.000000
_cell_angle_beta 90.000000
_cell_angle_gamma 90.000000
_cell_volume 1579.590848
_symmetry_space_group_name_H-M "P C C 2"
_symmetry_group_IT_number 27
_symmetry_cell_setting 'orthorhombic'
loop_
_space_group_symop_operation_xyz
x,y,z
-x,-y,z
-x,y,1/2+z
x,-y,1/2+z
loop_
_atom_site_type_symbol
_atom_site_label
_atom_site_fract_x
_atom_site_fract_y
_atom_site_fract_z
Si Si1 0.855741 0.343344 0.522890
Si Si2 0.705631 0.756865 0.243868
Si Si3 0.040894 0.700120 0.220833
Si Si4 0.354138 0.543124 0.467912
Si Si5 0.000000 0.000000 0.481793
Si Si6 0.489128 0.355585 0.706784
Si Si7 0.896792 0.882798 0.226839
Si Si8 0.270651 0.343706 0.530134
O O1 0.757962 0.278646 0.590736
O O2 0.932217 0.305764 0.391718
O O3 0.777225 0.420433 0.460739
O O4 0.942291 0.365350 0.655892
O O5 0.572518 0.724462 0.257931
O O6 0.762269 0.852759 0.248774
O O7 0.761364 0.705544 0.381371
O O8 0.981143 0.796870 0.196715
O O9 0.159622 0.672285 0.135751
O O10 0.425149 0.582017 0.608217
O O11 0.427182 0.584202 0.331785
O O12 0.324584 0.439932 0.485839
O O13 0.060667 0.069605 0.373761
O O14 0.913296 0.052061 0.590416
O O15 0.384743 0.310032 0.616620
#
# Coordination Sequence:
#
# PCOD9338844 Si02
#       8
#     4   4   4   4   2   4   4   4
#     4  10  22  38  59  81 123 166 213 263 323 362
#     4  10  22  38  58  88 123 160 206 262 310 378
#     4  11  21  40  59  89 129 163 200 261 317 391
#     4  11  25  39  57  85 121 167 236 275 306 353
#     4  10  20  36  70 100 122 158 178 252 332 386
#     4  11  23  39  58  83 121 170 222 279 309 345
#     4  10  20  39  64  97 127 149 197 245 314 407
#     4  12  24  35  60  84 123 177 215 268 320 348
#
# _framework density 18.992259000000001
#
# number of rings (size 3 to 8) (size 9 to 14) (size 15 to 20)
#    0.000    1.333    2.667    4.400    5.600    0.533 
#    0.000    2.667    0.000    0.000    0.000   15.867 
#    0.000    0.000    0.000    0.000    0.000    0.000 
#
# Total GULP energy -167022.268371 kJ/mol
# GULP energy per Si atom -5567.408946 kJ/mol
# Density = 1.894903 g / cm^3
# Si number density = 18.992259 Si / 1000 Ang^3
#
#
#
# Elastic Constant Matrix: (Units=GPa)
#
#
# Indices 1 2 3 4 5 6 
#
# 1 105.1473 38.0247 33.3481 0.0000 0.0000 0.0000
# 2 38.0247 62.9700 27.6295 0.0000 0.0000 0.0000
# 3 33.3481 27.6295 110.3823 0.0000 0.0000 0.0000
# 4 0.0000 0.0000 0.0000 21.4477 0.0000 0.0000
# 5 0.0000 0.0000 0.0000 0.0000 24.9050 0.0000
# 6 0.0000 0.0000 0.0000 0.0000 0.0000 24.3877
#
#
#
# Elastic Compliance Matrix: (Units=1/GPa)
#
#
# Indices 1 2 3 4 5 6 
#
# 1 0.012601 -0.006671 -0.002137 0.000000 0.000000 0.000000
# 2 -0.006671 0.021372 -0.003334 0.000000 0.000000 0.000000
# 3 -0.002137 -0.003334 0.010540 0.000000 0.000000 0.000000
# 4 0.000000 0.000000 0.000000 0.046625 0.000000 0.000000
# 5 0.000000 0.000000 0.000000 0.000000 0.040153 0.000000
# 6 0.000000 0.000000 0.000000 0.000000 0.000000 0.041004
#
#
# Mechanical properties :
#
#
# Convention : Reuss Voigt Hill
#
# Bulk Modulus (GPa) = 49.43755 52.94490 51.19123
# Shear Modulus (GPa) = 24.59157 26.11457 25.35307
#
# Velocity S-wave (km/s) = 3.60227 3.71214 3.65761
# Velocity P-wave (km/s) = 6.58701 6.80521 6.69700
#
# Compressibility (1/GPa) = 0.02022754
#
# Stress axis : x y z
#
# Youngs Moduli (GPa) = 79.35991 46.79019 94.88047
#
# Poissons Ratio (x) = 0.31216 0.20276
# Poissons Ratio (y) = 0.52944 0.31634
# Poissons Ratio (z) = 0.16959 0.15600
#
# Static dielectric constant tensor:
#      x y z
#    x 1.711230 0.000000 0.000000 
#    y 0.000000 1.702310 0.000000 
#    z 0.000000 0.000000 1.727750 
# 
# From -- ./inp_files/1460.got.cif
#   From: 2010.05.17/outbox.cif.g08.bks.cpg/sg27_1_cif.got.tgz:1460.got - 2010.06.04 01:11:05.
