data_PCOD9338830
_publ_section_title
;
Structure prediction by ZEFSAII (Michael W. Deem and Ramdas Pophale) SiO2 
 PCOD9338830
Probable space group: P C C 2
;
_chemical_formula_sum "Si O2"
_cell_formula_units_Z 24
_cell_length_a 11.316090
_cell_length_b 10.084235
_cell_length_c 9.132687
_cell_angle_alpha 90.000000
_cell_angle_beta 90.000000
_cell_angle_gamma 90.000000
_cell_volume 1042.168457
_symmetry_space_group_name_H-M "P C C 2"
_symmetry_group_IT_number 27
_symmetry_cell_setting 'orthorhombic'
loop_
_space_group_symop_operation_xyz
x,y,z
-x,-y,z
-x,y,1/2+z
x,-y,1/2+z
loop_
_atom_site_type_symbol
_atom_site_label
_atom_site_fract_x
_atom_site_fract_y
_atom_site_fract_z
Si Si1 0.741095 0.226446 0.609620
Si Si2 0.755576 0.918852 0.682686
Si Si3 0.078305 0.256363 0.857849
Si Si4 0.457253 0.149137 0.908154
Si Si5 0.907422 0.386595 0.050689
Si Si6 0.294775 0.718981 0.922116
O O1 0.825989 0.279442 0.484555
O O2 0.611934 0.216315 0.541147
O O3 0.755241 0.301993 0.759852
O O4 0.766174 0.073235 0.651128
O O5 0.870207 0.873622 0.775640
O O6 0.639304 0.876718 0.778638
O O7 0.740135 0.842165 0.529085
O O8 0.078791 0.356131 0.721548
O O9 0.957261 0.265559 0.948147
O O10 0.569354 0.244205 0.885222
O O11 0.500000 0.000000 0.946258
O O12 0.000000 0.500000 0.011645
O O13 0.768576 0.399034 0.013080
#
# Coordination Sequence:
#
# PCOD9338830 Si02
#       6
#     4   4   4   4   4   4
#     4  11  20  35  59  95 141 180 213 262 329 418
#     4  10  20  35  57  93 139 186 212 256 331 416
#     4  10  23  41  64  92 122 171 235 284 340 419
#     4  11  19  32  59  93 145 191 219 246 318 416
#     4  11  24  46  68  87 119 171 236 312 359 380
#     4  11  21  33  59  97 130 175 237 266 325 420
#
# _framework density 23.028907
#
# number of rings (size 3 to 8) (size 9 to 14) (size 15 to 20)
#    0.000    1.333    3.333    3.500    0.000    0.000 
#    0.000   15.000    0.000    4.000    0.000   18.667 
#    0.000    0.000    0.000    0.000    0.000    0.000 
#
# Total GULP energy -133783.250118 kJ/mol
# GULP energy per Si atom -5574.302088 kJ/mol
# Density = 2.297649 g / cm^3
# Si number density = 23.028907 Si / 1000 Ang^3
#
#
#
# Elastic Constant Matrix: (Units=GPa)
#
#
# Indices 1 2 3 4 5 6 
#
# 1 114.5650 35.0305 44.5912 0.0000 0.0000 0.0000
# 2 35.0305 33.1092 6.5897 0.0000 0.0000 0.0000
# 3 44.5912 6.5897 170.3907 0.0000 0.0000 0.0000
# 4 0.0000 0.0000 0.0000 14.8562 0.0000 0.0000
# 5 0.0000 0.0000 0.0000 0.0000 29.5358 0.0000
# 6 0.0000 0.0000 0.0000 0.0000 0.0000 34.7450
#
#
#
# Elastic Compliance Matrix: (Units=1/GPa)
#
#
# Indices 1 2 3 4 5 6 
#
# 1 0.014465 -0.014664 -0.003218 0.000000 0.000000 0.000000
# 2 -0.014664 0.045303 0.002085 0.000000 0.000000 0.000000
# 3 -0.003218 0.002085 0.006630 0.000000 0.000000 0.000000
# 4 0.000000 0.000000 0.000000 0.067312 0.000000 0.000000
# 5 0.000000 0.000000 0.000000 0.000000 0.033857 0.000000
# 6 0.000000 0.000000 0.000000 0.000000 0.000000 0.028781
#
#
# Mechanical properties :
#
#
# Convention : Reuss Voigt Hill
#
# Bulk Modulus (GPa) = 28.73171 54.49862 41.61516
# Shear Modulus (GPa) = 20.87300 31.28431 26.07865
#
# Velocity S-wave (km/s) = 3.01388 3.68975 3.36881
# Velocity P-wave (km/s) = 4.96133 6.47063 5.76558
#
# Compressibility (1/GPa) = 0.03480475
#
# Stress axis : x y z
#
# Youngs Moduli (GPa) = 69.13179 22.07366 150.81901
#
# Poissons Ratio (x) = 0.32369 0.48540
# Poissons Ratio (y) = 1.01374 -0.31453
# Poissons Ratio (z) = 0.22249 -0.04603
#
# Static dielectric constant tensor:
#      x y z
#    x 1.997680 0.000000 0.000000 
#    y 0.000000 1.909400 0.000000 
#    z 0.000000 0.000000 1.844800 
# 
# From -- ./inp_files/1397.got.cif
#   From: 2010.05.17/outbox.cif.g08.bks.cpg/sg27_1_cif.got.tgz:1397.got - 2010.06.04 01:11:05.
