data_PCOD9338941
_publ_section_title
;
Structure prediction by ZEFSAII (Michael W. Deem and Ramdas Pophale) SiO2 
 PCOD9338941
Probable space group: P C C 2
;
_chemical_formula_sum "Si O2"
_cell_formula_units_Z 30
_cell_length_a 21.182620
_cell_length_b 6.292961
_cell_length_c 9.982936
_cell_angle_alpha 90.000000
_cell_angle_beta 90.000000
_cell_angle_gamma 90.000000
_cell_volume 1330.739360
_symmetry_space_group_name_H-M "P C C 2"
_symmetry_group_IT_number 27
_symmetry_cell_setting 'orthorhombic'
loop_
_space_group_symop_operation_xyz
x,y,z
-x,-y,z
-x,y,1/2+z
x,-y,1/2+z
loop_
_atom_site_type_symbol
_atom_site_label
_atom_site_fract_x
_atom_site_fract_y
_atom_site_fract_z
Si Si1 0.934343 0.884747 0.126180
Si Si2 0.343361 0.556258 0.830816
Si Si3 0.374708 0.837201 0.469313
Si Si4 0.891773 0.785431 0.851320
Si Si5 0.770231 0.741814 0.736181
Si Si6 0.430456 0.918050 0.731921
Si Si7 0.000000 0.500000 0.264379
Si Si8 0.257793 0.918601 0.959994
O O1 0.955883 0.654701 0.177602
O O2 0.905529 0.024616 0.246588
O O3 0.886428 0.867737 0.002455
O O4 0.000000 0.000000 0.083129
O O5 0.292859 0.402375 0.753287
O O6 0.400828 0.682508 0.758992
O O7 0.374676 0.411928 0.945975
O O8 0.299403 0.731005 0.898322
O O9 0.423086 0.937329 0.572910
O O10 0.386329 0.933095 0.322372
O O11 0.306809 0.910686 0.523924
O O12 0.834243 0.642136 0.795693
O O13 0.955063 0.647108 0.851341
O O14 0.778534 0.814493 0.583610
O O15 0.768594 0.948210 0.834948
O O16 0.500000 0.000000 0.768514
#
# Coordination Sequence:
#
# PCOD9338941 Si02
#       8
#     4   4   4   4   4   4   2   4
#     4  10  21  39  60  85 122 166 208 260 321 376
#     4  10  22  39  64  91 124 165 206 252 308 369
#     4  10  21  40  63  90 126 164 201 248 305 364
#     4  11  23  39  62  91 124 162 210 264 318 376
#     4  11  23  39  63  94 124 164 212 257 312 378
#     4  11  23  41  65  93 126 162 204 253 303 363
#     4  10  22  38  62  88 122 164 212 264 320 372
#     4  10  21  39  61  87 124 163 202 251 304 365
#
# _framework density 22.543859999999999
#
# number of rings (size 3 to 8) (size 9 to 14) (size 15 to 20)
#    0.000    1.600    0.000    6.000    0.000    5.867 
#    0.000    1.333    0.000    0.000    0.000    0.000 
#    0.000    0.000    0.000    0.000    0.000    0.000 
#
# Total GULP energy -167294.102119 kJ/mol
# GULP energy per Si atom -5576.470071 kJ/mol
# Density = 2.249255 g / cm^3
# Si number density = 22.543860 Si / 1000 Ang^3
#
#
#
# Elastic Constant Matrix: (Units=GPa)
#
#
# Indices 1 2 3 4 5 6 
#
# 1 78.2949 17.3997 16.6090 0.0000 0.0000 0.0000
# 2 17.3997 81.3675 30.9272 0.0000 0.0000 0.0000
# 3 16.6090 30.9272 82.2844 0.0000 0.0000 0.0000
# 4 0.0000 0.0000 0.0000 4.6980 0.0000 0.0000
# 5 0.0000 0.0000 0.0000 0.0000 34.4885 0.0000
# 6 0.0000 0.0000 0.0000 0.0000 0.0000 30.9151
#
#
#
# Elastic Compliance Matrix: (Units=1/GPa)
#
#
# Indices 1 2 3 4 5 6 
#
# 1 0.013669 -0.002187 -0.001937 0.000000 0.000000 0.000000
# 2 -0.002187 0.014688 -0.005079 0.000000 0.000000 0.000000
# 3 -0.001937 -0.005079 0.014453 0.000000 0.000000 0.000000
# 4 0.000000 0.000000 0.000000 0.212856 0.000000 0.000000
# 5 0.000000 0.000000 0.000000 0.000000 0.028995 0.000000
# 6 0.000000 0.000000 0.000000 0.000000 0.000000 0.032347
#
#
# Mechanical properties :
#
#
# Convention : Reuss Voigt Hill
#
# Bulk Modulus (GPa) = 40.97691 41.31318 41.14505
# Shear Modulus (GPa) = 14.55396 25.82104 20.18750
#
# Velocity S-wave (km/s) = 2.54359 3.38800 2.99570
# Velocity P-wave (km/s) = 5.18097 5.80260 5.50058
#
# Compressibility (1/GPa) = 0.02440399
#
# Stress axis : x y z
#
# Youngs Moduli (GPa) = 73.15758 68.08227 69.18939
#
# Poissons Ratio (x) = 0.14888 0.13403
# Poissons Ratio (y) = 0.15997 0.35143
# Poissons Ratio (z) = 0.14172 0.34581
#
# Static dielectric constant tensor:
#      x y z
#    x 1.962470 0.000000 0.000000 
#    y 0.000000 1.853150 0.000000 
#    z 0.000000 0.000000 1.840010 
# 
# From -- ./inp_files/2868.got.cif
#   From: 2010.05.17/outbox.cif.g08.bks.cpg/sg27_2_cif.got.tgz:2868.got - 2010.06.04 01:11:05.
