data_PCOD9338347
_publ_section_title
;
Structure prediction by ZEFSAII (Michael W. Deem and Ramdas Pophale) SiO2 
 PCOD9338347
Probable space group: P M C 21
;
_chemical_formula_sum "Si O2"
_cell_formula_units_Z 24
_cell_length_a 18.104837
_cell_length_b 10.582223
_cell_length_c 5.178790
_cell_angle_alpha 90.000000
_cell_angle_beta 90.000000
_cell_angle_gamma 90.000000
_cell_volume 992.201385
_symmetry_space_group_name_H-M "P M C 21"
_symmetry_group_IT_number 26
_symmetry_cell_setting 'orthorhombic'
loop_
_space_group_symop_operation_xyz
x,y,z
-x,-y,1/2+z
-x,y,z
x,-y,1/2+z
loop_
_atom_site_type_symbol
_atom_site_label
_atom_site_fract_x
_atom_site_fract_y
_atom_site_fract_z
Si Si1 0.401357 0.925117 0.011080
Si Si2 0.085518 0.134069 0.571338
Si Si3 0.722005 0.560512 0.890262
Si Si4 0.706838 0.213630 0.777454
Si Si5 0.584168 0.322602 0.177465
Si Si6 0.851203 0.149384 0.071958
O O1 0.316067 0.902326 0.090204
O O2 0.424490 0.978082 0.289331
O O3 0.421601 0.790049 0.890570
O O4 0.096515 0.199579 0.844550
O O5 0.000000 0.112708 0.508341
O O6 0.125923 0.998210 0.605699
O O7 0.126757 0.206491 0.344563
O O8 0.749957 0.545067 0.596057
O O9 0.633504 0.569251 0.817300
O O10 0.731495 0.681303 0.072453
O O11 0.768928 0.171445 0.976121
O O12 0.636182 0.265690 0.945738
O O13 0.500000 0.355682 0.101516
#
# Coordination Sequence:
#
# PCOD9338347 Si02
#       6
#     4   4   4   4   4   4
#     4  11  24  41  60  81 125 167 214 245 308 371
#     4  10  20  36  57  90 137 182 213 248 296 354
#     4  11  24  47  68  88 119 156 202 281 348 405
#     4  11  25  40  67  98 127 162 227 265 333 387
#     4  11  26  45  64  91 124 160 222 282 329 400
#     4  10  21  31  58  86 130 169 208 247 296 367
#
# _framework density 24.188638000000001
#
# number of rings (size 3 to 8) (size 9 to 14) (size 15 to 20)
#    0.000    1.333    3.333    2.500    9.333    4.000 
#    0.000    0.000    0.000    0.000    0.000    0.000 
#    0.000   22.667    0.000    0.000    0.000    0.000 
#
# Total GULP energy -133685.425591 kJ/mol
# GULP energy per Si atom -5570.226066 kJ/mol
# Density = 2.413358 g / cm^3
# Si number density = 24.188638 Si / 1000 Ang^3
#
#
#
# Elastic Constant Matrix: (Units=GPa)
#
#
# Indices 1 2 3 4 5 6 
#
# 1 95.2045 12.1828 30.4293 0.0000 0.0000 0.0000
# 2 12.1828 37.4257 27.2667 0.0000 0.0000 0.0000
# 3 30.4293 27.2667 198.6926 0.0000 0.0000 0.0000
# 4 0.0000 0.0000 0.0000 39.3785 0.0000 0.0000
# 5 0.0000 0.0000 0.0000 0.0000 56.7643 0.0000
# 6 0.0000 0.0000 0.0000 0.0000 0.0000 16.9858
#
#
#
# Elastic Compliance Matrix: (Units=1/GPa)
#
#
# Indices 1 2 3 4 5 6 
#
# 1 0.011281 -0.002682 -0.001360 0.000000 0.000000 0.000000
# 2 -0.002682 0.030325 -0.003751 0.000000 0.000000 0.000000
# 3 -0.001360 -0.003751 0.005756 0.000000 0.000000 0.000000
# 4 0.000000 0.000000 0.000000 0.025395 0.000000 0.000000
# 5 0.000000 0.000000 0.000000 0.000000 0.017617 0.000000
# 6 0.000000 0.000000 0.000000 0.000000 0.000000 0.058873
#
#
# Mechanical properties :
#
#
# Convention : Reuss Voigt Hill
#
# Bulk Modulus (GPa) = 31.46827 52.34227 41.90527
# Shear Modulus (GPa) = 28.50239 40.05532 34.27885
#
# Velocity S-wave (km/s) = 3.43642 4.07376 3.76859
# Velocity P-wave (km/s) = 5.36498 6.61918 6.02481
#
# Compressibility (1/GPa) = 0.03177804
#
# Stress axis : x y z
#
# Youngs Moduli (GPa) = 88.64095 32.97577 173.73567
#
# Poissons Ratio (x) = 0.08843 0.23623
# Poissons Ratio (y) = 0.23771 0.65166
# Poissons Ratio (z) = 0.12053 0.12369
#
# Static dielectric constant tensor:
#      x y z
#    x 1.992480 0.000000 0.000000 
#    y 0.000000 2.152160 0.000000 
#    z 0.000000 0.000000 2.047210 
# 
# From -- ./inp_files/740.got.cif
#   From: 2010.05.17/outbox.cif.g08.bks.cpg/sg26_1_cif.got.tgz:740.got - 2010.06.04 01:07:29.
