data_PCOD9338753
_publ_section_title
;
Structure prediction by ZEFSAII (Michael W. Deem and Ramdas Pophale) SiO2 
 PCOD9338753
Probable space group: P C C 2
;
_chemical_formula_sum "Si O2"
_cell_formula_units_Z 28
_cell_length_a 8.405846
_cell_length_b 9.490777
_cell_length_c 18.008428
_cell_angle_alpha 90.000000
_cell_angle_beta 90.000000
_cell_angle_gamma 90.000000
_cell_volume 1436.676547
_symmetry_space_group_name_H-M "P C C 2"
_symmetry_group_IT_number 27
_symmetry_cell_setting 'orthorhombic'
loop_
_space_group_symop_operation_xyz
x,y,z
-x,-y,z
-x,y,1/2+z
x,-y,1/2+z
loop_
_atom_site_type_symbol
_atom_site_label
_atom_site_fract_x
_atom_site_fract_y
_atom_site_fract_z
Si Si1 0.926248 0.855321 0.503530
Si Si2 0.148401 0.399896 0.986346
Si Si3 0.565667 0.843203 0.511509
Si Si4 0.633646 0.767152 0.875671
Si Si5 0.837313 0.959145 0.344395
Si Si6 0.568376 0.843140 0.239949
Si Si7 0.615877 0.623633 0.112858
O O1 0.749547 0.832243 0.532793
O O2 0.894260 0.870215 0.415143
O O3 0.058271 0.739253 0.514174
O O4 0.000000 0.000000 0.531459
O O5 0.247211 0.444791 0.060002
O O6 0.000000 0.500000 0.964692
O O7 0.267032 0.357479 0.917627
O O8 0.518360 0.806412 0.426748
O O9 0.472696 0.725777 0.555654
O O10 0.500000 0.000000 0.525519
O O11 0.566024 0.765297 0.791482
O O12 0.749559 0.902704 0.876837
O O13 0.714510 0.883088 0.292360
O O14 0.000000 0.000000 0.303281
O O15 0.637913 0.733882 0.179999
O O16 0.500000 0.000000 0.215083
O O17 0.500000 0.500000 0.138776
#
# Coordination Sequence:
#
# PCOD9338753 Si02
#       7
#     4   4   4   4   4   4   4
#     4  11  18  32  61  93 121 148 189 255 313 354
#     4  11  23  40  62  91 124 161 208 260 316 362
#     4  11  18  34  63  92 115 154 202 256 304 363
#     4  10  18  35  62  94 119 149 202 263 308 360
#     4  10  17  33  61  93 127 147 184 257 317 356
#     4  10  21  40  64  90 122 163 205 253 312 374
#     4  11  25  44  57  81 125 172 211 249 299 371
#
# _framework density 19.489425000000001
#
# number of rings (size 3 to 8) (size 9 to 14) (size 15 to 20)
#    0.000    1.429    5.714    2.571    0.000    0.000 
#    2.571    8.571    0.000    0.000    0.000    0.000 
#    0.000    0.000    0.000    0.000    0.000    0.000 
#
# Total GULP energy -155890.151386 kJ/mol
# GULP energy per Si atom -5567.505407 kJ/mol
# Density = 1.944507 g / cm^3
# Si number density = 19.489425 Si / 1000 Ang^3
#
#
#
# Elastic Constant Matrix: (Units=GPa)
#
#
# Indices 1 2 3 4 5 6 
#
# 1 78.3642 -6.5976 8.4509 0.0000 0.0000 0.0000
# 2 -6.5976 49.1006 10.0596 0.0000 0.0000 0.0000
# 3 8.4509 10.0596 59.8577 0.0000 0.0000 0.0000
# 4 0.0000 0.0000 0.0000 23.3910 0.0000 0.0000
# 5 0.0000 0.0000 0.0000 0.0000 15.1713 0.0000
# 6 0.0000 0.0000 0.0000 0.0000 0.0000 38.2660
#
#
#
# Elastic Compliance Matrix: (Units=1/GPa)
#
#
# Indices 1 2 3 4 5 6 
#
# 1 0.013190 0.002231 -0.002237 0.000000 0.000000 0.000000
# 2 0.002231 0.021470 -0.003923 0.000000 0.000000 0.000000
# 3 -0.002237 -0.003923 0.017681 0.000000 0.000000 0.000000
# 4 0.000000 0.000000 0.000000 0.042752 0.000000 0.000000
# 5 0.000000 0.000000 0.000000 0.000000 0.065914 0.000000
# 6 0.000000 0.000000 0.000000 0.000000 0.000000 0.026133
#
#
# Mechanical properties :
#
#
# Convention : Reuss Voigt Hill
#
# Bulk Modulus (GPa) = 22.48092 23.46091 22.97091
# Shear Modulus (GPa) = 23.82926 27.05963 25.44445
#
# Velocity S-wave (km/s) = 3.50047 3.73020 3.61716
# Velocity P-wave (km/s) = 5.28183 5.53321 5.40898
#
# Compressibility (1/GPa) = 0.04448217
#
# Stress axis : x y z
#
# Youngs Moduli (GPa) = 75.81511 46.57695 56.55644
#
# Poissons Ratio (x) = -0.10390 0.12652
# Poissons Ratio (y) = -0.16912 0.22188
# Poissons Ratio (z) = 0.16960 0.18273
#
# Static dielectric constant tensor:
#      x y z
#    x 1.738500 0.000000 0.000000 
#    y 0.000000 1.692200 0.000000 
#    z 0.000000 0.000000 1.742570 
# 
# From -- ./inp_files/4309.got.cif
#   From: 2010.05.17/outbox.cif.g08.bks.cpg/sg27_3_cif.got.tgz:4309.got - 2010.06.04 01:11:05.
