data_PCOD9338371
_publ_section_title
;
Structure prediction by ZEFSAII (Michael W. Deem and Ramdas Pophale) SiO2 
 PCOD9338371
Probable space group: P M C 21
;
_chemical_formula_sum "Si O2"
_cell_formula_units_Z 32
_cell_length_a 8.830755
_cell_length_b 12.468311
_cell_length_c 14.086825
_cell_angle_alpha 90.000000
_cell_angle_beta 90.000000
_cell_angle_gamma 90.000000
_cell_volume 1551.024228
_symmetry_space_group_name_H-M "P M C 21"
_symmetry_group_IT_number 26
_symmetry_cell_setting 'orthorhombic'
loop_
_space_group_symop_operation_xyz
x,y,z
-x,-y,1/2+z
-x,y,z
x,-y,1/2+z
loop_
_atom_site_type_symbol
_atom_site_label
_atom_site_fract_x
_atom_site_fract_y
_atom_site_fract_z
Si Si1 0.677396 0.906663 0.174080
Si Si2 0.821086 0.133983 0.185774
Si Si3 0.679612 0.576940 0.002779
Si Si4 0.824553 0.167912 0.960767
Si Si5 0.172713 0.065943 0.476014
Si Si6 0.179882 0.675180 0.194464
Si Si7 0.174020 0.723841 0.848211
Si Si8 0.678301 0.623709 0.385931
O O1 0.500000 0.897156 0.193195
O O2 0.712597 0.912247 0.061051
O O3 0.759994 0.797534 0.205859
O O4 0.739876 0.021719 0.208726
O O5 0.806188 0.157840 0.074324
O O6 0.768818 0.236961 0.246004
O O7 0.000000 0.121020 0.206904
O O8 0.500000 0.581128 0.019192
O O9 0.759500 0.624864 0.095930
O O10 0.724409 0.645919 0.910209
O O11 0.725260 0.457390 0.970006
O O12 0.000000 0.195942 0.939336
O O13 0.794582 0.047042 0.926246
O O14 0.716336 0.256884 0.919653
O O15 0.171072 0.164770 0.406143
O O16 0.000000 0.055282 0.516724
O O17 0.237093 0.609027 0.285790
O O18 0.000000 0.677767 0.191075
O O19 0.000000 0.683102 0.842511
O O20 0.500000 0.609074 0.370104
#
# Coordination Sequence:
#
# PCOD9338371 Si02
#       8
#     4   4   4   4   4   4   4   4
#     4  11  21  35  58  91 128 164 206 254 314 377
#     4   9  20  37  59  91 131 170 210 259 313 369
#     4  11  25  45  66  92 130 167 206 261 317 371
#     4   9  19  37  59  89 128 167 210 259 310 366
#     4   9  18  34  57  88 124 163 205 255 309 361
#     4  12  25  43  68  93 121 161 211 262 308 369
#     4  10  20  36  62  93 125 166 213 257 305 368
#     4  11  26  45  65  93 127 164 209 261 318 373
#
# _framework density 20.631529
#
# number of rings (size 3 to 8) (size 9 to 14) (size 15 to 20)
#    0.000    1.750    1.250    3.750    1.750    5.500 
#    0.000    2.500    0.000    0.000    0.000    0.000 
#    0.000    0.000    0.000    0.000    0.000    0.000 
#
# Total GULP energy -178750.996337 kJ/mol
# GULP energy per Si atom -5585.968636 kJ/mol
# Density = 2.058457 g / cm^3
# Si number density = 20.631529 Si / 1000 Ang^3
#
#
#
# Elastic Constant Matrix: (Units=GPa)
#
#
# Indices 1 2 3 4 5 6 
#
# 1 83.6023 27.4553 27.4458 0.0000 0.0000 0.0000
# 2 27.4553 63.5455 8.8593 0.0000 0.0000 0.0000
# 3 27.4458 8.8593 58.6437 0.0000 0.0000 0.0000
# 4 0.0000 0.0000 0.0000 23.3981 0.0000 0.0000
# 5 0.0000 0.0000 0.0000 0.0000 24.7111 0.0000
# 6 0.0000 0.0000 0.0000 0.0000 0.0000 29.9156
#
#
#
# Elastic Compliance Matrix: (Units=1/GPa)
#
#
# Indices 1 2 3 4 5 6 
#
# 1 0.016123 -0.006041 -0.006633 0.000000 0.000000 0.000000
# 2 -0.006041 0.018339 0.000057 0.000000 0.000000 0.000000
# 3 -0.006633 0.000057 0.020148 0.000000 0.000000 0.000000
# 4 0.000000 0.000000 0.000000 0.042739 0.000000 0.000000
# 5 0.000000 0.000000 0.000000 0.000000 0.040468 0.000000
# 6 0.000000 0.000000 0.000000 0.000000 0.000000 0.033427
#
#
# Mechanical properties :
#
#
# Convention : Reuss Voigt Hill
#
# Bulk Modulus (GPa) = 34.04259 37.03472 35.53865
# Shear Modulus (GPa) = 24.24010 25.07370 24.65690
#
# Velocity S-wave (km/s) = 3.43141 3.48991 3.46078
# Velocity P-wave (km/s) = 5.67763 5.85054 5.76473
#
# Compressibility (1/GPa) = 0.02937497
#
# Stress axis : x y z
#
# Youngs Moduli (GPa) = 62.02351 54.52863 49.63304
#
# Poissons Ratio (x) = 0.32942 0.32922
# Poissons Ratio (y) = 0.37470 -0.00282
# Poissons Ratio (z) = 0.41140 -0.00310
#
# Static dielectric constant tensor:
#      x y z
#    x 1.713290 0.000000 0.000000 
#    y 0.000000 1.745910 0.000000 
#    z 0.000000 0.000000 1.764570 
# 
# From -- ./inp_files/4297.got.cif
#   From: 2010.05.17/outbox.cif.g08.bks.cpg/sg26_3_cif.got.tgz:4297.got - 2010.06.04 01:07:29.
