data_PCOD9338131
_publ_section_title
;
Structure prediction by ZEFSAII (Michael W. Deem and Ramdas Pophale) SiO2 
 PCOD9338131
Probable space group: P M C 21
;
_chemical_formula_sum "Si O2"
_cell_formula_units_Z 24
_cell_length_a 14.805872
_cell_length_b 5.046268
_cell_length_c 16.225946
_cell_angle_alpha 90.000000
_cell_angle_beta 90.000000
_cell_angle_gamma 90.000000
_cell_volume 1212.311789
_symmetry_space_group_name_H-M "P M C 21"
_symmetry_group_IT_number 26
_symmetry_cell_setting 'orthorhombic'
loop_
_space_group_symop_operation_xyz
x,y,z
-x,-y,1/2+z
-x,y,z
x,-y,1/2+z
loop_
_atom_site_type_symbol
_atom_site_label
_atom_site_fract_x
_atom_site_fract_y
_atom_site_fract_z
Si Si1 0.213950 0.626827 0.940970
Si Si2 0.401774 0.349763 0.542773
Si Si3 0.208719 0.374064 0.251271
Si Si4 0.342662 0.851092 0.629419
Si Si5 0.898841 0.121995 0.689898
Si Si6 0.841744 0.878416 0.525344
O O1 0.219518 0.548954 0.846009
O O2 0.314479 0.645873 0.982062
O O3 0.151147 0.415736 0.989679
O O4 0.169484 0.913931 0.951990
O O5 0.500000 0.294481 0.503706
O O6 0.402864 0.633213 0.585881
O O7 0.385327 0.137281 0.616093
O O8 0.302876 0.260813 0.214550
O O9 0.168436 0.626269 0.200747
O O10 0.139935 0.127267 0.240960
O O11 0.252722 0.866570 0.574032
O O12 0.000000 0.199425 0.715393
O O13 0.902046 0.008098 0.596470
#
# Coordination Sequence:
#
# PCOD9338131 Si02
#       6
#     4   4   4   4   4   4
#     4  10  20  35  57  81 109 146 185 226 281 340
#     4  10  19  34  55  81 110 144 187 233 269 314
#     4  11  21  37  59  82 113 150 186 229 286 349
#     4   9  18  33  55  77 103 145 186 216 265 337
#     4  11  22  38  58  82 110 146 190 238 282 331
#     4   9  18  35  56  77 103 143 188 220 267 343
#
# _framework density 19.796887000000002
#
# number of rings (size 3 to 8) (size 9 to 14) (size 15 to 20)
#    0.000    2.000    0.000    7.000    0.000    0.000 
#    0.000    6.667    0.000    0.000    0.000    0.000 
#    0.000    0.000    0.000    0.000    0.000    0.000 
#
# Total GULP energy -133626.072602 kJ/mol
# GULP energy per Si atom -5567.753025 kJ/mol
# Density = 1.975183 g / cm^3
# Si number density = 19.796887 Si / 1000 Ang^3
#
#
#
# Elastic Constant Matrix: (Units=GPa)
#
#
# Indices 1 2 3 4 5 6 
#
# 1 76.5850 26.4404 15.0175 0.0000 0.0000 0.0000
# 2 26.4404 106.3973 14.0576 0.0000 0.0000 0.0000
# 3 15.0175 14.0576 91.7437 0.0000 0.0000 0.0000
# 4 0.0000 0.0000 0.0000 26.1738 0.0000 0.0000
# 5 0.0000 0.0000 0.0000 0.0000 8.9447 0.0000
# 6 0.0000 0.0000 0.0000 0.0000 0.0000 9.6983
#
#
#
# Elastic Compliance Matrix: (Units=1/GPa)
#
#
# Indices 1 2 3 4 5 6 
#
# 1 0.014591 -0.003379 -0.001871 0.000000 0.000000 0.000000
# 2 -0.003379 0.010375 -0.001037 0.000000 0.000000 0.000000
# 3 -0.001871 -0.001037 0.011365 0.000000 0.000000 0.000000
# 4 0.000000 0.000000 0.000000 0.038206 0.000000 0.000000
# 5 0.000000 0.000000 0.000000 0.000000 0.111798 0.000000
# 6 0.000000 0.000000 0.000000 0.000000 0.000000 0.103111
#
#
# Mechanical properties :
#
#
# Convention : Reuss Voigt Hill
#
# Bulk Modulus (GPa) = 42.08958 42.86191 42.47575
# Shear Modulus (GPa) = 16.13225 23.57737 19.85481
#
# Velocity S-wave (km/s) = 2.85772 3.45478 3.17034
# Velocity P-wave (km/s) = 5.67412 6.13285 5.90794
#
# Compressibility (1/GPa) = 0.02375885
#
# Stress axis : x y z
#
# Youngs Moduli (GPa) = 68.53685 96.38234 87.98953
#
# Poissons Ratio (x) = 0.32565 0.16460
# Poissons Ratio (y) = 0.23157 0.09122
# Poissons Ratio (z) = 0.12821 0.09992
#
# Static dielectric constant tensor:
#      x y z
#    x 1.880940 0.000000 0.000000 
#    y 0.000000 1.717030 0.000000 
#    z 0.000000 0.000000 1.712620 
# 
# From -- ./inp_files/4621.got.cif
#   From: 2010.05.17/outbox.cif.g08.bks.cpg/sg26_3_cif.got.tgz:4621.got - 2010.06.04 01:07:29.
