data_PCOD9338106
_publ_section_title
;
Structure prediction by ZEFSAII (Michael W. Deem and Ramdas Pophale) SiO2 
 PCOD9338106
Probable space group: P M C 21
;
_chemical_formula_sum "Si O2"
_cell_formula_units_Z 32
_cell_length_a 7.387811
_cell_length_b 12.775259
_cell_length_c 14.414555
_cell_angle_alpha 90.000000
_cell_angle_beta 90.000000
_cell_angle_gamma 90.000000
_cell_volume 1360.462983
_symmetry_space_group_name_H-M "P M C 21"
_symmetry_group_IT_number 26
_symmetry_cell_setting 'orthorhombic'
loop_
_space_group_symop_operation_xyz
x,y,z
-x,-y,1/2+z
-x,y,z
x,-y,1/2+z
loop_
_atom_site_type_symbol
_atom_site_label
_atom_site_fract_x
_atom_site_fract_y
_atom_site_fract_z
Si Si1 0.704719 0.265894 0.015910
Si Si2 0.277057 0.678215 0.871105
Si Si3 0.790874 0.834097 0.132911
Si Si4 0.781409 0.936733 0.630015
Si Si5 0.289073 0.087267 0.348889
Si Si6 0.721234 0.418628 0.175270
Si Si7 0.294905 0.610263 0.063903
Si Si8 0.720823 0.857387 0.349560
O O1 0.500000 0.302871 0.998045
O O2 0.702498 0.154867 0.068542
O O3 0.784190 0.345952 0.089793
O O4 0.786243 0.234209 0.917374
O O5 0.500000 0.680394 0.871809
O O6 0.215880 0.799648 0.878610
O O7 0.218799 0.626743 0.774084
O O8 0.214182 0.613639 0.960893
O O9 0.700833 0.729924 0.096406
O O10 0.776906 0.838496 0.244268
O O11 0.000000 0.827348 0.105866
O O12 0.719841 0.947117 0.100910
O O13 0.726679 0.916804 0.736701
O O14 0.000000 0.933756 0.625850
O O15 0.500000 0.087514 0.374276
O O16 0.214363 0.973944 0.379287
O O17 0.500000 0.412464 0.180786
O O18 0.778780 0.534796 0.144132
O O19 0.500000 0.572515 0.050772
O O20 0.500000 0.858662 0.352064
#
# Coordination Sequence:
#
# PCOD9338106 Si02
#       8
#     4   4   4   4   4   4   4   4
#     4  10  19  33  56  84 113 145 181 227 279 329
#     4   9  17  31  54  83 112 141 178 231 283 322
#     4  10  22  39  54  75 114 152 181 226 284 332
#     4  10  20  33  51  78 110 146 183 221 273 333
#     4   9  16  31  52  76 109 144 180 225 275 323
#     4   9  18  34  55  82 113 145 181 229 283 327
#     4  10  21  35  58  84 106 143 193 235 274 331
#     4   9  19  32  54  86 113 144 185 226 273 337
#
# _framework density 23.521404
#
# number of rings (size 3 to 8) (size 9 to 14) (size 15 to 20)
#    0.000    2.500    1.250    0.750    1.750    3.000 
#    0.000    5.000    0.000    1.500    0.000    0.000 
#    0.000    0.000    0.000    0.000    0.000    0.000 
#
# Total GULP energy -178684.165792 kJ/mol
# GULP energy per Si atom -5583.880181 kJ/mol
# Density = 2.346787 g / cm^3
# Si number density = 23.521404 Si / 1000 Ang^3
#
#
#
# Elastic Constant Matrix: (Units=GPa)
#
#
# Indices 1 2 3 4 5 6 
#
# 1 89.7820 2.6472 -6.2915 0.0000 0.0000 0.0000
# 2 2.6472 95.3857 27.0499 0.0000 0.0000 0.0000
# 3 -6.2915 27.0499 72.3142 0.0000 0.0000 0.0000
# 4 0.0000 0.0000 0.0000 29.5199 0.0000 0.0000
# 5 0.0000 0.0000 0.0000 0.0000 35.4879 0.0000
# 6 0.0000 0.0000 0.0000 0.0000 0.0000 11.8470
#
#
#
# Elastic Compliance Matrix: (Units=1/GPa)
#
#
# Indices 1 2 3 4 5 6 
#
# 1 0.011243 -0.000659 0.001225 0.000000 0.000000 0.000000
# 2 -0.000659 0.011766 -0.004459 0.000000 0.000000 0.000000
# 3 0.001225 -0.004459 0.015603 0.000000 0.000000 0.000000
# 4 0.000000 0.000000 0.000000 0.033875 0.000000 0.000000
# 5 0.000000 0.000000 0.000000 0.000000 0.028179 0.000000
# 6 0.000000 0.000000 0.000000 0.000000 0.000000 0.084410
#
#
# Mechanical properties :
#
#
# Convention : Reuss Voigt Hill
#
# Bulk Modulus (GPa) = 32.43992 33.81036 33.12514
# Shear Modulus (GPa) = 24.61374 30.97605 27.79489
#
# Velocity S-wave (km/s) = 3.23838 3.63289 3.44129
# Velocity P-wave (km/s) = 5.27299 5.65709 5.46841
#
# Compressibility (1/GPa) = 0.03082622
#
# Stress axis : x y z
#
# Youngs Moduli (GPa) = 88.94135 84.98711 64.09047
#
# Poissons Ratio (x) = 0.05604 -0.07850
# Poissons Ratio (y) = 0.05865 0.28576
# Poissons Ratio (z) = -0.10894 0.37894
#
# Static dielectric constant tensor:
#      x y z
#    x 1.770240 0.000000 0.000000 
#    y 0.000000 1.873410 0.000000 
#    z 0.000000 0.000000 1.874990 
# 
# From -- ./inp_files/4126.got.cif
#   From: 2010.05.17/outbox.cif.g08.bks.cpg/sg26_3_cif.got.tgz:4126.got - 2010.06.04 01:07:29.
