data_PCOD9338634
_publ_section_title
;
Structure prediction by ZEFSAII (Michael W. Deem and Ramdas Pophale) SiO2 
 PCOD9338634
Probable space group: P M C 21
;
_chemical_formula_sum "Si O2"
_cell_formula_units_Z 20
_cell_length_a 13.238072
_cell_length_b 4.931611
_cell_length_c 13.700626
_cell_angle_alpha 90.000000
_cell_angle_beta 90.000000
_cell_angle_gamma 90.000000
_cell_volume 894.445663
_symmetry_space_group_name_H-M "P M C 21"
_symmetry_group_IT_number 26
_symmetry_cell_setting 'orthorhombic'
loop_
_space_group_symop_operation_xyz
x,y,z
-x,-y,1/2+z
-x,y,z
x,-y,1/2+z
loop_
_atom_site_type_symbol
_atom_site_label
_atom_site_fract_x
_atom_site_fract_y
_atom_site_fract_z
Si Si1 0.113808 0.799366 0.713820
Si Si2 0.612103 0.031690 0.309470
Si Si3 0.314527 0.072555 0.100078
Si Si4 0.816291 0.712179 0.329100
Si Si5 0.692942 0.553032 0.969653
O O1 0.200163 0.868971 0.636030
O O2 0.140913 0.502768 0.753274
O O3 0.000000 0.813797 0.676976
O O4 0.125920 0.009902 0.805188
O O5 0.500000 0.935001 0.332399
O O6 0.699996 0.806967 0.315072
O O7 0.619049 0.114526 0.196238
O O8 0.642204 0.279016 0.380904
O O9 0.350924 0.279817 0.016909
O O10 0.310621 0.772429 0.056192
O O11 0.803092 0.549566 0.430564
#
# Coordination Sequence:
#
# PCOD9338634 Si02
#       5
#     4   4   4   4   4
#     4  11  23  44  74 101 135 184 230 285 352 417
#     4  11  26  46  72 103 143 190 234 282 351 414
#     4  11  24  43  72  99 144 181 231 291 345 412
#     4  11  21  46  68  98 138 181 223 293 336 402
#     4  12  23  45  69  99 142 184 229 287 345 401
#
# _framework density 22.360219000000001
#
# number of rings (size 3 to 8) (size 9 to 14) (size 15 to 20)
#    0.000    0.800    6.000    3.000    0.000    2.400 
#    0.000    6.000    0.000    0.000    0.000    0.000 
#    0.000    0.000    0.000    0.000    0.000    0.000 
#
# Total GULP energy -111536.157635 kJ/mol
# GULP energy per Si atom -5576.807882 kJ/mol
# Density = 2.230933 g / cm^3
# Si number density = 22.360219 Si / 1000 Ang^3
#
#
#
# Elastic Constant Matrix: (Units=GPa)
#
#
# Indices 1 2 3 4 5 6 
#
# 1 124.8460 15.4810 2.2804 0.0000 0.0000 0.0000
# 2 15.4810 115.2689 2.7541 0.0000 0.0000 0.0000
# 3 2.2804 2.7541 88.3567 0.0000 0.0000 0.0000
# 4 0.0000 0.0000 0.0000 35.8611 0.0000 0.0000
# 5 0.0000 0.0000 0.0000 0.0000 -2.1013 0.0000
# 6 0.0000 0.0000 0.0000 0.0000 0.0000 16.6951
#
#
#
# Elastic Compliance Matrix: (Units=1/GPa)
#
#
# Indices 1 2 3 4 5 6 
#
# 1 0.008148 -0.001090 -0.000176 0.000000 0.000000 0.000000
# 2 -0.001090 0.008828 -0.000247 0.000000 0.000000 0.000000
# 3 -0.000176 -0.000247 0.011330 0.000000 0.000000 0.000000
# 4 0.000000 0.000000 0.000000 0.027885 0.000000 0.000000
# 5 0.000000 0.000000 0.000000 0.000000 -0.475901 0.000000
# 6 0.000000 0.000000 0.000000 0.000000 0.000000 0.059898
#
#
# Mechanical properties :
#
#
# Convention : Reuss Voigt Hill
#
# Bulk Modulus (GPa) = 39.55850 41.05584 40.30717
# Shear Modulus (GPa) = -14.35301 30.62138 8.13418
#
# Velocity S-wave (km/s) = -2.53632 3.70463 1.90937
# Velocity P-wave (km/s) = 3.02533 6.05806 4.78815
#
# Compressibility (1/GPa) = 0.02527902
#
# Stress axis : x y z
#
# Youngs Moduli (GPa) = 122.72549 113.28010 88.26112
#
# Poissons Ratio (x) = 0.12349 0.01556
# Poissons Ratio (y) = 0.13379 0.02180
# Poissons Ratio (z) = 0.02164 0.02798
#
# Static dielectric constant tensor:
#      x y z
#    x 1.856620 0.000000 0.000000 
#    y 0.000000 1.840260 0.000000 
#    z 0.000000 0.000000 1.951110 
# 
# From -- ./inp_files/3425.got.cif
#   From: 2010.05.17/outbox.cif.g08.bks.cpg/sg26_2_cif.got.tgz:3425.got - 2010.06.04 01:07:29.
