data_PCOD9338955
_publ_section_title
;
Structure prediction by ZEFSAII (Michael W. Deem and Ramdas Pophale) SiO2 
 PCOD9338955
Probable space group: P C C 2
;
_chemical_formula_sum "Si O2"
_cell_formula_units_Z 16
_cell_length_a 7.793586
_cell_length_b 16.069817
_cell_length_c 5.278568
_cell_angle_alpha 90.000000
_cell_angle_beta 90.000000
_cell_angle_gamma 90.000000
_cell_volume 661.095778
_symmetry_space_group_name_H-M "P C C 2"
_symmetry_group_IT_number 27
_symmetry_cell_setting 'orthorhombic'
loop_
_space_group_symop_operation_xyz
x,y,z
-x,-y,z
-x,y,1/2+z
x,-y,1/2+z
loop_
_atom_site_type_symbol
_atom_site_label
_atom_site_fract_x
_atom_site_fract_y
_atom_site_fract_z
Si Si1 0.611888 0.824696 0.877860
Si Si2 0.570273 0.592899 0.019707
Si Si3 0.929728 0.092899 0.519706
Si Si4 0.888112 0.675304 0.877857
O O1 0.524640 0.823196 0.604535
O O2 0.735760 0.903982 0.924940
O O3 0.750000 0.750000 0.903111
O O4 0.500000 0.500000 0.059389
O O5 0.544079 0.633066 0.295959
O O6 0.764240 0.596018 0.924940
O O7 0.955921 0.133066 0.795958
O O8 0.000000 0.000000 0.559388
O O9 0.975357 0.676803 0.604530
#
# Coordination Sequence:
#
# PCOD9338955 Si02
#       4
#     4   4   4   4
#     4  12  24  41  66  96 126 166 213 261 315 376
#     4  10  21  41  63  88 127 168 204 257 314 368
#     4  10  21  41  63  88 127 168 204 257 314 368
#     4  12  24  41  66  96 126 166 213 261 315 376
#
# _framework density 24.202242999999999
#
# number of rings (size 3 to 8) (size 9 to 14) (size 15 to 20)
#    0.000    1.000    0.000    7.500    0.000    0.000 
#    0.000   30.000    0.000    0.000    0.000    0.000 
#    0.000    0.000    0.000    0.000    0.000    0.000 
#
# Total GULP energy -89477.851697 kJ/mol
# GULP energy per Si atom -5592.365731 kJ/mol
# Density = 2.414716 g / cm^3
# Si number density = 24.202243 Si / 1000 Ang^3
#
#
#
# Elastic Constant Matrix: (Units=GPa)
#
#
# Indices 1 2 3 4 5 6 
#
# 1 117.6710 24.0473 26.7976 0.0000 0.0000 0.0000
# 2 24.0473 61.8311 -16.9785 0.0000 0.0000 0.0000
# 3 26.7976 -16.9785 174.3090 0.0000 0.0000 0.0000
# 4 0.0000 0.0000 0.0000 17.7126 0.0000 0.0000
# 5 0.0000 0.0000 0.0000 0.0000 72.9524 0.0000
# 6 0.0000 0.0000 0.0000 0.0000 0.0000 58.3403
#
#
#
# Elastic Compliance Matrix: (Units=1/GPa)
#
#
# Indices 1 2 3 4 5 6 
#
# 1 0.009829 -0.004354 -0.001935 0.000000 0.000000 0.000000
# 2 -0.004354 0.018546 0.002476 0.000000 0.000000 0.000000
# 3 -0.001935 0.002476 0.006276 0.000000 0.000000 0.000000
# 4 0.000000 0.000000 0.000000 0.056457 0.000000 0.000000
# 5 0.000000 0.000000 0.000000 0.000000 0.013708 0.000000
# 6 0.000000 0.000000 0.000000 0.000000 0.000000 0.017141
#
#
# Mechanical properties :
#
#
# Convention : Reuss Voigt Hill
#
# Bulk Modulus (GPa) = 37.00395 46.83823 41.92109
# Shear Modulus (GPa) = 36.07749 51.13071 43.60410
#
# Velocity S-wave (km/s) = 3.86510 4.60134 4.24920
# Velocity P-wave (km/s) = 5.93644 6.90106 6.43685
#
# Compressibility (1/GPa) = 0.02702414
#
# Stress axis : x y z
#
# Youngs Moduli (GPa) = 101.74247 53.91919 159.34736
#
# Poissons Ratio (x) = 0.23476 0.30836
# Poissons Ratio (y) = 0.44298 -0.39452
# Poissons Ratio (z) = 0.19688 -0.13350
#
# Static dielectric constant tensor:
#      x y z
#    x 1.939590 0.000000 0.000000 
#    y 0.000000 2.257120 0.000000 
#    z 0.000000 0.000000 1.989180 
# 
# From -- ./inp_files/30.got.cif
#   From: 2010.05.17/outbox.cif.g08.bks.cpg/sg27_1_cif.got.tgz:30.got - 2010.06.04 01:11:05.
