data_PCOD9338616
_publ_section_title
;
Structure prediction by ZEFSAII (Michael W. Deem and Ramdas Pophale) SiO2 
 PCOD9338616
Probable space group: P M C 21
;
_chemical_formula_sum "Si O2"
_cell_formula_units_Z 24
_cell_length_a 12.615001
_cell_length_b 5.635893
_cell_length_c 16.564356
_cell_angle_alpha 90.000000
_cell_angle_beta 90.000000
_cell_angle_gamma 90.000000
_cell_volume 1177.672637
_symmetry_space_group_name_H-M "P M C 21"
_symmetry_group_IT_number 26
_symmetry_cell_setting 'orthorhombic'
loop_
_space_group_symop_operation_xyz
x,y,z
-x,-y,1/2+z
-x,y,z
x,-y,1/2+z
loop_
_atom_site_type_symbol
_atom_site_label
_atom_site_fract_x
_atom_site_fract_y
_atom_site_fract_z
Si Si1 0.124006 0.607107 0.920320
Si Si2 0.500000 0.141990 0.420517
Si Si3 0.500000 0.846562 0.167949
Si Si4 0.322572 0.357473 0.310423
Si Si5 0.500000 0.533867 0.558361
Si Si6 0.123735 0.893982 0.516607
Si Si7 0.318622 0.820376 0.625993
Si Si8 0.500000 0.740275 0.335780
O O1 0.206673 0.612522 0.847282
O O2 0.139345 0.353230 0.966274
O O3 0.000000 0.614525 0.896363
O O4 0.143261 0.853261 0.970789
O O5 0.392311 0.189959 0.369947
O O6 0.500000 0.319501 0.494946
O O7 0.500000 0.856922 0.423993
O O8 0.500000 0.571411 0.150540
O O9 0.500000 0.917489 0.260450
O O10 0.606326 0.950032 0.130622
O O11 0.315103 0.281032 0.217107
O O12 0.394316 0.591634 0.320826
O O13 0.386619 0.662143 0.562951
O O14 0.204530 0.876022 0.590648
O O15 0.000000 0.896872 0.540431
#
# Coordination Sequence:
#
# PCOD9338616 Si02
#       8
#     4   2   2   4   2   4   4   2
#     4  10  24  45  67  95 130 171 220 278 331 389
#     4  11  23  37  59  94 125 172 215 258 323 402
#     4  11  21  38  62  88 133 171 206 266 335 389
#     4  11  23  39  64  94 131 170 217 273 331 394
#     4  11  23  39  58  92 129 168 218 265 324 401
#     4  10  24  45  67  94 131 171 220 277 332 390
#     4  11  23  39  64  94 129 175 215 276 334 397
#     4  11  21  40  61  92 137 169 211 275 334 392
#
# _framework density 20.379176999999999
#
# number of rings (size 3 to 8) (size 9 to 14) (size 15 to 20)
#    0.000    1.333    3.333    2.000    7.000    3.333 
#    0.000    0.000    0.000    7.000    0.000    0.000 
#    0.000    0.000    0.000    0.000    0.000    0.000 
#
# Total GULP energy -133717.445423 kJ/mol
# GULP energy per Si atom -5571.560226 kJ/mol
# Density = 2.033279 g / cm^3
# Si number density = 20.379177 Si / 1000 Ang^3
#
#
#
# Elastic Constant Matrix: (Units=GPa)
#
#
# Indices 1 2 3 4 5 6 
#
# 1 140.6845 37.3155 77.8991 0.0000 0.0000 0.0000
# 2 37.3155 79.9015 28.8135 0.0000 0.0000 0.0000
# 3 77.8991 28.8135 96.4325 0.0000 0.0000 0.0000
# 4 0.0000 0.0000 0.0000 28.6106 0.0000 0.0000
# 5 0.0000 0.0000 0.0000 0.0000 61.3799 0.0000
# 6 0.0000 0.0000 0.0000 0.0000 0.0000 4.9029
#
#
#
# Elastic Compliance Matrix: (Units=1/GPa)
#
#
# Indices 1 2 3 4 5 6 
#
# 1 0.013335 -0.002626 -0.009987 0.000000 0.000000 0.000000
# 2 -0.002626 0.014544 -0.002224 0.000000 0.000000 0.000000
# 3 -0.009987 -0.002224 0.019102 0.000000 0.000000 0.000000
# 4 0.000000 0.000000 0.000000 0.034952 0.000000 0.000000
# 5 0.000000 0.000000 0.000000 0.000000 0.016292 0.000000
# 6 0.000000 0.000000 0.000000 0.000000 0.000000 0.203962
#
#
# Mechanical properties :
#
#
# Convention : Reuss Voigt Hill
#
# Bulk Modulus (GPa) = 57.78413 67.23054 62.50733
# Shear Modulus (GPa) = 14.80906 30.51138 22.66022
#
# Velocity S-wave (km/s) = 2.69862 3.87354 3.33818
# Velocity P-wave (km/s) = 6.17463 7.28473 6.75253
#
# Compressibility (1/GPa) = 0.01730579
#
# Stress axis : x y z
#
# Youngs Moduli (GPa) = 74.99195 68.75722 52.34939
#
# Poissons Ratio (x) = 0.18056 0.52283
# Poissons Ratio (y) = 0.19693 0.11644
# Poissons Ratio (z) = 0.74897 0.15294
#
# Static dielectric constant tensor:
#      x y z
#    x 1.697090 0.000000 0.000000 
#    y 0.000000 1.903510 0.000000 
#    z 0.000000 0.000000 1.750420 
# 
# From -- ./inp_files/5143.got.cif
#   From: 2010.05.17/outbox.cif.g08.bks.cpg/sg26_3_cif.got.tgz:5143.got - 2010.06.04 01:07:29.
