data_PCOD9338519
_publ_section_title
;
Structure prediction by ZEFSAII (Michael W. Deem and Ramdas Pophale) SiO2 
 PCOD9338519
Probable space group: P M C 21
;
_chemical_formula_sum "Si O2"
_cell_formula_units_Z 32
_cell_length_a 9.166606
_cell_length_b 14.398175
_cell_length_c 12.376229
_cell_angle_alpha 90.000000
_cell_angle_beta 90.000000
_cell_angle_gamma 90.000000
_cell_volume 1633.444373
_symmetry_space_group_name_H-M "P M C 21"
_symmetry_group_IT_number 26
_symmetry_cell_setting 'orthorhombic'
loop_
_space_group_symop_operation_xyz
x,y,z
-x,-y,1/2+z
-x,y,z
x,-y,1/2+z
loop_
_atom_site_type_symbol
_atom_site_label
_atom_site_fract_x
_atom_site_fract_y
_atom_site_fract_z
Si Si1 0.332653 0.195654 0.734640
Si Si2 0.327066 0.347315 0.381928
Si Si3 0.825534 0.952430 0.371645
Si Si4 0.829198 0.653705 0.101955
Si Si5 0.829666 0.517042 0.305778
Si Si6 0.827743 0.159051 0.320134
Si Si7 0.828791 0.183349 0.068396
Si Si8 0.666454 0.665535 0.442020
O O1 0.500000 0.183331 0.699021
O O2 0.259427 0.101629 0.777241
O O3 0.235602 0.249628 0.647409
O O4 0.334546 0.263936 0.839276
O O5 0.500000 0.350665 0.379117
O O6 0.264019 0.374578 0.498915
O O7 0.257629 0.421399 0.299827
O O8 0.266934 0.244812 0.359620
O O9 0.793614 0.898410 0.483189
O O10 0.000000 0.945078 0.351902
O O11 0.788428 0.060768 0.373273
O O12 0.815792 0.578156 0.197404
O O13 0.000000 0.663402 0.075162
O O14 0.762720 0.579550 0.402090
O O15 0.000000 0.498994 0.325346
O O16 0.808374 0.151793 0.190841
O O17 0.000000 0.177295 0.340598
O O18 0.000000 0.206274 0.052721
O O19 0.735965 0.273988 0.037586
O O20 0.500000 0.637714 0.464310
#
# Coordination Sequence:
#
# PCOD9338519 Si02
#       8
#     4   4   4   4   4   4   4   4
#     4   9  17  31  54  85 117 146 183 233 285 336
#     4  12  26  41  58  83 117 152 187 234 290 344
#     4   9  18  34  57  84 113 151 199 243 284 335
#     4  10  21  39  63  87 114 150 191 235 283 339
#     4  10  21  39  63  87 111 146 191 235 280 337
#     4  10  22  39  57  80 114 154 196 240 284 338
#     4   9  18  34  56  82 113 150 192 237 284 334
#     4   9  17  31  54  84 115 145 181 229 280 331
#
# _framework density 19.590506000000001
#
# number of rings (size 3 to 8) (size 9 to 14) (size 15 to 20)
#    0.000    2.250    0.000    2.625    0.000    7.500 
#    0.000    3.750    0.000    0.000    0.000    0.000 
#    0.000    0.000    0.000    0.000    0.000    0.000 
#
# Total GULP energy -178723.739504 kJ/mol
# GULP energy per Si atom -5585.116859 kJ/mol
# Density = 1.954592 g / cm^3
# Si number density = 19.590506 Si / 1000 Ang^3
#
#
#
# Elastic Constant Matrix: (Units=GPa)
#
#
# Indices 1 2 3 4 5 6 
#
# 1 131.6235 75.5403 38.6048 0.0000 0.0000 0.0000
# 2 75.5403 117.9277 22.2563 0.0000 0.0000 0.0000
# 3 38.6048 22.2563 43.6214 0.0000 0.0000 0.0000
# 4 0.0000 0.0000 0.0000 15.9619 0.0000 0.0000
# 5 0.0000 0.0000 0.0000 0.0000 22.1776 0.0000
# 6 0.0000 0.0000 0.0000 0.0000 0.0000 15.9074
#
#
#
# Elastic Compliance Matrix: (Units=1/GPa)
#
#
# Indices 1 2 3 4 5 6 
#
# 1 0.014663 -0.007684 -0.009057 0.000000 0.000000 0.000000
# 2 -0.007684 0.013410 -0.000042 0.000000 0.000000 0.000000
# 3 -0.009057 -0.000042 0.030961 0.000000 0.000000 0.000000
# 4 0.000000 0.000000 0.000000 0.062649 0.000000 0.000000
# 5 0.000000 0.000000 0.000000 0.000000 0.045090 0.000000
# 6 0.000000 0.000000 0.000000 0.000000 0.000000 0.062864
#
#
# Mechanical properties :
#
#
# Convention : Reuss Voigt Hill
#
# Bulk Modulus (GPa) = 39.26237 62.88616 51.07426
# Shear Modulus (GPa) = 18.40318 21.26079 19.83198
#
# Velocity S-wave (km/s) = 3.06828 3.29790 3.18516
# Velocity P-wave (km/s) = 5.71292 6.83166 6.29718
#
# Compressibility (1/GPa) = 0.02546968
#
# Stress axis : x y z
#
# Youngs Moduli (GPa) = 68.19657 74.57386 32.29857
#
# Poissons Ratio (x) = 0.57300 0.29252
# Poissons Ratio (y) = 0.52400 0.00135
# Poissons Ratio (z) = 0.61764 0.00311
#
# Static dielectric constant tensor:
#      x y z
#    x 1.659250 0.000000 0.000000 
#    y 0.000000 1.678130 0.000000 
#    z 0.000000 0.000000 1.705190 
# 
# From -- ./inp_files/3074.got.cif
#   From: 2010.05.17/outbox.cif.g08.bks.cpg/sg26_2_cif.got.tgz:3074.got - 2010.06.04 01:07:29.
