data_PCOD9338773
_publ_section_title
;
Structure prediction by ZEFSAII (Michael W. Deem and Ramdas Pophale) SiO2 
 PCOD9338773
Probable space group: P C C 2
;
_chemical_formula_sum "Si O2"
_cell_formula_units_Z 28
_cell_length_a 11.306822
_cell_length_b 8.454703
_cell_length_c 13.838258
_cell_angle_alpha 90.000000
_cell_angle_beta 90.000000
_cell_angle_gamma 90.000000
_cell_volume 1322.879647
_symmetry_space_group_name_H-M "P C C 2"
_symmetry_group_IT_number 27
_symmetry_cell_setting 'orthorhombic'
loop_
_space_group_symop_operation_xyz
x,y,z
-x,-y,z
-x,y,1/2+z
x,-y,1/2+z
loop_
_atom_site_type_symbol
_atom_site_label
_atom_site_fract_x
_atom_site_fract_y
_atom_site_fract_z
Si Si1 0.141646 0.206957 0.489100
Si Si2 0.000000 0.000000 0.637154
Si Si3 0.310376 0.268985 0.163486
Si Si4 0.866850 0.536414 0.628136
Si Si5 0.500000 0.500000 0.738411
Si Si6 0.191424 0.061058 0.300620
Si Si7 0.686124 0.246106 0.249593
Si Si8 0.627121 0.954912 0.562928
O O1 0.139585 0.388871 0.520426
O O2 0.113840 0.140333 0.384146
O O3 0.274847 0.139113 0.503380
O O4 0.051986 0.132629 0.566727
O O5 0.892533 0.043051 0.707489
O O6 0.200417 0.372880 0.133247
O O7 0.418756 0.388401 0.172521
O O8 0.289325 0.188665 0.267970
O O9 0.324399 0.125859 0.090931
O O10 0.792966 0.656478 0.697630
O O11 0.000000 0.500000 0.658388
O O12 0.407417 0.376847 0.789187
O O13 0.254422 0.890369 0.316058
O O14 0.620743 0.145486 0.163709
O O15 0.500000 0.000000 0.520048
#
# Coordination Sequence:
#
# PCOD9338773 Si02
#       8
#     4   2   4   4   2   4   4   4
#     4  11  24  41  65  98 126 166 232 266 326 400
#     4  12  20  42  68  94 126 166 212 280 326 386
#     4  10  20  35  65  87 128 173 212 266 329 381
#     4  10  20  38  62  91 130 168 205 265 330 389
#     4  10  18  34  62  94 122 174 222 258 332 396
#     4  11  23  41  66  98 127 173 221 275 327 389
#     4   9  19  35  63  92 125 168 221 264 319 391
#     4  10  18  37  61  91 123 171 221 267 315 379
#
# _framework density 21.165946999999999
#
# number of rings (size 3 to 8) (size 9 to 14) (size 15 to 20)
#    0.000    1.714    5.714    1.286    0.000    0.000 
#    2.571    5.000    0.000    0.857    0.000    0.000 
#    0.000    0.000    0.000    0.000    0.000    0.000 
#
# Total GULP energy -156050.459053 kJ/mol
# GULP energy per Si atom -5573.230680 kJ/mol
# Density = 2.111777 g / cm^3
# Si number density = 21.165947 Si / 1000 Ang^3
#
#
#
# Elastic Constant Matrix: (Units=GPa)
#
#
# Indices 1 2 3 4 5 6 
#
# 1 118.0814 44.8847 -5.8918 0.0000 0.0000 0.0000
# 2 44.8847 139.8793 19.0406 0.0000 0.0000 0.0000
# 3 -5.8918 19.0406 43.7424 0.0000 0.0000 0.0000
# 4 0.0000 0.0000 0.0000 8.9116 0.0000 0.0000
# 5 0.0000 0.0000 0.0000 0.0000 1.5126 0.0000
# 6 0.0000 0.0000 0.0000 0.0000 0.0000 37.2902
#
#
#
# Elastic Compliance Matrix: (Units=1/GPa)
#
#
# Indices 1 2 3 4 5 6 
#
# 1 0.009982 -0.003599 0.002911 0.000000 0.000000 0.000000
# 2 -0.003599 0.008897 -0.004358 0.000000 0.000000 0.000000
# 3 0.002911 -0.004358 0.025150 0.000000 0.000000 0.000000
# 4 0.000000 0.000000 0.000000 0.112213 0.000000 0.000000
# 5 0.000000 0.000000 0.000000 0.000000 0.661101 0.000000
# 6 0.000000 0.000000 0.000000 0.000000 0.000000 0.026817
#
#
# Mechanical properties :
#
#
# Convention : Reuss Voigt Hill
#
# Bulk Modulus (GPa) = 29.46555 46.41893 37.94224
# Shear Modulus (GPa) = 5.77657 25.78752 15.78205
#
# Velocity S-wave (km/s) = 1.65382 3.49427 2.73359
# Velocity P-wave (km/s) = 4.19503 6.18534 5.28473
#
# Compressibility (1/GPa) = 0.03393793
#
# Stress axis : x y z
#
# Youngs Moduli (GPa) = 100.17846 112.39526 39.76130
#
# Poissons Ratio (x) = 0.40455 -0.11576
# Poissons Ratio (y) = 0.36058 0.17327
# Poissons Ratio (z) = -0.29165 0.48978
#
# Static dielectric constant tensor:
#      x y z
#    x 1.857590 0.000000 0.000000 
#    y 0.000000 1.823740 0.000000 
#    z 0.000000 0.000000 1.802140 
# 
# From -- ./inp_files/3593.got.cif
#   From: 2010.05.17/outbox.cif.g08.bks.cpg/sg27_2_cif.got.tgz:3593.got - 2010.06.04 01:11:05.
