data_PCOD9338962
_publ_section_title
;
Structure prediction by ZEFSAII (Michael W. Deem and Ramdas Pophale) SiO2 
 PCOD9338962
Probable space group: P C C 2
;
_chemical_formula_sum "Si O2"
_cell_formula_units_Z 24
_cell_length_a 4.917166
_cell_length_b 17.029625
_cell_length_c 10.936874
_cell_angle_alpha 90.000000
_cell_angle_beta 90.000000
_cell_angle_gamma 90.000000
_cell_volume 915.826410
_symmetry_space_group_name_H-M "P C C 2"
_symmetry_group_IT_number 27
_symmetry_cell_setting 'orthorhombic'
loop_
_space_group_symop_operation_xyz
x,y,z
-x,-y,z
-x,y,1/2+z
x,-y,1/2+z
loop_
_atom_site_type_symbol
_atom_site_label
_atom_site_fract_x
_atom_site_fract_y
_atom_site_fract_z
Si Si1 0.898443 0.165790 0.263870
Si Si2 0.033376 0.091763 0.016058
Si Si3 0.207499 0.312004 0.636487
Si Si4 0.579138 0.582119 0.297301
Si Si5 0.895231 0.374093 0.446312
Si Si6 0.429126 0.213567 0.956699
O O1 0.593633 0.182721 0.317229
O O2 0.977857 0.250844 0.211142
O O3 0.048519 0.132020 0.384975
O O4 0.901246 0.110182 0.146952
O O5 0.326602 0.135809 0.027798
O O6 0.000000 0.000000 0.995442
O O7 0.447854 0.348830 0.716321
O O8 0.035696 0.381929 0.576813
O O9 0.336707 0.259034 0.527469
O O10 0.500000 0.500000 0.235918
O O11 0.880037 0.600123 0.346387
O O12 0.380247 0.581693 0.416661
O O13 0.799722 0.282824 0.451032
#
# Coordination Sequence:
#
# PCOD9338962 Si02
#       6
#     4   4   4   4   4   4
#     4  10  21  41  72 109 145 207 257 325 381 487
#     4  10  21  41  72 113 155 200 259 332 406 466
#     4  12  23  46  78 107 154 206 277 323 398 486
#     4  12  29  48  74 111 158 201 262 335 413 477
#     4  12  24  49  73 108 149 203 260 323 394 483
#     4  10  24  43  74 112 142 210 260 319 385 476
#
# _framework density 26.205838
#
# number of rings (size 3 to 8) (size 9 to 14) (size 15 to 20)
#    1.000    0.000    5.000    1.000    4.667    0.667 
#    6.000    0.833    3.667    0.000    0.000    0.000 
#    0.000    0.000    0.000    0.000    0.000    0.000 
#
# Total GULP energy -133794.288320 kJ/mol
# GULP energy per Si atom -5574.762013 kJ/mol
# Density = 2.614619 g / cm^3
# Si number density = 26.205838 Si / 1000 Ang^3
#
#
#
# Elastic Constant Matrix: (Units=GPa)
#
#
# Indices 1 2 3 4 5 6 
#
# 1 81.2732 18.5146 29.1772 0.0000 0.0000 0.0000
# 2 18.5146 148.0757 41.3039 0.0000 0.0000 0.0000
# 3 29.1772 41.3039 179.9570 0.0000 0.0000 0.0000
# 4 0.0000 0.0000 0.0000 31.1002 0.0000 0.0000
# 5 0.0000 0.0000 0.0000 0.0000 32.9363 0.0000
# 6 0.0000 0.0000 0.0000 0.0000 0.0000 18.3643
#
#
#
# Elastic Compliance Matrix: (Units=1/GPa)
#
#
# Indices 1 2 3 4 5 6 
#
# 1 0.013239 -0.001129 -0.001887 0.000000 0.000000 0.000000
# 2 -0.001129 0.007311 -0.001495 0.000000 0.000000 0.000000
# 3 -0.001887 -0.001495 0.006206 0.000000 0.000000 0.000000
# 4 0.000000 0.000000 0.000000 0.032154 0.000000 0.000000
# 5 0.000000 0.000000 0.000000 0.000000 0.030362 0.000000
# 6 0.000000 0.000000 0.000000 0.000000 0.000000 0.054453
#
#
# Mechanical properties :
#
#
# Convention : Reuss Voigt Hill
#
# Bulk Modulus (GPa) = 56.38966 65.25524 60.82245
# Shear Modulus (GPa) = 31.51400 37.83418 34.67409
#
# Velocity S-wave (km/s) = 3.47155 3.80377 3.64145
# Velocity P-wave (km/s) = 6.13462 6.65181 6.39845
#
# Compressibility (1/GPa) = 0.01773375
#
# Stress axis : x y z
#
# Youngs Moduli (GPa) = 75.53489 136.77102 161.13299
#
# Poissons Ratio (x) = 0.15440 0.30412
# Poissons Ratio (y) = 0.08527 0.24091
# Poissons Ratio (z) = 0.14256 0.20449
#
# Static dielectric constant tensor:
#      x y z
#    x 2.158640 0.000000 0.000000 
#    y 0.000000 2.061300 0.000000 
#    z 0.000000 0.000000 2.188880 
# 
# From -- ./inp_files/2044.got.cif
#   From: 2010.05.17/outbox.cif.g08.bks.cpg/sg27_2_cif.got.tgz:2044.got - 2010.06.04 01:11:05.
