data_PCOD9338272
_publ_section_title
;
Structure prediction by ZEFSAII (Michael W. Deem and Ramdas Pophale) SiO2 
 PCOD9338272
Probable space group: P M C 21
;
_chemical_formula_sum "Si O2"
_cell_formula_units_Z 32
_cell_length_a 9.348532
_cell_length_b 12.936169
_cell_length_c 12.734162
_cell_angle_alpha 90.000000
_cell_angle_beta 90.000000
_cell_angle_gamma 90.000000
_cell_volume 1539.995565
_symmetry_space_group_name_H-M "P M C 21"
_symmetry_group_IT_number 26
_symmetry_cell_setting 'orthorhombic'
loop_
_space_group_symop_operation_xyz
x,y,z
-x,-y,1/2+z
-x,y,z
x,-y,1/2+z
loop_
_atom_site_type_symbol
_atom_site_label
_atom_site_fract_x
_atom_site_fract_y
_atom_site_fract_z
Si Si1 0.667996 0.415915 0.625000
Si Si2 0.832755 0.071282 0.618827
Si Si3 0.667466 0.868436 0.683452
Si Si4 0.167465 0.131564 0.857719
Si Si5 0.167996 0.415915 0.416171
Si Si6 0.331750 0.643756 0.707752
Si Si7 0.667245 0.928718 0.922344
Si Si8 0.168250 0.356244 0.833419
O O1 0.500000 0.392787 0.618298
O O2 0.750000 0.383456 0.520586
O O3 0.685713 0.540146 0.640235
O O4 0.736794 0.368488 0.729575
O O5 0.815099 0.126878 0.730894
O O6 0.000000 0.065464 0.595483
O O7 0.766460 0.957173 0.636729
O O8 0.750000 0.119508 0.520586
O O9 0.500000 0.891136 0.660832
O O10 0.702234 0.751621 0.651316
O O11 0.684901 0.873122 0.810277
O O12 0.266460 0.042827 0.904442
O O13 0.202234 0.248379 0.889855
O O14 0.000000 0.108864 0.880339
O O15 0.236794 0.368488 0.311596
O O16 0.185712 0.540145 0.400937
O O17 0.000000 0.392786 0.422873
O O18 0.500000 0.649366 0.738193
O O19 0.500000 0.934537 0.945688
O O20 0.000000 0.350634 0.802978
#
# Coordination Sequence:
#
# PCOD9338272 Si02
#       8
#     4   4   4   4   4   4   4   4
#     4  10  20  34  53  76 104 136 170 210 254 303
#     4  10  20  34  53  76 104 136 170 210 254 303
#     4   9  19  36  55  76 103 134 170 212 256 302
#     4   9  19  36  55  76 103 134 170 212 256 302
#     4  10  20  34  53  76 104 136 170 210 254 303
#     4   9  19  36  55  76 103 134 170 212 256 302
#     4  10  20  34  53  76 104 136 170 210 254 303
#     4   9  19  36  55  76 103 134 170 212 256 302
#
# _framework density 20.77928
#
# number of rings (size 3 to 8) (size 9 to 14) (size 15 to 20)
#    0.000    2.500    0.000    1.500    0.000    5.000 
#    0.000    5.000    0.000    0.000    0.000    0.000 
#    0.000    0.000    0.000    0.000    0.000    0.000 
#
# Total GULP energy -178758.157355 kJ/mol
# GULP energy per Si atom -5586.192417 kJ/mol
# Density = 2.073199 g / cm^3
# Si number density = 20.779280 Si / 1000 Ang^3
#
#
#
# Elastic Constant Matrix: (Units=GPa)
#
#
# Indices 1 2 3 4 5 6 
#
# 1 88.2440 21.1467 45.7287 0.0000 0.0000 0.0000
# 2 21.1467 78.2836 -17.0315 0.0000 0.0000 0.0000
# 3 45.7287 -17.0315 80.7818 0.0000 0.0000 0.0000
# 4 0.0000 0.0000 0.0000 -7.9210 0.0000 0.0000
# 5 0.0000 0.0000 0.0000 0.0000 33.6715 0.0000
# 6 0.0000 0.0000 0.0000 0.0000 0.0000 19.8573
#
#
#
# Elastic Compliance Matrix: (Units=1/GPa)
#
#
# Indices 1 2 3 4 5 6 
#
# 1 0.020134 -0.008299 -0.013147 0.000000 0.000000 0.000000
# 2 -0.008299 0.016809 0.008242 0.000000 0.000000 0.000000
# 3 -0.013147 0.008242 0.021559 0.000000 0.000000 0.000000
# 4 0.000000 0.000000 0.000000 -0.126246 0.000000 0.000000
# 5 0.000000 0.000000 0.000000 0.000000 0.029699 0.000000
# 6 0.000000 0.000000 0.000000 0.000000 0.000000 0.050359
#
#
# Mechanical properties :
#
#
# Convention : Reuss Voigt Hill
#
# Bulk Modulus (GPa) = 31.15928 38.55524 34.85726
# Shear Modulus (GPa) = 101.17358 22.28591 61.72975
#
# Velocity S-wave (km/s) = 6.98537 3.27847 5.45636
# Velocity P-wave (km/s) = 8.94921 5.73812 7.51713
#
# Compressibility (1/GPa) = 0.03209317
#
# Stress axis : x y z
#
# Youngs Moduli (GPa) = 49.66755 59.49207 46.38457
#
# Poissons Ratio (x) = 0.49373 0.60982
# Poissons Ratio (y) = 0.41219 -0.38229
# Poissons Ratio (z) = 0.65298 -0.49032
#
# Static dielectric constant tensor:
#      x y z
#    x 1.694090 0.000000 0.000000 
#    y 0.000000 1.758430 0.000000 
#    z 0.000000 0.000000 1.735260 
# 
# From -- ./inp_files/3055.got.cif
#   From: 2010.05.17/outbox.cif.g08.bks.cpg/sg26_2_cif.got.tgz:3055.got - 2010.06.04 01:07:29.
