data_PCOD9338928
_publ_section_title
;
Structure prediction by ZEFSAII (Michael W. Deem and Ramdas Pophale) SiO2 
 PCOD9338928
Probable space group: P C C 2
;
_chemical_formula_sum "Si O2"
_cell_formula_units_Z 24
_cell_length_a 8.856635
_cell_length_b 12.247866
_cell_length_c 9.057700
_cell_angle_alpha 90.000000
_cell_angle_beta 90.000000
_cell_angle_gamma 90.000000
_cell_volume 982.532909
_symmetry_space_group_name_H-M "P C C 2"
_symmetry_group_IT_number 27
_symmetry_cell_setting 'orthorhombic'
loop_
_space_group_symop_operation_xyz
x,y,z
-x,-y,z
-x,y,1/2+z
x,-y,1/2+z
loop_
_atom_site_type_symbol
_atom_site_label
_atom_site_fract_x
_atom_site_fract_y
_atom_site_fract_z
Si Si1 0.000000 0.000000 0.741111
Si Si2 0.177503 0.570595 0.458775
Si Si3 0.207111 0.899739 0.489895
Si Si4 0.643785 0.222336 0.835624
Si Si5 0.914986 0.355937 0.790203
Si Si6 0.575718 0.695688 0.048028
Si Si7 0.500000 0.000000 0.372786
O O1 0.896866 0.924139 0.847141
O O2 0.108756 0.933626 0.630514
O O3 0.112397 0.602377 0.622473
O O4 0.147752 0.448511 0.402523
O O5 0.355279 0.590306 0.472701
O O6 0.089650 0.644051 0.336634
O O7 0.289666 0.783826 0.510259
O O8 0.352746 0.976245 0.469304
O O9 0.821456 0.246065 0.826072
O O10 0.576813 0.311094 0.722624
O O11 0.560805 0.108968 0.790950
O O12 0.578491 0.254095 0.992839
#
# Coordination Sequence:
#
# PCOD9338928 Si02
#       7
#     2   4   4   4   4   4   2
#     4  10  22  38  58  86 120 160 206 268 328 390
#     4  10  21  38  61  90 124 161 206 256 319 385
#     4  10  22  39  59  86 120 158 206 260 324 388
#     4  10  23  40  61  88 120 161 211 258 318 381
#     4  10  21  39  62  91 124 164 207 260 321 390
#     4  10  23  39  58  87 118 158 205 255 313 382
#     4  10  22  42  64  88 124 168 216 270 326 402
#
# _framework density 24.426663000000001
#
# number of rings (size 3 to 8) (size 9 to 14) (size 15 to 20)
#    0.000    2.000    0.000    3.000    0.000   17.333 
#    0.000    3.333    0.000    0.000    0.000    0.000 
#    0.000    0.000    0.000    0.000    0.000    0.000 
#
# Total GULP energy -133864.973669 kJ/mol
# GULP energy per Si atom -5577.707236 kJ/mol
# Density = 2.437107 g / cm^3
# Si number density = 24.426663 Si / 1000 Ang^3
#
#
#
# Elastic Constant Matrix: (Units=GPa)
#
#
# Indices 1 2 3 4 5 6 
#
# 1 104.5249 36.9646 36.3382 0.0000 0.0000 0.0000
# 2 36.9646 42.8310 10.2261 0.0000 0.0000 0.0000
# 3 36.3382 10.2261 107.0821 0.0000 0.0000 0.0000
# 4 0.0000 0.0000 0.0000 30.0362 0.0000 0.0000
# 5 0.0000 0.0000 0.0000 0.0000 36.9526 0.0000
# 6 0.0000 0.0000 0.0000 0.0000 0.0000 51.7111
#
#
#
# Elastic Compliance Matrix: (Units=1/GPa)
#
#
# Indices 1 2 3 4 5 6 
#
# 1 0.015293 -0.012238 -0.004021 0.000000 0.000000 0.000000
# 2 -0.012238 0.033686 0.000936 0.000000 0.000000 0.000000
# 3 -0.004021 0.000936 0.010614 0.000000 0.000000 0.000000
# 4 0.000000 0.000000 0.000000 0.033293 0.000000 0.000000
# 5 0.000000 0.000000 0.000000 0.000000 0.027062 0.000000
# 6 0.000000 0.000000 0.000000 0.000000 0.000000 0.019338
#
#
# Mechanical properties :
#
#
# Convention : Reuss Voigt Hill
#
# Bulk Modulus (GPa) = 34.54642 46.83287 40.68964
# Shear Modulus (GPa) = 27.84259 35.13393 31.48826
#
# Velocity S-wave (km/s) = 3.37982 3.79666 3.59429
# Velocity P-wave (km/s) = 5.42259 6.19952 5.82403
#
# Compressibility (1/GPa) = 0.02894656
#
# Stress axis : x y z
#
# Youngs Moduli (GPa) = 65.38950 29.68582 94.21759
#
# Poissons Ratio (x) = 0.36330 0.37884
# Poissons Ratio (y) = 0.80026 -0.08820
# Poissons Ratio (z) = 0.26293 -0.02779
#
# Static dielectric constant tensor:
#      x y z
#    x 1.985160 0.000000 0.000000 
#    y 0.000000 2.066620 0.000000 
#    z 0.000000 0.000000 1.914840 
# 
# From -- ./inp_files/1164.got.cif
#   From: 2010.05.17/outbox.cif.g08.bks.cpg/sg27_1_cif.got.tgz:1164.got - 2010.06.04 01:11:05.
