data_PCOD9338002
_publ_section_title
;
Structure prediction by ZEFSAII (Michael W. Deem and Ramdas Pophale) SiO2 
 PCOD9338002
Probable space group: P M C 21
;
_chemical_formula_sum "Si O2"
_cell_formula_units_Z 32
_cell_length_a 8.750476
_cell_length_b 11.777267
_cell_length_c 16.455558
_cell_angle_alpha 90.000000
_cell_angle_beta 90.000000
_cell_angle_gamma 90.000000
_cell_volume 1695.855376
_symmetry_space_group_name_H-M "P M C 21"
_symmetry_group_IT_number 26
_symmetry_cell_setting 'orthorhombic'
loop_
_space_group_symop_operation_xyz
x,y,z
-x,-y,1/2+z
-x,y,z
x,-y,1/2+z
loop_
_atom_site_type_symbol
_atom_site_label
_atom_site_fract_x
_atom_site_fract_y
_atom_site_fract_z
Si Si1 0.179468 0.715431 0.341470
Si Si2 0.671407 0.906188 0.246100
Si Si3 0.813798 0.807293 0.512100
Si Si4 0.817971 0.319826 0.176836
Si Si5 0.316714 0.430820 0.695714
Si Si6 0.818572 0.938411 0.960233
Si Si7 0.320820 0.854747 0.792122
Si Si8 0.325497 0.234328 0.580979
O O1 0.210906 0.839476 0.302437
O O2 0.233329 0.729894 0.434539
O O3 0.259003 0.627575 0.279571
O O4 0.000000 0.690479 0.341649
O O5 0.500000 0.897671 0.282984
O O6 0.667112 0.843113 0.161144
O O7 0.704963 0.037406 0.233470
O O8 0.764413 0.750546 0.596885
O O9 0.000000 0.808743 0.512530
O O10 0.767037 0.938760 0.496132
O O11 0.743325 0.443086 0.183608
O O12 0.773093 0.249095 0.256768
O O13 0.000000 0.331802 0.171563
O O14 0.500000 0.427376 0.697582
O O15 0.268742 0.353297 0.618258
O O16 0.733241 0.905037 0.877667
O O17 0.000000 0.945730 0.946006
O O18 0.779842 0.834334 0.019925
O O19 0.500000 0.826215 0.794358
O O20 0.500000 0.246397 0.548920
#
# Coordination Sequence:
#
# PCOD9338002 Si02
#       8
#     4   4   4   4   4   4   4   4
#     4  10  18  34  61  88 117 153 193 242 294 348
#     4   9  18  33  55  84 117 151 189 234 287 348
#     4   9  20  37  59  90 123 150 191 247 298 352
#     4  11  23  41  62  86 117 158 203 249 299 353
#     4  10  22  42  61  83 117 155 202 248 294 352
#     4  11  21  36  58  89 122 153 192 241 297 356
#     4  11  22  37  57  84 121 158 192 238 296 355
#     4   9  19  36  57  82 114 150 190 239 291 348
#
# _framework density 18.869533000000001
#
# number of rings (size 3 to 8) (size 9 to 14) (size 15 to 20)
#    0.000    2.000    1.250    3.375    0.000    3.000 
#    2.250    4.375    0.000    0.000    0.000    0.000 
#    0.000    0.000    0.000    0.000    0.000    0.000 
#
# Total GULP energy -178448.330173 kJ/mol
# GULP energy per Si atom -5576.510318 kJ/mol
# Density = 1.882659 g / cm^3
# Si number density = 18.869533 Si / 1000 Ang^3
#
#
#
# Elastic Constant Matrix: (Units=GPa)
#
#
# Indices 1 2 3 4 5 6 
#
# 1 32.8648 26.4938 13.9372 0.0000 0.0000 0.0000
# 2 26.4938 138.2122 47.1006 0.0000 0.0000 0.0000
# 3 13.9372 47.1006 61.7906 0.0000 0.0000 0.0000
# 4 0.0000 0.0000 0.0000 23.9191 0.0000 0.0000
# 5 0.0000 0.0000 0.0000 0.0000 21.4664 0.0000
# 6 0.0000 0.0000 0.0000 0.0000 0.0000 30.2944
#
#
#
# Elastic Compliance Matrix: (Units=1/GPa)
#
#
# Indices 1 2 3 4 5 6 
#
# 1 0.036685 -0.005690 -0.003937 0.000000 0.000000 0.000000
# 2 -0.005690 0.010657 -0.006840 0.000000 0.000000 0.000000
# 3 -0.003937 -0.006840 0.022285 0.000000 0.000000 0.000000
# 4 0.000000 0.000000 0.000000 0.041808 0.000000 0.000000
# 5 0.000000 0.000000 0.000000 0.000000 0.046584 0.000000
# 6 0.000000 0.000000 0.000000 0.000000 0.000000 0.033009
#
#
# Mechanical properties :
#
#
# Convention : Reuss Voigt Hill
#
# Bulk Modulus (GPa) = 27.25337 45.32564 36.28950
# Shear Modulus (GPa) = 21.16908 24.82506 22.99707
#
# Velocity S-wave (km/s) = 3.35306 3.63108 3.49483
# Velocity P-wave (km/s) = 5.42818 6.45386 5.96311
#
# Compressibility (1/GPa) = 0.03669271
#
# Stress axis : x y z
#
# Youngs Moduli (GPa) = 27.25943 93.83529 44.87235
#
# Poissons Ratio (x) = 0.53396 0.17665
# Poissons Ratio (y) = 0.15512 0.30692
# Poissons Ratio (z) = 0.10732 0.64182
#
# Static dielectric constant tensor:
#      x y z
#    x 1.656050 0.000000 0.000000 
#    y 0.000000 1.670650 0.000000 
#    z 0.000000 0.000000 1.679990 
# 
# From -- ./inp_files/4246.got.cif
#   From: 2010.05.17/outbox.cif.g08.bks.cpg/sg26_3_cif.got.tgz:4246.got - 2010.06.04 01:07:29.
