data_PCOD9338729
_publ_section_title
;
Structure prediction by ZEFSAII (Michael W. Deem and Ramdas Pophale) SiO2 
 PCOD9338729
Probable space group: P C C 2
;
_chemical_formula_sum "Si O2"
_cell_formula_units_Z 20
_cell_length_a 16.929498
_cell_length_b 10.910772
_cell_length_c 5.448215
_cell_angle_alpha 90.000000
_cell_angle_beta 90.000000
_cell_angle_gamma 90.000000
_cell_volume 1006.361001
_symmetry_space_group_name_H-M "P C C 2"
_symmetry_group_IT_number 27
_symmetry_cell_setting 'orthorhombic'
loop_
_space_group_symop_operation_xyz
x,y,z
-x,-y,z
-x,y,1/2+z
x,-y,1/2+z
loop_
_atom_site_type_symbol
_atom_site_label
_atom_site_fract_x
_atom_site_fract_y
_atom_site_fract_z
Si Si1 0.468647 0.858200 0.524190
Si Si2 0.950980 0.834963 0.474339
Si Si3 0.715493 0.854461 0.906754
Si Si4 0.221326 0.127772 0.406060
Si Si5 0.090158 0.549987 0.008570
O O1 0.515652 0.804230 0.292835
O O2 0.377102 0.846375 0.457262
O O3 0.500000 0.000000 0.545550
O O4 0.869420 0.907417 0.453346
O O5 0.920280 0.694458 0.474812
O O6 0.003461 0.854789 0.230603
O O7 0.744724 0.803508 0.645017
O O8 0.732542 0.999871 0.882645
O O9 0.764605 0.808668 0.143403
O O10 0.127220 0.511704 0.267901
O O11 0.000000 0.500000 0.025400
#
# Coordination Sequence:
#
# PCOD9338729 Si02
#       5
#     4   4   4   4   4
#     4  10  16  25  46  69  80 106 152 186 204 245
#     4  12  21  32  47  67  84 105 159 198 215 271
#     4  10  19  35  44  59  95 122 152 174 219 271
#     4  10  20  32  46  59  83 126 148 184 228 257
#     4  10  16  30  48  66  83 102 123 186 242 270
#
# _framework density 19.873583
#
# number of rings (size 3 to 8) (size 9 to 14) (size 15 to 20)
#    0.000    1.600    4.000    7.200    0.000    0.000 
#    0.000   12.000    0.000    0.000    0.000    0.000 
#    0.000    0.000    0.000    0.000    0.000  244.000 
#
# Total GULP energy -111537.121603 kJ/mol
# GULP energy per Si atom -5576.856080 kJ/mol
# Density = 1.982835 g / cm^3
# Si number density = 19.873583 Si / 1000 Ang^3
#
#
#
# Elastic Constant Matrix: (Units=GPa)
#
#
# Indices 1 2 3 4 5 6 
#
# 1 44.8077 -6.8053 -16.8650 0.0000 0.0000 0.0000
# 2 -6.8053 24.0541 -5.2941 0.0000 0.0000 0.0000
# 3 -16.8650 -5.2941 151.6989 0.0000 0.0000 0.0000
# 4 0.0000 0.0000 0.0000 -3.4508 0.0000 0.0000
# 5 0.0000 0.0000 0.0000 0.0000 29.3829 0.0000
# 6 0.0000 0.0000 0.0000 0.0000 0.0000 -0.9115
#
#
#
# Elastic Compliance Matrix: (Units=1/GPa)
#
#
# Indices 1 2 3 4 5 6 
#
# 1 0.024605 0.007622 0.003001 0.000000 0.000000 0.000000
# 2 0.007622 0.044256 0.002392 0.000000 0.000000 0.000000
# 3 0.003001 0.002392 0.007009 0.000000 0.000000 0.000000
# 4 0.000000 0.000000 0.000000 -0.289788 0.000000 0.000000
# 5 0.000000 0.000000 0.000000 0.000000 0.034033 0.000000
# 6 0.000000 0.000000 0.000000 0.000000 0.000000 -1.097077
#
#
# Mechanical properties :
#
#
# Convention : Reuss Voigt Hill
#
# Bulk Modulus (GPa) = 9.81358 18.07021 13.94190
# Shear Modulus (GPa) = -3.94003 21.63913 8.84955
#
# Velocity S-wave (km/s) = -1.40956 3.30334 2.11248
# Velocity P-wave (km/s) = 1.51644 4.86433 3.60287
#
# Compressibility (1/GPa) = 0.10189956
#
# Stress axis : x y z
#
# Youngs Moduli (GPa) = 40.64238 22.59597 142.67050
#
# Poissons Ratio (x) = -0.17222 -0.42821
# Poissons Ratio (y) = -0.30976 -0.34124
# Poissons Ratio (z) = -0.12198 -0.05405
#
# Static dielectric constant tensor:
#      x y z
#    x 1.653910 0.000000 0.000000 
#    y 0.000000 2.063660 0.000000 
#    z 0.000000 0.000000 1.883770 
# 
# From -- ./inp_files/280.got.cif
#   From: 2010.05.17/outbox.cif.g08.bks.cpg/sg27_1_cif.got.tgz:280.got - 2010.06.04 01:11:05.
