data_PCOD9338474
_publ_section_title
;
Structure prediction by ZEFSAII (Michael W. Deem and Ramdas Pophale) SiO2 
 PCOD9338474
Probable space group: P M C 21
;
_chemical_formula_sum "Si O2"
_cell_formula_units_Z 32
_cell_length_a 8.804475
_cell_length_b 14.747410
_cell_length_c 12.876373
_cell_angle_alpha 90.000000
_cell_angle_beta 90.000000
_cell_angle_gamma 90.000000
_cell_volume 1671.909509
_symmetry_space_group_name_H-M "P M C 21"
_symmetry_group_IT_number 26
_symmetry_cell_setting 'orthorhombic'
loop_
_space_group_symop_operation_xyz
x,y,z
-x,-y,1/2+z
-x,y,z
x,-y,1/2+z
loop_
_atom_site_type_symbol
_atom_site_label
_atom_site_fract_x
_atom_site_fract_y
_atom_site_fract_z
Si Si1 0.825961 0.166146 0.050440
Si Si2 0.185474 0.543316 0.606978
Si Si3 0.680383 0.852334 0.879162
Si Si4 0.826050 0.299573 0.251079
Si Si5 0.814652 0.649947 0.180991
Si Si6 0.181236 0.845591 0.102223
Si Si7 0.814475 0.329852 0.918206
Si Si8 0.680543 0.019391 0.188162
O O1 0.829562 0.235930 0.148230
O O2 0.730979 0.081064 0.089919
O O3 0.000000 0.137878 0.029789
O O4 0.767309 0.229414 0.957065
O O5 0.228847 0.604187 0.707111
O O6 0.235758 0.440267 0.621025
O O7 0.235296 0.595354 0.502761
O O8 0.000000 0.544889 0.605806
O O9 0.500000 0.857534 0.892007
O O10 0.727432 0.753948 0.834222
O O11 0.727019 0.925280 0.791294
O O12 0.761856 0.868461 0.987315
O O13 0.000000 0.308120 0.289264
O O14 0.765231 0.744679 0.131563
O O15 0.768050 0.648001 0.301643
O O16 0.000000 0.649183 0.179571
O O17 0.000000 0.846804 0.105563
O O18 0.243933 0.921886 0.179036
O O19 0.000000 0.328242 0.921357
O O20 0.500000 0.011005 0.188017
#
# Coordination Sequence:
#
# PCOD9338474 Si02
#       8
#     4   4   4   4   4   4   4   4
#     4   8  14  27  49  76 103 131 166 209 255 303
#     4   8  14  26  47  76 108 139 171 211 258 306
#     4  10  21  37  56  77 105 141 176 215 266 320
#     4   8  14  27  50  79 105 130 168 215 257 301
#     4   9  18  30  45  73 109 139 170 210 258 309
#     4  11  23  36  52  77 108 140 176 219 266 317
#     4   8  14  26  45  71 105 139 168 205 254 302
#     4  10  21  37  56  77 101 133 175 220 266 318
#
# _framework density 19.139790999999999
#
# number of rings (size 3 to 8) (size 9 to 14) (size 15 to 20)
#    0.000    3.000    0.000    2.625    0.000    3.500 
#    0.000    5.000    0.000    2.250    0.000    5.250 
#    0.000    0.000    0.000    0.000    0.000    0.000 
#
# Total GULP energy -178396.684908 kJ/mol
# GULP energy per Si atom -5574.896403 kJ/mol
# Density = 1.909623 g / cm^3
# Si number density = 19.139791 Si / 1000 Ang^3
#
#
#
# Elastic Constant Matrix: (Units=GPa)
#
#
# Indices 1 2 3 4 5 6 
#
# 1 18.9487 28.4670 17.9540 0.0000 0.0000 0.0000
# 2 28.4670 137.2602 41.9943 0.0000 0.0000 0.0000
# 3 17.9540 41.9943 72.1082 0.0000 0.0000 0.0000
# 4 0.0000 0.0000 0.0000 20.1251 0.0000 0.0000
# 5 0.0000 0.0000 0.0000 0.0000 8.6736 0.0000
# 6 0.0000 0.0000 0.0000 0.0000 0.0000 -0.2669
#
#
#
# Elastic Compliance Matrix: (Units=1/GPa)
#
#
# Indices 1 2 3 4 5 6 
#
# 1 0.086187 -0.013761 -0.013445 0.000000 0.000000 0.000000
# 2 -0.013761 0.011062 -0.003016 0.000000 0.000000 0.000000
# 3 -0.013445 -0.003016 0.018972 0.000000 0.000000 0.000000
# 4 0.000000 0.000000 0.000000 0.049689 0.000000 0.000000
# 5 0.000000 0.000000 0.000000 0.000000 0.115292 0.000000
# 6 0.000000 0.000000 0.000000 0.000000 0.000000 -3.746896
#
#
# Mechanical properties :
#
#
# Convention : Reuss Voigt Hill
#
# Bulk Modulus (GPa) = 17.92867 45.01641 31.47254
# Shear Modulus (GPa) = -1.47638 15.03316 6.77839
#
# Velocity S-wave (km/s) = -0.87923 2.80561 1.88393
# Velocity P-wave (km/s) = 2.89082 5.83662 4.60559
#
# Compressibility (1/GPa) = 0.05577657
#
# Stress axis : x y z
#
# Youngs Moduli (GPa) = 11.60267 90.39820 52.70875
#
# Poissons Ratio (x) = 1.24399 0.70868
# Poissons Ratio (y) = 0.15967 0.15897
# Poissons Ratio (z) = 0.15600 0.27264
#
# Static dielectric constant tensor:
#      x y z
#    x 1.644500 0.000000 0.000000 
#    y 0.000000 1.686180 0.000000 
#    z 0.000000 0.000000 1.679090 
# 
# From -- ./inp_files/3057.got.cif
#   From: 2010.05.17/outbox.cif.g08.bks.cpg/sg26_2_cif.got.tgz:3057.got - 2010.06.04 01:07:29.
