data_PCOD9338582
_publ_section_title
;
Structure prediction by ZEFSAII (Michael W. Deem and Ramdas Pophale) SiO2 
 PCOD9338582
Probable space group: P M C 21
;
_chemical_formula_sum "Si O2"
_cell_formula_units_Z 32
_cell_length_a 17.618738
_cell_length_b 6.639326
_cell_length_c 13.060428
_cell_angle_alpha 90.000000
_cell_angle_beta 90.000000
_cell_angle_gamma 90.000000
_cell_volume 1527.763747
_symmetry_space_group_name_H-M "P M C 21"
_symmetry_group_IT_number 26
_symmetry_cell_setting 'orthorhombic'
loop_
_space_group_symop_operation_xyz
x,y,z
-x,-y,1/2+z
-x,y,z
x,-y,1/2+z
loop_
_atom_site_type_symbol
_atom_site_label
_atom_site_fract_x
_atom_site_fract_y
_atom_site_fract_z
Si Si1 0.913082 0.477706 0.277030
Si Si2 0.692277 0.011301 0.217828
Si Si3 0.344887 0.674255 0.893466
Si Si4 0.914953 0.782030 0.570165
Si Si5 0.809734 0.519413 0.965810
Si Si6 0.415844 0.288858 0.825986
Si Si7 0.848448 0.173344 0.646052
Si Si8 0.587782 0.977690 0.529468
O O1 0.908587 0.330385 0.179468
O O2 0.858103 0.412099 0.367671
O O3 0.887281 0.695823 0.234826
O O4 0.000000 0.482307 0.311587
O O5 0.648227 0.811806 0.256472
O O6 0.776947 0.951533 0.187634
O O7 0.688389 0.173729 0.308477
O O8 0.644167 0.084337 0.120052
O O9 0.277932 0.531554 0.935777
O O10 0.404126 0.525198 0.840619
O O11 0.382308 0.812031 0.981023
O O12 0.848277 0.690787 0.499899
O O13 0.000000 0.739286 0.529872
O O14 0.904112 0.016198 0.591957
O O15 0.820707 0.670408 0.060222
O O16 0.500000 0.244210 0.785208
O O17 0.410192 0.181317 0.936528
O O18 0.500000 0.994871 0.562554
#
# Coordination Sequence:
#
# PCOD9338582 Si02
#       8
#     4   4   4   4   4   4   4   4
#     4  10  22  41  62  92 130 165 208 262 314 374
#     4  11  23  40  64  94 128 165 214 269 319 381
#     4  11  23  40  64  91 125 167 216 264 324 382
#     4  10  23  40  63  93 128 168 215 260 312 377
#     4  11  23  40  64  93 127 164 211 265 315 377
#     4  10  23  41  64  91 126 169 215 263 321 382
#     4  11  23  41  65  91 126 170 211 259 321 380
#     4  10  22  41  62  91 130 166 212 270 318 379
#
# _framework density 20.945647000000001
#
# number of rings (size 3 to 8) (size 9 to 14) (size 15 to 20)
#    0.000    1.500    1.250    3.000    1.750    7.000 
#    0.000    2.500    0.000    0.000    0.000    0.000 
#    0.000    0.000    0.000    0.000    0.000    0.000 
#
# Total GULP energy -178879.711370 kJ/mol
# GULP energy per Si atom -5589.990980 kJ/mol
# Density = 2.089797 g / cm^3
# Si number density = 20.945647 Si / 1000 Ang^3
#
#
#
# Elastic Constant Matrix: (Units=GPa)
#
#
# Indices 1 2 3 4 5 6 
#
# 1 73.0770 10.2511 -7.6315 0.0000 0.0000 0.0000
# 2 10.2511 47.0924 -5.5865 0.0000 0.0000 0.0000
# 3 -7.6315 -5.5865 30.1058 0.0000 0.0000 0.0000
# 4 0.0000 0.0000 0.0000 10.1909 0.0000 0.0000
# 5 0.0000 0.0000 0.0000 0.0000 27.4839 0.0000
# 6 0.0000 0.0000 0.0000 0.0000 0.0000 22.0332
#
#
#
# Elastic Compliance Matrix: (Units=1/GPa)
#
#
# Indices 1 2 3 4 5 6 
#
# 1 0.014399 -0.002762 0.003137 0.000000 0.000000 0.000000
# 2 -0.002762 0.022243 0.003427 0.000000 0.000000 0.000000
# 3 0.003137 0.003427 0.034647 0.000000 0.000000 0.000000
# 4 0.000000 0.000000 0.000000 0.098127 0.000000 0.000000
# 5 0.000000 0.000000 0.000000 0.000000 0.036385 0.000000
# 6 0.000000 0.000000 0.000000 0.000000 0.000000 0.045386
#
#
# Mechanical properties :
#
#
# Convention : Reuss Voigt Hill
#
# Bulk Modulus (GPa) = 12.67516 16.03794 14.35655
# Shear Modulus (GPa) = 18.52672 22.15774 20.34223
#
# Velocity S-wave (km/s) = 2.97730 3.25602 3.11978
# Velocity P-wave (km/s) = 4.22891 4.67002 4.45493
#
# Compressibility (1/GPa) = 0.07889444
#
# Stress axis : x y z
#
# Youngs Moduli (GPa) = 69.44767 44.95854 28.86212
#
# Poissons Ratio (x) = 0.12419 -0.09055
# Poissons Ratio (y) = 0.19183 -0.09892
# Poissons Ratio (z) = -0.21789 -0.15408
#
# Static dielectric constant tensor:
#      x y z
#    x 1.742360 0.000000 0.000000 
#    y 0.000000 1.730870 0.000000 
#    z 0.000000 0.000000 1.736590 
# 
# From -- ./inp_files/4722.got.cif
#   From: 2010.05.17/outbox.cif.g08.bks.cpg/sg26_3_cif.got.tgz:4722.got - 2010.06.04 01:07:29.
