data_PCOD9338733
_publ_section_title
;
Structure prediction by ZEFSAII (Michael W. Deem and Ramdas Pophale) SiO2 
 PCOD9338733
Probable space group: P C C 2
;
_chemical_formula_sum "Si O2"
_cell_formula_units_Z 32
_cell_length_a 22.901614
_cell_length_b 13.632530
_cell_length_c 5.425383
_cell_angle_alpha 90.000000
_cell_angle_beta 90.000000
_cell_angle_gamma 90.000000
_cell_volume 1693.842224
_symmetry_space_group_name_H-M "P C C 2"
_symmetry_group_IT_number 27
_symmetry_cell_setting 'orthorhombic'
loop_
_space_group_symop_operation_xyz
x,y,z
-x,-y,z
-x,y,1/2+z
x,-y,1/2+z
loop_
_atom_site_type_symbol
_atom_site_label
_atom_site_fract_x
_atom_site_fract_y
_atom_site_fract_z
Si Si1 0.475637 0.109913 0.525710
Si Si2 0.231981 0.970716 0.456870
Si Si3 0.297906 0.221231 0.955992
Si Si4 0.254151 0.558024 0.506832
Si Si5 0.038145 0.750802 0.536624
Si Si6 0.886548 0.442712 0.510634
Si Si7 0.067638 0.035007 0.167349
Si Si8 0.660089 0.871588 0.454187
O O1 0.505576 0.157679 0.285219
O O2 0.406628 0.098115 0.488945
O O3 0.500000 0.000000 0.545478
O O4 0.244175 0.855582 0.462911
O O5 0.201982 0.998728 0.205835
O O6 0.292921 0.037685 0.454364
O O7 0.325382 0.196496 0.689742
O O8 0.280728 0.333542 0.984880
O O9 0.334170 0.184489 0.194146
O O10 0.270549 0.494864 0.264079
O O11 0.183695 0.566926 0.509146
O O12 0.083190 0.661765 0.535853
O O13 0.069100 0.855866 0.558492
O O14 0.001931 0.745361 0.281990
O O15 0.903259 0.493115 0.250893
O O16 0.090579 0.967497 0.945840
O O17 0.000000 0.000000 0.201383
#
# Coordination Sequence:
#
# PCOD9338733 Si02
#       8
#     4   4   4   4   4   4   4   4
#     4  10  21  27  43  67 113 161 183 197 241 306
#     4   8  16  25  44  66 100 135 162 196 256 301
#     4  10  19  31  55  75  97 136 180 222 268 313
#     4  10  21  40  61  78 103 133 176 231 294 333
#     4  12  21  32  56  83 108 147 184 218 257 322
#     4  10  23  40  55  78 111 143 168 219 286 341
#     4  10  16  30  48  73 102 134 179 212 257 272
#     4  10  19  31  47  78 112 146 173 211 260 307
#
# _framework density 18.891959
#
# number of rings (size 3 to 8) (size 9 to 14) (size 15 to 20)
#    0.000    2.000    2.500    2.250   10.500    1.500 
#    0.000    0.000    0.000    4.500    0.000    0.000 
#    0.000   35.000    0.000    0.000    0.000    0.000 
#
# Total GULP energy -178470.286497 kJ/mol
# GULP energy per Si atom -5577.196453 kJ/mol
# Density = 1.884896 g / cm^3
# Si number density = 18.891959 Si / 1000 Ang^3
#
#
#
# Elastic Constant Matrix: (Units=GPa)
#
#
# Indices 1 2 3 4 5 6 
#
# 1 27.0227 9.1542 14.1781 0.0000 0.0000 0.0000
# 2 9.1542 114.4499 20.8784 0.0000 0.0000 0.0000
# 3 14.1781 20.8784 143.1373 0.0000 0.0000 0.0000
# 4 0.0000 0.0000 0.0000 28.6678 0.0000 0.0000
# 5 0.0000 0.0000 0.0000 0.0000 14.7090 0.0000
# 6 0.0000 0.0000 0.0000 0.0000 0.0000 22.2337
#
#
#
# Elastic Compliance Matrix: (Units=1/GPa)
#
#
# Indices 1 2 3 4 5 6 
#
# 1 0.039734 -0.002527 -0.003567 0.000000 0.000000 0.000000
# 2 -0.002527 0.009137 -0.001082 0.000000 0.000000 0.000000
# 3 -0.003567 -0.001082 0.007498 0.000000 0.000000 0.000000
# 4 0.000000 0.000000 0.000000 0.034882 0.000000 0.000000
# 5 0.000000 0.000000 0.000000 0.000000 0.067986 0.000000
# 6 0.000000 0.000000 0.000000 0.000000 0.000000 0.044977
#
#
# Mechanical properties :
#
#
# Convention : Reuss Voigt Hill
#
# Bulk Modulus (GPa) = 23.80126 41.44792 32.62459
# Shear Modulus (GPa) = 21.49875 29.14869 25.32372
#
# Velocity S-wave (km/s) = 3.37706 3.93226 3.66519
# Velocity P-wave (km/s) = 5.27561 6.52717 5.93447
#
# Compressibility (1/GPa) = 0.04201459
#
# Stress axis : x y z
#
# Youngs Moduli (GPa) = 25.16754 109.44440 133.37759
#
# Poissons Ratio (x) = 0.27660 0.47577
# Poissons Ratio (y) = 0.06361 0.14437
# Poissons Ratio (z) = 0.08977 0.11846
#
# Static dielectric constant tensor:
#      x y z
#    x 1.686290 0.000000 0.000000 
#    y 0.000000 1.547330 0.000000 
#    z 0.000000 0.000000 1.772860 
# 
# From -- ./inp_files/670.got.cif
#   From: 2010.05.17/outbox.cif.g08.bks.cpg/sg27_1_cif.got.tgz:670.got - 2010.06.04 01:11:05.
