data_PCOD9338136
_publ_section_title
;
Structure prediction by ZEFSAII (Michael W. Deem and Ramdas Pophale) SiO2 
 PCOD9338136
Probable space group: P M C 21
;
_chemical_formula_sum "Si O2"
_cell_formula_units_Z 32
_cell_length_a 7.644669
_cell_length_b 13.462692
_cell_length_c 13.399845
_cell_angle_alpha 90.000000
_cell_angle_beta 90.000000
_cell_angle_gamma 90.000000
_cell_volume 1379.082892
_symmetry_space_group_name_H-M "P M C 21"
_symmetry_group_IT_number 26
_symmetry_cell_setting 'orthorhombic'
loop_
_space_group_symop_operation_xyz
x,y,z
-x,-y,1/2+z
-x,y,z
x,-y,1/2+z
loop_
_atom_site_type_symbol
_atom_site_label
_atom_site_fract_x
_atom_site_fract_y
_atom_site_fract_z
Si Si1 0.299653 0.604953 0.450720
Si Si2 0.714986 0.732599 0.148597
Si Si3 0.298282 0.493585 0.658154
Si Si4 0.714374 0.820547 0.516489
Si Si5 0.712558 0.103799 0.807253
Si Si6 0.696424 0.772408 0.930069
Si Si7 0.285551 0.887962 0.735709
Si Si8 0.810861 0.580182 0.844535
O O1 0.500000 0.621835 0.417919
O O2 0.297455 0.534643 0.547014
O O3 0.227376 0.710800 0.482626
O O4 0.211202 0.535652 0.369795
O O5 0.500000 0.730111 0.145348
O O6 0.772462 0.618326 0.158893
O O7 0.768009 0.801776 0.240856
O O8 0.773827 0.775753 0.041169
O O9 0.500000 0.490433 0.693232
O O10 0.209247 0.576784 0.726348
O O11 0.500000 0.818798 0.520637
O O12 0.765854 0.889801 0.423198
O O13 0.773586 0.850271 0.627084
O O14 0.500000 0.105697 0.807201
O O15 0.765224 0.001657 0.755145
O O16 0.500000 0.814524 0.939953
O O17 0.775113 0.825429 0.832543
O O18 0.685564 0.656317 0.899283
O O19 0.500000 0.881670 0.734261
O O20 0.000000 0.614374 0.877383
#
# Coordination Sequence:
#
# PCOD9338136 Si02
#       8
#     4   4   4   4   4   4   4   4
#     4  10  19  35  57  78 106 147 190 227 266 325
#     4   9  17  30  51  78 107 141 182 225 273 322
#     4  10  19  34  56  79 107 148 190 226 265 325
#     4   9  17  29  46  73 107 142 179 220 269 324
#     4   9  17  27  44  75 113 142 169 220 284 331
#     4  10  19  35  55  78 107 144 188 226 268 333
#     4   9  18  29  48  76 108 143 175 221 278 329
#     4  12  24  35  52  81 115 147 179 227 279 329
#
# _framework density 23.203827
#
# number of rings (size 3 to 8) (size 9 to 14) (size 15 to 20)
#    0.000    2.250    1.250    2.625    1.750    4.500 
#    0.000    0.000    0.000    0.000    0.000    4.375 
#    0.000    0.000    0.000    0.000    0.000    0.000 
#
# Total GULP energy -178640.980310 kJ/mol
# GULP energy per Si atom -5582.530635 kJ/mol
# Density = 2.315101 g / cm^3
# Si number density = 23.203827 Si / 1000 Ang^3
#
#
#
# Elastic Constant Matrix: (Units=GPa)
#
#
# Indices 1 2 3 4 5 6 
#
# 1 46.9857 -5.3031 -2.0677 0.0000 0.0000 0.0000
# 2 -5.3031 77.3505 20.8556 0.0000 0.0000 0.0000
# 3 -2.0677 20.8556 128.2649 0.0000 0.0000 0.0000
# 4 0.0000 0.0000 0.0000 35.0030 0.0000 0.0000
# 5 0.0000 0.0000 0.0000 0.0000 -51.5424 0.0000
# 6 0.0000 0.0000 0.0000 0.0000 0.0000 -23.3394
#
#
#
# Elastic Compliance Matrix: (Units=1/GPa)
#
#
# Indices 1 2 3 4 5 6 
#
# 1 0.021451 0.001441 0.000112 0.000000 0.000000 0.000000
# 2 0.001441 0.013618 -0.002191 0.000000 0.000000 0.000000
# 3 0.000112 -0.002191 0.008154 0.000000 0.000000 0.000000
# 4 0.000000 0.000000 0.000000 0.028569 0.000000 0.000000
# 5 0.000000 0.000000 0.000000 0.000000 -0.019402 0.000000
# 6 0.000000 0.000000 0.000000 0.000000 0.000000 -0.042846
#
#
# Mechanical properties :
#
#
# Convention : Reuss Voigt Hill
#
# Bulk Modulus (GPa) = 23.84078 31.06340 27.45209
# Shear Modulus (GPa) = 201.58508 7.96533 104.77521
#
# Velocity S-wave (km/s) = 9.33083 1.85478 6.72698
# Velocity P-wave (km/s) = 11.24200 4.24302 8.49664
#
# Compressibility (1/GPa) = 0.04194494
#
# Stress axis : x y z
#
# Youngs Moduli (GPa) = 46.61883 73.43406 122.63298
#
# Poissons Ratio (x) = -0.10579 -0.01368
# Poissons Ratio (y) = -0.06716 0.26869
# Poissons Ratio (z) = -0.00520 0.16089
#
# Static dielectric constant tensor:
#      x y z
#    x 1.960220 0.000000 0.000000 
#    y 0.000000 1.843840 0.000000 
#    z 0.000000 0.000000 1.871540 
# 
# From -- ./inp_files/3097.got.cif
#   From: 2010.05.17/outbox.cif.g08.bks.cpg/sg26_2_cif.got.tgz:3097.got - 2010.06.04 01:07:29.
