data_PCOD9338184
_publ_section_title
;
Structure prediction by ZEFSAII (Michael W. Deem and Ramdas Pophale) SiO2 
 PCOD9338184
Probable space group: P M C 21
;
_chemical_formula_sum "Si O2"
_cell_formula_units_Z 24
_cell_length_a 7.850856
_cell_length_b 10.313024
_cell_length_c 14.477741
_cell_angle_alpha 90.000000
_cell_angle_beta 90.000000
_cell_angle_gamma 90.000000
_cell_volume 1172.205738
_symmetry_space_group_name_H-M "P M C 21"
_symmetry_group_IT_number 26
_symmetry_cell_setting 'orthorhombic'
loop_
_space_group_symop_operation_xyz
x,y,z
-x,-y,1/2+z
-x,y,z
x,-y,1/2+z
loop_
_atom_site_type_symbol
_atom_site_label
_atom_site_fract_x
_atom_site_fract_y
_atom_site_fract_z
Si Si1 0.699147 0.589916 0.732800
Si Si2 0.293772 0.223289 0.934441
Si Si3 0.301489 0.893203 0.242475
Si Si4 0.196345 0.344258 0.623285
Si Si5 0.291432 0.144235 0.135640
Si Si6 0.203881 0.527787 0.934894
O O1 0.500000 0.572735 0.709706
O O2 0.795022 0.466553 0.691806
O O3 0.758466 0.722745 0.686239
O O4 0.720634 0.588485 0.842351
O O5 0.500000 0.220073 0.931938
O O6 0.228389 0.156112 0.840419
O O7 0.246186 0.374999 0.938690
O O8 0.237058 0.153488 0.028796
O O9 0.500000 0.922096 0.260609
O O10 0.290288 0.774654 0.170880
O O11 0.228379 0.020598 0.193151
O O12 0.265430 0.397243 0.526100
O O13 0.000000 0.305133 0.610983
O O14 0.500000 0.139840 0.134791
O O15 0.000000 0.538969 0.931847
#
# Coordination Sequence:
#
# PCOD9338184 Si02
#       6
#     4   4   4   4   4   4
#     4  11  21  36  61  89 115 150 197 245 291 344
#     4  10  19  35  59  84 115 155 198 239 292 352
#     4  10  21  37  60  88 117 155 196 242 295 347
#     4  11  23  38  57  85 119 155 195 241 290 348
#     4   9  20  37  58  88 121 151 195 246 292 346
#     4  11  23  37  57  86 121 156 197 243 292 347
#
# _framework density 20.474221
#
# number of rings (size 3 to 8) (size 9 to 14) (size 15 to 20)
#    0.000    1.667    3.333    1.500    0.000    3.333 
#    0.000    5.833    0.000    0.000    0.000    0.000 
#    0.000    0.000    0.000    0.000    0.000    0.000 
#
# Total GULP energy -134067.209812 kJ/mol
# GULP energy per Si atom -5586.133742 kJ/mol
# Density = 2.042762 g / cm^3
# Si number density = 20.474221 Si / 1000 Ang^3
#
#
#
# Elastic Constant Matrix: (Units=GPa)
#
#
# Indices 1 2 3 4 5 6 
#
# 1 28.2041 0.3274 -2.8007 0.0000 0.0000 0.0000
# 2 0.3274 91.7812 24.3497 0.0000 0.0000 0.0000
# 3 -2.8007 24.3497 115.7310 0.0000 0.0000 0.0000
# 4 0.0000 0.0000 0.0000 29.4657 0.0000 0.0000
# 5 0.0000 0.0000 0.0000 0.0000 5.2770 0.0000
# 6 0.0000 0.0000 0.0000 0.0000 0.0000 -125.5500
#
#
#
# Elastic Compliance Matrix: (Units=1/GPa)
#
#
# Indices 1 2 3 4 5 6 
#
# 1 0.035553 -0.000376 0.000940 0.000000 0.000000 0.000000
# 2 -0.000376 0.011544 -0.002438 0.000000 0.000000 0.000000
# 3 0.000940 -0.002438 0.009176 0.000000 0.000000 0.000000
# 4 0.000000 0.000000 0.000000 0.033938 0.000000 0.000000
# 5 0.000000 0.000000 0.000000 0.000000 0.189503 0.000000
# 6 0.000000 0.000000 0.000000 0.000000 0.000000 -0.007965
#
#
# Mechanical properties :
#
#
# Convention : Reuss Voigt Hill
#
# Bulk Modulus (GPa) = 19.03872 31.05215 25.04543
# Shear Modulus (GPa) = 17.06448 -3.90549 6.57950
#
# Velocity S-wave (km/s) = 2.89011 -1.38263 1.79458
# Velocity P-wave (km/s) = 4.52283 3.55676 4.06857
#
# Compressibility (1/GPa) = 0.05252455
#
# Stress axis : x y z
#
# Youngs Moduli (GPa) = 28.12665 86.62815 108.97533
#
# Poissons Ratio (x) = 0.03258 -0.10238
# Poissons Ratio (y) = 0.01058 0.26567
# Poissons Ratio (z) = -0.02643 0.21119
#
# Static dielectric constant tensor:
#      x y z
#    x 1.777890 0.000000 0.000000 
#    y 0.000000 1.681950 0.000000 
#    z 0.000000 0.000000 1.739530 
# 
# From -- ./inp_files/2814.got.cif
#   From: 2010.05.17/outbox.cif.g08.bks.cpg/sg26_2_cif.got.tgz:2814.got - 2010.06.04 01:07:29.
