data_PCOD9338852
_publ_section_title
;
Structure prediction by ZEFSAII (Michael W. Deem and Ramdas Pophale) SiO2 
 PCOD9338852
Probable space group: P C C 2
;
_chemical_formula_sum "Si O2"
_cell_formula_units_Z 32
_cell_length_a 11.931676
_cell_length_b 11.743770
_cell_length_c 10.925689
_cell_angle_alpha 90.000000
_cell_angle_beta 90.000000
_cell_angle_gamma 90.000000
_cell_volume 1530.938775
_symmetry_space_group_name_H-M "P C C 2"
_symmetry_group_IT_number 27
_symmetry_cell_setting 'orthorhombic'
loop_
_space_group_symop_operation_xyz
x,y,z
-x,-y,z
-x,y,1/2+z
x,-y,1/2+z
loop_
_atom_site_type_symbol
_atom_site_label
_atom_site_fract_x
_atom_site_fract_y
_atom_site_fract_z
Si Si1 0.610145 0.844614 0.959510
Si Si2 0.854641 0.807675 0.044259
Si Si3 0.129109 0.457700 0.415042
Si Si4 0.090473 0.200316 0.482430
Si Si5 0.116333 0.960585 0.197831
Si Si6 0.120804 0.432799 0.150373
Si Si7 0.716764 0.947088 0.362308
Si Si8 0.477169 0.864342 0.717643
O O1 0.556589 0.816689 0.826595
O O2 0.636979 0.982092 0.952886
O O3 0.731722 0.791215 0.988620
O O4 0.531535 0.820429 0.078240
O O5 0.858463 0.931683 0.107682
O O6 0.885721 0.703867 0.136262
O O7 0.958780 0.808213 0.949353
O O8 0.125500 0.328544 0.460075
O O9 0.176893 0.464000 0.278721
O O10 0.180531 0.528867 0.525561
O O11 0.000000 0.500000 0.402182
O O12 0.179771 0.121055 0.416131
O O13 0.097406 0.152838 0.620730
O O14 0.223672 0.955308 0.282276
O O15 0.000000 0.000000 0.258425
O O16 0.000000 0.500000 0.148212
O O17 0.646458 0.862678 0.277634
O O18 0.500000 0.000000 0.710502
#
# Coordination Sequence:
#
# PCOD9338852 Si02
#       8
#     4   4   4   4   4   4   4   4
#     4  11  23  38  62  86 123 169 216 267 314 381
#     4  11  20  39  57  92 135 173 204 262 321 394
#     4  10  20  38  60  83 124 175 216 253 302 372
#     4  11  21  36  57  91 138 175 207 254 318 403
#     4  10  22  32  51  89 134 174 205 247 325 394
#     4  10  20  39  60  85 124 171 217 254 307 372
#     4  11  20  36  58  87 130 172 214 251 317 386
#     4  10  21  39  61  80 117 167 218 261 309 376
#
# _framework density 20.902208999999999
#
# number of rings (size 3 to 8) (size 9 to 14) (size 15 to 20)
#    0.000    1.500    5.000    1.875    1.750    1.000 
#    2.250    0.000    0.000    0.000    0.000    0.875 
#    0.000    0.000    0.000    0.000    0.000    0.000 
#
# Total GULP energy -178328.095899 kJ/mol
# GULP energy per Si atom -5572.752997 kJ/mol
# Density = 2.085463 g / cm^3
# Si number density = 20.902209 Si / 1000 Ang^3
#
#
#
# Elastic Constant Matrix: (Units=GPa)
#
#
# Indices 1 2 3 4 5 6 
#
# 1 83.6193 1.4047 29.8864 0.0000 0.0000 0.0000
# 2 1.4047 70.8989 32.6679 0.0000 0.0000 0.0000
# 3 29.8864 32.6679 125.6373 0.0000 0.0000 0.0000
# 4 0.0000 0.0000 0.0000 13.1574 0.0000 0.0000
# 5 0.0000 0.0000 0.0000 0.0000 18.5279 0.0000
# 6 0.0000 0.0000 0.0000 0.0000 0.0000 7.5113
#
#
#
# Elastic Compliance Matrix: (Units=1/GPa)
#
#
# Indices 1 2 3 4 5 6 
#
# 1 0.013182 0.001345 -0.003485 0.000000 0.000000 0.000000
# 2 0.001345 0.016162 -0.004522 0.000000 0.000000 0.000000
# 3 -0.003485 -0.004522 0.009964 0.000000 0.000000 0.000000
# 4 0.000000 0.000000 0.000000 0.076003 0.000000 0.000000
# 5 0.000000 0.000000 0.000000 0.000000 0.053973 0.000000
# 6 0.000000 0.000000 0.000000 0.000000 0.000000 0.133132
#
#
# Mechanical properties :
#
#
# Convention : Reuss Voigt Hill
#
# Bulk Modulus (GPa) = 38.48749 45.34148 41.91449
# Shear Modulus (GPa) = 15.41297 22.25242 18.83269
#
# Velocity S-wave (km/s) = 2.71843 3.26636 3.00491
# Velocity P-wave (km/s) = 5.32036 5.99706 5.66882
#
# Compressibility (1/GPa) = 0.02598247
#
# Stress axis : x y z
#
# Youngs Moduli (GPa) = 75.86049 61.87493 100.35754
#
# Poissons Ratio (x) = -0.08321 0.34979
# Poissons Ratio (y) = -0.10202 0.45384
# Poissons Ratio (z) = 0.26440 0.27981
#
# Static dielectric constant tensor:
#      x y z
#    x 1.802050 0.000000 0.000000 
#    y 0.000000 1.736190 0.000000 
#    z 0.000000 0.000000 1.893950 
# 
# From -- ./inp_files/2639.got.cif
#   From: 2010.05.17/outbox.cif.g08.bks.cpg/sg27_2_cif.got.tgz:2639.got - 2010.06.04 01:11:05.
