data_PCOD9338589
_publ_section_title
;
Structure prediction by ZEFSAII (Michael W. Deem and Ramdas Pophale) SiO2 
 PCOD9338589
Probable space group: P M C 21
;
_chemical_formula_sum "Si O2"
_cell_formula_units_Z 20
_cell_length_a 10.557093
_cell_length_b 7.469449
_cell_length_c 11.910020
_cell_angle_alpha 90.000000
_cell_angle_beta 90.000000
_cell_angle_gamma 90.000000
_cell_volume 939.172580
_symmetry_space_group_name_H-M "P M C 21"
_symmetry_group_IT_number 26
_symmetry_cell_setting 'orthorhombic'
loop_
_space_group_symop_operation_xyz
x,y,z
-x,-y,1/2+z
-x,y,z
x,-y,1/2+z
loop_
_atom_site_type_symbol
_atom_site_label
_atom_site_fract_x
_atom_site_fract_y
_atom_site_fract_z
Si Si1 0.257308 0.730595 0.223670
Si Si2 0.141400 0.387275 0.494162
Si Si3 0.355760 0.643914 0.816758
Si Si4 0.639250 0.070730 0.116279
Si Si5 0.142014 0.186314 0.955367
O O1 0.327824 0.555955 0.271543
O O2 0.176676 0.816307 0.324376
O O3 0.350664 0.879652 0.175752
O O4 0.169314 0.670744 0.120658
O O5 0.250928 0.318189 0.411300
O O6 0.146515 0.603428 0.488629
O O7 0.000000 0.333304 0.457913
O O8 0.500000 0.655369 0.860442
O O9 0.344131 0.779329 0.712607
O O10 0.500000 0.096170 0.064370
O O11 0.751075 0.089253 0.027122
O O12 0.000000 0.119530 0.976679
#
# Coordination Sequence:
#
# PCOD9338589 Si02
#       5
#     4   4   4   4   4
#     4  11  23  43  67  98 129 175 214 270 323 385
#     4  10  22  42  69  96 129 171 217 267 324 388
#     4  10  23  43  65  94 131 171 216 269 326 382
#     4  11  25  43  65  96 131 170 220 269 320 386
#     4  10  23  43  68  98 132 171 217 269 323 385
#
# _framework density 21.295338999999998
#
# number of rings (size 3 to 8) (size 9 to 14) (size 15 to 20)
#    0.000    1.600    2.000    1.200    2.800    8.800 
#    0.000    0.000    0.000    0.000    0.000    0.000 
#    0.000    0.000    0.000    0.000    0.000    0.000 
#
# Total GULP energy -111878.435651 kJ/mol
# GULP energy per Si atom -5593.921783 kJ/mol
# Density = 2.124687 g / cm^3
# Si number density = 21.295339 Si / 1000 Ang^3
#
#
#
# Elastic Constant Matrix: (Units=GPa)
#
#
# Indices 1 2 3 4 5 6 
#
# 1 207.4658 28.0581 96.0524 0.0000 0.0000 0.0000
# 2 28.0581 61.1656 20.9429 0.0000 0.0000 0.0000
# 3 96.0524 20.9429 121.4593 0.0000 0.0000 0.0000
# 4 0.0000 0.0000 0.0000 18.1414 0.0000 0.0000
# 5 0.0000 0.0000 0.0000 0.0000 -20.4257 0.0000
# 6 0.0000 0.0000 0.0000 0.0000 0.0000 4.9256
#
#
#
# Elastic Compliance Matrix: (Units=1/GPa)
#
#
# Indices 1 2 3 4 5 6 
#
# 1 0.007739 -0.001546 -0.005854 0.000000 0.000000 0.000000
# 2 -0.001546 0.017684 -0.001827 0.000000 0.000000 0.000000
# 3 -0.005854 -0.001827 0.013178 0.000000 0.000000 0.000000
# 4 0.000000 0.000000 0.000000 0.055123 0.000000 0.000000
# 5 0.000000 0.000000 0.000000 0.000000 -0.048958 0.000000
# 6 0.000000 0.000000 0.000000 0.000000 0.000000 0.203022
#
#
# Mechanical properties :
#
#
# Convention : Reuss Voigt Hill
#
# Bulk Modulus (GPa) = 49.63336 75.57750 62.60543
# Shear Modulus (GPa) = 18.31797 16.86409 17.59103
#
# Velocity S-wave (km/s) = 2.93608 2.81715 2.87723
# Velocity P-wave (km/s) = 5.90354 6.79330 6.36399
#
# Compressibility (1/GPa) = 0.02014774
#
# Stress axis : x y z
#
# Youngs Moduli (GPa) = 129.20953 56.54950 75.88671
#
# Poissons Ratio (x) = 0.08742 0.44423
# Poissons Ratio (y) = 0.19974 0.13862
# Poissons Ratio (z) = 0.75638 0.10329
#
# Static dielectric constant tensor:
#      x y z
#    x 1.777280 0.000000 0.000000 
#    y 0.000000 1.766070 0.000000 
#    z 0.000000 0.000000 1.723650 
# 
# From -- ./inp_files/2712.got.cif
#   From: 2010.05.17/outbox.cif.g08.bks.cpg/sg26_2_cif.got.tgz:2712.got - 2010.06.04 01:07:29.
