data_PCOD9338282
_publ_section_title
;
Structure prediction by ZEFSAII (Michael W. Deem and Ramdas Pophale) SiO2 
 PCOD9338282
Probable space group: P M C 21
;
_chemical_formula_sum "Si O2"
_cell_formula_units_Z 32
_cell_length_a 8.913868
_cell_length_b 11.647730
_cell_length_c 16.770583
_cell_angle_alpha 90.000000
_cell_angle_beta 90.000000
_cell_angle_gamma 90.000000
_cell_volume 1741.228047
_symmetry_space_group_name_H-M "P M C 21"
_symmetry_group_IT_number 26
_symmetry_cell_setting 'orthorhombic'
loop_
_space_group_symop_operation_xyz
x,y,z
-x,-y,1/2+z
-x,y,z
x,-y,1/2+z
loop_
_atom_site_type_symbol
_atom_site_label
_atom_site_fract_x
_atom_site_fract_y
_atom_site_fract_z
Si Si1 0.673404 0.646441 0.121690
Si Si2 0.317654 0.307412 0.900873
Si Si3 0.819053 0.069275 0.211226
Si Si4 0.820978 0.807715 0.243646
Si Si5 0.319778 0.565817 0.948238
Si Si6 0.174008 0.273293 0.322644
Si Si7 0.333501 0.597772 0.694263
Si Si8 0.674039 0.793858 0.567676
O O1 0.500000 0.685605 0.112589
O O2 0.771793 0.741859 0.163759
O O3 0.671268 0.535962 0.178837
O O4 0.729377 0.597578 0.037500
O O5 0.500000 0.306929 0.897935
O O6 0.254284 0.253566 0.819852
O O7 0.269499 0.440229 0.916560
O O8 0.271070 0.231067 0.978121
O O9 0.771243 0.154708 0.282898
O O10 0.757010 0.119151 0.127589
O O11 0.000000 0.074769 0.207157
O O12 0.774028 0.940234 0.232288
O O13 0.000000 0.803874 0.253425
O O14 0.500000 0.625770 0.729004
O O15 0.265350 0.670032 0.893544
O O16 0.201004 0.362119 0.250484
O O17 0.000000 0.262720 0.343839
O O18 0.500000 0.439800 0.449282
O O19 0.323236 0.670535 0.612958
O O20 0.500000 0.829474 0.563038
#
# Coordination Sequence:
#
# PCOD9338282 Si02
#       8
#     4   4   4   4   4   4   4   4
#     4  10  20  36  57  80 112 147 179 224 280 334
#     4  10  20  37  60  87 116 144 181 230 283 338
#     4   9  21  41  57  74 109 152 190 227 275 328
#     4  11  24  40  56  79 113 155 194 229 276 332
#     4  10  20  36  57  84 116 145 176 220 283 343
#     4  10  20  34  54  80 108 142 183 226 268 320
#     4   9  16  31  55  81 108 140 174 216 277 333
#     4   9  17  33  60  87 108 137 183 232 272 324
#
# _framework density 18.377835000000001
#
# number of rings (size 3 to 8) (size 9 to 14) (size 15 to 20)
#    0.000    2.250    1.250    1.500    0.000    6.500 
#    2.250    0.000    0.000    0.000    0.000    0.000 
#    0.000    0.000    0.000    0.000    0.000    0.000 
#
# Total GULP energy -178385.209284 kJ/mol
# GULP energy per Si atom -5574.537790 kJ/mol
# Density = 1.833601 g / cm^3
# Si number density = 18.377835 Si / 1000 Ang^3
#
#
#
# Elastic Constant Matrix: (Units=GPa)
#
#
# Indices 1 2 3 4 5 6 
#
# 1 17.3401 33.7472 23.3555 0.0000 0.0000 0.0000
# 2 33.7472 132.8862 69.6376 0.0000 0.0000 0.0000
# 3 23.3555 69.6376 83.2184 0.0000 0.0000 0.0000
# 4 0.0000 0.0000 0.0000 20.9127 0.0000 0.0000
# 5 0.0000 0.0000 0.0000 0.0000 -0.5993 0.0000
# 6 0.0000 0.0000 0.0000 0.0000 0.0000 24.1610
#
#
#
# Elastic Compliance Matrix: (Units=1/GPa)
#
#
# Indices 1 2 3 4 5 6 
#
# 1 0.123738 -0.023554 -0.015017 0.000000 0.000000 0.000000
# 2 -0.023554 0.017886 -0.008357 0.000000 0.000000 0.000000
# 3 -0.015017 -0.008357 0.023224 0.000000 0.000000 0.000000
# 4 0.000000 0.000000 0.000000 0.047818 0.000000 0.000000
# 5 0.000000 0.000000 0.000000 0.000000 -1.668618 0.000000
# 6 0.000000 0.000000 0.000000 0.000000 0.000000 0.041389
#
#
# Mechanical properties :
#
#
# Convention : Reuss Voigt Hill
#
# Bulk Modulus (GPa) = 14.08611 54.10282 34.09446
# Shear Modulus (GPa) = -3.85492 16.00851 6.07679
#
# Velocity S-wave (km/s) = -1.44988 2.95460 1.82038
# Velocity P-wave (km/s) = 2.20873 6.41425 4.79693
#
# Compressibility (1/GPa) = 0.07099192
#
# Stress axis : x y z
#
# Youngs Moduli (GPa) = 8.08162 55.90899 43.05881
#
# Poissons Ratio (x) = 1.31690 0.64661
# Poissons Ratio (y) = 0.19036 0.35983
# Poissons Ratio (z) = 0.12136 0.46721
#
# Static dielectric constant tensor:
#      x y z
#    x 1.661680 0.000000 0.000000 
#    y 0.000000 1.627990 0.000000 
#    z 0.000000 0.000000 1.666710 
# 
# From -- ./inp_files/4249.got.cif
#   From: 2010.05.17/outbox.cif.g08.bks.cpg/sg26_3_cif.got.tgz:4249.got - 2010.06.04 01:07:29.
