data_PCOD9338412
_publ_section_title
;
Structure prediction by ZEFSAII (Michael W. Deem and Ramdas Pophale) SiO2 
 PCOD9338412
Probable space group: P M C 21
;
_chemical_formula_sum "Si O2"
_cell_formula_units_Z 20
_cell_length_a 13.155944
_cell_length_b 8.013544
_cell_length_c 8.938742
_cell_angle_alpha 90.000000
_cell_angle_beta 90.000000
_cell_angle_gamma 90.000000
_cell_volume 942.373455
_symmetry_space_group_name_H-M "P M C 21"
_symmetry_group_IT_number 26
_symmetry_cell_setting 'orthorhombic'
loop_
_space_group_symop_operation_xyz
x,y,z
-x,-y,1/2+z
-x,y,z
x,-y,1/2+z
loop_
_atom_site_type_symbol
_atom_site_label
_atom_site_fract_x
_atom_site_fract_y
_atom_site_fract_z
Si Si1 0.808184 0.870676 0.746650
Si Si2 0.317964 0.383704 0.699223
Si Si3 0.888771 0.555703 0.612674
Si Si4 0.805398 0.822246 0.411408
Si Si5 0.387407 0.288749 0.379067
O O1 0.875734 0.703207 0.737136
O O2 0.779382 0.897367 0.573424
O O3 0.705301 0.830881 0.835215
O O4 0.858069 0.033987 0.815851
O O5 0.207085 0.437402 0.634546
O O6 0.291698 0.242652 0.820247
O O7 0.380160 0.329001 0.554993
O O8 0.365846 0.541769 0.784380
O O9 0.871109 0.660151 0.458560
O O10 0.000000 0.480480 0.617371
O O11 0.500000 0.226112 0.342215
#
# Coordination Sequence:
#
# PCOD9338412 Si02
#       5
#     4   4   4   4   4
#     4   9  21  39  58  86 121 158 194 255 293 357
#     4  11  20  39  61  88 123 159 198 261 292 355
#     4   9  21  37  59  89 119 160 203 241 305 360
#     4  10  20  39  62  82 125 158 197 248 306 343
#     4  11  21  38  61  89 120 161 205 247 307 361
#
# _framework density 21.223008
#
# number of rings (size 3 to 8) (size 9 to 14) (size 15 to 20)
#    1.200    0.800    2.000    1.800    0.000    1.600 
#    0.000    6.000    0.000    0.000    0.000    0.000 
#    0.000    0.000    0.000    0.000    0.000    0.000 
#
# Total GULP energy -111491.110675 kJ/mol
# GULP energy per Si atom -5574.555534 kJ/mol
# Density = 2.117470 g / cm^3
# Si number density = 21.223008 Si / 1000 Ang^3
#
#
#
# Elastic Constant Matrix: (Units=GPa)
#
#
# Indices 1 2 3 4 5 6 
#
# 1 91.8879 -9.3998 12.2356 0.0000 0.0000 0.0000
# 2 -9.3998 37.6577 14.2552 0.0000 0.0000 0.0000
# 3 12.2356 14.2552 100.8254 0.0000 0.0000 0.0000
# 4 0.0000 0.0000 0.0000 37.2226 0.0000 0.0000
# 5 0.0000 0.0000 0.0000 0.0000 14.1434 0.0000
# 6 0.0000 0.0000 0.0000 0.0000 0.0000 -0.3703
#
#
#
# Elastic Compliance Matrix: (Units=1/GPa)
#
#
# Indices 1 2 3 4 5 6 
#
# 1 0.011504 0.003592 -0.001904 0.000000 0.000000 0.000000
# 2 0.003592 0.029178 -0.004561 0.000000 0.000000 0.000000
# 3 -0.001904 -0.004561 0.010794 0.000000 0.000000 0.000000
# 4 0.000000 0.000000 0.000000 0.026865 0.000000 0.000000
# 5 0.000000 0.000000 0.000000 0.000000 0.070704 0.000000
# 6 0.000000 0.000000 0.000000 0.000000 0.000000 -2.700791
#
#
# Mechanical properties :
#
#
# Convention : Reuss Voigt Hill
#
# Bulk Modulus (GPa) = 21.86741 29.39478 25.63109
# Shear Modulus (GPa) = -1.97569 24.41782 11.22106
#
# Velocity S-wave (km/s) = -0.96589 3.39563 2.30189
# Velocity P-wave (km/s) = 3.01365 5.40872 4.37815
#
# Compressibility (1/GPa) = 0.04573014
#
# Stress axis : x y z
#
# Youngs Moduli (GPa) = 86.92767 34.27208 92.64336
#
# Poissons Ratio (x) = -0.12311 0.17639
# Poissons Ratio (y) = -0.31226 0.42257
# Poissons Ratio (z) = 0.16550 0.15632
#
# Static dielectric constant tensor:
#      x y z
#    x 1.722590 0.000000 0.000000 
#    y 0.000000 1.815670 0.000000 
#    z 0.000000 0.000000 1.799230 
# 
# From -- ./inp_files/2077.got.cif
#   From: 2010.05.17/outbox.cif.g08.bks.cpg/sg26_2_cif.got.tgz:2077.got - 2010.06.04 01:07:29.
