data_PCOD9338706
_publ_section_title
;
Structure prediction by ZEFSAII (Michael W. Deem and Ramdas Pophale) SiO2 
 PCOD9338706
Probable space group: P M C 21
;
_chemical_formula_sum "Si O2"
_cell_formula_units_Z 24
_cell_length_a 9.000000
_cell_length_b 9.000000
_cell_length_c 15.000000
_cell_angle_alpha 90.000000
_cell_angle_beta 90.000000
_cell_angle_gamma 90.000000
_cell_volume 1215.000000
_symmetry_space_group_name_H-M "P M C 21"
_symmetry_group_IT_number 26
_symmetry_cell_setting 'orthorhombic'
loop_
_space_group_symop_operation_xyz
x,y,z
-x,-y,1/2+z
-x,y,z
x,-y,1/2+z
loop_
_atom_site_type_symbol
_atom_site_label
_atom_site_fract_x
_atom_site_fract_y
_atom_site_fract_z
Si Si1 0.324083 0.159273 0.064410
Si Si2 0.820962 0.211868 0.878196
Si Si3 0.168907 0.646518 0.058573
Si Si4 0.170066 0.072112 0.681162
Si Si5 0.678845 0.542358 0.878270
Si Si6 0.177532 0.395113 0.192207
O O1 0.500000 0.183667 0.052757
O O2 0.240597 0.295535 0.111963
O O3 0.291566 0.038140 0.141113
O O4 0.249776 0.134086 0.966619
O O5 0.796034 0.134798 0.780765
O O6 0.748524 0.376236 0.877300
O O7 0.000000 0.222464 0.888877
O O8 0.165668 0.808844 0.100781
O O9 0.207948 0.554815 0.148047
O O10 0.000000 0.602474 0.032775
O O11 0.268413 0.618399 0.971350
O O12 0.000000 0.009064 0.686759
O O13 0.500000 0.536937 0.875066
O O14 0.742847 0.619783 0.788072
O O15 0.000000 0.376466 0.203971
#
# Coordination Sequence:
#
# PCOD9338706 Si02
#       6
#     4   4   4   4   4   4
#     4  12  26  42  63  97 134 168 207 263 329 382
#     4  11  22  42  68  92 123 169 220 260 313 386
#     4  10  21  40  66  93 122 164 219 262 306 375
#     4  10  23  44  68  93 123 168 217 263 312 377
#     4  12  24  37  62  99 135 166 207 267 329 374
#     4  11  22  41  67  92 123 169 218 261 305 374
#
# _framework density 19.753086
#
# number of rings (size 3 to 8) (size 9 to 14) (size 15 to 20)
#    0.000    1.000    3.333    4.000    0.000    4.000 
#    0.000    1.667    0.000    0.000    0.000    0.000 
#    0.000    0.000    0.000    0.000    0.000    0.000 
#
# Total GULP energy -133845.946522 kJ/mol
# GULP energy per Si atom -5576.914438 kJ/mol
# Density = 1.970813 g / cm^3
# Si number density = 19.753086 Si / 1000 Ang^3
#
#
#
# Elastic Constant Matrix: (Units=GPa)
#
#
# Indices 1 2 3 4 5 6 
#
# 1 113.6322 -2.4237 71.9171 0.0000 0.0000 0.0000
# 2 -2.4237 12.9759 2.4782 0.0000 0.0000 0.0000
# 3 71.9171 2.4782 156.1268 0.0000 0.0000 0.0000
# 4 0.0000 0.0000 0.0000 29.8118 0.0000 0.0000
# 5 0.0000 0.0000 0.0000 0.0000 34.2047 0.0000
# 6 0.0000 0.0000 0.0000 0.0000 0.0000 -2.3518
#
#
#
# Elastic Compliance Matrix: (Units=1/GPa)
#
#
# Indices 1 2 3 4 5 6 
#
# 1 0.012575 0.003466 -0.005848 0.000000 0.000000 0.000000
# 2 0.003466 0.078255 -0.002839 0.000000 0.000000 0.000000
# 3 -0.005848 -0.002839 0.009144 0.000000 0.000000 0.000000
# 4 0.000000 0.000000 0.000000 0.033544 0.000000 0.000000
# 5 0.000000 0.000000 0.000000 0.000000 0.029236 0.000000
# 6 0.000000 0.000000 0.000000 0.000000 0.000000 -0.425202
#
#
# Mechanical properties :
#
#
# Convention : Reuss Voigt Hill
#
# Bulk Modulus (GPa) = 11.16906 47.40869 29.28887
# Shear Modulus (GPa) = -22.50595 26.38382 1.93893
#
# Velocity S-wave (km/s) = -3.37911 3.65866 0.99182
# Velocity P-wave (km/s) = 3.09158 6.47306 4.02136
#
# Compressibility (1/GPa) = 0.08953308
#
# Stress axis : x y z
#
# Youngs Moduli (GPa) = 79.52226 12.77871 109.36534
#
# Poissons Ratio (x) = -0.04429 0.63952
# Poissons Ratio (y) = -0.27560 0.31044
# Poissons Ratio (z) = 0.46501 0.03627
#
# Static dielectric constant tensor:
#      x y z
#    x 1.679250 0.000000 0.000000 
#    y 0.000000 1.909500 0.000000 
#    z 0.000000 0.000000 1.655250 
# 
# From -- ./inp_files/3933.got.cif
#   From: 2010.05.17/outbox.ucp.g08.bks.cvg/sg26_2_cif.got.tgz:3933.got - 2010.06.11 15:23:25.
