data_PCOD9338918
_publ_section_title
;
Structure prediction by ZEFSAII (Michael W. Deem and Ramdas Pophale) SiO2 
 PCOD9338918
Probable space group: P C C 2
;
_chemical_formula_sum "Si O2"
_cell_formula_units_Z 32
_cell_length_a 7.820403
_cell_length_b 16.075343
_cell_length_c 10.798868
_cell_angle_alpha 90.000000
_cell_angle_beta 90.000000
_cell_angle_gamma 90.000000
_cell_volume 1357.586825
_symmetry_space_group_name_H-M "P C C 2"
_symmetry_group_IT_number 27
_symmetry_cell_setting 'orthorhombic'
loop_
_space_group_symop_operation_xyz
x,y,z
-x,-y,z
-x,y,1/2+z
x,-y,1/2+z
loop_
_atom_site_type_symbol
_atom_site_label
_atom_site_fract_x
_atom_site_fract_y
_atom_site_fract_z
Si Si1 0.334887 0.666481 0.292040
Si Si2 0.199166 0.675612 0.969271
Si Si3 0.696091 0.030358 0.246086
Si Si4 0.848198 0.259010 0.527429
Si Si5 0.804221 0.527862 0.633596
Si Si6 0.390163 0.187903 0.588049
Si Si7 0.745195 0.911930 0.022767
Si Si8 0.697118 0.359484 0.729454
O O1 0.245777 0.711560 0.404336
O O2 0.228080 0.585531 0.253278
O O3 0.369526 0.732861 0.181848
O O4 0.529262 0.638750 0.313800
O O5 0.265150 0.589921 0.028990
O O6 0.303437 0.763096 0.972475
O O7 0.153960 0.651814 0.829151
O O8 0.024992 0.693568 0.043521
O O9 0.700901 0.116924 0.170522
O O10 0.752082 0.041197 0.389902
O O11 0.500000 0.000000 0.256800
O O12 0.774054 0.965658 0.146555
O O13 0.881325 0.161836 0.519959
O O14 0.722222 0.282669 0.638372
O O15 0.703994 0.442252 0.649679
O O16 0.000000 0.500000 0.614922
O O17 0.560624 0.137843 0.539317
#
# Coordination Sequence:
#
# PCOD9338918 Si02
#       8
#     4   4   4   4   4   4   4   4
#     4  11  24  43  71 101 140 180 245 298 348 417
#     4  11  27  44  70 102 140 191 242 292 362 439
#     4  10  21  37  68 104 138 179 228 296 357 421
#     4  12  25  44  72 101 142 191 236 287 367 432
#     4  11  24  46  68  96 140 187 237 295 362 427
#     4  10  21  42  69  97 139 179 235 290 347 420
#     4  11  22  41  72 105 140 181 239 295 360 427
#     4  12  26  44  69 102 140 186 240 306 359 419
#
# _framework density 23.571237
#
# number of rings (size 3 to 8) (size 9 to 14) (size 15 to 20)
#    0.000    1.000    3.750    3.000    5.250    1.500 
#    0.000    0.625    0.000    4.500    0.000    0.000 
#    0.000    0.000    0.000    0.000    0.000    0.000 
#
# Total GULP energy -178427.666780 kJ/mol
# GULP energy per Si atom -5575.864587 kJ/mol
# Density = 2.351759 g / cm^3
# Si number density = 23.571237 Si / 1000 Ang^3
#
#
#
# Elastic Constant Matrix: (Units=GPa)
#
#
# Indices 1 2 3 4 5 6 
#
# 1 36.0972 14.9977 -0.8442 0.0000 0.0000 0.0000
# 2 14.9977 108.2051 41.6715 0.0000 0.0000 0.0000
# 3 -0.8442 41.6715 113.8704 0.0000 0.0000 0.0000
# 4 0.0000 0.0000 0.0000 38.2488 0.0000 0.0000
# 5 0.0000 0.0000 0.0000 0.0000 41.2262 0.0000
# 6 0.0000 0.0000 0.0000 0.0000 0.0000 42.4494
#
#
#
# Elastic Compliance Matrix: (Units=1/GPa)
#
#
# Indices 1 2 3 4 5 6 
#
# 1 0.029788 -0.004905 0.002016 0.000000 0.000000 0.000000
# 2 -0.004905 0.011566 -0.004269 0.000000 0.000000 0.000000
# 3 0.002016 -0.004269 0.010359 0.000000 0.000000 0.000000
# 4 0.000000 0.000000 0.000000 0.026145 0.000000 0.000000
# 5 0.000000 0.000000 0.000000 0.000000 0.024256 0.000000
# 6 0.000000 0.000000 0.000000 0.000000 0.000000 0.023557
#
#
# Mechanical properties :
#
#
# Convention : Reuss Voigt Hill
#
# Bulk Modulus (GPa) = 26.74042 41.09142 33.91592
# Shear Modulus (GPa) = 32.79703 37.87474 35.33589
#
# Velocity S-wave (km/s) = 3.73420 4.01287 3.87604
# Velocity P-wave (km/s) = 5.47370 6.24031 5.86954
#
# Compressibility (1/GPa) = 0.03739657
#
# Stress axis : x y z
#
# Youngs Moduli (GPa) = 33.57049 86.46349 96.53386
#
# Poissons Ratio (x) = 0.42411 -0.19460
# Poissons Ratio (y) = 0.16467 0.41209
# Poissons Ratio (z) = -0.06767 0.36910
#
# Static dielectric constant tensor:
#      x y z
#    x 1.729230 0.000000 0.000000 
#    y 0.000000 1.864250 0.000000 
#    z 0.000000 0.000000 1.954970 
# 
# From -- ./inp_files/2457.got.cif
#   From: 2010.05.17/outbox.cif.g08.bks.cpg/sg27_2_cif.got.tgz:2457.got - 2010.06.04 01:11:05.
