data_PCOD9338316
_publ_section_title
;
Structure prediction by ZEFSAII (Michael W. Deem and Ramdas Pophale) SiO2 
 PCOD9338316
Probable space group: P M C 21
;
_chemical_formula_sum "Si O2"
_cell_formula_units_Z 18
_cell_length_a 11.650720
_cell_length_b 16.387697
_cell_length_c 5.291673
_cell_angle_alpha 90.000000
_cell_angle_beta 90.000000
_cell_angle_gamma 90.000000
_cell_volume 1010.331025
_symmetry_space_group_name_H-M "P M C 21"
_symmetry_group_IT_number 26
_symmetry_cell_setting 'orthorhombic'
loop_
_space_group_symop_operation_xyz
x,y,z
-x,-y,1/2+z
-x,y,z
x,-y,1/2+z
loop_
_atom_site_type_symbol
_atom_site_label
_atom_site_fract_x
_atom_site_fract_y
_atom_site_fract_z
Si Si1 0.629819 0.889405 0.926060
Si Si2 0.753412 0.125434 0.929626
Si Si3 0.631800 0.729449 0.642420
Si Si4 0.360435 0.453859 0.275844
Si Si5 0.000000 0.054649 0.014379
O O1 0.500000 0.917416 0.971064
O O2 0.678931 0.916263 0.654361
O O3 0.626667 0.790800 0.881662
O O4 0.713238 0.904787 0.157780
O O5 0.715772 0.220231 0.958948
O O6 0.885176 0.107530 0.981324
O O7 0.500000 0.726237 0.541055
O O8 0.670324 0.639480 0.715429
O O9 0.500000 0.455194 0.280771
O O10 0.322251 0.511897 0.046057
O O11 0.000000 0.011594 0.287716
#
# Coordination Sequence:
#
# PCOD9338316 Si02
#       5
#     4   4   4   4   2
#     4   9  17  31  56  82 106 133 175 221 262 310
#     4  10  20  35  57  80 104 140 183 217 267 323
#     4   8  17  30  52  78 108 142 179 219 259 309
#     4   9  17  25  38  68 111 147 172 205 257 310
#     4  12  26  44  62  80 108 138 172 228 282 324
#
# _framework density 17.815943000000001
#
# number of rings (size 3 to 8) (size 9 to 14) (size 15 to 20)
#    1.333    1.333    0.000    2.667    3.111    0.000 
#    0.000    0.000    0.000   22.667    0.000    1.556 
#    0.000    0.000    0.000    0.000    0.000    0.000 
#
# Total GULP energy -100213.437359 kJ/mol
# GULP energy per Si atom -5567.413187 kJ/mol
# Density = 1.777539 g / cm^3
# Si number density = 17.815943 Si / 1000 Ang^3
#
#
#
# Elastic Constant Matrix: (Units=GPa)
#
#
# Indices 1 2 3 4 5 6 
#
# 1 61.4338 4.4033 -14.0868 0.0000 0.0000 0.0000
# 2 4.4033 65.7327 -17.1272 0.0000 0.0000 0.0000
# 3 -14.0868 -17.1272 57.6073 0.0000 0.0000 0.0000
# 4 0.0000 0.0000 0.0000 0.5390 0.0000 0.0000
# 5 0.0000 0.0000 0.0000 0.0000 21.0291 0.0000
# 6 0.0000 0.0000 0.0000 0.0000 0.0000 -2.9871
#
#
#
# Elastic Compliance Matrix: (Units=1/GPa)
#
#
# Indices 1 2 3 4 5 6 
#
# 1 0.017245 -0.000061 0.004199 0.000000 0.000000 0.000000
# 2 -0.000061 0.016491 0.004888 0.000000 0.000000 0.000000
# 3 0.004199 0.004888 0.019839 0.000000 0.000000 0.000000
# 4 0.000000 0.000000 0.000000 1.855195 0.000000 0.000000
# 5 0.000000 0.000000 0.000000 0.000000 0.047553 0.000000
# 6 0.000000 0.000000 0.000000 0.000000 0.000000 -0.334778
#
#
# Mechanical properties :
#
#
# Convention : Reuss Voigt Hill
#
# Bulk Modulus (GPa) = 13.96152 14.57248 14.26700
# Shear Modulus (GPa) = 3.07244 17.82185 10.44715
#
# Velocity S-wave (km/s) = 1.31464 3.16623 2.42418
# Velocity P-wave (km/s) = 3.18715 4.64370 3.98258
#
# Compressibility (1/GPa) = 0.07162545
#
# Stress axis : x y z
#
# Youngs Moduli (GPa) = 57.98838 60.63980 50.40610
#
# Poissons Ratio (x) = 0.00371 -0.21164
# Poissons Ratio (y) = 0.00355 -0.24638
# Poissons Ratio (z) = -0.24348 -0.29640
#
# Static dielectric constant tensor:
#      x y z
#    x 1.574250 0.000000 0.000000 
#    y 0.000000 1.654900 0.000000 
#    z 0.000000 0.000000 1.627450 
# 
# From -- ./inp_files/126.got.cif
#   From: 2010.05.17/outbox.cif.g08.bks.cpg/sg26_1_cif.got.tgz:126.got - 2010.06.04 01:07:29.
