data_PCOD9338692
_publ_section_title
;
Structure prediction by ZEFSAII (Michael W. Deem and Ramdas Pophale) SiO2 
 PCOD9338692
Probable space group: P M C 21
;
_chemical_formula_sum "Si O2"
_cell_formula_units_Z 32
_cell_length_a 15.000000
_cell_length_b 15.000000
_cell_length_c 9.000000
_cell_angle_alpha 90.000000
_cell_angle_beta 90.000000
_cell_angle_gamma 90.000000
_cell_volume 2025.000000
_symmetry_space_group_name_H-M "P M C 21"
_symmetry_group_IT_number 26
_symmetry_cell_setting 'orthorhombic'
loop_
_space_group_symop_operation_xyz
x,y,z
-x,-y,1/2+z
-x,y,z
x,-y,1/2+z
loop_
_atom_site_type_symbol
_atom_site_label
_atom_site_fract_x
_atom_site_fract_y
_atom_site_fract_z
Si Si1 0.105132 0.626431 0.972000
Si Si2 0.105139 0.438023 0.127867
Si Si3 0.390352 0.119465 0.679039
Si Si4 0.301389 0.714617 0.016356
Si Si5 0.393214 0.063564 0.016603
Si Si6 0.608691 0.237333 0.199756
Si Si7 0.390453 0.441399 0.707167
Si Si8 0.305572 0.603600 0.529359
O O1 0.113430 0.586949 0.803057
O O2 0.000000 0.660952 0.983096
O O3 0.110606 0.543048 0.086528
O O4 0.194606 0.688172 0.001224
O O5 0.196674 0.399323 0.049467
O O6 0.000000 0.412431 0.085687
O O7 0.500000 0.136488 0.671026
O O8 0.331498 0.202550 0.621682
O O9 0.368456 0.034832 0.573355
O O10 0.366934 0.092773 0.849534
O O11 0.354502 0.631384 0.088814
O O12 0.343411 0.738359 0.855038
O O13 0.500000 0.062233 0.010466
O O14 0.370716 0.137721 0.140779
O O15 0.500000 0.247195 0.210587
O O16 0.651436 0.302588 0.076936
O O17 0.500000 0.441738 0.718029
O O18 0.350832 0.533815 0.644429
O O19 0.342659 0.421205 0.865436
#
# Coordination Sequence:
#
# PCOD9338692 Si02
#       8
#     4   4   4   4   4   4   4   4
#     4  10  21  38  58  80 105 140 185 240 288 326
#     4  10  20  38  58  77 102 137 185 239 283 319
#     4  10  19  34  55  80 112 145 182 225 272 322
#     4  12  22  35  53  80 109 145 183 226 275 330
#     4   9  19  35  55  80 109 145 186 229 268 315
#     4  11  21  34  52  76 109 146 186 224 267 327
#     4  12  24  35  49  72 110 150 186 219 264 331
#     4  12  22  37  51  75 104 148 186 224 276 324
#
# _framework density 15.802469
#
# number of rings (size 3 to 8) (size 9 to 14) (size 15 to 20)
#    0.000    1.250    2.500    5.250    0.000    3.000 
#    0.000    0.000    0.000    0.000    0.000    4.375 
#    0.000    0.000    0.000    0.000    0.000    0.000 
#
# Total GULP energy -178354.727211 kJ/mol
# GULP energy per Si atom -5573.585225 kJ/mol
# Density = 1.576650 g / cm^3
# Si number density = 15.802469 Si / 1000 Ang^3
#
#
#
# Elastic Constant Matrix: (Units=GPa)
#
#
# Indices 1 2 3 4 5 6 
#
# 1 142.8072 30.2304 25.0476 0.0000 0.0000 0.0000
# 2 30.2304 68.3814 1.9103 0.0000 0.0000 0.0000
# 3 25.0476 1.9103 73.6510 0.0000 0.0000 0.0000
# 4 0.0000 0.0000 0.0000 31.7848 0.0000 0.0000
# 5 0.0000 0.0000 0.0000 0.0000 31.3395 0.0000
# 6 0.0000 0.0000 0.0000 0.0000 0.0000 25.0605
#
#
#
# Elastic Compliance Matrix: (Units=1/GPa)
#
#
# Indices 1 2 3 4 5 6 
#
# 1 0.008232 -0.003563 -0.002707 0.000000 0.000000 0.000000
# 2 -0.003563 0.016177 0.000792 0.000000 0.000000 0.000000
# 3 -0.002707 0.000792 0.014478 0.000000 0.000000 0.000000
# 4 0.000000 0.000000 0.000000 0.031462 0.000000 0.000000
# 5 0.000000 0.000000 0.000000 0.000000 0.031909 0.000000
# 6 0.000000 0.000000 0.000000 0.000000 0.000000 0.039903
#
#
# Mechanical properties :
#
#
# Convention : Reuss Voigt Hill
#
# Bulk Modulus (GPa) = 35.80389 44.35735 40.08062
# Shear Modulus (GPa) = 30.78323 32.81372 31.79847
#
# Velocity S-wave (km/s) = 4.41840 4.56180 4.49067
# Velocity P-wave (km/s) = 6.98112 7.47513 7.23234
#
# Compressibility (1/GPa) = 0.02792992
#
# Stress axis : x y z
#
# Youngs Moduli (GPa) = 121.48344 61.81595 69.07217
#
# Poissons Ratio (x) = 0.22028 0.18698
# Poissons Ratio (y) = 0.43290 -0.05472
# Poissons Ratio (z) = 0.32886 -0.04898
#
# Static dielectric constant tensor:
#      x y z
#    x 1.532200 0.000000 0.000000 
#    y 0.000000 1.550930 0.000000 
#    z 0.000000 0.000000 1.559250 
# 
# From -- ./inp_files/2270.got.cif
#   From: 2010.05.17/outbox.ucp.g08.bks.cvg/sg26_2_cif.got.tgz:2270.got - 2010.06.11 15:23:25.
