data_PCOD9338913
_publ_section_title
;
Structure prediction by ZEFSAII (Michael W. Deem and Ramdas Pophale) SiO2 
 PCOD9338913
Probable space group: P C C 2
;
_chemical_formula_sum "Si O2"
_cell_formula_units_Z 24
_cell_length_a 8.039946
_cell_length_b 5.397970
_cell_length_c 25.624173
_cell_angle_alpha 90.000000
_cell_angle_beta 90.000000
_cell_angle_gamma 90.000000
_cell_volume 1112.073409
_symmetry_space_group_name_H-M "P C C 2"
_symmetry_group_IT_number 27
_symmetry_cell_setting 'orthorhombic'
loop_
_space_group_symop_operation_xyz
x,y,z
-x,-y,z
-x,y,1/2+z
x,-y,1/2+z
loop_
_atom_site_type_symbol
_atom_site_label
_atom_site_fract_x
_atom_site_fract_y
_atom_site_fract_z
Si Si1 0.000000 0.000000 0.085261
Si Si2 0.000000 0.000000 0.268952
Si Si3 0.500000 0.000000 0.771288
Si Si4 0.770930 0.667848 0.825984
Si Si5 0.299444 0.004363 0.003707
Si Si6 0.267479 0.666710 0.728831
Si Si7 0.000000 0.500000 0.652536
Si Si8 0.697850 0.502857 0.439559
O O1 0.168382 0.982076 0.050631
O O2 0.991506 0.748420 0.118680
O O3 0.147703 0.093562 0.232867
O O4 0.942129 0.216552 0.306644
O O5 0.364668 0.118756 0.811122
O O6 0.551200 0.215180 0.729797
O O7 0.730969 0.453866 0.785614
O O8 0.774497 0.565806 0.883913
O O9 0.500000 0.000000 0.016356
O O10 0.264591 0.770648 0.964917
O O11 0.265116 0.271401 0.977440
O O12 0.167530 0.498427 0.688400
O O13 0.500000 0.500000 0.430442
#
# Coordination Sequence:
#
# PCOD9338913 Si02
#       8
#     2   2   2   4   4   4   2   4
#     4  12  27  51  74 102 130 180 243 309 368 418
#     4  10  21  37  60  86 146 184 229 267 330 396
#     4  10  24  36  66  94 150 178 238 270 330 416
#     4  11  22  38  62 100 143 188 222 273 332 423
#     4  10  24  48  71 100 136 176 230 298 355 419
#     4  11  22  43  62  98 137 186 226 284 340 415
#     4  12  26  46  78  92 138 184 232 296 374 418
#     4  10  22  39  70  98 139 183 220 271 353 420
#
# _framework density 21.581309999999998
#
# number of rings (size 3 to 8) (size 9 to 14) (size 15 to 20)
#    0.000    1.333    1.667    3.000   10.500    0.667 
#    4.500    0.000    0.000    0.000    0.000    0.000 
#    0.000    0.000    0.000    0.000    0.000    0.000 
#
# Total GULP energy -133847.185310 kJ/mol
# GULP energy per Si atom -5576.966055 kJ/mol
# Density = 2.153219 g / cm^3
# Si number density = 21.581310 Si / 1000 Ang^3
#
#
#
# Elastic Constant Matrix: (Units=GPa)
#
#
# Indices 1 2 3 4 5 6 
#
# 1 54.3382 13.3929 33.3881 0.0000 0.0000 0.0000
# 2 13.3929 109.3122 23.9028 0.0000 0.0000 0.0000
# 3 33.3881 23.9028 88.1882 0.0000 0.0000 0.0000
# 4 0.0000 0.0000 0.0000 42.1743 0.0000 0.0000
# 5 0.0000 0.0000 0.0000 0.0000 -45.6179 0.0000
# 6 0.0000 0.0000 0.0000 0.0000 0.0000 42.0832
#
#
#
# Elastic Compliance Matrix: (Units=1/GPa)
#
#
# Indices 1 2 3 4 5 6 
#
# 1 0.024088 -0.001017 -0.008844 0.000000 0.000000 0.000000
# 2 -0.001017 0.009767 -0.002262 0.000000 0.000000 0.000000
# 3 -0.008844 -0.002262 0.015301 0.000000 0.000000 0.000000
# 4 0.000000 0.000000 0.000000 0.023711 0.000000 0.000000
# 5 0.000000 0.000000 0.000000 0.000000 -0.021921 0.000000
# 6 0.000000 0.000000 0.000000 0.000000 0.000000 0.023762
#
#
# Mechanical properties :
#
#
# Convention : Reuss Voigt Hill
#
# Bulk Modulus (GPa) = 40.14571 43.68956 41.91764
# Shear Modulus (GPa) = 46.61599 19.80492 33.21045
#
# Velocity S-wave (km/s) = 4.65264 3.03262 3.92708
# Velocity P-wave (km/s) = 6.89240 5.70531 6.32676
#
# Compressibility (1/GPa) = 0.02490926
#
# Stress axis : x y z
#
# Youngs Moduli (GPa) = 41.51401 102.38113 65.35560
#
# Poissons Ratio (x) = 0.10416 0.57801
# Poissons Ratio (y) = 0.04224 0.14785
# Poissons Ratio (z) = 0.36715 0.23161
#
# Static dielectric constant tensor:
#      x y z
#    x 1.946370 0.000000 0.000000 
#    y 0.000000 1.732110 0.000000 
#    z 0.000000 0.000000 1.768400 
# 
# From -- ./inp_files/5009.got.cif
#   From: 2010.05.17/outbox.cif.g08.bks.cpg/sg27_3_cif.got.tgz:5009.got - 2010.06.04 01:11:05.
