data_PCOD9338694
_publ_section_title
;
Structure prediction by ZEFSAII (Michael W. Deem and Ramdas Pophale) SiO2 
 PCOD9338694
Probable space group: P M C 21
;
_chemical_formula_sum "Si O2"
_cell_formula_units_Z 32
_cell_length_a 9.000000
_cell_length_b 15.000000
_cell_length_c 12.000000
_cell_angle_alpha 90.000000
_cell_angle_beta 90.000000
_cell_angle_gamma 90.000000
_cell_volume 1620.000000
_symmetry_space_group_name_H-M "P M C 21"
_symmetry_group_IT_number 26
_symmetry_cell_setting 'orthorhombic'
loop_
_space_group_symop_operation_xyz
x,y,z
-x,-y,1/2+z
-x,y,z
x,-y,1/2+z
loop_
_atom_site_type_symbol
_atom_site_label
_atom_site_fract_x
_atom_site_fract_y
_atom_site_fract_z
Si Si1 0.831823 0.138882 0.063210
Si Si2 0.319346 0.829702 0.918906
Si Si3 0.320033 0.828674 0.175041
Si Si4 0.680421 0.460378 0.937626
Si Si5 0.321968 0.474748 0.187801
Si Si6 0.830484 0.295615 0.245917
Si Si7 0.321211 0.260720 0.888167
Si Si8 0.678417 0.978340 0.741214
O O1 0.837491 0.217683 0.154728
O O2 0.739988 0.063645 0.127129
O O3 0.000000 0.110562 0.037818
O O4 0.750975 0.181563 0.958178
O O5 0.500000 0.822316 0.914391
O O6 0.244667 0.747586 0.854540
O O7 0.276950 0.918494 0.847914
O O8 0.270050 0.829746 0.047343
O O9 0.500000 0.828617 0.168941
O O10 0.278553 0.748621 0.257843
O O11 0.274467 0.919313 0.237686
O O12 0.500000 0.468509 0.936763
O O13 0.729463 0.490106 0.811661
O O14 0.721164 0.355883 0.938206
O O15 0.727913 0.501694 0.059482
O O16 0.500000 0.487005 0.187310
O O17 0.273482 0.372440 0.198506
O O18 0.000000 0.326364 0.266617
O O19 0.500000 0.253175 0.895529
O O20 0.500000 0.975220 0.738075
#
# Coordination Sequence:
#
# PCOD9338694 Si02
#       8
#     4   4   4   4   4   4   4   4
#     4  10  20  34  53  77 105 139 180 224 265 317
#     4   9  18  33  52  78 109 141 177 223 278 330
#     4   9  19  32  53  83 110 138 180 230 276 326
#     4   9  19  33  55  84 113 141 181 227 278 334
#     4  10  19  35  57  84 111 143 182 229 281 336
#     4  10  20  35  55  78 104 139 183 225 266 319
#     4  10  19  34  56  82 110 144 181 224 275 332
#     4   9  18  32  53  78 104 139 180 224 271 322
#
# _framework density 19.753086
#
# number of rings (size 3 to 8) (size 9 to 14) (size 15 to 20)
#    0.000    2.500    1.250    0.750    1.750    2.000 
#    0.000    6.875    0.000    0.000    0.000    0.000 
#    0.000    0.000    0.000    0.000    0.000    0.000 
#
# Total GULP energy -178134.735795 kJ/mol
# GULP energy per Si atom -5566.710494 kJ/mol
# Density = 1.970813 g / cm^3
# Si number density = 19.753086 Si / 1000 Ang^3
#
#
#
# Elastic Constant Matrix: (Units=GPa)
#
#
# Indices 1 2 3 4 5 6 
#
# 1 -5.0765 -4.1525 11.9716 0.0000 0.0000 0.0000
# 2 -4.1525 25.1824 30.9176 0.0000 0.0000 0.0000
# 3 11.9716 30.9176 177.8783 0.0000 0.0000 0.0000
# 4 0.0000 0.0000 0.0000 23.8712 0.0000 0.0000
# 5 0.0000 0.0000 0.0000 0.0000 7.8898 0.0000
# 6 0.0000 0.0000 0.0000 0.0000 0.0000 2.0589
#
#
#
# Elastic Compliance Matrix: (Units=1/GPa)
#
#
# Indices 1 2 3 4 5 6 
#
# 1 -0.127490 -0.040118 0.015553 0.000000 0.000000 0.000000
# 2 -0.040118 0.037859 -0.003880 0.000000 0.000000 0.000000
# 3 0.015553 -0.003880 0.005249 0.000000 0.000000 0.000000
# 4 0.000000 0.000000 0.000000 0.041892 0.000000 0.000000
# 5 0.000000 0.000000 0.000000 0.000000 0.126745 0.000000
# 6 0.000000 0.000000 0.000000 0.000000 0.000000 0.485693
#
#
# Mechanical properties :
#
#
# Convention : Reuss Voigt Hill
#
# Bulk Modulus (GPa) = -7.07855 30.60642 11.76393
# Shear Modulus (GPa) = 8.62443 17.38048 13.00246
#
# Velocity S-wave (km/s) = 2.09179 2.96951 2.56842
# Velocity P-wave (km/s) = 1.49761 5.22355 3.84241
#
# Compressibility (1/GPa) = -0.14127178
#
# Stress axis : x y z
#
# Youngs Moduli (GPa) = -7.84378 26.41393 190.49504
#
# Poissons Ratio (x) = 1.05969 -2.96286
# Poissons Ratio (y) = -0.31468 0.73918
# Poissons Ratio (z) = 0.12200 0.10249
#
# Static dielectric constant tensor:
#      x y z
#    x 1.669860 0.000000 0.000000 
#    y 0.000000 1.712050 0.000000 
#    z 0.000000 0.000000 1.736280 
# 
# From -- ./inp_files/3022.got.cif
#   From: 2010.05.17/outbox.ucp.g08.bks.cvg/sg26_2_cif.got.tgz:3022.got - 2010.06.11 15:23:25.
