data_PCOD9338254
_publ_section_title
;
Structure prediction by ZEFSAII (Michael W. Deem and Ramdas Pophale) SiO2 
 PCOD9338254
Probable space group: P M C 21
;
_chemical_formula_sum "Si O2"
_cell_formula_units_Z 32
_cell_length_a 8.986040
_cell_length_b 10.911940
_cell_length_c 14.382327
_cell_angle_alpha 90.000000
_cell_angle_beta 90.000000
_cell_angle_gamma 90.000000
_cell_volume 1410.260934
_symmetry_space_group_name_H-M "P M C 21"
_symmetry_group_IT_number 26
_symmetry_cell_setting 'orthorhombic'
loop_
_space_group_symop_operation_xyz
x,y,z
-x,-y,1/2+z
-x,y,z
x,-y,1/2+z
loop_
_atom_site_type_symbol
_atom_site_label
_atom_site_fract_x
_atom_site_fract_y
_atom_site_fract_z
Si Si1 0.677808 0.305998 0.658840
Si Si2 0.832473 0.313647 0.994437
Si Si3 0.826258 0.950425 0.594308
Si Si4 0.322964 0.561506 0.768141
Si Si5 0.324450 0.061508 0.425570
Si Si6 0.322420 0.556233 0.982464
Si Si7 0.177245 0.194004 0.267387
Si Si8 0.826389 0.159974 0.815468
O O1 0.500000 0.278280 0.658992
O O2 0.698526 0.433892 0.715447
O O3 0.729870 0.340191 0.554756
O O4 0.766301 0.203510 0.716063
O O5 0.720485 0.421252 0.018789
O O6 0.819461 0.275600 0.886033
O O7 0.000000 0.358779 0.012108
O O8 0.815870 0.184245 0.046356
O O9 0.731814 0.040332 0.530270
O O10 0.779836 0.918193 0.698880
O O11 0.000000 0.986365 0.591661
O O12 0.500000 0.586611 0.766674
O O13 0.271383 0.556658 0.875823
O O14 0.237352 0.678299 0.728023
O O15 0.500000 0.076703 0.424241
O O16 0.272172 0.941482 0.367665
O O17 0.247713 0.169333 0.367738
O O18 0.500000 0.567096 0.981620
O O19 0.000000 0.196495 0.271725
O O20 0.000000 0.120181 0.812191
#
# Coordination Sequence:
#
# PCOD9338254 Si02
#       8
#     4   4   4   4   4   4   4   4
#     4  10  20  35  56  84 117 155 196 239 292 352
#     4   9  17  31  54  82 112 145 188 238 283 339
#     4   9  20  39  62  90 118 151 199 251 298 350
#     4  10  21  37  56  84 123 158 197 246 296 353
#     4  11  23  40  64  90 118 153 196 246 300 358
#     4  10  20  33  52  81 117 155 192 235 289 349
#     4  11  23  41  64  88 120 159 202 249 299 355
#     4  10  20  36  58  83 113 148 192 242 291 344
#
# _framework density 22.690836999999998
#
# number of rings (size 3 to 8) (size 9 to 14) (size 15 to 20)
#    0.000    2.000    1.250    3.375    0.000    4.500 
#    2.250    0.000    0.000    0.000    0.000    0.000 
#    0.000    0.000    0.000    0.000    0.000    0.000 
#
# Total GULP energy -178901.679337 kJ/mol
# GULP energy per Si atom -5590.677479 kJ/mol
# Density = 2.263919 g / cm^3
# Si number density = 22.690837 Si / 1000 Ang^3
#
#
#
# Elastic Constant Matrix: (Units=GPa)
#
#
# Indices 1 2 3 4 5 6 
#
# 1 37.9904 18.3501 28.5861 0.0000 0.0000 0.0000
# 2 18.3501 60.0436 2.5952 0.0000 0.0000 0.0000
# 3 28.5861 2.5952 115.1769 0.0000 0.0000 0.0000
# 4 0.0000 0.0000 0.0000 41.0664 0.0000 0.0000
# 5 0.0000 0.0000 0.0000 0.0000 24.6939 0.0000
# 6 0.0000 0.0000 0.0000 0.0000 0.0000 -1.2899
#
#
#
# Elastic Compliance Matrix: (Units=1/GPa)
#
#
# Indices 1 2 3 4 5 6 
#
# 1 0.038957 -0.011499 -0.009410 0.000000 0.000000 0.000000
# 2 -0.011499 0.020065 0.002402 0.000000 0.000000 0.000000
# 3 -0.009410 0.002402 0.010964 0.000000 0.000000 0.000000
# 4 0.000000 0.000000 0.000000 0.024351 0.000000 0.000000
# 5 0.000000 0.000000 0.000000 0.000000 0.040496 0.000000
# 6 0.000000 0.000000 0.000000 0.000000 0.000000 -0.775254
#
#
# Mechanical properties :
#
#
# Convention : Reuss Voigt Hill
#
# Bulk Modulus (GPa) = 30.32896 34.69707 32.51301
# Shear Modulus (GPa) = -8.44001 23.80604 7.68302
#
# Velocity S-wave (km/s) = -1.93071 3.24257 1.84209
# Velocity P-wave (km/s) = 2.90258 5.41696 4.34560
#
# Compressibility (1/GPa) = 0.03297179
#
# Stress axis : x y z
#
# Youngs Moduli (GPa) = 25.66924 49.83798 91.21076
#
# Poissons Ratio (x) = 0.57309 0.85827
# Poissons Ratio (y) = 0.29517 -0.21908
# Poissons Ratio (z) = 0.24154 -0.11971
#
# Static dielectric constant tensor:
#      x y z
#    x 1.747360 0.000000 0.000000 
#    y 0.000000 1.869480 0.000000 
#    z 0.000000 0.000000 1.915540 
# 
# From -- ./inp_files/4245.got.cif
#   From: 2010.05.17/outbox.cif.g08.bks.cpg/sg26_3_cif.got.tgz:4245.got - 2010.06.04 01:07:29.
