data_PCOD9338929
_publ_section_title
;
Structure prediction by ZEFSAII (Michael W. Deem and Ramdas Pophale) SiO2 
 PCOD9338929
Probable space group: P C C 2
;
_chemical_formula_sum "Si O2"
_cell_formula_units_Z 30
_cell_length_a 21.082235
_cell_length_b 4.903312
_cell_length_c 13.129664
_cell_angle_alpha 90.000000
_cell_angle_beta 90.000000
_cell_angle_gamma 90.000000
_cell_volume 1357.249814
_symmetry_space_group_name_H-M "P C C 2"
_symmetry_group_IT_number 27
_symmetry_cell_setting 'orthorhombic'
loop_
_space_group_symop_operation_xyz
x,y,z
-x,-y,z
-x,y,1/2+z
x,-y,1/2+z
loop_
_atom_site_type_symbol
_atom_site_label
_atom_site_fract_x
_atom_site_fract_y
_atom_site_fract_z
Si Si1 0.111369 0.610476 0.729340
Si Si2 0.559015 0.704664 0.524824
Si Si3 0.360264 0.653636 0.842189
Si Si4 0.371170 0.217413 0.108324
Si Si5 0.000000 0.500000 0.854815
Si Si6 0.154680 0.079922 0.848178
Si Si7 0.933592 0.853390 0.021422
Si Si8 0.709835 0.856423 0.924326
O O1 0.043759 0.682142 0.782867
O O2 0.125483 0.302617 0.767182
O O3 0.099379 0.687488 0.612315
O O4 0.162124 0.811217 0.779532
O O5 0.500000 0.500000 0.541926
O O6 0.575175 0.714497 0.404977
O O7 0.613937 0.523925 0.574174
O O8 0.573423 0.004817 0.570884
O O9 0.366353 0.759656 0.728244
O O10 0.338727 0.343181 0.863023
O O11 0.306204 0.837122 0.892704
O O12 0.308324 0.152551 0.043446
O O13 0.044749 0.346682 0.932260
O O14 0.116505 0.982841 0.951117
O O15 0.219181 0.205135 0.891765
O O16 0.000000 0.000000 0.053631
#
# Coordination Sequence:
#
# PCOD9338929 Si02
#       8
#     4   4   4   4   2   4   4   4
#     4  11  25  39  64  87 121 155 200 250 321 386
#     4  10  21  38  61  97 135 164 210 262 308 367
#     4  10  21  40  65  92 123 175 211 258 318 370
#     4  10  21  39  64  92 125 176 213 256 314 371
#     4  10  22  42  60  88 116 156 190 250 302 394
#     4  11  25  43  59  95 121 157 207 266 315 384
#     4  11  24  40  64  88 118 160 198 250 324 394
#     4  10  22  40  63  87 127 160 215 267 314 373
#
# _framework density 22.10352
#
# number of rings (size 3 to 8) (size 9 to 14) (size 15 to 20)
#    0.000    1.600    1.333    2.400    5.600    2.667 
#    0.000    4.000    0.000    0.000    0.000    0.000 
#    0.000    0.000    0.000    0.000    0.000    0.000 
#
# Total GULP energy -167034.768583 kJ/mol
# GULP energy per Si atom -5567.825619 kJ/mol
# Density = 2.205321 g / cm^3
# Si number density = 22.103520 Si / 1000 Ang^3
#
#
#
# Elastic Constant Matrix: (Units=GPa)
#
#
# Indices 1 2 3 4 5 6 
#
# 1 21.6528 -6.0031 -10.8230 0.0000 0.0000 0.0000
# 2 -6.0031 87.9628 -1.8547 0.0000 0.0000 0.0000
# 3 -10.8230 -1.8547 75.2285 0.0000 0.0000 0.0000
# 4 0.0000 0.0000 0.0000 20.5227 0.0000 0.0000
# 5 0.0000 0.0000 0.0000 0.0000 4.5480 0.0000
# 6 0.0000 0.0000 0.0000 0.0000 0.0000 21.0043
#
#
#
# Elastic Compliance Matrix: (Units=1/GPa)
#
#
# Indices 1 2 3 4 5 6 
#
# 1 0.050894 0.003630 0.007412 0.000000 0.000000 0.000000
# 2 0.003630 0.011633 0.000809 0.000000 0.000000 0.000000
# 3 0.007412 0.000809 0.014379 0.000000 0.000000 0.000000
# 4 0.000000 0.000000 0.000000 0.048727 0.000000 0.000000
# 5 0.000000 0.000000 0.000000 0.000000 0.219879 0.000000
# 6 0.000000 0.000000 0.000000 0.000000 0.000000 0.047609
#
#
# Mechanical properties :
#
#
# Convention : Reuss Voigt Hill
#
# Bulk Modulus (GPa) = 9.93968 16.38695 13.16331
# Shear Modulus (GPa) = 12.40829 22.78332 17.59581
#
# Velocity S-wave (km/s) = 2.37190 3.21402 2.82452
# Velocity P-wave (km/s) = 3.46523 4.60468 4.07498
#
# Compressibility (1/GPa) = 0.10060691
#
# Stress axis : x y z
#
# Youngs Moduli (GPa) = 19.64856 85.96086 69.54554
#
# Poissons Ratio (x) = -0.31200 -0.51544
# Poissons Ratio (y) = -0.07132 -0.05626
# Poissons Ratio (z) = -0.14563 -0.06954
#
# Static dielectric constant tensor:
#      x y z
#    x 2.031680 0.000000 0.000000 
#    y 0.000000 1.861010 0.000000 
#    z 0.000000 0.000000 1.835890 
# 
# From -- ./inp_files/2112.got.cif
#   From: 2010.05.17/outbox.cif.g08.bks.cpg/sg27_2_cif.got.tgz:2112.got - 2010.06.04 01:11:05.
