data_PCOD9338665
_publ_section_title
;
Structure prediction by ZEFSAII (Michael W. Deem and Ramdas Pophale) SiO2 
 PCOD9338665
Probable space group: P M C 21
;
_chemical_formula_sum "Si O2"
_cell_formula_units_Z 20
_cell_length_a 10.980861
_cell_length_b 9.480457
_cell_length_c 8.261376
_cell_angle_alpha 90.000000
_cell_angle_beta 90.000000
_cell_angle_gamma 90.000000
_cell_volume 860.038822
_symmetry_space_group_name_H-M "P M C 21"
_symmetry_group_IT_number 26
_symmetry_cell_setting 'orthorhombic'
loop_
_space_group_symop_operation_xyz
x,y,z
-x,-y,1/2+z
-x,y,z
x,-y,1/2+z
loop_
_atom_site_type_symbol
_atom_site_label
_atom_site_fract_x
_atom_site_fract_y
_atom_site_fract_z
Si Si1 0.500000 0.840539 0.248821
Si Si2 0.139479 0.040704 0.396686
Si Si3 0.759566 0.294394 0.219334
Si Si4 0.233844 0.205096 0.708206
Si Si5 0.857338 0.544792 0.405282
Si Si6 0.500000 0.167259 0.137894
O O1 0.623300 0.770670 0.183081
O O2 0.500000 0.829215 0.443057
O O3 0.500000 0.004735 0.196262
O O4 0.160705 0.156174 0.256543
O O5 0.176666 0.121990 0.558556
O O6 0.000000 0.994771 0.401596
O O7 0.222164 0.906447 0.356873
O O8 0.782497 0.404594 0.364250
O O9 0.621391 0.243751 0.201140
O O10 0.806782 0.374717 0.061180
O O11 0.163203 0.344861 0.758312
O O12 0.000000 0.512087 0.421665
#
# Coordination Sequence:
#
# PCOD9338665 Si02
#       6
#     2   4   4   4   4   2
#     4  12  24  49  73 108 148 184 242 302 356 431
#     4  12  24  43  68 107 144 189 249 300 362 434
#     4  12  27  46  74 104 145 196 241 298 368 429
#     4  12  25  43  74 103 143 195 238 306 366 427
#     4  12  25  47  71 104 147 191 242 303 366 434
#     4  12  26  49  77 108 150 188 248 302 362 437
#
# _framework density 23.254764000000002
#
# number of rings (size 3 to 8) (size 9 to 14) (size 15 to 20)
#    0.000    0.000    4.000    7.200    0.000    1.600 
#    0.000    0.000    0.000    0.000    0.000    0.000 
#    0.000    0.000    0.000    0.000    0.000    0.000 
#
# Total GULP energy -112190.480945 kJ/mol
# GULP energy per Si atom -5609.524047 kJ/mol
# Density = 2.320183 g / cm^3
# Si number density = 23.254764 Si / 1000 Ang^3
#
#
#
# Elastic Constant Matrix: (Units=GPa)
#
#
# Indices 1 2 3 4 5 6 
#
# 1 142.0508 -6.0409 8.1103 0.0000 0.0000 0.0000
# 2 -6.0409 78.0079 3.5607 0.0000 0.0000 0.0000
# 3 8.1103 3.5607 60.9485 0.0000 0.0000 0.0000
# 4 0.0000 0.0000 0.0000 46.7193 0.0000 0.0000
# 5 0.0000 0.0000 0.0000 0.0000 35.6672 0.0000
# 6 0.0000 0.0000 0.0000 0.0000 0.0000 40.4077
#
#
#
# Elastic Compliance Matrix: (Units=1/GPa)
#
#
# Indices 1 2 3 4 5 6 
#
# 1 0.007121 0.000596 -0.000982 0.000000 0.000000 0.000000
# 2 0.000596 0.012903 -0.000833 0.000000 0.000000 0.000000
# 3 -0.000982 -0.000833 0.016587 0.000000 0.000000 0.000000
# 4 0.000000 0.000000 0.000000 0.021404 0.000000 0.000000
# 5 0.000000 0.000000 0.000000 0.000000 0.028037 0.000000
# 6 0.000000 0.000000 0.000000 0.000000 0.000000 0.024748
#
#
# Mechanical properties :
#
#
# Convention : Reuss Voigt Hill
#
# Bulk Modulus (GPa) = 29.26316 32.47416 30.86866
# Shear Modulus (GPa) = 40.11876 42.91732 41.51804
#
# Velocity S-wave (km/s) = 4.15804 4.30062 4.22993
# Velocity P-wave (km/s) = 5.97189 6.21734 6.09585
#
# Compressibility (1/GPa) = 0.03417266
#
# Stress axis : x y z
#
# Youngs Moduli (GPa) = 140.42608 77.49880 60.28927
#
# Poissons Ratio (x) = -0.04621 0.05923
# Poissons Ratio (y) = -0.08374 0.05023
# Poissons Ratio (z) = 0.13796 0.06457
#
# Static dielectric constant tensor:
#      x y z
#    x 1.805700 0.000000 0.000000 
#    y 0.000000 1.840690 0.000000 
#    z 0.000000 0.000000 1.978850 
# 
# From -- ./inp_files/1769.got.cif
#   From: 2010.05.17/outbox.cif.g08.bks.cpg/sg26_1_cif.got.tgz:1769.got - 2010.06.04 01:07:29.
