data_PCOD9338483
_publ_section_title
;
Structure prediction by ZEFSAII (Michael W. Deem and Ramdas Pophale) SiO2 
 PCOD9338483
Probable space group: P M C 21
;
_chemical_formula_sum "Si O2"
_cell_formula_units_Z 32
_cell_length_a 9.469546
_cell_length_b 31.773716
_cell_length_c 5.463022
_cell_angle_alpha 90.000000
_cell_angle_beta 90.000000
_cell_angle_gamma 90.000000
_cell_volume 1643.728620
_symmetry_space_group_name_H-M "P M C 21"
_symmetry_group_IT_number 26
_symmetry_cell_setting 'orthorhombic'
loop_
_space_group_symop_operation_xyz
x,y,z
-x,-y,1/2+z
-x,y,z
x,-y,1/2+z
loop_
_atom_site_type_symbol
_atom_site_label
_atom_site_fract_x
_atom_site_fract_y
_atom_site_fract_z
Si Si1 0.668779 0.164442 0.028640
Si Si2 0.169542 0.974810 0.034378
Si Si3 0.331234 0.886690 0.029190
Si Si4 0.828909 0.478893 0.349109
Si Si5 0.151075 0.686538 0.967504
Si Si6 0.162137 0.749485 0.573426
Si Si7 0.155981 0.391685 0.104236
Si Si8 0.660933 0.671158 0.355919
O O1 0.500000 0.172916 0.028474
O O2 0.700685 0.138143 0.276434
O O3 0.755092 0.207627 0.038340
O O4 0.701649 0.139515 0.776978
O O5 0.000000 0.968584 0.034231
O O6 0.205442 0.000131 0.784794
O O7 0.248009 0.930351 0.033110
O O8 0.500000 0.894460 0.031130
O O9 0.779483 0.492033 0.620383
O O10 0.797778 0.431472 0.263149
O O11 0.000000 0.482149 0.359971
O O12 0.153530 0.732791 0.852155
O O13 0.138636 0.649173 0.772710
O O14 0.000000 0.682544 0.111566
O O15 0.305123 0.677842 0.073510
O O16 0.248031 0.710811 0.454021
O O17 0.000000 0.752890 0.487731
O O18 0.000000 0.401946 0.995868
O O19 0.269068 0.373934 0.914928
O O20 0.500000 0.673457 0.428638
#
# Coordination Sequence:
#
# PCOD9338483 Si02
#       8
#     4   4   4   4   4   4   4   4
#     4  10  22  39  58  85 121 158 196 240 290 350
#     4  10  21  37  59  87 118 151 194 248 299 348
#     4  10  22  39  59  86 120 157 198 240 289 352
#     4   9  18  31  53  86 116 144 183 233 289 345
#     4   9  19  35  55  80 110 145 188 239 288 340
#     4  10  22  39  58  83 111 148 196 244 291 345
#     4   9  19  35  56  81 111 145 184 237 287 337
#     4  11  22  35  56  82 111 148 189 237 289 347
#
# _framework density 19.467935000000001
#
# number of rings (size 3 to 8) (size 9 to 14) (size 15 to 20)
#    0.000    2.250    0.000    3.000    3.500    4.000 
#    0.000    0.000    0.000    0.750    0.000    0.000 
#    0.000    0.000    0.000    0.000    0.000    0.000 
#
# Total GULP energy -178144.246058 kJ/mol
# GULP energy per Si atom -5567.007689 kJ/mol
# Density = 1.942363 g / cm^3
# Si number density = 19.467935 Si / 1000 Ang^3
#
#
#
# Elastic Constant Matrix: (Units=GPa)
#
#
# Indices 1 2 3 4 5 6 
#
# 1 51.6071 20.0330 7.8301 0.0000 0.0000 0.0000
# 2 20.0330 81.0184 11.0157 0.0000 0.0000 0.0000
# 3 7.8301 11.0157 68.4223 0.0000 0.0000 0.0000
# 4 0.0000 0.0000 0.0000 21.5917 0.0000 0.0000
# 5 0.0000 0.0000 0.0000 0.0000 -3.0859 0.0000
# 6 0.0000 0.0000 0.0000 0.0000 0.0000 25.8781
#
#
#
# Elastic Compliance Matrix: (Units=1/GPa)
#
#
# Indices 1 2 3 4 5 6 
#
# 1 0.021615 -0.005120 -0.001649 0.000000 0.000000 0.000000
# 2 -0.005120 0.013832 -0.001641 0.000000 0.000000 0.000000
# 3 -0.001649 -0.001641 0.015068 0.000000 0.000000 0.000000
# 4 0.000000 0.000000 0.000000 0.046314 0.000000 0.000000
# 5 0.000000 0.000000 0.000000 0.000000 -0.324060 0.000000
# 6 0.000000 0.000000 0.000000 0.000000 0.000000 0.038643
#
#
# Mechanical properties :
#
#
# Convention : Reuss Voigt Hill
#
# Bulk Modulus (GPa) = 29.67883 30.97839 30.32861
# Shear Modulus (GPa) = -31.14584 19.68804 -5.72890
#
# Velocity S-wave (km/s) = -4.00416 3.18355 -1.71730
# Velocity P-wave (km/s) = 2.46974 5.42774 3.41766
#
# Compressibility (1/GPa) = 0.03369405
#
# Stress axis : x y z
#
# Youngs Moduli (GPa) = 46.26404 72.29568 66.36567
#
# Poissons Ratio (x) = 0.37018 0.10945
# Poissons Ratio (y) = 0.23689 0.10890
# Poissons Ratio (z) = 0.07630 0.11863
#
# Static dielectric constant tensor:
#      x y z
#    x 1.702940 0.000000 0.000000 
#    y 0.000000 1.640520 0.000000 
#    z 0.000000 0.000000 1.821460 
# 
# From -- ./inp_files/247.got.cif
#   From: 2010.05.17/outbox.cif.g08.bks.cpg/sg26_1_cif.got.tgz:247.got - 2010.06.04 01:07:29.
