data_PCOD9338720
_publ_section_title
;
Structure prediction by ZEFSAII (Michael W. Deem and Ramdas Pophale) SiO2 
 PCOD9338720
Probable space group: P C C 2
;
_chemical_formula_sum "Si O2"
_cell_formula_units_Z 28
_cell_length_a 5.471773
_cell_length_b 14.760640
_cell_length_c 13.864541
_cell_angle_alpha 90.000000
_cell_angle_beta 90.000000
_cell_angle_gamma 90.000000
_cell_volume 1119.795600
_symmetry_space_group_name_H-M "P C C 2"
_symmetry_group_IT_number 27
_symmetry_cell_setting 'orthorhombic'
loop_
_space_group_symop_operation_xyz
x,y,z
-x,-y,z
-x,y,1/2+z
x,-y,1/2+z
loop_
_atom_site_type_symbol
_atom_site_label
_atom_site_fract_x
_atom_site_fract_y
_atom_site_fract_z
Si Si1 0.250166 0.052630 0.234820
Si Si2 0.749372 0.518763 0.435636
Si Si3 0.750786 0.014490 0.446949
Si Si4 0.370315 0.721897 0.954480
Si Si5 0.129329 0.216393 0.925710
Si Si6 0.247600 0.447478 0.145561
Si Si7 0.198589 0.741943 0.752415
O O1 0.231288 0.158485 0.206258
O O2 0.500000 0.000000 0.208566
O O3 0.254725 0.049845 0.353120
O O4 0.000000 0.000000 0.211081
O O5 0.500000 0.500000 0.380419
O O6 0.726957 0.621146 0.472145
O O7 0.754719 0.454060 0.528567
O O8 0.000000 0.500000 0.382216
O O9 0.772632 0.116006 0.408705
O O10 0.500000 0.000000 0.500782
O O11 0.000000 0.000000 0.502896
O O12 0.646412 0.740311 0.985071
O O13 0.395775 0.732918 0.838602
O O14 0.133582 0.782299 0.981896
O O15 0.044828 0.257910 0.821955
O O16 0.500000 0.500000 0.170773
O O17 0.226427 0.346334 0.187258
O O18 0.000000 0.500000 0.173283
#
# Coordination Sequence:
#
# PCOD9338720 Si02
#       7
#     4   4   4   4   4   4   4
#     4  10  17  28  47  77 117 154 179 218 278 353
#     4  10  21  40  58  76 103 147 202 251 288 342
#     4  10  15  26  43  68 114 157 170 212 270 341
#     4  10  20  32  53  76 111 144 194 240 286 333
#     4  10  19  31  47  85 114 152 184 230 286 343
#     4  10  24  40  57  78 113 157 204 248 297 343
#     4  10  22  33  57  82 124 152 190 237 298 341
#
# _framework density 25.004563999999998
#
# number of rings (size 3 to 8) (size 9 to 14) (size 15 to 20)
#    0.857    1.143    2.857    3.429    2.000    1.143 
#    0.000    0.000    0.000    0.000    0.000    0.000 
#    0.000  173.714    0.000    0.000    0.000    0.000 
#
# Total GULP energy -156125.736562 kJ/mol
# GULP energy per Si atom -5575.919163 kJ/mol
# Density = 2.494765 g / cm^3
# Si number density = 25.004564 Si / 1000 Ang^3
#
#
#
# Elastic Constant Matrix: (Units=GPa)
#
#
# Indices 1 2 3 4 5 6 
#
# 1 289.1563 71.3165 23.0035 0.0000 0.0000 0.0000
# 2 71.3165 180.4635 9.6997 0.0000 0.0000 0.0000
# 3 23.0035 9.6997 72.0698 0.0000 0.0000 0.0000
# 4 0.0000 0.0000 0.0000 26.5601 0.0000 0.0000
# 5 0.0000 0.0000 0.0000 0.0000 -21.6746 0.0000
# 6 0.0000 0.0000 0.0000 0.0000 0.0000 41.3588
#
#
#
# Elastic Compliance Matrix: (Units=1/GPa)
#
#
# Indices 1 2 3 4 5 6 
#
# 1 0.003909 -0.001488 -0.001047 0.000000 0.000000 0.000000
# 2 -0.001488 0.006148 -0.000352 0.000000 0.000000 0.000000
# 3 -0.001047 -0.000352 0.014257 0.000000 0.000000 0.000000
# 4 0.000000 0.000000 0.000000 0.037650 0.000000 0.000000
# 5 0.000000 0.000000 0.000000 0.000000 -0.046137 0.000000
# 6 0.000000 0.000000 0.000000 0.000000 0.000000 0.024179
#
#
# Mechanical properties :
#
#
# Convention : Reuss Voigt Hill
#
# Bulk Modulus (GPa) = 53.94297 83.30321 68.62309
# Shear Modulus (GPa) = 96.22419 38.42686 67.32552
#
# Velocity S-wave (km/s) = 6.21017 3.92445 5.19459
# Velocity P-wave (km/s) = 8.54644 7.34320 7.96757
#
# Compressibility (1/GPa) = 0.01853810
#
# Stress axis : x y z
#
# Youngs Moduli (GPa) = 255.83674 162.64347 70.14023
#
# Poissons Ratio (x) = 0.24208 0.07346
# Poissons Ratio (y) = 0.38078 0.02472
# Poissons Ratio (z) = 0.26793 0.05732
#
# Static dielectric constant tensor:
#      x y z
#    x 2.222200 0.000000 0.000000 
#    y 0.000000 1.552740 0.000000 
#    z 0.000000 0.000000 1.948080 
# 
# From -- ./inp_files/4672.got.cif
#   From: 2010.05.17/outbox.cif.g08.bks.cpg/sg27_3_cif.got.tgz:4672.got - 2010.06.04 01:11:05.
