data_PCOD9338763
_publ_section_title
;
Structure prediction by ZEFSAII (Michael W. Deem and Ramdas Pophale) SiO2 
 PCOD9338763
Probable space group: P C C 2
;
_chemical_formula_sum "Si O2"
_cell_formula_units_Z 30
_cell_length_a 8.106203
_cell_length_b 9.081494
_cell_length_c 17.456807
_cell_angle_alpha 90.000000
_cell_angle_beta 90.000000
_cell_angle_gamma 90.000000
_cell_volume 1285.107879
_symmetry_space_group_name_H-M "P C C 2"
_symmetry_group_IT_number 27
_symmetry_cell_setting 'orthorhombic'
loop_
_space_group_symop_operation_xyz
x,y,z
-x,-y,z
-x,y,1/2+z
x,-y,1/2+z
loop_
_atom_site_type_symbol
_atom_site_label
_atom_site_fract_x
_atom_site_fract_y
_atom_site_fract_z
Si Si1 0.717446 0.726049 0.823800
Si Si2 0.802562 0.979736 0.371163
Si Si3 0.960260 0.658429 0.224481
Si Si4 0.336546 0.574047 0.012170
Si Si5 0.345004 0.663504 0.833514
Si Si6 0.905984 0.362424 0.470748
Si Si7 0.000000 0.000000 0.163715
Si Si8 0.185236 0.865252 0.031370
O O1 0.536996 0.661462 0.809006
O O2 0.776764 0.704968 0.911805
O O3 0.875443 0.676088 0.776414
O O4 0.710572 0.901615 0.820016
O O5 0.723113 0.825668 0.350893
O O6 0.780296 0.978067 0.462987
O O7 0.000000 0.000000 0.356951
O O8 0.791010 0.621308 0.270439
O O9 0.000000 0.500000 0.181914
O O10 0.949711 0.833794 0.196397
O O11 0.500000 0.500000 0.039334
O O12 0.337867 0.590270 0.918613
O O13 0.193639 0.457691 0.032342
O O14 0.318139 0.738084 0.042814
O O15 0.000000 0.500000 0.429718
O O16 0.030528 0.238852 0.501727
O O17 0.147226 0.951840 0.107467
#
# Coordination Sequence:
#
# PCOD9338763 Si02
#       8
#     4   4   4   4   4   4   2   4
#     4  12  20  37  65  96 143 175 211 286 356 425
#     4  11  18  34  60  98 135 173 214 274 361 432
#     4  12  27  43  70 100 132 189 248 284 337 405
#     4  10  19  34  62 107 142 166 208 276 380 447
#     4  11  23  37  64 103 144 172 215 280 360 440
#     4  10  18  31  60 100 132 166 210 267 361 432
#     4  12  26  50  70  88 130 192 256 296 328 384
#     4  10  21  39  67  89 133 180 232 291 339 416
#
# _framework density 23.344342000000001
#
# number of rings (size 3 to 8) (size 9 to 14) (size 15 to 20)
#    0.000    1.067    4.667    4.000    0.000    1.600 
#    0.000    0.000    8.800    0.000    0.000    0.000 
#    0.000    0.000    0.000    0.000    0.000    0.000 
#
# Total GULP energy -167005.649419 kJ/mol
# GULP energy per Si atom -5566.854981 kJ/mol
# Density = 2.329121 g / cm^3
# Si number density = 23.344342 Si / 1000 Ang^3
#
#
#
# Elastic Constant Matrix: (Units=GPa)
#
#
# Indices 1 2 3 4 5 6 
#
# 1 146.3185 34.4467 31.4618 0.0000 0.0000 0.0000
# 2 34.4467 157.0458 29.6111 0.0000 0.0000 0.0000
# 3 31.4618 29.6111 51.1154 0.0000 0.0000 0.0000
# 4 0.0000 0.0000 0.0000 2.2405 0.0000 0.0000
# 5 0.0000 0.0000 0.0000 0.0000 11.5238 0.0000
# 6 0.0000 0.0000 0.0000 0.0000 0.0000 31.7288
#
#
#
# Elastic Compliance Matrix: (Units=1/GPa)
#
#
# Indices 1 2 3 4 5 6 
#
# 1 0.007995 -0.000927 -0.004384 0.000000 0.000000 0.000000
# 2 -0.000927 0.007256 -0.003633 0.000000 0.000000 0.000000
# 3 -0.004384 -0.003633 0.024366 0.000000 0.000000 0.000000
# 4 0.000000 0.000000 0.000000 0.446334 0.000000 0.000000
# 5 0.000000 0.000000 0.000000 0.000000 0.086777 0.000000
# 6 0.000000 0.000000 0.000000 0.000000 0.000000 0.031517
#
#
# Mechanical properties :
#
#
# Convention : Reuss Voigt Hill
#
# Bulk Modulus (GPa) = 46.01964 60.61322 53.31643
# Shear Modulus (GPa) = 7.94437 26.36261 17.15349
#
# Velocity S-wave (km/s) = 1.84676 3.36414 2.71367
# Velocity P-wave (km/s) = 4.92986 6.41180 5.71903
#
# Compressibility (1/GPa) = 0.02172985
#
# Stress axis : x y z
#
# Youngs Moduli (GPa) = 125.07268 137.81956 41.04009
#
# Poissons Ratio (x) = 0.12777 0.17992
# Poissons Ratio (y) = 0.11595 0.14909
# Poissons Ratio (z) = 0.54833 0.50065
#
# Static dielectric constant tensor:
#      x y z
#    x 1.946640 0.000000 0.000000 
#    y 0.000000 2.003180 0.000000 
#    z 0.000000 0.000000 1.956550 
# 
# From -- ./inp_files/4793.got.cif
#   From: 2010.05.17/outbox.cif.g08.bks.cpg/sg27_3_cif.got.tgz:4793.got - 2010.06.04 01:11:05.
