data_PCOD9338587
_publ_section_title
;
Structure prediction by ZEFSAII (Michael W. Deem and Ramdas Pophale) SiO2 
 PCOD9338587
Probable space group: P M C 21
;
_chemical_formula_sum "Si O2"
_cell_formula_units_Z 32
_cell_length_a 8.277551
_cell_length_b 10.907646
_cell_length_c 14.362312
_cell_angle_alpha 90.000000
_cell_angle_beta 90.000000
_cell_angle_gamma 90.000000
_cell_volume 1296.752987
_symmetry_space_group_name_H-M "P M C 21"
_symmetry_group_IT_number 26
_symmetry_cell_setting 'orthorhombic'
loop_
_space_group_symop_operation_xyz
x,y,z
-x,-y,1/2+z
-x,y,z
x,-y,1/2+z
loop_
_atom_site_type_symbol
_atom_site_label
_atom_site_fract_x
_atom_site_fract_y
_atom_site_fract_z
Si Si1 0.312475 0.698474 0.165880
Si Si2 0.810772 0.163642 0.833060
Si Si3 0.306181 0.697669 0.500137
Si Si4 0.310412 0.067530 0.445419
Si Si5 0.310037 0.210548 0.276444
Si Si6 0.809376 0.464644 0.277547
Si Si7 0.186082 0.930778 0.615232
Si Si8 0.806710 0.433123 0.491591
O O1 0.500000 0.728814 0.168888
O O2 0.220901 0.801501 0.226275
O O3 0.279504 0.570520 0.220906
O O4 0.260962 0.670850 0.060004
O O5 0.754392 0.280273 0.894455
O O6 0.713514 0.053313 0.880723
O O7 0.000000 0.140012 0.847526
O O8 0.500000 0.709109 0.506765
O O9 0.222642 0.807946 0.555480
O O10 0.249731 0.564489 0.531539
O O11 0.500000 0.086950 0.459877
O O12 0.232021 0.038428 0.544210
O O13 0.244273 0.173278 0.378149
O O14 0.500000 0.237692 0.282310
O O15 0.219547 0.328764 0.237207
O O16 0.286441 0.095312 0.207925
O O17 0.751354 0.442859 0.384177
O O18 0.000000 0.494907 0.277748
O O19 0.000000 0.939218 0.641087
O O20 0.000000 0.425261 0.492440
#
# Coordination Sequence:
#
# PCOD9338587 Si02
#       8
#     4   4   4   4   4   4   4   4
#     4  12  24  39  62  91 126 165 208 254 308 375
#     4  11  21  37  61  88 119 154 199 253 307 363
#     4  11  20  34  59  88 121 159 203 253 302 361
#     4  10  22  42  66  92 122 161 207 260 314 366
#     4  11  24  43  66  92 127 166 209 259 312 374
#     4  11  24  42  65  92 128 167 208 259 313 372
#     4  11  22  38  64  94 124 162 210 260 309 368
#     4  11  23  39  59  87 125 166 206 252 309 371
#
# _framework density 24.677019999999999
#
# number of rings (size 3 to 8) (size 9 to 14) (size 15 to 20)
#    0.000    1.000    1.250    8.250    0.000    3.500 
#    2.250    0.000    0.000    0.000    0.000    0.000 
#    0.000    0.000    0.000    0.000    0.000    0.000 
#
# Total GULP energy -179213.484903 kJ/mol
# GULP energy per Si atom -5600.421403 kJ/mol
# Density = 2.462085 g / cm^3
# Si number density = 24.677020 Si / 1000 Ang^3
#
#
#
# Elastic Constant Matrix: (Units=GPa)
#
#
# Indices 1 2 3 4 5 6 
#
# 1 74.3306 -19.1885 -12.0049 0.0000 0.0000 0.0000
# 2 -19.1885 61.0816 22.1264 0.0000 0.0000 0.0000
# 3 -12.0049 22.1264 119.1784 0.0000 0.0000 0.0000
# 4 0.0000 0.0000 0.0000 46.8145 0.0000 0.0000
# 5 0.0000 0.0000 0.0000 0.0000 31.3906 0.0000
# 6 0.0000 0.0000 0.0000 0.0000 0.0000 25.8347
#
#
#
# Elastic Compliance Matrix: (Units=1/GPa)
#
#
# Indices 1 2 3 4 5 6 
#
# 1 0.014690 0.004373 0.000668 0.000000 0.000000 0.000000
# 2 0.004373 0.018854 -0.003060 0.000000 0.000000 0.000000
# 3 0.000668 -0.003060 0.009026 0.000000 0.000000 0.000000
# 4 0.000000 0.000000 0.000000 0.021361 0.000000 0.000000
# 5 0.000000 0.000000 0.000000 0.000000 0.031857 0.000000
# 6 0.000000 0.000000 0.000000 0.000000 0.000000 0.038708
#
#
# Mechanical properties :
#
#
# Convention : Reuss Voigt Hill
#
# Bulk Modulus (GPa) = 21.49065 26.27295 23.88180
# Shear Modulus (GPa) = 34.23628 38.38513 36.31071
#
# Velocity S-wave (km/s) = 3.72879 3.94826 3.84009
# Velocity P-wave (km/s) = 5.22170 5.60846 5.41854
#
# Compressibility (1/GPa) = 0.04653187
#
# Stress axis : x y z
#
# Youngs Moduli (GPa) = 68.07286 53.03999 110.78928
#
# Poissons Ratio (x) = -0.23194 -0.07399
# Poissons Ratio (y) = -0.29768 0.33900
# Poissons Ratio (z) = -0.04546 0.16229
#
# Static dielectric constant tensor:
#      x y z
#    x 1.826010 0.000000 0.000000 
#    y 0.000000 2.039370 0.000000 
#    z 0.000000 0.000000 2.111660 
# 
# From -- ./inp_files/4276.got.cif
#   From: 2010.05.17/outbox.cif.g08.bks.cpg/sg26_3_cif.got.tgz:4276.got - 2010.06.04 01:07:29.
