data_PCOD9338200
_publ_section_title
;
Structure prediction by ZEFSAII (Michael W. Deem and Ramdas Pophale) SiO2 
 PCOD9338200
Probable space group: P M C 21
;
_chemical_formula_sum "Si O2"
_cell_formula_units_Z 32
_cell_length_a 17.571977
_cell_length_b 4.986260
_cell_length_c 19.197524
_cell_angle_alpha 90.000000
_cell_angle_beta 90.000000
_cell_angle_gamma 90.000000
_cell_volume 1682.057221
_symmetry_space_group_name_H-M "P M C 21"
_symmetry_group_IT_number 26
_symmetry_cell_setting 'orthorhombic'
loop_
_space_group_symop_operation_xyz
x,y,z
-x,-y,1/2+z
-x,y,z
x,-y,1/2+z
loop_
_atom_site_type_symbol
_atom_site_label
_atom_site_fract_x
_atom_site_fract_y
_atom_site_fract_z
Si Si1 0.291241 0.199896 0.996100
Si Si2 0.837685 0.386403 0.808283
Si Si3 0.791242 0.199894 0.661341
Si Si4 0.589802 0.875555 0.778755
Si Si5 0.813083 0.702491 0.007469
Si Si6 0.337685 0.386404 0.849157
Si Si7 0.313082 0.297511 0.149972
Si Si8 0.910198 0.875555 0.878685
O O1 0.218875 0.402072 0.001138
O O2 0.337567 0.285041 0.928407
O O3 0.257692 0.901446 0.990310
O O4 0.333326 0.236390 0.069823
O O5 0.837568 0.285039 0.729034
O O6 0.750000 0.445251 0.828720
O O7 0.886534 0.649630 0.822759
O O8 0.868326 0.148280 0.856913
O O9 0.833327 0.236388 0.587617
O O10 0.718877 0.402071 0.656303
O O11 0.757693 0.901445 0.667131
O O12 0.500000 0.915201 0.776546
O O13 0.613466 0.649632 0.834681
O O14 0.622342 0.768440 0.705406
O O15 0.631674 0.148282 0.800527
O O16 0.877659 0.768442 0.952034
O O17 0.000000 0.915204 0.880893
#
# Coordination Sequence:
#
# PCOD9338200 Si02
#       8
#     4   4   4   4   4   4   4   4
#     4  10  20  33  61  85 111 139 200 245 275 326
#     4  12  21  38  62  89 113 153 200 245 282 339
#     4  10  20  33  61  85 111 139 200 245 275 326
#     4  12  24  38  57  86 124 156 187 239 305 350
#     4  10  19  36  55  87 111 147 188 241 286 340
#     4  12  21  38  62  89 113 153 200 245 282 339
#     4  10  19  36  55  87 111 147 188 241 286 340
#     4  12  24  38  57  86 124 156 187 239 305 350
#
# _framework density 19.024325000000001
#
# number of rings (size 3 to 8) (size 9 to 14) (size 15 to 20)
#    0.000    1.000    5.000    3.000    0.000    0.000 
#    0.000    2.500    0.000    0.000    0.000    0.000 
#    0.000    0.000    0.000    0.000    0.000    0.000 
#
# Total GULP energy -178874.886503 kJ/mol
# GULP energy per Si atom -5589.840203 kJ/mol
# Density = 1.898102 g / cm^3
# Si number density = 19.024325 Si / 1000 Ang^3
#
#
#
# Elastic Constant Matrix: (Units=GPa)
#
#
# Indices 1 2 3 4 5 6 
#
# 1 52.7401 -14.4727 24.6312 0.0000 0.0000 0.0000
# 2 -14.4727 52.3586 -21.0296 0.0000 0.0000 0.0000
# 3 24.6312 -21.0296 104.5570 0.0000 0.0000 0.0000
# 4 0.0000 0.0000 0.0000 25.5164 0.0000 0.0000
# 5 0.0000 0.0000 0.0000 0.0000 19.9947 0.0000
# 6 0.0000 0.0000 0.0000 0.0000 0.0000 7.5134
#
#
#
# Elastic Compliance Matrix: (Units=1/GPa)
#
#
# Indices 1 2 3 4 5 6 
#
# 1 0.022195 0.004390 -0.004346 0.000000 0.000000 0.000000
# 2 0.004390 0.021646 0.003320 0.000000 0.000000 0.000000
# 3 -0.004346 0.003320 0.011256 0.000000 0.000000 0.000000
# 4 0.000000 0.000000 0.000000 0.039191 0.000000 0.000000
# 5 0.000000 0.000000 0.000000 0.000000 0.050013 0.000000
# 6 0.000000 0.000000 0.000000 0.000000 0.000000 0.133095
#
#
# Mechanical properties :
#
#
# Convention : Reuss Voigt Hill
#
# Bulk Modulus (GPa) = 16.17521 20.87929 18.52725
# Shear Modulus (GPa) = 17.16585 25.30669 21.23627
#
# Velocity S-wave (km/s) = 3.00711 3.65119 3.34469
# Velocity P-wave (km/s) = 4.53627 5.36412 4.96747
#
# Compressibility (1/GPa) = 0.06182299
#
# Stress axis : x y z
#
# Youngs Moduli (GPa) = 45.05509 46.19859 88.84488
#
# Poissons Ratio (x) = -0.20279 0.38610
# Poissons Ratio (y) = -0.19777 -0.29492
# Poissons Ratio (z) = 0.19580 -0.15336
#
# Static dielectric constant tensor:
#      x y z
#    x 1.613870 0.000000 0.000000 
#    y 0.000000 1.659510 0.000000 
#    z 0.000000 0.000000 1.704280 
# 
# From -- ./inp_files/5257.got.cif
#   From: 2010.05.17/outbox.cif.g08.bks.cpg/sg26_3_cif.got.tgz:5257.got - 2010.06.04 01:07:29.
