data_PCOD9338606
_publ_section_title
;
Structure prediction by ZEFSAII (Michael W. Deem and Ramdas Pophale) SiO2 
 PCOD9338606
Probable space group: P M C 21
;
_chemical_formula_sum "Si O2"
_cell_formula_units_Z 16
_cell_length_a 11.922326
_cell_length_b 4.935790
_cell_length_c 9.517539
_cell_angle_alpha 90.000000
_cell_angle_beta 90.000000
_cell_angle_gamma 90.000000
_cell_volume 560.070027
_symmetry_space_group_name_H-M "P M C 21"
_symmetry_group_IT_number 26
_symmetry_cell_setting 'orthorhombic'
loop_
_space_group_symop_operation_xyz
x,y,z
-x,-y,1/2+z
-x,y,z
x,-y,1/2+z
loop_
_atom_site_type_symbol
_atom_site_label
_atom_site_fract_x
_atom_site_fract_y
_atom_site_fract_z
Si Si1 0.689930 0.732214 0.196220
Si Si2 0.500000 0.944155 0.852536
Si Si3 0.126587 0.009361 0.007335
Si Si4 0.500000 0.562671 0.532380
Si Si5 0.123936 0.635350 0.756097
O O1 0.610924 0.947611 0.274550
O O2 0.768844 0.866807 0.080601
O O3 0.608083 0.523894 0.118540
O O4 0.774040 0.559692 0.293585
O O5 0.500000 0.123966 0.994419
O O6 0.500000 0.631135 0.894766
O O7 0.000000 0.914433 0.048166
O O8 0.129614 0.297134 0.089390
O O9 0.133177 0.913684 0.845430
O O10 0.000000 0.521327 0.788000
#
# Coordination Sequence:
#
# PCOD9338606 Si02
#       5
#     4   2   4   2   4
#     4  11  25  42  75 100 149 199 255 315 392 457
#     4  11  28  47  70 107 146 194 256 313 383 453
#     4  10  23  42  71 109 150 198 255 317 386 464
#     4  11  28  47  72 107 146 194 256 317 381 453
#     4  10  23  44  71 111 154 204 256 316 387 464
#
# _framework density 28.567855000000002
#
# number of rings (size 3 to 8) (size 9 to 14) (size 15 to 20)
#    0.000    1.500    0.000    2.250   10.500    4.000 
#    0.000    5.000    0.000    0.000    0.000    0.000 
#    0.000    0.000    0.000    0.000    0.000    0.000 
#
# Total GULP energy -89733.925705 kJ/mol
# GULP energy per Si atom -5608.370357 kJ/mol
# Density = 2.850283 g / cm^3
# Si number density = 28.567855 Si / 1000 Ang^3
#
#
#
# Elastic Constant Matrix: (Units=GPa)
#
#
# Indices 1 2 3 4 5 6 
#
# 1 215.7654 35.6438 47.5557 0.0000 0.0000 0.0000
# 2 35.6438 89.4112 18.9381 0.0000 0.0000 0.0000
# 3 47.5557 18.9381 124.5427 0.0000 0.0000 0.0000
# 4 0.0000 0.0000 0.0000 50.7135 0.0000 0.0000
# 5 0.0000 0.0000 0.0000 0.0000 36.9584 0.0000
# 6 0.0000 0.0000 0.0000 0.0000 0.0000 21.6615
#
#
#
# Elastic Compliance Matrix: (Units=1/GPa)
#
#
# Indices 1 2 3 4 5 6 
#
# 1 0.005311 -0.001744 -0.001763 0.000000 0.000000 0.000000
# 2 -0.001744 0.012129 -0.001178 0.000000 0.000000 0.000000
# 3 -0.001763 -0.001178 0.008882 0.000000 0.000000 0.000000
# 4 0.000000 0.000000 0.000000 0.019719 0.000000 0.000000
# 5 0.000000 0.000000 0.000000 0.000000 0.027057 0.000000
# 6 0.000000 0.000000 0.000000 0.000000 0.000000 0.046165
#
#
# Mechanical properties :
#
#
# Convention : Reuss Voigt Hill
#
# Bulk Modulus (GPa) = 58.99170 70.44384 64.71777
# Shear Modulus (GPa) = 37.23448 43.70548 40.46998
#
# Velocity S-wave (km/s) = 3.61414 3.91562 3.76789
# Velocity P-wave (km/s) = 6.17337 6.71972 6.45233
#
# Compressibility (1/GPa) = 0.01695154
#
# Stress axis : x y z
#
# Youngs Moduli (GPa) = 188.27746 82.44623 112.59077
#
# Poissons Ratio (x) = 0.14378 0.19849
# Poissons Ratio (y) = 0.32835 0.13268
# Poissons Ratio (z) = 0.33191 0.09716
#
# Static dielectric constant tensor:
#      x y z
#    x 2.130330 0.000000 0.000000 
#    y 0.000000 2.201700 0.000000 
#    z 0.000000 0.000000 2.252140 
# 
# From -- ./inp_files/3189.got.cif
#   From: 2010.05.17/outbox.cif.g08.bks.cpg/sg26_2_cif.got.tgz:3189.got - 2010.06.04 01:07:29.
