data_PCOD9338641
_publ_section_title
;
Structure prediction by ZEFSAII (Michael W. Deem and Ramdas Pophale) SiO2 
 PCOD9338641
Probable space group: P M C 21
;
_chemical_formula_sum "Si O2"
_cell_formula_units_Z 16
_cell_length_a 8.530012
_cell_length_b 11.523834
_cell_length_c 7.670539
_cell_angle_alpha 90.000000
_cell_angle_beta 90.000000
_cell_angle_gamma 90.000000
_cell_volume 754.002035
_symmetry_space_group_name_H-M "P M C 21"
_symmetry_group_IT_number 26
_symmetry_cell_setting 'orthorhombic'
loop_
_space_group_symop_operation_xyz
x,y,z
-x,-y,1/2+z
-x,y,z
x,-y,1/2+z
loop_
_atom_site_type_symbol
_atom_site_label
_atom_site_fract_x
_atom_site_fract_y
_atom_site_fract_z
Si Si1 0.174367 0.720533 0.247760
Si Si2 0.244721 0.839812 0.601817
Si Si3 0.825543 0.067701 0.478816
Si Si4 0.500000 0.602558 0.145603
Si Si5 0.500000 0.337078 0.238210
O O1 0.165717 0.774788 0.440027
O O2 0.335067 0.646283 0.230435
O O3 0.000000 0.666667 0.210559
O O4 0.194987 0.826381 0.111351
O O5 0.174707 0.885702 0.783332
O O6 0.358455 0.741266 0.673409
O O7 0.294731 0.962915 0.513440
O O8 0.000000 0.017181 0.510172
O O9 0.500000 0.463760 0.153894
O O10 0.500000 0.646128 0.946141
#
# Coordination Sequence:
#
# PCOD9338641 Si02
#       5
#     4   4   4   2   2
#     4  11  24  44  75 107 142 191 239 295 364 432
#     4  12  23  42  70 106 147 190 232 291 366 429
#     4  11  22  39  67 105 146 183 230 292 359 433
#     4  12  26  55  72 102 148 189 252 312 357 416
#     4  12  28  47  74 102 142 197 246 310 359 426
#
# _framework density 21.220103000000002
#
# number of rings (size 3 to 8) (size 9 to 14) (size 15 to 20)
#    0.000    0.500    5.000    4.500    0.000    2.000 
#    0.000    7.500    0.000    0.000    0.000    0.000 
#    0.000    0.000    0.000    0.000    0.000    0.000 
#
# Total GULP energy -89138.063241 kJ/mol
# GULP energy per Si atom -5571.128953 kJ/mol
# Density = 2.117181 g / cm^3
# Si number density = 21.220103 Si / 1000 Ang^3
#
#
#
# Elastic Constant Matrix: (Units=GPa)
#
#
# Indices 1 2 3 4 5 6 
#
# 1 129.9456 89.2239 50.9998 0.0000 0.0000 0.0000
# 2 89.2239 139.0979 48.0797 0.0000 0.0000 0.0000
# 3 50.9998 48.0797 169.0293 0.0000 0.0000 0.0000
# 4 0.0000 0.0000 0.0000 41.0302 0.0000 0.0000
# 5 0.0000 0.0000 0.0000 0.0000 17.1180 0.0000
# 6 0.0000 0.0000 0.0000 0.0000 0.0000 -8.7482
#
#
#
# Elastic Compliance Matrix: (Units=1/GPa)
#
#
# Indices 1 2 3 4 5 6 
#
# 1 0.014276 -0.008505 -0.001888 0.000000 0.000000 0.000000
# 2 -0.008505 0.013040 -0.001143 0.000000 0.000000 0.000000
# 3 -0.001888 -0.001143 0.006811 0.000000 0.000000 0.000000
# 4 0.000000 0.000000 0.000000 0.024372 0.000000 0.000000
# 5 0.000000 0.000000 0.000000 0.000000 0.058418 0.000000
# 6 0.000000 0.000000 0.000000 0.000000 0.000000 -0.114310
#
#
# Mechanical properties :
#
#
# Convention : Reuss Voigt Hill
#
# Bulk Modulus (GPa) = 90.45900 90.51996 90.48948
# Shear Modulus (GPa) = 170.27585 26.53131 98.40358
#
# Velocity S-wave (km/s) = 8.96755 3.53978 6.81715
# Velocity P-wave (km/s) = 12.24516 7.71084 10.23233
#
# Compressibility (1/GPa) = 0.01105473
#
# Stress axis : x y z
#
# Youngs Moduli (GPa) = 70.04680 76.68958 146.82132
#
# Poissons Ratio (x) = 0.65222 0.27724
# Poissons Ratio (y) = 0.59573 0.16782
# Poissons Ratio (z) = 0.13227 0.08766
#
# Static dielectric constant tensor:
#      x y z
#    x 1.781000 0.000000 0.000000 
#    y 0.000000 1.722370 0.000000 
#    z 0.000000 0.000000 1.753420 
# 
# From -- ./inp_files/1258.got.cif
#   From: 2010.05.17/outbox.cif.g08.bks.cpg/sg26_1_cif.got.tgz:1258.got - 2010.06.04 01:07:29.
