data_PCOD9338093
_publ_section_title
;
Structure prediction by ZEFSAII (Michael W. Deem and Ramdas Pophale) SiO2 
 PCOD9338093
Probable space group: P M C 21
;
_chemical_formula_sum "Si O2"
_cell_formula_units_Z 32
_cell_length_a 7.856874
_cell_length_b 12.730239
_cell_length_c 14.446932
_cell_angle_alpha 90.000000
_cell_angle_beta 90.000000
_cell_angle_gamma 90.000000
_cell_volume 1444.980460
_symmetry_space_group_name_H-M "P M C 21"
_symmetry_group_IT_number 26
_symmetry_cell_setting 'orthorhombic'
loop_
_space_group_symop_operation_xyz
x,y,z
-x,-y,1/2+z
-x,y,z
x,-y,1/2+z
loop_
_atom_site_type_symbol
_atom_site_label
_atom_site_fract_x
_atom_site_fract_y
_atom_site_fract_z
Si Si1 0.296079 0.860506 0.683320
Si Si2 0.203776 0.906887 0.173528
Si Si3 0.702811 0.624796 0.400034
Si Si4 0.801630 0.074191 0.455754
Si Si5 0.706744 0.420648 0.503123
Si Si6 0.202268 0.672764 0.203142
Si Si7 0.706658 0.153417 0.970688
Si Si8 0.692453 0.265541 0.346256
O O1 0.500000 0.848756 0.684020
O O2 0.238164 0.846845 0.578056
O O3 0.224764 0.769456 0.749784
O O4 0.260409 0.980679 0.713316
O O5 0.271324 0.793657 0.207442
O O6 0.000000 0.904909 0.181829
O O7 0.245461 0.913672 0.063882
O O8 0.500000 0.628365 0.413003
O O9 0.765271 0.535840 0.470618
O O10 0.735152 0.606802 0.291402
O O11 0.769403 0.740519 0.423686
O O12 0.775956 0.953716 0.428225
O O13 0.000000 0.102766 0.445001
O O14 0.689788 0.154214 0.398600
O O15 0.500000 0.417936 0.502468
O O16 0.757731 0.379042 0.603924
O O17 0.770506 0.344342 0.420693
O O18 0.000000 0.679525 0.210210
O O19 0.500000 0.148644 0.967512
O O20 0.500000 0.304174 0.328066
#
# Coordination Sequence:
#
# PCOD9338093 Si02
#       8
#     4   4   4   4   4   4   4   4
#     4   9  19  33  53  82 116 154 190 236 292 348
#     4   9  19  35  53  79 114 152 192 234 283 343
#     4  10  23  41  63  90 117 155 203 248 297 352
#     4  10  19  33  54  80 114 153 191 236 288 346
#     4  10  22  41  64  88 118 157 202 250 295 349
#     4  11  23  40  61  87 119 155 196 245 298 354
#     4   9  19  37  57  82 117 152 191 240 293 346
#     4  10  20  34  55  86 117 150 193 239 292 346
#
# _framework density 22.145629
#
# number of rings (size 3 to 8) (size 9 to 14) (size 15 to 20)
#    0.000    2.250    1.250    0.750    1.750    4.000 
#    0.000    3.750    0.000    3.000    0.000    0.000 
#    0.000    0.000    0.000    0.000    0.000    0.000 
#
# Total GULP energy -178610.454008 kJ/mol
# GULP energy per Si atom -5581.576688 kJ/mol
# Density = 2.209522 g / cm^3
# Si number density = 22.145629 Si / 1000 Ang^3
#
#
#
# Elastic Constant Matrix: (Units=GPa)
#
#
# Indices 1 2 3 4 5 6 
#
# 1 18.6664 -1.8211 -6.6131 0.0000 0.0000 0.0000
# 2 -1.8211 85.9268 19.6890 0.0000 0.0000 0.0000
# 3 -6.6131 19.6890 73.2054 0.0000 0.0000 0.0000
# 4 0.0000 0.0000 0.0000 29.5591 0.0000 0.0000
# 5 0.0000 0.0000 0.0000 0.0000 5.8022 0.0000
# 6 0.0000 0.0000 0.0000 0.0000 0.0000 57.4329
#
#
#
# Elastic Compliance Matrix: (Units=1/GPa)
#
#
# Indices 1 2 3 4 5 6 
#
# 1 0.055343 0.000029 0.004992 0.000000 0.000000 0.000000
# 2 0.000029 0.012402 -0.003333 0.000000 0.000000 0.000000
# 3 0.004992 -0.003333 0.015008 0.000000 0.000000 0.000000
# 4 0.000000 0.000000 0.000000 0.033831 0.000000 0.000000
# 5 0.000000 0.000000 0.000000 0.000000 0.172349 0.000000
# 6 0.000000 0.000000 0.000000 0.000000 0.000000 0.017412
#
#
# Mechanical properties :
#
#
# Convention : Reuss Voigt Hill
#
# Bulk Modulus (GPa) = 11.61051 22.25645 16.93348
# Shear Modulus (GPa) = 15.07483 29.66176 22.36830
#
# Velocity S-wave (km/s) = 2.61188 3.66375 3.18158
# Velocity P-wave (km/s) = 3.78815 5.28860 4.59996
#
# Compressibility (1/GPa) = 0.08612885
#
# Stress axis : x y z
#
# Youngs Moduli (GPa) = 18.06898 80.63121 66.63312
#
# Poissons Ratio (x) = -0.00235 -0.33261
# Poissons Ratio (y) = -0.00053 0.22209
# Poissons Ratio (z) = -0.09019 0.26874
#
# Static dielectric constant tensor:
#      x y z
#    x 1.811170 0.000000 0.000000 
#    y 0.000000 1.823550 0.000000 
#    z 0.000000 0.000000 1.838930 
# 
# From -- ./inp_files/4296.got.cif
#   From: 2010.05.17/outbox.cif.g08.bks.cpg/sg26_3_cif.got.tgz:4296.got - 2010.06.04 01:07:29.
