data_PCOD9338651
_publ_section_title
;
Structure prediction by ZEFSAII (Michael W. Deem and Ramdas Pophale) SiO2 
 PCOD9338651
Probable space group: P M C 21
;
_chemical_formula_sum "Si O2"
_cell_formula_units_Z 24
_cell_length_a 8.673409
_cell_length_b 10.176829
_cell_length_c 14.196146
_cell_angle_alpha 90.000000
_cell_angle_beta 90.000000
_cell_angle_gamma 90.000000
_cell_volume 1253.062579
_symmetry_space_group_name_H-M "P M C 21"
_symmetry_group_IT_number 26
_symmetry_cell_setting 'orthorhombic'
loop_
_space_group_symop_operation_xyz
x,y,z
-x,-y,1/2+z
-x,y,z
x,-y,1/2+z
loop_
_atom_site_type_symbol
_atom_site_label
_atom_site_fract_x
_atom_site_fract_y
_atom_site_fract_z
Si Si1 0.815296 0.775638 0.833510
Si Si2 0.319001 0.480822 0.850820
Si Si3 0.679769 0.590603 0.138390
Si Si4 0.179860 0.650254 0.532270
Si Si5 0.815895 0.150348 0.544380
Si Si6 0.317490 0.891224 0.640470
O O1 0.746638 0.628478 0.841080
O O2 0.747388 0.849094 0.742678
O O3 0.000000 0.765983 0.823392
O O4 0.780866 0.848413 0.932415
O O5 0.500000 0.489628 0.875441
O O6 0.305132 0.409130 0.750677
O O7 0.229758 0.400233 0.930017
O O8 0.500000 0.563772 0.115985
O O9 0.783100 0.472466 0.099691
O O10 0.733171 0.724237 0.090238
O O11 0.277599 0.772044 0.570022
O O12 0.000000 0.683993 0.535376
O O13 0.000000 0.165221 0.554016
O O14 0.760425 0.020846 0.597976
O O15 0.500000 0.909839 0.647150
#
# Coordination Sequence:
#
# PCOD9338651 Si02
#       6
#     4   4   4   4   4   4
#     4  11  23  41  67  96 129 170 216 265 330 393
#     4  11  23  39  65  98 133 171 218 268 324 383
#     4  11  23  40  65  96 129 168 214 266 320 382
#     4  12  24  40  65  95 129 169 217 270 321 380
#     4  11  25  44  67  96 131 172 215 267 327 390
#     4  12  26  44  67  95 131 174 218 270 328 390
#
# _framework density 19.153075000000001
#
# number of rings (size 3 to 8) (size 9 to 14) (size 15 to 20)
#    0.000    0.667    3.333    5.000    0.000    5.333 
#    0.000    0.000    0.000    0.000    0.000    0.000 
#    0.000    0.000    0.000    0.000    0.000    0.000 
#
# Total GULP energy -134282.691478 kJ/mol
# GULP energy per Si atom -5595.112145 kJ/mol
# Density = 1.910948 g / cm^3
# Si number density = 19.153075 Si / 1000 Ang^3
#
#
#
# Elastic Constant Matrix: (Units=GPa)
#
#
# Indices 1 2 3 4 5 6 
#
# 1 75.4726 -13.1400 30.5733 0.0000 0.0000 0.0000
# 2 -13.1400 6.2345 -34.8468 0.0000 0.0000 0.0000
# 3 30.5733 -34.8468 59.9179 0.0000 0.0000 0.0000
# 4 0.0000 0.0000 0.0000 28.2451 0.0000 0.0000
# 5 0.0000 0.0000 0.0000 0.0000 311.3950 0.0000
# 6 0.0000 0.0000 0.0000 0.0000 0.0000 37.2852
#
#
#
# Elastic Compliance Matrix: (Units=1/GPa)
#
#
# Indices 1 2 3 4 5 6 
#
# 1 0.016285 0.005386 -0.005177 0.000000 0.000000 0.000000
# 2 0.005386 -0.069486 -0.043160 0.000000 0.000000 0.000000
# 3 -0.005177 -0.043160 -0.005770 0.000000 0.000000 0.000000
# 4 0.000000 0.000000 0.000000 0.035404 0.000000 0.000000
# 5 0.000000 0.000000 0.000000 0.000000 0.003211 0.000000
# 6 0.000000 0.000000 0.000000 0.000000 0.000000 0.026820
#
#
# Mechanical properties :
#
#
# Convention : Reuss Voigt Hill
#
# Bulk Modulus (GPa) = -6.90258 11.86644 2.48193
# Shear Modulus (GPa) = 113.44190 85.98762 99.71476
#
# Velocity S-wave (km/s) = 7.70439 6.70764 7.22323
# Velocity P-wave (km/s) = 8.69090 8.13627 8.41816
#
# Compressibility (1/GPa) = -0.14487344
#
# Stress axis : x y z
#
# Youngs Moduli (GPa) = 61.40729 -14.39129 -173.31942
#
# Poissons Ratio (x) = 0.07751 -0.89728
# Poissons Ratio (y) = -0.33073 -7.48045
# Poissons Ratio (z) = 0.31791 -0.62113
#
# Static dielectric constant tensor:
#      x y z
#    x 1.614300 0.000000 0.000000 
#    y 0.000000 1.629630 0.000000 
#    z 0.000000 0.000000 1.688190 
# 
# From -- ./inp_files/3952.got.cif
#   From: 2010.05.17/outbox.cif.g08.bks.cpg/sg26_2_cif.got.tgz:3952.got - 2010.06.04 01:07:29.
