data_PCOD9338895
_publ_section_title
;
Structure prediction by ZEFSAII (Michael W. Deem and Ramdas Pophale) SiO2 
 PCOD9338895
Probable space group: P C C 2
;
_chemical_formula_sum "Si O2"
_cell_formula_units_Z 24
_cell_length_a 5.281945
_cell_length_b 8.870675
_cell_length_c 26.445410
_cell_angle_alpha 90.000000
_cell_angle_beta 90.000000
_cell_angle_gamma 90.000000
_cell_volume 1239.084280
_symmetry_space_group_name_H-M "P C C 2"
_symmetry_group_IT_number 27
_symmetry_cell_setting 'orthorhombic'
loop_
_space_group_symop_operation_xyz
x,y,z
-x,-y,z
-x,y,1/2+z
x,-y,1/2+z
loop_
_atom_site_type_symbol
_atom_site_label
_atom_site_fract_x
_atom_site_fract_y
_atom_site_fract_z
Si Si1 0.500000 0.000000 0.214291
Si Si2 0.500000 0.000000 0.407469
Si Si3 0.793670 0.726465 0.941153
Si Si4 0.177990 0.243932 0.355494
Si Si5 0.732096 0.094538 0.616481
Si Si6 0.500000 0.500000 0.367770
Si Si7 0.756550 0.400491 0.553955
Si Si8 0.000000 0.000000 0.781916
O O1 0.385829 0.118389 0.172912
O O2 0.253989 0.977420 0.248885
O O3 0.689130 0.102247 0.440350
O O4 0.379244 0.118027 0.369480
O O5 0.629490 0.619614 0.904783
O O6 0.054180 0.725873 0.910337
O O7 0.792784 0.657538 0.996389
O O8 0.299002 0.400008 0.337137
O O9 0.008646 0.151734 0.316308
O O10 0.757140 0.252185 0.588532
O O11 0.500000 0.000000 0.591053
O O12 0.000000 0.000000 0.617968
O O13 0.500000 0.500000 0.557503
O O14 0.000000 0.500000 0.567138
#
# Coordination Sequence:
#
# PCOD9338895 Si02
#       8
#     2   2   4   4   4   2   4   2
#     4  10  23  43  74  96 122 166 221 299 342 386
#     4  10  21  35  58  86 134 168 229 261 310 356
#     4  11  22  39  58  92 136 182 214 263 313 396
#     4  11  22  38  60  97 126 181 214 276 311 400
#     4  10  22  46  71  99 125 171 219 284 340 397
#     4  10  22  38  58  82 148 174 214 254 326 372
#     4  12  26  42  68 102 137 179 219 267 342 408
#     4  12  22  40  72  98 128 164 232 272 344 388
#
# _framework density 19.369143000000001
#
# number of rings (size 3 to 8) (size 9 to 14) (size 15 to 20)
#    0.500    0.667    3.333    3.000    5.833    1.333 
#    0.000    0.000    1.833    4.000    0.000    0.000 
#    0.000    0.000    0.000    0.000    0.000    0.000 
#
# Total GULP energy -133629.751807 kJ/mol
# GULP energy per Si atom -5567.906325 kJ/mol
# Density = 1.932506 g / cm^3
# Si number density = 19.369143 Si / 1000 Ang^3
#
#
#
# Elastic Constant Matrix: (Units=GPa)
#
#
# Indices 1 2 3 4 5 6 
#
# 1 133.8204 63.3083 44.2069 0.0000 0.0000 0.0000
# 2 63.3083 135.0099 46.3993 0.0000 0.0000 0.0000
# 3 44.2069 46.3993 86.8139 0.0000 0.0000 0.0000
# 4 0.0000 0.0000 0.0000 4.2797 0.0000 0.0000
# 5 0.0000 0.0000 0.0000 0.0000 20.7557 0.0000
# 6 0.0000 0.0000 0.0000 0.0000 0.0000 37.1826
#
#
#
# Elastic Compliance Matrix: (Units=1/GPa)
#
#
# Indices 1 2 3 4 5 6 
#
# 1 0.010307 -0.003711 -0.003265 0.000000 0.000000 0.000000
# 2 -0.003711 0.010410 -0.003674 0.000000 0.000000 0.000000
# 3 -0.003265 -0.003674 0.015145 0.000000 0.000000 0.000000
# 4 0.000000 0.000000 0.000000 0.233660 0.000000 0.000000
# 5 0.000000 0.000000 0.000000 0.000000 0.048179 0.000000
# 6 0.000000 0.000000 0.000000 0.000000 0.000000 0.026894
#
#
# Mechanical properties :
#
#
# Convention : Reuss Voigt Hill
#
# Bulk Modulus (GPa) = 68.67304 73.71923 71.19614
# Shear Modulus (GPa) = 13.48619 25.89224 19.68922
#
# Velocity S-wave (km/s) = 2.64156 3.66016 3.19176
# Velocity P-wave (km/s) = 6.69594 7.48366 7.10073
#
# Compressibility (1/GPa) = 0.01456176
#
# Stress axis : x y z
#
# Youngs Moduli (GPa) = 97.02255 96.06487 66.02792
#
# Poissons Ratio (x) = 0.35649 0.21558
# Poissons Ratio (y) = 0.36005 0.24258
# Poissons Ratio (z) = 0.31678 0.35294
#
# Static dielectric constant tensor:
#      x y z
#    x 1.968070 0.000000 0.000000 
#    y 0.000000 1.691880 0.000000 
#    z 0.000000 0.000000 1.688620 
# 
# From -- ./inp_files/5002.got.cif
#   From: 2010.05.17/outbox.cif.g08.bks.cpg/sg27_3_cif.got.tgz:5002.got - 2010.06.04 01:11:05.
