data_PCOD9338813
_publ_section_title
;
Structure prediction by ZEFSAII (Michael W. Deem and Ramdas Pophale) SiO2 
 PCOD9338813
Probable space group: P C C 2
;
_chemical_formula_sum "Si O2"
_cell_formula_units_Z 32
_cell_length_a 7.947661
_cell_length_b 11.824402
_cell_length_c 15.165945
_cell_angle_alpha 90.000000
_cell_angle_beta 90.000000
_cell_angle_gamma 90.000000
_cell_volume 1425.239983
_symmetry_space_group_name_H-M "P C C 2"
_symmetry_group_IT_number 27
_symmetry_cell_setting 'orthorhombic'
loop_
_space_group_symop_operation_xyz
x,y,z
-x,-y,z
-x,y,1/2+z
x,-y,1/2+z
loop_
_atom_site_type_symbol
_atom_site_label
_atom_site_fract_x
_atom_site_fract_y
_atom_site_fract_z
Si Si1 0.781341 0.404843 0.123900
Si Si2 0.837587 0.074792 0.036914
Si Si3 0.799045 0.469877 0.456427
Si Si4 0.199349 0.992832 0.351840
Si Si5 0.335042 0.171203 0.706197
Si Si6 0.270028 0.201527 0.225916
Si Si7 0.922187 0.726188 0.056361
Si Si8 0.189585 0.551198 0.775519
O O1 0.731834 0.293689 0.177745
O O2 0.730308 0.507782 0.185735
O O3 0.977406 0.374379 0.105863
O O4 0.720949 0.443650 0.027438
O O5 0.724282 0.093520 0.123387
O O6 0.931172 0.195289 0.014635
O O7 0.743121 0.020068 0.952462
O O8 0.000000 0.000000 0.060474
O O9 0.801404 0.340127 0.489194
O O10 0.728219 0.493958 0.360642
O O11 0.000000 0.500000 0.449356
O O12 0.233858 0.095324 0.286500
O O13 0.264713 0.883136 0.297617
O O14 0.000000 0.000000 0.363176
O O15 0.532457 0.190536 0.710628
O O16 0.176368 0.206228 0.131639
O O17 0.208214 0.314507 0.276534
O O18 0.000000 0.500000 0.771926
#
# Coordination Sequence:
#
# PCOD9338813 Si02
#       8
#     4   4   4   4   4   4   4   4
#     4  10  19  40  65  91 135 181 229 278 334 409
#     4  10  23  43  73 100 130 177 242 293 354 418
#     4   9  19  33  60  98 129 165 231 283 339 386
#     4  11  25  45  72 100 129 176 239 301 344 418
#     4  11  25  44  69  98 143 187 222 288 356 433
#     4  12  24  41  68 100 142 180 230 281 364 414
#     4  10  19  37  65 100 130 176 235 287 336 414
#     4  11  21  35  67 102 133 183 223 289 338 407
#
# _framework density 22.452361
#
# number of rings (size 3 to 8) (size 9 to 14) (size 15 to 20)
#    0.000    1.500    2.500    3.375    7.000    1.500 
#    0.000    8.750    2.750    0.000    0.000    0.000 
#    0.000    0.000    0.000    0.000    0.000    0.000 
#
# Total GULP energy -178430.384394 kJ/mol
# GULP energy per Si atom -5575.949512 kJ/mol
# Density = 2.240126 g / cm^3
# Si number density = 22.452361 Si / 1000 Ang^3
#
#
#
# Elastic Constant Matrix: (Units=GPa)
#
#
# Indices 1 2 3 4 5 6 
#
# 1 45.9342 4.9533 10.2053 0.0000 0.0000 0.0000
# 2 4.9533 72.7511 7.7103 0.0000 0.0000 0.0000
# 3 10.2053 7.7103 100.1961 0.0000 0.0000 0.0000
# 4 0.0000 0.0000 0.0000 26.8439 0.0000 0.0000
# 5 0.0000 0.0000 0.0000 0.0000 -1.3553 0.0000
# 6 0.0000 0.0000 0.0000 0.0000 0.0000 1.9708
#
#
#
# Elastic Compliance Matrix: (Units=1/GPa)
#
#
# Indices 1 2 3 4 5 6 
#
# 1 0.022394 -0.001294 -0.002181 0.000000 0.000000 0.000000
# 2 -0.001294 0.013933 -0.000940 0.000000 0.000000 0.000000
# 3 -0.002181 -0.000940 0.010275 0.000000 0.000000 0.000000
# 4 0.000000 0.000000 0.000000 0.037252 0.000000 0.000000
# 5 0.000000 0.000000 0.000000 0.000000 -0.737853 0.000000
# 6 0.000000 0.000000 0.000000 0.000000 0.000000 0.507406
#
#
# Mechanical properties :
#
#
# Convention : Reuss Voigt Hill
#
# Bulk Modulus (GPa) = 26.47477 29.40215 27.93846
# Shear Modulus (GPa) = -39.94550 18.55940 -10.69305
#
# Velocity S-wave (km/s) = -4.22254 2.87821 -2.18469
# Velocity P-wave (km/s) = 3.45775 4.91622 2.47115
#
# Compressibility (1/GPa) = 0.03777182
#
# Stress axis : x y z
#
# Youngs Moduli (GPa) = 44.65403 71.77086 97.32379
#
# Poissons Ratio (x) = 0.09284 0.21230
# Poissons Ratio (y) = 0.05776 0.09153
# Poissons Ratio (z) = 0.09741 0.06750
#
# Static dielectric constant tensor:
#      x y z
#    x 1.711730 0.000000 0.000000 
#    y 0.000000 1.864010 0.000000 
#    z 0.000000 0.000000 2.018330 
# 
# From -- ./inp_files/3452.got.cif
#   From: 2010.05.17/outbox.cif.g08.bks.cpg/sg27_2_cif.got.tgz:3452.got - 2010.06.04 01:11:05.
