data_PCOD9338685
_publ_section_title
;
Structure prediction by ZEFSAII (Michael W. Deem and Ramdas Pophale) SiO2 
 PCOD9338685
Probable space group: P M C 21
;
_chemical_formula_sum "Si O2"
_cell_formula_units_Z 32
_cell_length_a 9.000000
_cell_length_b 12.000000
_cell_length_c 15.000000
_cell_angle_alpha 90.000000
_cell_angle_beta 90.000000
_cell_angle_gamma 90.000000
_cell_volume 1620.000000
_symmetry_space_group_name_H-M "P M C 21"
_symmetry_group_IT_number 26
_symmetry_cell_setting 'orthorhombic'
loop_
_space_group_symop_operation_xyz
x,y,z
-x,-y,1/2+z
-x,y,z
x,-y,1/2+z
loop_
_atom_site_type_symbol
_atom_site_label
_atom_site_fract_x
_atom_site_fract_y
_atom_site_fract_z
Si Si1 0.180094 0.675954 0.227920
Si Si2 0.333544 0.044803 0.503857
Si Si3 0.181944 0.386606 0.917246
Si Si4 0.823618 0.174795 0.019931
Si Si5 0.172437 0.424409 0.541907
Si Si6 0.327658 0.087790 0.714874
Si Si7 0.831699 0.774187 0.902158
Si Si8 0.823960 0.144359 0.218516
O O1 0.222818 0.602164 0.313797
O O2 0.234349 0.624853 0.133904
O O3 0.242792 0.800189 0.241075
O O4 0.000000 0.684597 0.224493
O O5 0.500000 0.003994 0.489594
O O6 0.319795 0.082195 0.606685
O O7 0.291533 0.145479 0.441267
O O8 0.219284 0.946496 0.487626
O O9 0.000000 0.394876 0.918197
O O10 0.231017 0.266529 0.951932
O O11 0.240898 0.470279 0.992270
O O12 0.767093 0.183378 0.121944
O O13 0.000000 0.187948 0.023758
O O14 0.171526 0.333618 0.463385
O O15 0.000000 0.452126 0.563500
O O16 0.500000 0.091849 0.741363
O O17 0.253674 0.971775 0.745054
O O18 0.807198 0.765491 0.796647
O O19 0.000000 0.821531 0.912993
O O20 0.000000 0.120977 0.208942
#
# Coordination Sequence:
#
# PCOD9338685 Si02
#       8
#     4   4   4   4   4   4   4   4
#     4  10  19  33  55  79 105 140 177 220 268 319
#     4  10  20  33  51  76 107 141 176 218 269 319
#     4   9  19  33  53  82 108 137 180 223 266 316
#     4   9  18  34  52  74 107 140 176 222 268 315
#     4   9  18  33  53  79 109 138 175 224 269 312
#     4  10  20  34  52  76 108 142 178 222 268 319
#     4  10  19  32  52  78 107 141 180 217 262 319
#     4   9  19  32  50  76 107 145 180 216 266 321
#
# _framework density 19.753086
#
# number of rings (size 3 to 8) (size 9 to 14) (size 15 to 20)
#    0.000    2.500    1.250    0.750    1.750    2.500 
#    0.000    5.000    0.000    3.000    0.000    1.750 
#    0.000    0.000    0.000    0.000    0.000    0.000 
#
# Total GULP energy -178212.483183 kJ/mol
# GULP energy per Si atom -5569.140099 kJ/mol
# Density = 1.970813 g / cm^3
# Si number density = 19.753086 Si / 1000 Ang^3
#
#
#
# Elastic Constant Matrix: (Units=GPa)
#
#
# Indices 1 2 3 4 5 6 
#
# 1 0.8115 4.4457 23.7359 0.0000 0.0000 0.0000
# 2 4.4457 40.9949 38.2493 0.0000 0.0000 0.0000
# 3 23.7359 38.2493 4.0385 0.0000 0.0000 0.0000
# 4 0.0000 0.0000 0.0000 9.2809 0.0000 0.0000
# 5 0.0000 0.0000 0.0000 0.0000 10.4809 0.0000
# 6 0.0000 0.0000 0.0000 0.0000 0.0000 -11.6711
#
#
#
# Elastic Compliance Matrix: (Units=1/GPa)
#
#
# Indices 1 2 3 4 5 6 
#
# 1 0.080305 -0.055082 0.049702 0.000000 0.000000 0.000000
# 2 -0.055082 0.034668 -0.004610 0.000000 0.000000 0.000000
# 3 0.049702 -0.004610 -0.000836 0.000000 0.000000 0.000000
# 4 0.000000 0.000000 0.000000 0.107748 0.000000 0.000000
# 5 0.000000 0.000000 0.000000 0.000000 0.095411 0.000000
# 6 0.000000 0.000000 0.000000 0.000000 0.000000 -0.085682
#
#
# Mechanical properties :
#
#
# Convention : Reuss Voigt Hill
#
# Bulk Modulus (GPa) = 10.62053 19.85629 15.23841
# Shear Modulus (GPa) = 17.66900 0.24575 8.95738
#
# Velocity S-wave (km/s) = 2.99405 0.35310 2.13179
# Velocity P-wave (km/s) = 4.16423 3.20005 3.71356
#
# Compressibility (1/GPa) = 0.09415726
#
# Stress axis : x y z
#
# Youngs Moduli (GPa) = 12.45246 28.84491 -1196.64732
#
# Poissons Ratio (x) = 1.58883 59.47540
# Poissons Ratio (y) = 0.68590 -5.51684
# Poissons Ratio (z) = -0.61891 0.13298
#
# Static dielectric constant tensor:
#      x y z
#    x 1.675010 0.000000 0.000000 
#    y 0.000000 1.700100 0.000000 
#    z 0.000000 0.000000 1.733300 
# 
# From -- ./inp_files/4124.got.cif
#   From: 2010.05.17/outbox.ucp.g08.bks.cvg/sg26_3_cif.got.tgz:4124.got - 2010.06.11 15:23:25.
