data_PCOD9338551
_publ_section_title
;
Structure prediction by ZEFSAII (Michael W. Deem and Ramdas Pophale) SiO2 
 PCOD9338551
Probable space group: P M C 21
;
_chemical_formula_sum "Si O2"
_cell_formula_units_Z 20
_cell_length_a 14.574009
_cell_length_b 4.891489
_cell_length_c 9.759086
_cell_angle_alpha 90.000000
_cell_angle_beta 90.000000
_cell_angle_gamma 90.000000
_cell_volume 695.711624
_symmetry_space_group_name_H-M "P M C 21"
_symmetry_group_IT_number 26
_symmetry_cell_setting 'orthorhombic'
loop_
_space_group_symop_operation_xyz
x,y,z
-x,-y,1/2+z
-x,y,z
x,-y,1/2+z
loop_
_atom_site_type_symbol
_atom_site_label
_atom_site_fract_x
_atom_site_fract_y
_atom_site_fract_z
Si Si1 0.000000 0.355911 0.885031
Si Si2 0.700017 0.069601 0.970433
Si Si3 0.843185 0.717222 0.815717
Si Si4 0.308968 0.421816 0.647787
Si Si5 0.500000 0.107144 0.852774
Si Si6 0.500000 0.350760 0.141450
Si Si7 0.000000 0.012002 0.139747
O O1 0.910601 0.539162 0.910986
O O2 0.000000 0.273818 0.723164
O O3 0.000000 0.086604 0.979364
O O4 0.786994 0.953269 0.891348
O O5 0.602934 0.004011 0.898734
O O6 0.699673 0.891101 0.108970
O O7 0.702363 0.383505 0.015354
O O8 0.769565 0.518868 0.747255
O O9 0.909096 0.846823 0.701348
O O10 0.411880 0.486724 0.697904
O O11 0.500000 0.955069 0.701251
O O12 0.500000 0.349268 0.975561
#
# Coordination Sequence:
#
# PCOD9338551 Si02
#       7
#     2   4   4   4   2   2   2
#     4  11  28  52  77 114 150 200 256 328 400 469
#     4  11  25  44  73 110 152 202 250 311 373 455
#     4  11  26  47  75 107 151 197 259 319 386 462
#     4  11  25  44  74 109 155 197 257 305 378 448
#     4  10  21  46  71 110 156 198 250 302 372 444
#     4  10  21  46  71 114 152 206 242 312 362 456
#     4  11  28  48  79 108 152 198 256 328 398 469
#
# _framework density 28.747544999999999
#
# number of rings (size 3 to 8) (size 9 to 14) (size 15 to 20)
#    0.000    1.200    2.000    1.800    8.400    3.200 
#    3.600    2.000    0.000    0.000    0.000    0.000 
#    0.000    0.000    0.000    0.000    0.000    0.000 
#
# Total GULP energy -112136.660194 kJ/mol
# GULP energy per Si atom -5606.833010 kJ/mol
# Density = 2.868211 g / cm^3
# Si number density = 28.747545 Si / 1000 Ang^3
#
#
#
# Elastic Constant Matrix: (Units=GPa)
#
#
# Indices 1 2 3 4 5 6 
#
# 1 205.9082 14.1186 40.7344 0.0000 0.0000 0.0000
# 2 14.1186 97.2743 18.1529 0.0000 0.0000 0.0000
# 3 40.7344 18.1529 114.0243 0.0000 0.0000 0.0000
# 4 0.0000 0.0000 0.0000 47.3400 0.0000 0.0000
# 5 0.0000 0.0000 0.0000 0.0000 40.1779 0.0000
# 6 0.0000 0.0000 0.0000 0.0000 0.0000 30.1242
#
#
#
# Elastic Compliance Matrix: (Units=1/GPa)
#
#
# Indices 1 2 3 4 5 6 
#
# 1 0.005243 -0.000424 -0.001805 0.000000 0.000000 0.000000
# 2 -0.000424 0.010629 -0.001541 0.000000 0.000000 0.000000
# 3 -0.001805 -0.001541 0.009660 0.000000 0.000000 0.000000
# 4 0.000000 0.000000 0.000000 0.021124 0.000000 0.000000
# 5 0.000000 0.000000 0.000000 0.000000 0.024889 0.000000
# 6 0.000000 0.000000 0.000000 0.000000 0.000000 0.033196
#
#
# Mechanical properties :
#
#
# Convention : Reuss Voigt Hill
#
# Bulk Modulus (GPa) = 55.58024 62.57984 59.08004
# Shear Modulus (GPa) = 42.27291 46.47515 44.37403
#
# Velocity S-wave (km/s) = 3.83885 4.02514 3.93310
# Velocity P-wave (km/s) = 6.24700 6.58926 6.42041
#
# Compressibility (1/GPa) = 0.01799201
#
# Stress axis : x y z
#
# Youngs Moduli (GPa) = 190.73867 94.07983 103.51616
#
# Poissons Ratio (x) = 0.03989 0.18689
# Poissons Ratio (y) = 0.08088 0.15949
# Poissons Ratio (z) = 0.34437 0.14495
#
# Static dielectric constant tensor:
#      x y z
#    x 2.206840 0.000000 0.000000 
#    y 0.000000 2.234920 0.000000 
#    z 0.000000 0.000000 2.301370 
# 
# From -- ./inp_files/3460.got.cif
#   From: 2010.05.17/outbox.cif.g08.bks.cpg/sg26_2_cif.got.tgz:3460.got - 2010.06.04 01:07:29.
