data_PCOD9338197
_publ_section_title
;
Structure prediction by ZEFSAII (Michael W. Deem and Ramdas Pophale) SiO2 
 PCOD9338197
Probable space group: P M C 21
;
_chemical_formula_sum "Si O2"
_cell_formula_units_Z 32
_cell_length_a 8.857250
_cell_length_b 16.279621
_cell_length_c 10.852733
_cell_angle_alpha 90.000000
_cell_angle_beta 90.000000
_cell_angle_gamma 90.000000
_cell_volume 1564.884582
_symmetry_space_group_name_H-M "P M C 21"
_symmetry_group_IT_number 26
_symmetry_cell_setting 'orthorhombic'
loop_
_space_group_symop_operation_xyz
x,y,z
-x,-y,1/2+z
-x,y,z
x,-y,1/2+z
loop_
_atom_site_type_symbol
_atom_site_label
_atom_site_fract_x
_atom_site_fract_y
_atom_site_fract_z
Si Si1 0.676478 0.752746 0.245210
Si Si2 0.321652 0.165921 0.410024
Si Si3 0.183615 0.588314 0.600081
Si Si4 0.180209 0.914829 0.130644
Si Si5 0.179271 0.673136 0.027368
Si Si6 0.818540 0.514343 0.862639
Si Si7 0.820421 0.104344 0.164936
Si Si8 0.322708 0.244182 0.032600
O O1 0.500000 0.760967 0.213511
O O2 0.756111 0.839467 0.211456
O O3 0.691199 0.735387 0.388470
O O4 0.747335 0.680627 0.162120
O O5 0.500000 0.173483 0.417832
O O6 0.260205 0.095120 0.499227
O O7 0.241640 0.247281 0.458830
O O8 0.266135 0.147443 0.275199
O O9 0.232456 0.553209 0.464979
O O10 0.231510 0.533146 0.720419
O O11 0.246391 0.681155 0.607937
O O12 0.000000 0.590072 0.602091
O O13 0.000000 0.904683 0.118919
O O14 0.211133 0.007464 0.172168
O O15 0.213722 0.596478 0.941406
O O16 0.000000 0.676965 0.042458
O O17 0.000000 0.503151 0.852728
O O18 0.000000 0.114920 0.174110
O O19 0.758800 0.156437 0.050315
O O20 0.500000 0.237905 0.063836
#
# Coordination Sequence:
#
# PCOD9338197 Si02
#       8
#     4   4   4   4   4   4   4   4
#     4  10  22  39  59  87 124 161 202 251 309 374
#     4  11  22  37  59  85 118 155 194 243 305 369
#     4  10  21  40  64  92 126 164 208 260 317 376
#     4  10  22  39  60  88 118 153 203 252 300 363
#     4  10  19  35  61  90 119 156 206 252 301 363
#     4   9  20  36  62  95 124 156 205 260 309 370
#     4  11  24  40  61  86 116 156 203 255 304 362
#     4  11  25  42  60  89 125 163 207 255 315 383
#
# _framework density 20.448791
#
# number of rings (size 3 to 8) (size 9 to 14) (size 15 to 20)
#    0.000    1.750    0.000    5.250    3.500    5.000 
#    0.000    2.500    0.000    0.000    0.000    0.000 
#    0.000    0.000    0.000    0.000    0.000    0.000 
#
# Total GULP energy -178555.866665 kJ/mol
# GULP energy per Si atom -5579.870833 kJ/mol
# Density = 2.040225 g / cm^3
# Si number density = 20.448791 Si / 1000 Ang^3
#
#
#
# Elastic Constant Matrix: (Units=GPa)
#
#
# Indices 1 2 3 4 5 6 
#
# 1 62.2373 33.8471 20.1054 0.0000 0.0000 0.0000
# 2 33.8471 69.5719 12.1199 0.0000 0.0000 0.0000
# 3 20.1054 12.1199 71.0860 0.0000 0.0000 0.0000
# 4 0.0000 0.0000 0.0000 8.2944 0.0000 0.0000
# 5 0.0000 0.0000 0.0000 0.0000 28.6591 0.0000
# 6 0.0000 0.0000 0.0000 0.0000 0.0000 -69.5166
#
#
#
# Elastic Compliance Matrix: (Units=1/GPa)
#
#
# Indices 1 2 3 4 5 6 
#
# 1 0.023341 -0.010518 -0.004808 0.000000 0.000000 0.000000
# 2 -0.010518 0.019553 -0.000359 0.000000 0.000000 0.000000
# 3 -0.004808 -0.000359 0.015489 0.000000 0.000000 0.000000
# 4 0.000000 0.000000 0.000000 0.120563 0.000000 0.000000
# 5 0.000000 0.000000 0.000000 0.000000 0.034893 0.000000
# 6 0.000000 0.000000 0.000000 0.000000 0.000000 -0.014385
#
#
# Mechanical properties :
#
#
# Convention : Reuss Voigt Hill
#
# Bulk Modulus (GPa) = 37.01998 37.22668 37.12333
# Shear Modulus (GPa) = 20.84827 2.60888 11.72857
#
# Velocity S-wave (km/s) = 3.19648 1.13074 2.39751
# Velocity P-wave (km/s) = 5.63617 4.46644 5.08505
#
# Compressibility (1/GPa) = 0.02701244
#
# Stress axis : x y z
#
# Youngs Moduli (GPa) = 42.84345 51.14278 64.56353
#
# Poissons Ratio (x) = 0.53791 0.31044
# Poissons Ratio (y) = 0.45062 0.02318
# Poissons Ratio (z) = 0.20600 0.01836
#
# Static dielectric constant tensor:
#      x y z
#    x 1.677510 0.000000 0.000000 
#    y 0.000000 1.755380 0.000000 
#    z 0.000000 0.000000 1.801450 
# 
# From -- ./inp_files/3091.got.cif
#   From: 2010.05.17/outbox.cif.g08.bks.cpg/sg26_2_cif.got.tgz:3091.got - 2010.06.04 01:07:29.
