data_PCOD9338495
_publ_section_title
;
Structure prediction by ZEFSAII (Michael W. Deem and Ramdas Pophale) SiO2 
 PCOD9338495
Probable space group: P M C 21
;
_chemical_formula_sum "Si O2"
_cell_formula_units_Z 24
_cell_length_a 8.235567
_cell_length_b 14.409594
_cell_length_c 8.128510
_cell_angle_alpha 90.000000
_cell_angle_beta 90.000000
_cell_angle_gamma 90.000000
_cell_volume 964.619848
_symmetry_space_group_name_H-M "P M C 21"
_symmetry_group_IT_number 26
_symmetry_cell_setting 'orthorhombic'
loop_
_space_group_symop_operation_xyz
x,y,z
-x,-y,1/2+z
-x,y,z
x,-y,1/2+z
loop_
_atom_site_type_symbol
_atom_site_label
_atom_site_fract_x
_atom_site_fract_y
_atom_site_fract_z
Si Si1 0.187390 0.362648 0.388230
Si Si2 0.689861 0.025671 0.375436
Si Si3 0.188731 0.688054 0.372346
Si Si4 0.689717 0.203928 0.179169
Si Si5 0.312609 0.471171 0.081847
Si Si6 0.810209 0.136932 0.686863
O O1 0.281859 0.270166 0.337122
O O2 0.260507 0.426219 0.531035
O O3 0.000000 0.341688 0.420057
O O4 0.203938 0.427094 0.224831
O O5 0.500000 0.002192 0.368427
O O6 0.728167 0.099844 0.231571
O O7 0.723195 0.082856 0.540436
O O8 0.786752 0.932006 0.342017
O O9 0.202983 0.752168 0.536198
O O10 0.287298 0.596873 0.424054
O O11 0.247492 0.759471 0.232290
O O12 0.000000 0.663688 0.344523
O O13 0.500000 0.209460 0.130931
O O14 0.500000 0.466427 0.132720
O O15 0.000000 0.143970 0.647541
#
# Coordination Sequence:
#
# PCOD9338495 Si02
#       6
#     4   4   4   4   4   4
#     4  11  22  38  60  86 117 154 194 239 288 343
#     4  11  24  40  61  87 118 153 193 238 287 342
#     4  10  21  38  59  85 115 151 193 239 289 343
#     4  10  21  38  59  85 115 151 193 239 289 343
#     4  11  22  38  60  86 117 154 194 239 288 343
#     4  11  24  40  61  87 118 153 193 238 287 342
#
# _framework density 24.880265999999999
#
# number of rings (size 3 to 8) (size 9 to 14) (size 15 to 20)
#    0.000    1.333    0.000    8.000    0.000    9.333 
#    0.000    3.333    0.000    0.000    0.000    0.000 
#    0.000    0.000    0.000    0.000    0.000    0.000 
#
# Total GULP energy -134463.244579 kJ/mol
# GULP energy per Si atom -5602.635191 kJ/mol
# Density = 2.482364 g / cm^3
# Si number density = 24.880266 Si / 1000 Ang^3
#
#
#
# Elastic Constant Matrix: (Units=GPa)
#
#
# Indices 1 2 3 4 5 6 
#
# 1 50.0710 20.7777 -0.2247 0.0000 0.0000 0.0000
# 2 20.7777 133.3267 4.6912 0.0000 0.0000 0.0000
# 3 -0.2247 4.6912 69.5755 0.0000 0.0000 0.0000
# 4 0.0000 0.0000 0.0000 50.0812 0.0000 0.0000
# 5 0.0000 0.0000 0.0000 0.0000 42.1310 0.0000
# 6 0.0000 0.0000 0.0000 0.0000 0.0000 29.6192
#
#
#
# Elastic Compliance Matrix: (Units=1/GPa)
#
#
# Indices 1 2 3 4 5 6 
#
# 1 0.021358 -0.003339 0.000294 0.000000 0.000000 0.000000
# 2 -0.003339 0.008040 -0.000553 0.000000 0.000000 0.000000
# 3 0.000294 -0.000553 0.014411 0.000000 0.000000 0.000000
# 4 0.000000 0.000000 0.000000 0.019968 0.000000 0.000000
# 5 0.000000 0.000000 0.000000 0.000000 0.023736 0.000000
# 6 0.000000 0.000000 0.000000 0.000000 0.000000 0.033762
#
#
# Mechanical properties :
#
#
# Convention : Reuss Voigt Hill
#
# Bulk Modulus (GPa) = 27.31163 33.71794 30.51478
# Shear Modulus (GPa) = 35.54296 39.54820 37.54558
#
# Velocity S-wave (km/s) = 3.78373 3.99123 3.88886
# Velocity P-wave (km/s) = 5.48542 5.90097 5.69698
#
# Compressibility (1/GPa) = 0.03661443
#
# Stress axis : x y z
#
# Youngs Moduli (GPa) = 46.81984 124.37573 69.39088
#
# Poissons Ratio (x) = 0.41527 -0.02041
# Poissons Ratio (y) = 0.15632 0.03837
# Poissons Ratio (z) = -0.01377 0.06877
#
# Static dielectric constant tensor:
#      x y z
#    x 1.812250 0.000000 0.000000 
#    y 0.000000 1.953530 0.000000 
#    z 0.000000 0.000000 2.107510 
# 
# From -- ./inp_files/1502.got.cif
#   From: 2010.05.17/outbox.cif.g08.bks.cpg/sg26_1_cif.got.tgz:1502.got - 2010.06.04 01:07:29.
