data_PCOD9338097
_publ_section_title
;
Structure prediction by ZEFSAII (Michael W. Deem and Ramdas Pophale) SiO2 
 PCOD9338097
Probable space group: P M C 21
;
_chemical_formula_sum "Si O2"
_cell_formula_units_Z 32
_cell_length_a 7.400609
_cell_length_b 10.879906
_cell_length_c 14.723595
_cell_angle_alpha 90.000000
_cell_angle_beta 90.000000
_cell_angle_gamma 90.000000
_cell_volume 1185.513395
_symmetry_space_group_name_H-M "P M C 21"
_symmetry_group_IT_number 26
_symmetry_cell_setting 'orthorhombic'
loop_
_space_group_symop_operation_xyz
x,y,z
-x,-y,1/2+z
-x,y,z
x,-y,1/2+z
loop_
_atom_site_type_symbol
_atom_site_label
_atom_site_fract_x
_atom_site_fract_y
_atom_site_fract_z
Si Si1 0.714815 0.808164 0.941210
Si Si2 0.288959 0.973300 0.566311
Si Si3 0.218089 0.293168 0.058984
Si Si4 0.780260 0.426731 0.226143
Si Si5 0.783932 0.334160 0.611016
Si Si6 0.217087 0.186942 0.779687
Si Si7 0.707829 0.919183 0.764407
Si Si8 0.218928 0.434296 0.892546
O O1 0.500000 0.824145 0.931339
O O2 0.788430 0.825727 0.839055
O O3 0.740507 0.690823 0.006203
O O4 0.788993 0.920310 0.003322
O O5 0.500000 0.003029 0.578367
O O6 0.275363 0.838525 0.522529
O O7 0.205951 0.948302 0.666256
O O8 0.281363 0.402793 0.993397
O O9 0.000000 0.296057 0.057900
O O10 0.277784 0.314333 0.162915
O O11 0.726177 0.543634 0.163641
O O12 0.714016 0.456502 0.327311
O O13 0.000000 0.424573 0.230053
O O14 0.722819 0.222700 0.676902
O O15 0.000000 0.337564 0.615093
O O16 0.259588 0.307260 0.838728
O O17 0.000000 0.177043 0.781051
O O18 0.290989 0.055794 0.809192
O O19 0.500000 0.885874 0.748179
O O20 0.000000 0.447455 0.896845
#
# Coordination Sequence:
#
# PCOD9338097 Si02
#       8
#     4   4   4   4   4   4   4   4
#     4  10  20  34  52  74 100 135 172 203 249 310
#     4  10  21  36  51  72 107 138 161 208 260 295
#     4  10  19  33  55  78 100 134 175 207 245 305
#     4   8  16  32  51  75 104 131 164 210 257 296
#     4   9  17  31  51  73  99 128 163 211 258 293
#     4   9  16  28  49  73  98 129 166 210 250 290
#     4  10  20  33  49  71 101 137 167 198 252 309
#     4   8  15  29  50  76 103 130 164 211 257 288
#
# _framework density 26.992525000000001
#
# number of rings (size 3 to 8) (size 9 to 14) (size 15 to 20)
#    0.000    2.750    1.250    2.250    0.000    1.500 
#    2.250    0.625    0.000    1.500    0.000    0.000 
#    0.000    0.000    0.000    0.000    0.000    0.000 
#
# Total GULP energy -178874.390436 kJ/mol
# GULP energy per Si atom -5589.824701 kJ/mol
# Density = 2.693109 g / cm^3
# Si number density = 26.992525 Si / 1000 Ang^3
#
#
#
# Elastic Constant Matrix: (Units=GPa)
#
#
# Indices 1 2 3 4 5 6 
#
# 1 103.8981 2.7801 11.1839 0.0000 0.0000 0.0000
# 2 2.7801 82.8494 3.4312 0.0000 0.0000 0.0000
# 3 11.1839 3.4312 156.4646 0.0000 0.0000 0.0000
# 4 0.0000 0.0000 0.0000 48.9739 0.0000 0.0000
# 5 0.0000 0.0000 0.0000 0.0000 30.0471 0.0000
# 6 0.0000 0.0000 0.0000 0.0000 0.0000 14.3782
#
#
#
# Elastic Compliance Matrix: (Units=1/GPa)
#
#
# Indices 1 2 3 4 5 6 
#
# 1 0.009707 -0.000297 -0.000687 0.000000 0.000000 0.000000
# 2 -0.000297 0.012090 -0.000244 0.000000 0.000000 0.000000
# 3 -0.000687 -0.000244 0.006446 0.000000 0.000000 0.000000
# 4 0.000000 0.000000 0.000000 0.020419 0.000000 0.000000
# 5 0.000000 0.000000 0.000000 0.000000 0.033281 0.000000
# 6 0.000000 0.000000 0.000000 0.000000 0.000000 0.069550
#
#
# Mechanical properties :
#
#
# Convention : Reuss Voigt Hill
#
# Bulk Modulus (GPa) = 38.78117 42.00030 40.39073
# Shear Modulus (GPa) = 30.76078 40.40095 35.58087
#
# Velocity S-wave (km/s) = 3.37946 3.87298 3.63461
# Velocity P-wave (km/s) = 5.44300 5.96604 5.71051
#
# Compressibility (1/GPa) = 0.02578571
#
# Stress axis : x y z
#
# Youngs Moduli (GPa) = 103.02107 82.71185 155.14219
#
# Poissons Ratio (x) = 0.02459 0.10663
# Poissons Ratio (y) = 0.03062 0.03784
# Poissons Ratio (z) = 0.07081 0.02017
#
# Static dielectric constant tensor:
#      x y z
#    x 1.885810 0.000000 0.000000 
#    y 0.000000 2.132160 0.000000 
#    z 0.000000 0.000000 2.173320 
# 
# From -- ./inp_files/4138.got.cif
#   From: 2010.05.17/outbox.cif.g08.bks.cpg/sg26_3_cif.got.tgz:4138.got - 2010.06.04 01:07:29.
