data_PCOD9338142
_publ_section_title
;
Structure prediction by ZEFSAII (Michael W. Deem and Ramdas Pophale) SiO2 
 PCOD9338142
Probable space group: P M C 21
;
_chemical_formula_sum "Si O2"
_cell_formula_units_Z 32
_cell_length_a 11.775002
_cell_length_b 15.175642
_cell_length_c 10.165153
_cell_angle_alpha 90.000000
_cell_angle_beta 90.000000
_cell_angle_gamma 90.000000
_cell_volume 1816.443870
_symmetry_space_group_name_H-M "P M C 21"
_symmetry_group_IT_number 26
_symmetry_cell_setting 'orthorhombic'
loop_
_space_group_symop_operation_xyz
x,y,z
-x,-y,1/2+z
-x,y,z
x,-y,1/2+z
loop_
_atom_site_type_symbol
_atom_site_label
_atom_site_fract_x
_atom_site_fract_y
_atom_site_fract_z
Si Si1 0.635109 0.081111 0.792110
Si Si2 0.131264 0.290761 0.459204
Si Si3 0.257930 0.527263 0.995021
Si Si4 0.627746 0.437901 0.230797
Si Si5 0.129099 0.349536 0.947153
Si Si6 0.134985 0.196040 0.735206
Si Si7 0.753929 0.739904 0.686605
Si Si8 0.629637 0.914668 0.600355
O O1 0.500000 0.114029 0.773235
O O2 0.749987 0.138849 0.763359
O O3 0.645862 0.996788 0.697468
O O4 0.642930 0.059268 0.947412
O O5 0.177333 0.387932 0.493786
O O6 0.142372 0.228089 0.585003
O O7 0.196584 0.254410 0.332635
O O8 0.000000 0.298545 0.424231
O O9 0.297436 0.502953 0.141317
O O10 0.202360 0.437428 0.942213
O O11 0.352409 0.549719 0.885828
O O12 0.500000 0.456132 0.194667
O O13 0.660205 0.337727 0.193591
O O14 0.156427 0.297778 0.081746
O O15 0.000000 0.378613 0.946153
O O16 0.146702 0.281067 0.829296
O O17 0.000000 0.163788 0.755245
O O18 0.708624 0.832754 0.636333
O O19 0.500000 0.883869 0.617346
#
# Coordination Sequence:
#
# PCOD9338142 Si02
#       8
#     4   4   4   4   4   4   4   4
#     4  10  22  41  64  90 116 149 190 235 286 348
#     4  10  21  36  55  81 116 152 192 241 285 334
#     4  10  20  34  54  78 108 146 194 235 279 333
#     4  10  20  34  51  76 110 147 185 233 286 339
#     4  10  19  34  57  80 108 147 191 236 282 336
#     4  10  21  39  58  85 121 154 189 239 292 342
#     4  10  20  35  56  82 111 146 190 227 288 340
#     4  10  21  39  63  88 116 145 186 236 282 342
#
# _framework density 17.61684
#
# number of rings (size 3 to 8) (size 9 to 14) (size 15 to 20)
#    0.000    2.000    1.250    2.250    1.750    0.000 
#    0.000   10.625    0.000    0.000    0.000    0.000 
#    0.000    0.000    0.000    0.000    0.000    0.000 
#
# Total GULP energy -178166.435546 kJ/mol
# GULP energy per Si atom -5567.701111 kJ/mol
# Density = 1.757674 g / cm^3
# Si number density = 17.616840 Si / 1000 Ang^3
#
#
#
# Elastic Constant Matrix: (Units=GPa)
#
#
# Indices 1 2 3 4 5 6 
#
# 1 79.0185 37.5856 22.0949 0.0000 0.0000 0.0000
# 2 37.5856 40.0409 33.7116 0.0000 0.0000 0.0000
# 3 22.0949 33.7116 86.4138 0.0000 0.0000 0.0000
# 4 0.0000 0.0000 0.0000 24.4740 0.0000 0.0000
# 5 0.0000 0.0000 0.0000 0.0000 16.7677 0.0000
# 6 0.0000 0.0000 0.0000 0.0000 0.0000 -2.6970
#
#
#
# Elastic Compliance Matrix: (Units=1/GPa)
#
#
# Indices 1 2 3 4 5 6 
#
# 1 0.023716 -0.025547 0.003903 0.000000 0.000000 0.000000
# 2 -0.025547 0.064710 -0.018712 0.000000 0.000000 0.000000
# 3 0.003903 -0.018712 0.017874 0.000000 0.000000 0.000000
# 4 0.000000 0.000000 0.000000 0.040860 0.000000 0.000000
# 5 0.000000 0.000000 0.000000 0.000000 0.059639 0.000000
# 6 0.000000 0.000000 0.000000 0.000000 0.000000 -0.370776
#
#
# Mechanical properties :
#
#
# Convention : Reuss Voigt Hill
#
# Bulk Modulus (GPa) = 39.08401 43.58416 41.33408
# Shear Modulus (GPa) = -66.90317 15.18100 -25.86109
#
# Velocity S-wave (km/s) = -6.16922 2.93871 -3.83557
# Velocity P-wave (km/s) = 5.33966 6.02565 1.97440
#
# Compressibility (1/GPa) = 0.02558591
#
# Stress axis : x y z
#
# Youngs Moduli (GPa) = 42.16608 15.45360 55.94582
#
# Poissons Ratio (x) = 0.39480 -0.21834
# Poissons Ratio (y) = 1.07723 1.04688
# Poissons Ratio (z) = -0.16456 0.28917
#
# Static dielectric constant tensor:
#      x y z
#    x 1.628250 0.000000 0.000000 
#    y 0.000000 1.562030 0.000000 
#    z 0.000000 0.000000 1.592270 
# 
# From -- ./inp_files/1972.got.cif
#   From: 2010.05.17/outbox.cif.g08.bks.cpg/sg26_1_cif.got.tgz:1972.got - 2010.06.04 01:07:29.
