data_PCOD9338378
_publ_section_title
;
Structure prediction by ZEFSAII (Michael W. Deem and Ramdas Pophale) SiO2 
 PCOD9338378
Probable space group: P M C 21
;
_chemical_formula_sum "Si O2"
_cell_formula_units_Z 24
_cell_length_a 15.995829
_cell_length_b 8.651477
_cell_length_c 7.824356
_cell_angle_alpha 90.000000
_cell_angle_beta 90.000000
_cell_angle_gamma 90.000000
_cell_volume 1082.793431
_symmetry_space_group_name_H-M "P M C 21"
_symmetry_group_IT_number 26
_symmetry_cell_setting 'orthorhombic'
loop_
_space_group_symop_operation_xyz
x,y,z
-x,-y,1/2+z
-x,y,z
x,-y,1/2+z
loop_
_atom_site_type_symbol
_atom_site_label
_atom_site_fract_x
_atom_site_fract_y
_atom_site_fract_z
Si Si1 0.000000 0.258159 0.902050
Si Si2 0.500000 0.580415 0.725380
Si Si3 0.839588 0.909892 0.269164
Si Si4 0.000000 0.417070 0.270483
Si Si5 0.339574 0.242808 0.323750
Si Si6 0.500000 0.258589 0.853142
Si Si7 0.840971 0.756917 0.895667
Si Si8 0.662532 0.912298 0.449354
O O1 0.082294 0.157275 0.872669
O O2 0.000000 0.398703 0.767145
O O3 0.000000 0.339790 0.084989
O O4 0.583082 0.641903 0.819783
O O5 0.500000 0.396373 0.718801
O O6 0.500000 0.655561 0.537785
O O7 0.750547 0.877740 0.358041
O O8 0.848240 0.095657 0.268654
O O9 0.842038 0.833808 0.082786
O O10 0.083057 0.357450 0.365254
O O11 0.249730 0.317717 0.362305
O O12 0.348139 0.097635 0.451594
O O13 0.336656 0.161285 0.137254
O O14 0.416829 0.156706 0.850312
#
# Coordination Sequence:
#
# PCOD9338378 Si02
#       8
#     2   2   4   2   4   2   4   4
#     4  12  25  42  61  86 118 154 192 236 287 346
#     4  10  23  38  56  82 116 152 191 234 284 342
#     4  11  22  39  62  89 117 152 193 239 287 339
#     4  12  25  42  61  86 118 154 192 236 287 346
#     4  10  20  37  59  86 114 148 192 240 286 338
#     4  10  23  38  56  82 116 152 191 234 284 342
#     4  11  22  39  62  89 117 152 193 239 287 339
#     4  10  20  37  59  86 114 148 192 240 286 338
#
# _framework density 22.164892999999999
#
# number of rings (size 3 to 8) (size 9 to 14) (size 15 to 20)
#    0.000    1.333    0.000    8.500    0.000    4.000 
#    0.000    3.333    0.000    0.000    0.000    0.000 
#    0.000    0.000    0.000    0.000    0.000    0.000 
#
# Total GULP energy -134373.656434 kJ/mol
# GULP energy per Si atom -5598.902351 kJ/mol
# Density = 2.211444 g / cm^3
# Si number density = 22.164893 Si / 1000 Ang^3
#
#
#
# Elastic Constant Matrix: (Units=GPa)
#
#
# Indices 1 2 3 4 5 6 
#
# 1 167.7143 54.1087 11.6661 0.0000 0.0000 0.0000
# 2 54.1087 40.6034 -15.9392 0.0000 0.0000 0.0000
# 3 11.6661 -15.9392 67.8471 0.0000 0.0000 0.0000
# 4 0.0000 0.0000 0.0000 31.5108 0.0000 0.0000
# 5 0.0000 0.0000 0.0000 0.0000 24.6015 0.0000
# 6 0.0000 0.0000 0.0000 0.0000 0.0000 -5.9529
#
#
#
# Elastic Compliance Matrix: (Units=1/GPa)
#
#
# Indices 1 2 3 4 5 6 
#
# 1 0.012816 -0.019767 -0.006848 0.000000 0.000000 0.000000
# 2 -0.019767 0.057618 0.016935 0.000000 0.000000 0.000000
# 3 -0.006848 0.016935 0.019895 0.000000 0.000000 0.000000
# 4 0.000000 0.000000 0.000000 0.031735 0.000000 0.000000
# 5 0.000000 0.000000 0.000000 0.000000 0.040648 0.000000
# 6 0.000000 0.000000 0.000000 0.000000 0.000000 -0.167986
#
#
# Mechanical properties :
#
#
# Convention : Reuss Voigt Hill
#
# Bulk Modulus (GPa) = 14.09040 41.75958 27.92499
# Shear Modulus (GPa) = 132.47772 25.12049 78.79911
#
# Velocity S-wave (km/s) = 7.73944 3.37017 5.96896
# Velocity P-wave (km/s) = 9.28634 5.83313 7.75440
#
# Compressibility (1/GPa) = 0.07097030
#
# Stress axis : x y z
#
# Youngs Moduli (GPa) = 78.02647 17.35559 50.26404
#
# Poissons Ratio (x) = 0.34307 0.34418
# Poissons Ratio (y) = 1.54235 -0.85122
# Poissons Ratio (z) = 0.53429 -0.29392
#
# Static dielectric constant tensor:
#      x y z
#    x 1.787460 0.000000 0.000000 
#    y 0.000000 1.759270 0.000000 
#    z 0.000000 0.000000 1.861320 
# 
# From -- ./inp_files/2158.got.cif
#   From: 2010.05.17/outbox.cif.g08.bks.cpg/sg26_2_cif.got.tgz:2158.got - 2010.06.04 01:07:29.
