data_PCOD9338826
_publ_section_title
;
Structure prediction by ZEFSAII (Michael W. Deem and Ramdas Pophale) SiO2 
 PCOD9338826
Probable space group: P C C 2
;
_chemical_formula_sum "Si O2"
_cell_formula_units_Z 24
_cell_length_a 14.396244
_cell_length_b 8.818482
_cell_length_c 8.657297
_cell_angle_alpha 90.000000
_cell_angle_beta 90.000000
_cell_angle_gamma 90.000000
_cell_volume 1099.069987
_symmetry_space_group_name_H-M "P C C 2"
_symmetry_group_IT_number 27
_symmetry_cell_setting 'orthorhombic'
loop_
_space_group_symop_operation_xyz
x,y,z
-x,-y,z
-x,y,1/2+z
x,-y,1/2+z
loop_
_atom_site_type_symbol
_atom_site_label
_atom_site_fract_x
_atom_site_fract_y
_atom_site_fract_z
Si Si1 0.871901 0.644664 0.085090
Si Si2 0.620536 0.277946 0.339858
Si Si3 0.325252 0.471587 0.542126
Si Si4 0.500000 0.000000 0.372953
Si Si5 0.752330 0.090553 0.555586
Si Si6 0.000000 0.500000 0.337567
Si Si7 0.681298 0.160289 0.891411
O O1 0.775116 0.550322 0.067779
O O2 0.845595 0.820265 0.090931
O O3 0.927341 0.590659 0.233715
O O4 0.938486 0.608661 0.943173
O O5 0.604930 0.398169 0.479749
O O6 0.644751 0.380507 0.193919
O O7 0.705351 0.178671 0.409926
O O8 0.543048 0.153092 0.299456
O O9 0.319002 0.339028 0.413609
O O10 0.588301 0.922939 0.454790
O O11 0.692768 0.115600 0.712106
O O12 0.758760 0.918431 0.499018
#
# Coordination Sequence:
#
# PCOD9338826 Si02
#       7
#     4   4   4   2   4   2   4
#     4  10  20  38  61  90 120 148 205 255 316 395
#     4  10  22  39  62  88 124 169 214 269 320 367
#     4  11  21  39  64  92 123 168 214 257 317 397
#     4  10  24  42  58  90 130 164 224 272 316 378
#     4  10  21  38  59  87 120 165 206 248 314 395
#     4  10  20  34  66  94 114 152 192 270 328 368
#     4  11  22  37  62  87 121 170 209 259 317 365
#
# _framework density 21.836645000000001
#
# number of rings (size 3 to 8) (size 9 to 14) (size 15 to 20)
#    0.000    1.667    0.000    7.000    0.000    6.667 
#    0.000    3.333    0.000   18.000    0.000    0.000 
#    0.000    0.000    0.000    0.000    0.000    0.000 
#
# Total GULP energy -133879.627551 kJ/mol
# GULP energy per Si atom -5578.317815 kJ/mol
# Density = 2.178694 g / cm^3
# Si number density = 21.836645 Si / 1000 Ang^3
#
#
#
# Elastic Constant Matrix: (Units=GPa)
#
#
# Indices 1 2 3 4 5 6 
#
# 1 76.9753 38.9197 24.9691 0.0000 0.0000 0.0000
# 2 38.9197 131.7363 27.7660 0.0000 0.0000 0.0000
# 3 24.9691 27.7660 109.9409 0.0000 0.0000 0.0000
# 4 0.0000 0.0000 0.0000 15.8062 0.0000 0.0000
# 5 0.0000 0.0000 0.0000 0.0000 -2.5942 0.0000
# 6 0.0000 0.0000 0.0000 0.0000 0.0000 22.3986
#
#
#
# Elastic Compliance Matrix: (Units=1/GPa)
#
#
# Indices 1 2 3 4 5 6 
#
# 1 0.015930 -0.004165 -0.002566 0.000000 0.000000 0.000000
# 2 -0.004165 0.009107 -0.001354 0.000000 0.000000 0.000000
# 3 -0.002566 -0.001354 0.010020 0.000000 0.000000 0.000000
# 4 0.000000 0.000000 0.000000 0.063266 0.000000 0.000000
# 5 0.000000 0.000000 0.000000 0.000000 -0.385469 0.000000
# 6 0.000000 0.000000 0.000000 0.000000 0.000000 0.044646
#
#
# Mechanical properties :
#
#
# Convention : Reuss Voigt Hill
#
# Bulk Modulus (GPa) = 52.94765 55.77356 54.36060
# Shear Modulus (GPa) = -22.72370 22.25529 -0.23420
#
# Velocity S-wave (km/s) = -3.22937 3.19591 -0.32785
# Velocity P-wave (km/s) = 3.22408 6.26220 4.98046
#
# Compressibility (1/GPa) = 0.01888658
#
# Stress axis : x y z
#
# Youngs Moduli (GPa) = 62.77639 109.80683 99.79555
#
# Poissons Ratio (x) = 0.45739 0.25606
# Poissons Ratio (y) = 0.26149 0.13512
# Poissons Ratio (z) = 0.16107 0.14868
#
# Static dielectric constant tensor:
#      x y z
#    x 1.834760 0.000000 0.000000 
#    y 0.000000 1.853360 0.000000 
#    z 0.000000 0.000000 1.851540 
# 
# From -- ./inp_files/1162.got.cif
#   From: 2010.05.17/outbox.cif.g08.bks.cpg/sg27_1_cif.got.tgz:1162.got - 2010.06.04 01:11:05.
