data_PCOD9338020
_publ_section_title
;
Structure prediction by ZEFSAII (Michael W. Deem and Ramdas Pophale) SiO2 
 PCOD9338020
Probable space group: P M C 21
;
_chemical_formula_sum "Si O2"
_cell_formula_units_Z 32
_cell_length_a 13.995729
_cell_length_b 18.653896
_cell_length_c 5.352894
_cell_angle_alpha 90.000000
_cell_angle_beta 90.000000
_cell_angle_gamma 90.000000
_cell_volume 1397.506122
_symmetry_space_group_name_H-M "P M C 21"
_symmetry_group_IT_number 26
_symmetry_cell_setting 'orthorhombic'
loop_
_space_group_symop_operation_xyz
x,y,z
-x,-y,1/2+z
-x,y,z
x,-y,1/2+z
loop_
_atom_site_type_symbol
_atom_site_label
_atom_site_fract_x
_atom_site_fract_y
_atom_site_fract_z
Si Si1 0.391422 0.237149 0.074050
Si Si2 0.190434 0.453285 0.939663
Si Si3 0.396849 0.547127 0.352928
Si Si4 0.395538 0.921477 0.808087
Si Si5 0.706167 0.840813 0.186885
Si Si6 0.891451 0.692259 0.332857
Si Si7 0.788819 0.739122 0.833814
Si Si8 0.206483 0.978379 0.327228
O O1 0.500000 0.261240 0.072215
O O2 0.392739 0.151769 0.146024
O O3 0.321109 0.279383 0.258953
O O4 0.337363 0.229810 0.811228
O O5 0.183928 0.490282 0.210880
O O6 0.295274 0.416297 0.901120
O O7 0.114600 0.390918 0.909329
O O8 0.500000 0.584555 0.377677
O O9 0.395439 0.512543 0.075767
O O10 0.500000 0.954636 0.772702
O O11 0.305927 0.975075 0.784142
O O12 0.381448 0.887117 0.081455
O O13 0.767811 0.895042 0.350312
O O14 0.772683 0.817621 0.954727
O O15 0.845704 0.732835 0.573546
O O16 0.000000 0.716198 0.298840
O O17 0.838261 0.698666 0.064560
O O18 0.155471 0.008896 0.566522
#
# Coordination Sequence:
#
# PCOD9338020 Si02
#       8
#     4   4   4   4   4   4   4   4
#     4  10  19  36  60  87 130 184 224 265 322 382
#     4  10  21  39  66 102 139 166 197 245 317 398
#     4   8  14  27  50  81 118 161 199 227 261 322
#     4   9  18  28  45  79 121 170 221 260 308 382
#     4  10  19  35  56  80 123 174 221 272 319 368
#     4  12  26  46  72  98 128 167 213 277 344 398
#     4  11  24  44  64  91 128 172 227 276 312 382
#     4  10  19  29  45  74 116 160 214 256 316 374
#
# _framework density 22.897931
#
# number of rings (size 3 to 8) (size 9 to 14) (size 15 to 20)
#    0.000    2.000    2.500    1.500    0.000    3.500 
#    0.000    1.250    0.000    1.500    0.000    0.000 
#    0.000   90.000    0.000    0.000    0.000    0.000 
#
# Total GULP energy -178227.437151 kJ/mol
# GULP energy per Si atom -5569.607411 kJ/mol
# Density = 2.284581 g / cm^3
# Si number density = 22.897931 Si / 1000 Ang^3
#
#
#
# Elastic Constant Matrix: (Units=GPa)
#
#
# Indices 1 2 3 4 5 6 
#
# 1 82.7367 26.8601 38.2967 0.0000 0.0000 0.0000
# 2 26.8601 42.1741 18.0249 0.0000 0.0000 0.0000
# 3 38.2967 18.0249 146.6759 0.0000 0.0000 0.0000
# 4 0.0000 0.0000 0.0000 35.1303 0.0000 0.0000
# 5 0.0000 0.0000 0.0000 0.0000 12.7622 0.0000
# 6 0.0000 0.0000 0.0000 0.0000 0.0000 17.6142
#
#
#
# Elastic Compliance Matrix: (Units=1/GPa)
#
#
# Indices 1 2 3 4 5 6 
#
# 1 0.016541 -0.009171 -0.003192 0.000000 0.000000 0.000000
# 2 -0.009171 0.030110 -0.001306 0.000000 0.000000 0.000000
# 3 -0.003192 -0.001306 0.007812 0.000000 0.000000 0.000000
# 4 0.000000 0.000000 0.000000 0.028465 0.000000 0.000000
# 5 0.000000 0.000000 0.000000 0.000000 0.078356 0.000000
# 6 0.000000 0.000000 0.000000 0.000000 0.000000 0.056772
#
#
# Mechanical properties :
#
#
# Convention : Reuss Voigt Hill
#
# Bulk Modulus (GPa) = 36.86477 48.66111 42.76294
# Shear Modulus (GPa) = 19.65134 25.66167 22.65651
#
# Velocity S-wave (km/s) = 2.93271 3.35132 3.14898
# Velocity P-wave (km/s) = 5.25379 6.02267 5.65132
#
# Compressibility (1/GPa) = 0.02712617
#
# Stress axis : x y z
#
# Youngs Moduli (GPa) = 60.45523 33.21158 128.01459
#
# Poissons Ratio (x) = 0.30457 0.40861
# Poissons Ratio (y) = 0.55441 0.16716
# Poissons Ratio (z) = 0.19297 0.04337
#
# Static dielectric constant tensor:
#      x y z
#    x 1.928040 0.000000 0.000000 
#    y 0.000000 1.865550 0.000000 
#    z 0.000000 0.000000 2.004550 
# 
# From -- ./inp_files/654.got.cif
#   From: 2010.05.17/outbox.cif.g08.bks.cpg/sg26_1_cif.got.tgz:654.got - 2010.06.04 01:07:29.
