data_PCOD9338612
_publ_section_title
;
Structure prediction by ZEFSAII (Michael W. Deem and Ramdas Pophale) SiO2 
 PCOD9338612
Probable space group: P M C 21
;
_chemical_formula_sum "Si O2"
_cell_formula_units_Z 18
_cell_length_a 9.007438
_cell_length_b 5.074480
_cell_length_c 14.964064
_cell_angle_alpha 90.000000
_cell_angle_beta 90.000000
_cell_angle_gamma 90.000000
_cell_volume 683.978395
_symmetry_space_group_name_H-M "P M C 21"
_symmetry_group_IT_number 26
_symmetry_cell_setting 'orthorhombic'
loop_
_space_group_symop_operation_xyz
x,y,z
-x,-y,1/2+z
-x,y,z
x,-y,1/2+z
loop_
_atom_site_type_symbol
_atom_site_label
_atom_site_fract_x
_atom_site_fract_y
_atom_site_fract_z
Si Si1 0.000000 0.826824 0.026960
Si Si2 0.500000 0.877313 0.931200
Si Si3 0.500000 0.471489 0.273863
Si Si4 0.830180 0.822156 0.640612
Si Si5 0.500000 0.175825 0.106825
Si Si6 0.000000 0.333486 0.903893
Si Si7 0.263554 0.138789 0.804369
O O1 0.860218 0.900611 0.088380
O O2 0.000000 0.558741 0.975810
O O3 0.000000 0.051896 0.951825
O O4 0.357174 0.015951 0.885776
O O5 0.500000 0.595072 0.880083
O O6 0.500000 0.932014 0.036905
O O7 0.500000 0.204455 0.215917
O O8 0.634787 0.660348 0.249715
O O9 0.803261 0.912339 0.742194
O O10 0.000000 0.698833 0.636571
O O11 0.674187 0.717869 0.596842
O O12 0.141868 0.331892 0.843231
#
# Coordination Sequence:
#
# PCOD9338612 Si02
#       7
#     2   2   2   4   2   2   4
#     4  10  27  44  69 116 152 191 277 300 395 470
#     4  11  25  47  71 111 143 205 258 324 390 470
#     4  11  26  43  72 108 148 206 264 324 401 472
#     4  10  23  47  70 107 145 203 251 318 388 466
#     4  12  23  46  79  99 157 195 256 328 385 474
#     4  12  25  46  75 114 150 205 247 332 383 468
#     4  11  24  46  69 105 153 198 262 322 395 466
#
# _framework density 26.316621999999999
#
# number of rings (size 3 to 8) (size 9 to 14) (size 15 to 20)
#    0.667    0.444    3.333    2.000    6.222    3.556 
#    6.000    0.000    0.000    0.000    0.000    0.000 
#    0.000    0.000    0.000    0.000    0.000    0.000 
#
# Total GULP energy -100273.804543 kJ/mol
# GULP energy per Si atom -5570.766919 kJ/mol
# Density = 2.625672 g / cm^3
# Si number density = 26.316622 Si / 1000 Ang^3
#
#
#
# Elastic Constant Matrix: (Units=GPa)
#
#
# Indices 1 2 3 4 5 6 
#
# 1 203.3223 20.2273 28.3831 0.0000 0.0000 0.0000
# 2 20.2273 89.5116 26.7406 0.0000 0.0000 0.0000
# 3 28.3831 26.7406 96.2817 0.0000 0.0000 0.0000
# 4 0.0000 0.0000 0.0000 27.2711 0.0000 0.0000
# 5 0.0000 0.0000 0.0000 0.0000 24.0408 0.0000
# 6 0.0000 0.0000 0.0000 0.0000 0.0000 30.2437
#
#
#
# Elastic Compliance Matrix: (Units=1/GPa)
#
#
# Indices 1 2 3 4 5 6 
#
# 1 0.005179 -0.000779 -0.001310 0.000000 0.000000 0.000000
# 2 -0.000779 0.012300 -0.003186 0.000000 0.000000 0.000000
# 3 -0.001310 -0.003186 0.011657 0.000000 0.000000 0.000000
# 4 0.000000 0.000000 0.000000 0.036669 0.000000 0.000000
# 5 0.000000 0.000000 0.000000 0.000000 0.041596 0.000000
# 6 0.000000 0.000000 0.000000 0.000000 0.000000 0.033065
#
#
# Mechanical properties :
#
#
# Convention : Reuss Voigt Hill
#
# Bulk Modulus (GPa) = 53.80790 59.97974 56.89382
# Shear Modulus (GPa) = 31.80433 37.22876 34.51655
#
# Velocity S-wave (km/s) = 3.48016 3.76526 3.62551
# Velocity P-wave (km/s) = 6.05305 6.46096 6.26033
#
# Compressibility (1/GPa) = 0.01858463
#
# Stress axis : x y z
#
# Youngs Moduli (GPa) = 193.09873 81.30322 85.78210
#
# Poissons Ratio (x) = 0.06332 0.11240
# Poissons Ratio (y) = 0.15039 0.27334
# Poissons Ratio (z) = 0.25303 0.25907
#
# Static dielectric constant tensor:
#      x y z
#    x 2.223580 0.000000 0.000000 
#    y 0.000000 2.057360 0.000000 
#    z 0.000000 0.000000 2.069640 
# 
# From -- ./inp_files/4811.got.cif
#   From: 2010.05.17/outbox.cif.g08.bks.cpg/sg26_3_cif.got.tgz:4811.got - 2010.06.04 01:07:29.
