data_PCOD9338146
_publ_section_title
;
Structure prediction by ZEFSAII (Michael W. Deem and Ramdas Pophale) SiO2 
 PCOD9338146
Probable space group: P M C 21
;
_chemical_formula_sum "Si O2"
_cell_formula_units_Z 32
_cell_length_a 8.914599
_cell_length_b 8.385156
_cell_length_c 20.712158
_cell_angle_alpha 90.000000
_cell_angle_beta 90.000000
_cell_angle_gamma 90.000000
_cell_volume 1548.240092
_symmetry_space_group_name_H-M "P M C 21"
_symmetry_group_IT_number 26
_symmetry_cell_setting 'orthorhombic'
loop_
_space_group_symop_operation_xyz
x,y,z
-x,-y,1/2+z
-x,y,z
x,-y,1/2+z
loop_
_atom_site_type_symbol
_atom_site_label
_atom_site_fract_x
_atom_site_fract_y
_atom_site_fract_z
Si Si1 0.663276 0.471903 0.538150
Si Si2 0.680734 0.493762 0.274029
Si Si3 0.667216 0.779382 0.612068
Si Si4 0.827365 0.097036 0.986826
Si Si5 0.678748 0.174080 0.706925
Si Si6 0.175014 0.152084 0.238443
Si Si7 0.327333 0.329933 0.905600
Si Si8 0.833204 0.815973 0.071300
O O1 0.500000 0.386893 0.536635
O O2 0.657931 0.592480 0.598079
O O3 0.678153 0.563466 0.470495
O O4 0.802815 0.362342 0.550793
O O5 0.500000 0.474620 0.266958
O O6 0.726905 0.645904 0.228661
O O7 0.751737 0.316966 0.265895
O O8 0.715920 0.563181 0.345023
O O9 0.500000 0.833116 0.632298
O O10 0.715351 0.844157 0.542825
O O11 0.794498 0.819561 0.662429
O O12 0.000000 0.147670 0.997715
O O13 0.818563 0.911685 0.003931
O O14 0.771225 0.174227 0.920859
O O15 0.500000 0.168230 0.714926
O O16 0.723169 0.150917 0.631460
O O17 0.749805 0.024342 0.746888
O O18 0.000000 0.145158 0.254600
O O19 0.500000 0.279769 0.895859
O O20 0.000000 0.847443 0.096258
#
# Coordination Sequence:
#
# PCOD9338146 Si02
#       8
#     4   4   4   4   4   4   4   4
#     4   9  19  34  56  85 113 148 193 241 297 357
#     4  10  23  44  66  89 119 162 216 264 307 362
#     4  10  19  34  57  83 112 150 194 239 291 354
#     4  10  20  34  55  83 117 153 188 236 298 359
#     4  11  23  40  65  93 124 163 207 257 307 366
#     4  12  24  38  60  91 126 163 200 249 314 374
#     4   9  20  41  63  83 111 152 206 256 298 358
#     4  11  22  35  54  87 126 155 190 244 304 368
#
# _framework density 20.668628999999999
#
# number of rings (size 3 to 8) (size 9 to 14) (size 15 to 20)
#    0.000    1.750    1.250    4.125    0.000    8.500 
#    2.250    0.000    0.000    0.000    0.000    0.000 
#    0.000    0.000    0.000    0.000    0.000    0.000 
#
# Total GULP energy -178173.124253 kJ/mol
# GULP energy per Si atom -5567.910133 kJ/mol
# Density = 2.062159 g / cm^3
# Si number density = 20.668629 Si / 1000 Ang^3
#
#
#
# Elastic Constant Matrix: (Units=GPa)
#
#
# Indices 1 2 3 4 5 6 
#
# 1 65.2511 27.3824 -5.9200 0.0000 0.0000 0.0000
# 2 27.3824 66.1485 -5.0179 0.0000 0.0000 0.0000
# 3 -5.9200 -5.0179 31.8589 0.0000 0.0000 0.0000
# 4 0.0000 0.0000 0.0000 20.8445 0.0000 0.0000
# 5 0.0000 0.0000 0.0000 0.0000 11.1683 0.0000
# 6 0.0000 0.0000 0.0000 0.0000 0.0000 42.4230
#
#
#
# Elastic Compliance Matrix: (Units=1/GPa)
#
#
# Indices 1 2 3 4 5 6 
#
# 1 0.018710 -0.007572 0.002284 0.000000 0.000000 0.000000
# 2 -0.007572 0.018365 0.001486 0.000000 0.000000 0.000000
# 3 0.002284 0.001486 0.032047 0.000000 0.000000 0.000000
# 4 0.000000 0.000000 0.000000 0.047974 0.000000 0.000000
# 5 0.000000 0.000000 0.000000 0.000000 0.089539 0.000000
# 6 0.000000 0.000000 0.000000 0.000000 0.000000 0.023572
#
#
# Mechanical properties :
#
#
# Convention : Reuss Voigt Hill
#
# Bulk Modulus (GPa) = 16.25566 21.79417 19.02491
# Shear Modulus (GPa) = 19.35606 24.67478 22.01542
#
# Velocity S-wave (km/s) = 3.06354 3.45893 3.26722
# Velocity P-wave (km/s) = 4.51616 5.14973 4.84331
#
# Compressibility (1/GPa) = 0.06151704
#
# Stress axis : x y z
#
# Youngs Moduli (GPa) = 53.44700 54.45267 31.20433
#
# Poissons Ratio (x) = 0.41231 -0.07127
# Poissons Ratio (y) = 0.40469 -0.04635
# Poissons Ratio (z) = -0.12208 -0.08089
#
# Static dielectric constant tensor:
#      x y z
#    x 1.764130 0.000000 0.000000 
#    y 0.000000 1.839540 0.000000 
#    z 0.000000 0.000000 1.746030 
# 
# From -- ./inp_files/5529.got.cif
#   From: 2010.05.17/outbox.cif.g08.bks.cpg/sg26_3_cif.got.tgz:5529.got - 2010.06.04 01:07:29.
