data_PCOD9338862
_publ_section_title
;
Structure prediction by ZEFSAII (Michael W. Deem and Ramdas Pophale) SiO2 
 PCOD9338862
Probable space group: P C C 2
;
_chemical_formula_sum "Si O2"
_cell_formula_units_Z 22
_cell_length_a 13.182541
_cell_length_b 8.978575
_cell_length_c 8.644297
_cell_angle_alpha 90.000000
_cell_angle_beta 90.000000
_cell_angle_gamma 90.000000
_cell_volume 1023.142736
_symmetry_space_group_name_H-M "P C C 2"
_symmetry_group_IT_number 27
_symmetry_cell_setting 'orthorhombic'
loop_
_space_group_symop_operation_xyz
x,y,z
-x,-y,z
-x,y,1/2+z
x,-y,1/2+z
loop_
_atom_site_type_symbol
_atom_site_label
_atom_site_fract_x
_atom_site_fract_y
_atom_site_fract_z
Si Si1 0.366007 0.653504 0.973880
Si Si2 0.849308 0.189070 0.666543
Si Si3 0.159530 0.529957 0.473579
Si Si4 0.921180 0.286123 0.180077
Si Si5 0.500000 0.500000 0.229594
Si Si6 0.227972 0.910621 0.001585
O O1 0.443056 0.620399 0.835696
O O2 0.335747 0.825984 0.998982
O O3 0.263712 0.558016 0.940476
O O4 0.418342 0.583922 0.124245
O O5 0.819223 0.354218 0.612407
O O6 0.816130 0.133705 0.834577
O O7 0.971781 0.201894 0.674843
O O8 0.795477 0.081213 0.541309
O O9 0.110160 0.622929 0.333311
O O10 0.085208 0.403722 0.539885
O O11 0.834086 0.170046 0.138498
#
# Coordination Sequence:
#
# PCOD9338862 Si02
#       6
#     4   4   4   4   2   4
#     4  10  21  40  65  97 120 158 199 267 329 382
#     4  12  24  39  59  87 126 175 214 254 302 373
#     4  11  22  39  64  92 132 165 214 262 314 373
#     4  11  23  39  59  91 127 173 217 257 300 362
#     4  10  20  38  72  98 122 146 210 268 332 406
#     4  11  24  41  61  86 129 167 212 259 317 375
#
# _framework density 21.502376999999999
#
# number of rings (size 3 to 8) (size 9 to 14) (size 15 to 20)
#    0.000    1.091    0.000    8.727    0.000    4.364 
#    0.000    1.818    0.000   18.545    0.000    0.000 
#    0.000    0.000    0.000    0.000    0.000    0.000 
#
# Total GULP energy -122911.634128 kJ/mol
# GULP energy per Si atom -5586.892460 kJ/mol
# Density = 2.145344 g / cm^3
# Si number density = 21.502377 Si / 1000 Ang^3
#
#
#
# Elastic Constant Matrix: (Units=GPa)
#
#
# Indices 1 2 3 4 5 6 
#
# 1 92.1897 24.7761 29.2877 0.0000 0.0000 0.0000
# 2 24.7761 91.7412 13.5678 0.0000 0.0000 0.0000
# 3 29.2877 13.5678 96.7213 0.0000 0.0000 0.0000
# 4 0.0000 0.0000 0.0000 33.6049 0.0000 0.0000
# 5 0.0000 0.0000 0.0000 0.0000 18.8070 0.0000
# 6 0.0000 0.0000 0.0000 0.0000 0.0000 26.2486
#
#
#
# Elastic Compliance Matrix: (Units=1/GPa)
#
#
# Indices 1 2 3 4 5 6 
#
# 1 0.012728 -0.002928 -0.003443 0.000000 0.000000 0.000000
# 2 -0.002928 0.011805 -0.000769 0.000000 0.000000 0.000000
# 3 -0.003443 -0.000769 0.011490 0.000000 0.000000 0.000000
# 4 0.000000 0.000000 0.000000 0.029758 0.000000 0.000000
# 5 0.000000 0.000000 0.000000 0.000000 0.053172 0.000000
# 6 0.000000 0.000000 0.000000 0.000000 0.000000 0.038097
#
#
# Mechanical properties :
#
#
# Convention : Reuss Voigt Hill
#
# Bulk Modulus (GPa) = 45.99646 46.21282 46.10464
# Shear Modulus (GPa) = 27.99905 29.93347 28.96626
#
# Velocity S-wave (km/s) = 3.61243 3.73513 3.67429
# Velocity P-wave (km/s) = 6.23196 6.33563 6.28401
#
# Compressibility (1/GPa) = 0.02174080
#
# Stress axis : x y z
#
# Youngs Moduli (GPa) = 78.56647 84.71141 87.03543
#
# Poissons Ratio (x) = 0.24805 0.29970
# Poissons Ratio (y) = 0.23005 0.06695
# Poissons Ratio (z) = 0.27053 0.06517
#
# Static dielectric constant tensor:
#      x y z
#    x 1.782870 0.000000 0.000000 
#    y 0.000000 1.850360 0.000000 
#    z 0.000000 0.000000 1.818980 
# 
# From -- ./inp_files/1564.got.cif
#   From: 2010.05.17/outbox.cif.g08.bks.cpg/sg27_1_cif.got.tgz:1564.got - 2010.06.04 01:11:05.
