data_PCOD9338467
_publ_section_title
;
Structure prediction by ZEFSAII (Michael W. Deem and Ramdas Pophale) SiO2 
 PCOD9338467
Probable space group: P M C 21
;
_chemical_formula_sum "Si O2"
_cell_formula_units_Z 32
_cell_length_a 9.060731
_cell_length_b 14.711589
_cell_length_c 12.388448
_cell_angle_alpha 90.000000
_cell_angle_beta 90.000000
_cell_angle_gamma 90.000000
_cell_volume 1651.352251
_symmetry_space_group_name_H-M "P M C 21"
_symmetry_group_IT_number 26
_symmetry_cell_setting 'orthorhombic'
loop_
_space_group_symop_operation_xyz
x,y,z
-x,-y,1/2+z
-x,y,z
x,-y,1/2+z
loop_
_atom_site_type_symbol
_atom_site_label
_atom_site_fract_x
_atom_site_fract_y
_atom_site_fract_z
Si Si1 0.322874 0.677516 0.359150
Si Si2 0.163443 0.134168 0.576651
Si Si3 0.327131 0.054306 0.385704
Si Si4 0.822828 0.223484 0.274268
Si Si5 0.676579 0.651172 0.608694
Si Si6 0.830160 0.667060 0.987693
Si Si7 0.829963 0.128311 0.829168
Si Si8 0.322490 0.548599 0.161320
O O1 0.500000 0.689641 0.347412
O O2 0.295103 0.643704 0.480825
O O3 0.243665 0.774128 0.347225
O O4 0.274302 0.607415 0.265379
O O5 0.289613 0.090671 0.504985
O O6 0.172769 0.242544 0.562059
O O7 0.171393 0.110569 0.700863
O O8 0.000000 0.107673 0.533287
O O9 0.500000 0.054520 0.363489
O O10 0.245703 0.126423 0.306910
O O11 0.260515 0.954085 0.379235
O O12 0.759675 0.265363 0.164720
O O13 0.781639 0.294408 0.371146
O O14 0.000000 0.216593 0.272776
O O15 0.500000 0.662989 0.623204
O O16 0.723626 0.556503 0.664050
O O17 0.000000 0.636420 0.978690
O O18 0.735176 0.593497 0.050664
O O19 0.000000 0.128838 0.866003
O O20 0.500000 0.549985 0.159181
#
# Coordination Sequence:
#
# PCOD9338467 Si02
#       8
#     4   4   4   4   4   4   4   4
#     4  10  22  40  59  89 127 158 201 256 304 361
#     4   9  19  37  58  83 115 152 198 249 299 355
#     4  11  23  38  61  91 121 158 202 250 307 369
#     4  10  22  41  61  86 121 159 203 254 304 360
#     4  10  23  40  60  88 125 166 206 252 306 366
#     4   9  18  35  58  84 113 146 193 250 297 350
#     4  11  22  39  63  88 119 160 203 251 304 363
#     4  10  21  36  60  89 119 157 200 248 303 360
#
# _framework density 19.378059
#
# number of rings (size 3 to 8) (size 9 to 14) (size 15 to 20)
#    0.000    2.000    1.250    2.625    1.750    5.500 
#    0.000    0.000    0.000    0.000    0.000    0.000 
#    0.000    0.000    0.000    0.000    0.000    0.000 
#
# Total GULP energy -178623.983863 kJ/mol
# GULP energy per Si atom -5581.999496 kJ/mol
# Density = 1.933395 g / cm^3
# Si number density = 19.378059 Si / 1000 Ang^3
#
#
#
# Elastic Constant Matrix: (Units=GPa)
#
#
# Indices 1 2 3 4 5 6 
#
# 1 64.4415 47.9165 29.4654 0.0000 0.0000 0.0000
# 2 47.9165 106.7249 27.2153 0.0000 0.0000 0.0000
# 3 29.4654 27.2153 43.2708 0.0000 0.0000 0.0000
# 4 0.0000 0.0000 0.0000 20.1801 0.0000 0.0000
# 5 0.0000 0.0000 0.0000 0.0000 29.2732 0.0000
# 6 0.0000 0.0000 0.0000 0.0000 0.0000 2.6049
#
#
#
# Elastic Compliance Matrix: (Units=1/GPa)
#
#
# Indices 1 2 3 4 5 6 
#
# 1 0.028784 -0.009439 -0.013664 0.000000 0.000000 0.000000
# 2 -0.009439 0.014255 -0.002538 0.000000 0.000000 0.000000
# 3 -0.013664 -0.002538 0.034011 0.000000 0.000000 0.000000
# 4 0.000000 0.000000 0.000000 0.049554 0.000000 0.000000
# 5 0.000000 0.000000 0.000000 0.000000 0.034161 0.000000
# 6 0.000000 0.000000 0.000000 0.000000 0.000000 0.383891
#
#
# Mechanical properties :
#
#
# Convention : Reuss Voigt Hill
#
# Bulk Modulus (GPa) = 38.80777 47.07016 42.93896
# Shear Modulus (GPa) = 8.27092 17.73431 13.00261
#
# Velocity S-wave (km/s) = 2.06820 3.02847 2.59317
# Velocity P-wave (km/s) = 5.07675 6.04748 5.58325
#
# Compressibility (1/GPa) = 0.02576804
#
# Stress axis : x y z
#
# Youngs Moduli (GPa) = 34.74133 70.15116 29.40196
#
# Poissons Ratio (x) = 0.66215 0.40175
# Poissons Ratio (y) = 0.32792 0.07463
# Poissons Ratio (z) = 0.47471 0.17806
#
# Static dielectric constant tensor:
#      x y z
#    x 1.667880 0.000000 0.000000 
#    y 0.000000 1.656790 0.000000 
#    z 0.000000 0.000000 1.685390 
# 
# From -- ./inp_files/2948.got.cif
#   From: 2010.05.17/outbox.cif.g08.bks.cpg/sg26_2_cif.got.tgz:2948.got - 2010.06.04 01:07:29.
