data_PCOD9338248
_publ_section_title
;
Structure prediction by ZEFSAII (Michael W. Deem and Ramdas Pophale) SiO2 
 PCOD9338248
Probable space group: P M C 21
;
_chemical_formula_sum "Si O2"
_cell_formula_units_Z 24
_cell_length_a 7.686134
_cell_length_b 7.843302
_cell_length_c 14.430243
_cell_angle_alpha 90.000000
_cell_angle_beta 90.000000
_cell_angle_gamma 90.000000
_cell_volume 869.922440
_symmetry_space_group_name_H-M "P M C 21"
_symmetry_group_IT_number 26
_symmetry_cell_setting 'orthorhombic'
loop_
_space_group_symop_operation_xyz
x,y,z
-x,-y,1/2+z
-x,y,z
x,-y,1/2+z
loop_
_atom_site_type_symbol
_atom_site_label
_atom_site_fract_x
_atom_site_fract_y
_atom_site_fract_z
Si Si1 0.795369 0.409907 0.130220
Si Si2 0.798127 0.861419 0.163870
Si Si3 0.704039 0.630141 0.960746
Si Si4 0.211851 0.703163 0.341182
Si Si5 0.789512 0.920776 0.503679
Si Si6 0.703002 0.177863 0.289609
O O1 0.751456 0.249631 0.063518
O O2 0.711488 0.350034 0.226379
O O3 0.000000 0.410299 0.149446
O O4 0.762388 0.573685 0.063851
O O5 0.718472 0.924676 0.066547
O O6 0.795731 0.032884 0.228840
O O7 0.000000 0.821703 0.147139
O O8 0.723061 0.725006 0.236367
O O9 0.500000 0.657716 0.964774
O O10 0.736839 0.461244 0.898638
O O11 0.779512 0.775591 0.891414
O O12 0.271877 0.865635 0.402436
O O13 0.000000 0.704868 0.337737
O O14 0.000000 0.935547 0.501384
O O15 0.500000 0.133186 0.296678
#
# Coordination Sequence:
#
# PCOD9338248 Si02
#       6
#     4   4   4   4   4   4
#     4   9  17  31  52  73  94 126 168 208 244 289
#     4   9  17  30  49  71  95 125 163 205 243 284
#     4  10  20  33  50  73 102 134 165 200 245 297
#     4   9  17  30  49  71  95 125 163 205 243 284
#     4   7  12  25  44  65  88 116 152 192 234 279
#     4  10  20  33  50  73 102 134 165 200 245 297
#
# _framework density 27.588666
#
# number of rings (size 3 to 8) (size 9 to 14) (size 15 to 20)
#    0.000    3.000    0.000    3.500    0.000    3.333 
#    0.000    1.667    0.000    2.000    0.000    0.000 
#    0.000    0.000    0.000    0.000    0.000    0.000 
#
# Total GULP energy -134196.757383 kJ/mol
# GULP energy per Si atom -5591.531558 kJ/mol
# Density = 2.752587 g / cm^3
# Si number density = 27.588666 Si / 1000 Ang^3
#
#
#
# Elastic Constant Matrix: (Units=GPa)
#
#
# Indices 1 2 3 4 5 6 
#
# 1 57.1172 -3.0223 21.6115 0.0000 0.0000 0.0000
# 2 -3.0223 92.6523 0.7390 0.0000 0.0000 0.0000
# 3 21.6115 0.7390 224.5686 0.0000 0.0000 0.0000
# 4 0.0000 0.0000 0.0000 61.9877 0.0000 0.0000
# 5 0.0000 0.0000 0.0000 0.0000 20.5976 0.0000
# 6 0.0000 0.0000 0.0000 0.0000 0.0000 50.0448
#
#
#
# Elastic Compliance Matrix: (Units=1/GPa)
#
#
# Indices 1 2 3 4 5 6 
#
# 1 0.018204 0.000608 -0.001754 0.000000 0.000000 0.000000
# 2 0.000608 0.010814 -0.000094 0.000000 0.000000 0.000000
# 3 -0.001754 -0.000094 0.004622 0.000000 0.000000 0.000000
# 4 0.000000 0.000000 0.000000 0.016132 0.000000 0.000000
# 5 0.000000 0.000000 0.000000 0.000000 0.048549 0.000000
# 6 0.000000 0.000000 0.000000 0.000000 0.000000 0.019982
#
#
# Mechanical properties :
#
#
# Convention : Reuss Voigt Hill
#
# Bulk Modulus (GPa) = 32.09339 45.88827 38.99083
# Shear Modulus (GPa) = 38.11860 50.19334 44.15597
#
# Velocity S-wave (km/s) = 3.72112 4.27001 4.00498
# Velocity P-wave (km/s) = 5.48821 6.40154 5.96239
#
# Compressibility (1/GPa) = 0.03115907
#
# Stress axis : x y z
#
# Youngs Moduli (GPa) = 54.93412 92.47601 216.35313
#
# Poissons Ratio (x) = -0.05621 0.37945
# Poissons Ratio (y) = -0.03339 0.02035
# Poissons Ratio (z) = 0.09635 0.00870
#
# Static dielectric constant tensor:
#      x y z
#    x 2.042440 0.000000 0.000000 
#    y 0.000000 2.340500 0.000000 
#    z 0.000000 0.000000 2.211890 
# 
# From -- ./inp_files/4873.got.cif
#   From: 2010.05.17/outbox.cif.g08.bks.cpg/sg26_3_cif.got.tgz:4873.got - 2010.06.04 01:07:29.
