data_PCOD9338006
_publ_section_title
;
Structure prediction by ZEFSAII (Michael W. Deem and Ramdas Pophale) SiO2 
 PCOD9338006
Probable space group: P M C 21
;
_chemical_formula_sum "Si O2"
_cell_formula_units_Z 28
_cell_length_a 16.722539
_cell_length_b 9.490670
_cell_length_c 8.098828
_cell_angle_alpha 90.000000
_cell_angle_beta 90.000000
_cell_angle_gamma 90.000000
_cell_volume 1285.349598
_symmetry_space_group_name_H-M "P M C 21"
_symmetry_group_IT_number 26
_symmetry_cell_setting 'orthorhombic'
loop_
_space_group_symop_operation_xyz
x,y,z
-x,-y,1/2+z
-x,y,z
x,-y,1/2+z
loop_
_atom_site_type_symbol
_atom_site_label
_atom_site_fract_x
_atom_site_fract_y
_atom_site_fract_z
Si Si1 0.592282 0.962154 0.226780
Si Si2 0.174021 0.832033 0.586509
Si Si3 0.000000 0.169329 0.082454
Si Si4 0.173876 0.838677 0.984559
Si Si5 0.659701 0.708021 0.058998
Si Si6 0.000000 0.841372 0.980262
Si Si7 0.346502 0.211772 0.039055
Si Si8 0.406447 0.545922 0.745155
O O1 0.500000 0.003695 0.234557
O O2 0.618753 0.875756 0.387004
O O3 0.645062 0.098540 0.188920
O O4 0.606962 0.848233 0.082005
O O5 0.176522 0.826813 0.785726
O O6 0.252832 0.756574 0.518446
O O7 0.087160 0.774712 0.529625
O O8 0.180318 0.996119 0.532143
O O9 0.000000 0.171477 0.281792
O O10 0.000000 0.006823 0.024921
O O11 0.248591 0.755913 0.058487
O O12 0.085824 0.786623 0.041404
O O13 0.635586 0.627221 0.893757
O O14 0.636940 0.599342 0.203028
O O15 0.395537 0.348879 0.089302
O O16 0.500000 0.523756 0.777075
#
# Coordination Sequence:
#
# PCOD9338006 Si02
#       8
#     4   4   2   4   4   2   4   4
#     4  12  24  39  59  88 117 157 201 255 312 356
#     4  10  18  35  57  94 125 157 195 238 297 351
#     4   8  16  28  54  85 127 158 186 234 286 354
#     4  10  19  36  61  93 127 160 199 242 302 357
#     4  12  25  43  64  84 117 157 206 256 304 366
#     4   8  16  30  56  89 125 160 192 238 290 360
#     4  12  23  39  61  88 125 155 199 254 300 366
#     4  12  25  43  61  84 115 159 207 254 306 366
#
# _framework density 21.783954999999999
#
# number of rings (size 3 to 8) (size 9 to 14) (size 15 to 20)
#    0.000    1.143    2.857    5.143    0.000    0.000 
#    0.000    0.000    0.000    1.714    0.000    0.000 
#    0.000    0.000    0.000    0.000    0.000    0.000 
#
# Total GULP energy -156572.505386 kJ/mol
# GULP energy per Si atom -5591.875192 kJ/mol
# Density = 2.173437 g / cm^3
# Si number density = 21.783955 Si / 1000 Ang^3
#
#
#
# Elastic Constant Matrix: (Units=GPa)
#
#
# Indices 1 2 3 4 5 6 
#
# 1 177.4645 -4.5234 -7.7506 0.0000 0.0000 0.0000
# 2 -4.5234 47.6634 -3.6509 0.0000 0.0000 0.0000
# 3 -7.7506 -3.6509 36.6672 0.0000 0.0000 0.0000
# 4 0.0000 0.0000 0.0000 34.8406 0.0000 0.0000
# 5 0.0000 0.0000 0.0000 0.0000 23.2192 0.0000
# 6 0.0000 0.0000 0.0000 0.0000 0.0000 26.2311
#
#
#
# Elastic Compliance Matrix: (Units=1/GPa)
#
#
# Indices 1 2 3 4 5 6 
#
# 1 0.005707 0.000639 0.001270 0.000000 0.000000 0.000000
# 2 0.000639 0.021213 0.002247 0.000000 0.000000 0.000000
# 3 0.001270 0.002247 0.027764 0.000000 0.000000 0.000000
# 4 0.000000 0.000000 0.000000 0.028702 0.000000 0.000000
# 5 0.000000 0.000000 0.000000 0.000000 0.043068 0.000000
# 6 0.000000 0.000000 0.000000 0.000000 0.000000 0.038123
#
#
# Mechanical properties :
#
#
# Convention : Reuss Voigt Hill
#
# Bulk Modulus (GPa) = 15.87395 25.54947 20.71171
# Shear Modulus (GPa) = 28.20652 35.37285 31.78969
#
# Velocity S-wave (km/s) = 3.60228 4.03402 3.82424
# Velocity P-wave (km/s) = 4.96031 5.78375 5.38778
#
# Compressibility (1/GPa) = 0.06299628
#
# Stress axis : x y z
#
# Youngs Moduli (GPa) = 175.23347 47.14037 36.01725
#
# Poissons Ratio (x) = -0.03012 -0.04574
# Poissons Ratio (y) = -0.11195 -0.08094
# Poissons Ratio (z) = -0.22252 -0.10594
#
# Static dielectric constant tensor:
#      x y z
#    x 1.809870 0.000000 0.000000 
#    y 0.000000 1.760310 0.000000 
#    z 0.000000 0.000000 1.927940 
# 
# From -- ./inp_files/2418.got.cif
#   From: 2010.05.17/outbox.cif.g08.bks.cpg/sg26_2_cif.got.tgz:2418.got - 2010.06.04 01:07:29.
