data_PCOD9338574
_publ_section_title
;
Structure prediction by ZEFSAII (Michael W. Deem and Ramdas Pophale) SiO2 
 PCOD9338574
Probable space group: P M C 21
;
_chemical_formula_sum "Si O2"
_cell_formula_units_Z 18
_cell_length_a 7.265093
_cell_length_b 11.959899
_cell_length_c 8.212392
_cell_angle_alpha 90.000000
_cell_angle_beta 90.000000
_cell_angle_gamma 90.000000
_cell_volume 713.572922
_symmetry_space_group_name_H-M "P M C 21"
_symmetry_group_IT_number 26
_symmetry_cell_setting 'orthorhombic'
loop_
_space_group_symop_operation_xyz
x,y,z
-x,-y,1/2+z
-x,y,z
x,-y,1/2+z
loop_
_atom_site_type_symbol
_atom_site_label
_atom_site_fract_x
_atom_site_fract_y
_atom_site_fract_z
Si Si1 0.775207 0.671750 0.856700
Si Si2 0.785529 0.118085 0.179599
Si Si3 0.500000 0.913939 0.176232
Si Si4 0.788341 0.752209 0.339780
Si Si5 0.779721 0.537403 0.173293
O O1 0.718131 0.799225 0.824096
O O2 0.713593 0.585795 0.716041
O O3 0.000000 0.675966 0.854729
O O4 0.715480 0.609917 0.020536
O O5 0.000000 0.087744 0.206341
O O6 0.659332 0.011814 0.155641
O O7 0.774549 0.194537 0.018264
O O8 0.658347 0.822574 0.224797
O O9 0.747848 0.620389 0.326228
O O10 0.000000 0.763923 0.285661
O O11 0.000000 0.525165 0.151035
#
# Coordination Sequence:
#
# PCOD9338574 Si02
#       5
#     4   4   2   4   4
#     4   9  17  32  58  90 122 156 196 245 303 365
#     4  10  22  40  62  89 122 160 203 252 305 362
#     4  12  24  40  62  88 118 160 208 256 304 358
#     4  10  22  40  62  89 122 160 203 252 305 362
#     4   9  17  32  58  90 122 156 196 245 303 365
#
# _framework density 25.225172000000001
#
# number of rings (size 3 to 8) (size 9 to 14) (size 15 to 20)
#    0.000    2.222    0.000    2.667    0.000    8.889 
#    0.000    5.556    0.000    0.000    0.000    0.000 
#    0.000    0.000    0.000    0.000    0.000    0.000 
#
# Total GULP energy -100211.391085 kJ/mol
# GULP energy per Si atom -5567.299505 kJ/mol
# Density = 2.516776 g / cm^3
# Si number density = 25.225172 Si / 1000 Ang^3
#
#
#
# Elastic Constant Matrix: (Units=GPa)
#
#
# Indices 1 2 3 4 5 6 
#
# 1 117.2066 42.4975 5.2714 0.0000 0.0000 0.0000
# 2 42.4975 88.4571 -16.6653 0.0000 0.0000 0.0000
# 3 5.2714 -16.6653 50.3619 0.0000 0.0000 0.0000
# 4 0.0000 0.0000 0.0000 -16.1141 0.0000 0.0000
# 5 0.0000 0.0000 0.0000 0.0000 185.2478 0.0000
# 6 0.0000 0.0000 0.0000 0.0000 0.0000 11.2071
#
#
#
# Elastic Compliance Matrix: (Units=1/GPa)
#
#
# Indices 1 2 3 4 5 6 
#
# 1 0.010746 -0.005732 -0.003022 0.000000 0.000000 0.000000
# 2 -0.005732 0.015114 0.005601 0.000000 0.000000 0.000000
# 3 -0.003022 0.005601 0.022026 0.000000 0.000000 0.000000
# 4 0.000000 0.000000 0.000000 -0.062058 0.000000 0.000000
# 5 0.000000 0.000000 0.000000 0.000000 0.005398 0.000000
# 6 0.000000 0.000000 0.000000 0.000000 0.000000 0.089229
#
#
# Mechanical properties :
#
#
# Convention : Reuss Voigt Hill
#
# Bulk Modulus (GPa) = 24.04897 35.35920 29.70409
# Shear Modulus (GPa) = 49.69114 51.06296 50.37705
#
# Velocity S-wave (km/s) = 4.44317 4.50409 4.47373
# Velocity P-wave (km/s) = 5.98973 6.41069 6.20378
#
# Compressibility (1/GPa) = 0.04158182
#
# Stress axis : x y z
#
# Youngs Moduli (GPa) = 93.05595 66.16336 45.40064
#
# Poissons Ratio (x) = 0.37925 0.13718
# Poissons Ratio (y) = 0.53341 -0.25431
# Poissons Ratio (z) = 0.28118 -0.37061
#
# Static dielectric constant tensor:
#      x y z
#    x 1.957100 0.000000 0.000000 
#    y 0.000000 1.994300 0.000000 
#    z 0.000000 0.000000 2.125650 
# 
# From -- ./inp_files/1259.got.cif
#   From: 2010.05.17/outbox.cif.g08.bks.cpg/sg26_1_cif.got.tgz:1259.got - 2010.06.04 01:07:29.
