data_PCOD9338261
_publ_section_title
;
Structure prediction by ZEFSAII (Michael W. Deem and Ramdas Pophale) SiO2 
 PCOD9338261
Probable space group: P M C 21
;
_chemical_formula_sum "Si O2"
_cell_formula_units_Z 24
_cell_length_a 20.090421
_cell_length_b 10.408839
_cell_length_c 5.262618
_cell_angle_alpha 90.000000
_cell_angle_beta 90.000000
_cell_angle_gamma 90.000000
_cell_volume 1100.507928
_symmetry_space_group_name_H-M "P M C 21"
_symmetry_group_IT_number 26
_symmetry_cell_setting 'orthorhombic'
loop_
_space_group_symop_operation_xyz
x,y,z
-x,-y,1/2+z
-x,y,z
x,-y,1/2+z
loop_
_atom_site_type_symbol
_atom_site_label
_atom_site_fract_x
_atom_site_fract_y
_atom_site_fract_z
Si Si1 0.355459 0.818463 0.753990
Si Si2 0.500000 0.921733 0.758612
Si Si3 0.000000 0.415539 0.040976
Si Si4 0.857075 0.413893 0.139491
Si Si5 0.262075 0.701666 0.356191
Si Si6 0.239428 0.926904 0.015357
Si Si7 0.634310 0.531234 0.858326
O O1 0.431670 0.847753 0.710817
O O2 0.314674 0.796020 0.493935
O O3 0.318475 0.917635 0.940529
O O4 0.348782 0.679187 0.885327
O O5 0.500000 0.035760 0.552449
O O6 0.070628 0.349549 0.095901
O O7 0.000000 0.469034 0.752598
O O8 0.854089 0.526362 0.921394
O O9 0.795459 0.327057 0.060382
O O10 0.301858 0.565736 0.320695
O O11 0.229309 0.782357 0.125927
O O12 0.214980 0.980838 0.743617
O O13 0.595766 0.518532 0.597989
#
# Coordination Sequence:
#
# PCOD9338261 Si02
#       7
#     4   2   2   4   4   4   4
#     4  11  24  44  64  91 119 157 206 260 312 378
#     4  12  30  46  68  88 118 168 214 252 318 382
#     4   8  16  32  50  84 134 176 206 244 292 372
#     4  10  20  33  58  93 134 173 208 247 310 377
#     4  11  23  38  65  94 126 161 204 258 321 371
#     4  12  24  39  60  85 119 157 200 257 304 357
#     4  10  20  35  59  88 118 148 185 240 304 368
#
# _framework density 21.808114
#
# number of rings (size 3 to 8) (size 9 to 14) (size 15 to 20)
#    0.000    1.333    3.333    3.000    4.667    0.000 
#    0.000    3.333    0.000    0.000    0.000    1.167 
#    0.000    0.000    0.000    0.000    0.000    0.000 
#
# Total GULP energy -133704.559512 kJ/mol
# GULP energy per Si atom -5571.023313 kJ/mol
# Density = 2.175848 g / cm^3
# Si number density = 21.808114 Si / 1000 Ang^3
#
#
#
# Elastic Constant Matrix: (Units=GPa)
#
#
# Indices 1 2 3 4 5 6 
#
# 1 71.7544 13.5103 -10.1264 0.0000 0.0000 0.0000
# 2 13.5103 82.3076 6.1698 0.0000 0.0000 0.0000
# 3 -10.1264 6.1698 97.7500 0.0000 0.0000 0.0000
# 4 0.0000 0.0000 0.0000 42.7163 0.0000 0.0000
# 5 0.0000 0.0000 0.0000 0.0000 20.9959 0.0000
# 6 0.0000 0.0000 0.0000 0.0000 0.0000 12.7221
#
#
#
# Elastic Compliance Matrix: (Units=1/GPa)
#
#
# Indices 1 2 3 4 5 6 
#
# 1 0.014650 -0.002530 0.001677 0.000000 0.000000 0.000000
# 2 -0.002530 0.012644 -0.001060 0.000000 0.000000 0.000000
# 3 0.001677 -0.001060 0.010471 0.000000 0.000000 0.000000
# 4 0.000000 0.000000 0.000000 0.023410 0.000000 0.000000
# 5 0.000000 0.000000 0.000000 0.000000 0.047628 0.000000
# 6 0.000000 0.000000 0.000000 0.000000 0.000000 0.078603
#
#
# Mechanical properties :
#
#
# Convention : Reuss Voigt Hill
#
# Bulk Modulus (GPa) = 29.46525 30.10215 29.78370
# Shear Modulus (GPa) = 24.68577 31.43742 28.06160
#
# Velocity S-wave (km/s) = 3.36810 3.80089 3.59102
# Velocity P-wave (km/s) = 5.35406 5.75287 5.55704
#
# Compressibility (1/GPa) = 0.03393829
#
# Stress axis : x y z
#
# Youngs Moduli (GPa) = 68.26135 79.08665 95.50315
#
# Poissons Ratio (x) = 0.20012 -0.16019
# Poissons Ratio (y) = 0.17273 0.10125
# Poissons Ratio (z) = -0.11450 0.08385
#
# Static dielectric constant tensor:
#      x y z
#    x 1.801500 0.000000 0.000000 
#    y 0.000000 1.867890 0.000000 
#    z 0.000000 0.000000 1.951630 
# 
# From -- ./inp_files/747.got.cif
#   From: 2010.05.17/outbox.cif.g08.bks.cpg/sg26_1_cif.got.tgz:747.got - 2010.06.04 01:07:29.
