data_PCOD9338447
_publ_section_title
;
Structure prediction by ZEFSAII (Michael W. Deem and Ramdas Pophale) SiO2 
 PCOD9338447
Probable space group: P M C 21
;
_chemical_formula_sum "Si O2"
_cell_formula_units_Z 32
_cell_length_a 7.388835
_cell_length_b 19.358690
_cell_length_c 8.224885
_cell_angle_alpha 90.000000
_cell_angle_beta 90.000000
_cell_angle_gamma 90.000000
_cell_volume 1176.472468
_symmetry_space_group_name_H-M "P M C 21"
_symmetry_group_IT_number 26
_symmetry_cell_setting 'orthorhombic'
loop_
_space_group_symop_operation_xyz
x,y,z
-x,-y,1/2+z
-x,y,z
x,-y,1/2+z
loop_
_atom_site_type_symbol
_atom_site_label
_atom_site_fract_x
_atom_site_fract_y
_atom_site_fract_z
Si Si1 0.709495 0.479946 0.612600
Si Si2 0.289250 0.983503 0.006788
Si Si3 0.790006 0.266939 0.112778
Si Si4 0.719624 0.894986 0.311403
Si Si5 0.280164 0.394618 0.306727
Si Si6 0.209874 0.231523 0.614590
Si Si7 0.780404 0.856002 0.808419
Si Si8 0.780175 0.645191 0.311686
O O1 0.500000 0.490792 0.573051
O O2 0.784568 0.554374 0.661287
O O3 0.787497 0.432971 0.468981
O O4 0.719101 0.431771 0.773398
O O5 0.500000 0.992766 0.042784
O O6 0.277311 0.933887 0.847256
O O7 0.214838 0.058782 0.962139
O O8 0.212584 0.938780 0.153923
O O9 0.781071 0.317179 0.270390
O O10 0.714980 0.191646 0.159261
O O11 0.000000 0.256252 0.073592
O O12 0.711763 0.314880 0.971037
O O13 0.500000 0.894418 0.312543
O O14 0.778858 0.817544 0.274573
O O15 0.500000 0.393432 0.308923
O O16 0.287067 0.187292 0.466940
O O17 0.285186 0.305333 0.664100
O O18 0.000000 0.241430 0.577195
O O19 0.000000 0.856575 0.806613
O O20 0.000000 0.644231 0.314749
#
# Coordination Sequence:
#
# PCOD9338447 Si02
#       8
#     4   4   4   4   4   4   4   4
#     4  10  21  37  57  80 106 137 173 213 257 305
#     4   9  18  32  49  70  97 128 163 204 250 301
#     4  10  21  36  54  78 107 138 173 213 257 306
#     4   9  18  32  49  70  97 128 163 204 250 301
#     4  10  21  37  57  80 106 137 173 213 257 305
#     4   9  18  33  51  71  98 132 168 207 252 301
#     4   9  18  33  51  71  98 132 168 207 252 301
#     4  10  21  36  54  78 107 138 173 213 257 306
#
# _framework density 27.199954999999999
#
# number of rings (size 3 to 8) (size 9 to 14) (size 15 to 20)
#    0.000    2.500    0.000    1.500    0.000    6.000 
#    0.000    2.500    0.000    0.000    0.000    0.000 
#    0.000    0.000    0.000    0.000    0.000    0.000 
#
# Total GULP energy -179018.729342 kJ/mol
# GULP energy per Si atom -5594.335292 kJ/mol
# Density = 2.713805 g / cm^3
# Si number density = 27.199955 Si / 1000 Ang^3
#
#
#
# Elastic Constant Matrix: (Units=GPa)
#
#
# Indices 1 2 3 4 5 6 
#
# 1 118.1307 -10.4258 -1.3959 0.0000 0.0000 0.0000
# 2 -10.4258 164.3129 11.1537 0.0000 0.0000 0.0000
# 3 -1.3959 11.1537 69.1913 0.0000 0.0000 0.0000
# 4 0.0000 0.0000 0.0000 50.8740 0.0000 0.0000
# 5 0.0000 0.0000 0.0000 0.0000 12.0164 0.0000
# 6 0.0000 0.0000 0.0000 0.0000 0.0000 20.5669
#
#
#
# Elastic Compliance Matrix: (Units=1/GPa)
#
#
# Indices 1 2 3 4 5 6 
#
# 1 0.008513 0.000534 0.000086 0.000000 0.000000 0.000000
# 2 0.000534 0.006187 -0.000987 0.000000 0.000000 0.000000
# 3 0.000086 -0.000987 0.014613 0.000000 0.000000 0.000000
# 4 0.000000 0.000000 0.000000 0.019656 0.000000 0.000000
# 5 0.000000 0.000000 0.000000 0.000000 0.083219 0.000000
# 6 0.000000 0.000000 0.000000 0.000000 0.000000 0.048622
#
#
# Mechanical properties :
#
#
# Convention : Reuss Voigt Hill
#
# Bulk Modulus (GPa) = 34.98887 38.92210 36.95548
# Shear Modulus (GPa) = 26.16825 40.17832 33.17328
#
# Velocity S-wave (km/s) = 3.10509 3.84754 3.49608
# Velocity P-wave (km/s) = 5.07414 5.83770 5.46926
#
# Compressibility (1/GPa) = 0.02858052
#
# Stress axis : x y z
#
# Youngs Moduli (GPa) = 117.46229 161.63384 68.43019
#
# Poissons Ratio (x) = -0.08637 -0.00586
# Poissons Ratio (y) = -0.06277 0.06751
# Poissons Ratio (z) = -0.01006 0.15946
#
# Static dielectric constant tensor:
#      x y z
#    x 1.984560 0.000000 0.000000 
#    y 0.000000 2.047850 0.000000 
#    z 0.000000 0.000000 2.268380 
# 
# From -- ./inp_files/1588.got.cif
#   From: 2010.05.17/outbox.cif.g08.bks.cpg/sg26_1_cif.got.tgz:1588.got - 2010.06.04 01:07:29.
