data_PCOD9338542
_publ_section_title
;
Structure prediction by ZEFSAII (Michael W. Deem and Ramdas Pophale) SiO2 
 PCOD9338542
Probable space group: P M C 21
;
_chemical_formula_sum "Si O2"
_cell_formula_units_Z 20
_cell_length_a 11.752311
_cell_length_b 5.825599
_cell_length_c 13.291562
_cell_angle_alpha 90.000000
_cell_angle_beta 90.000000
_cell_angle_gamma 90.000000
_cell_volume 909.996840
_symmetry_space_group_name_H-M "P M C 21"
_symmetry_group_IT_number 26
_symmetry_cell_setting 'orthorhombic'
loop_
_space_group_symop_operation_xyz
x,y,z
-x,-y,1/2+z
-x,y,z
x,-y,1/2+z
loop_
_atom_site_type_symbol
_atom_site_label
_atom_site_fract_x
_atom_site_fract_y
_atom_site_fract_z
Si Si1 0.132190 0.995194 0.228640
Si Si2 0.276500 0.983764 0.050125
Si Si3 0.873775 0.305591 0.932122
Si Si4 0.270740 0.679356 0.859181
Si Si5 0.500000 0.021307 0.180191
Si Si6 0.500000 0.522676 0.291653
O O1 0.222701 0.193756 0.260158
O O2 0.000000 0.065238 0.214190
O O3 0.184416 0.878466 0.128798
O O4 0.134095 0.833840 0.327144
O O5 0.390441 0.014914 0.110633
O O6 0.305586 0.850409 0.947874
O O7 0.215922 0.213391 0.011738
O O8 0.841441 0.560202 0.903175
O O9 0.000000 0.278654 0.972220
O O10 0.375762 0.504356 0.844092
O O11 0.500000 0.778686 0.242609
O O12 0.500000 0.270328 0.235201
#
# Coordination Sequence:
#
# PCOD9338542 Si02
#       6
#     4   4   4   4   2   2
#     4  10  21  41  65  95 136 185 236 296 364 436
#     4  11  24  42  68 100 138 183 240 302 359 436
#     4  10  23  41  67 100 141 183 237 296 364 432
#     4  11  24  42  67  99 142 188 237 307 364 433
#     4  12  27  47  74 103 140 186 240 292 357 430
#     4  12  27  47  76 103 142 192 240 294 363 428
#
# _framework density 21.978100000000001
#
# number of rings (size 3 to 8) (size 9 to 14) (size 15 to 20)
#    0.000    1.200    2.000    3.000    5.600    4.800 
#    0.000    2.000    0.000    0.000    0.000    0.000 
#    0.000    0.000    0.000    0.000    0.000    0.000 
#
# Total GULP energy -111506.652119 kJ/mol
# GULP energy per Si atom -5575.332606 kJ/mol
# Density = 2.192808 g / cm^3
# Si number density = 21.978100 Si / 1000 Ang^3
#
#
#
# Elastic Constant Matrix: (Units=GPa)
#
#
# Indices 1 2 3 4 5 6 
#
# 1 130.9290 9.4719 44.4770 0.0000 0.0000 0.0000
# 2 9.4719 56.1490 17.3137 0.0000 0.0000 0.0000
# 3 44.4770 17.3137 82.3562 0.0000 0.0000 0.0000
# 4 0.0000 0.0000 0.0000 10.1807 0.0000 0.0000
# 5 0.0000 0.0000 0.0000 0.0000 36.4168 0.0000
# 6 0.0000 0.0000 0.0000 0.0000 0.0000 43.6228
#
#
#
# Elastic Compliance Matrix: (Units=1/GPa)
#
#
# Indices 1 2 3 4 5 6 
#
# 1 0.009354 -0.000022 -0.005047 0.000000 0.000000 0.000000
# 2 -0.000022 0.019044 -0.003992 0.000000 0.000000 0.000000
# 3 -0.005047 -0.003992 0.015707 0.000000 0.000000 0.000000
# 4 0.000000 0.000000 0.000000 0.098225 0.000000 0.000000
# 5 0.000000 0.000000 0.000000 0.000000 0.027460 0.000000
# 6 0.000000 0.000000 0.000000 0.000000 0.000000 0.022924
#
#
# Mechanical properties :
#
#
# Convention : Reuss Voigt Hill
#
# Bulk Modulus (GPa) = 38.48506 45.77325 42.12916
# Shear Modulus (GPa) = 22.77934 31.25548 27.01741
#
# Velocity S-wave (km/s) = 3.22290 3.77519 3.50992
# Velocity P-wave (km/s) = 5.60340 6.31464 5.96962
#
# Compressibility (1/GPa) = 0.02598411
#
# Stress axis : x y z
#
# Youngs Moduli (GPa) = 106.90860 52.50899 63.66468
#
# Poissons Ratio (x) = 0.00114 0.32132
# Poissons Ratio (y) = 0.00231 0.25415
# Poissons Ratio (z) = 0.53957 0.20962
#
# Static dielectric constant tensor:
#      x y z
#    x 1.805980 0.000000 0.000000 
#    y 0.000000 1.843770 0.000000 
#    z 0.000000 0.000000 1.855820 
# 
# From -- ./inp_files/4381.got.cif
#   From: 2010.05.17/outbox.cif.g08.bks.cpg/sg26_3_cif.got.tgz:4381.got - 2010.06.04 01:07:29.
