data_PCOD9338663
_publ_section_title
;
Structure prediction by ZEFSAII (Michael W. Deem and Ramdas Pophale) SiO2 
 PCOD9338663
Probable space group: P M C 21
;
_chemical_formula_sum "Si O2"
_cell_formula_units_Z 20
_cell_length_a 9.644607
_cell_length_b 11.263631
_cell_length_c 8.189204
_cell_angle_alpha 90.000000
_cell_angle_beta 90.000000
_cell_angle_gamma 90.000000
_cell_volume 889.620209
_symmetry_space_group_name_H-M "P M C 21"
_symmetry_group_IT_number 26
_symmetry_cell_setting 'orthorhombic'
loop_
_space_group_symop_operation_xyz
x,y,z
-x,-y,1/2+z
-x,y,z
x,-y,1/2+z
loop_
_atom_site_type_symbol
_atom_site_label
_atom_site_fract_x
_atom_site_fract_y
_atom_site_fract_z
Si Si1 0.500000 0.516288 0.418010
Si Si2 0.000000 0.556321 0.057758
Si Si3 0.500000 0.031125 0.928205
Si Si4 0.500000 0.809615 0.097849
Si Si5 0.741816 0.334131 0.749792
Si Si6 0.000000 0.301359 0.208629
Si Si7 0.500000 0.333935 0.205451
Si Si8 0.745033 0.814421 0.559151
O O1 0.360010 0.576963 0.349385
O O2 0.500000 0.377394 0.386783
O O3 0.500000 0.541238 0.608866
O O4 0.863203 0.600396 0.154179
O O5 0.000000 0.411575 0.074962
O O6 0.000000 0.623108 0.880052
O O7 0.354739 0.073516 0.014914
O O8 0.500000 0.889170 0.935317
O O9 0.500000 0.095400 0.752970
O O10 0.359424 0.738629 0.131730
O O11 0.792901 0.240428 0.885821
O O12 0.127375 0.210141 0.179825
O O13 0.368306 0.268745 0.142208
#
# Coordination Sequence:
#
# PCOD9338663 Si02
#       8
#     2   2   2   2   4   2   2   4
#     4   9  17  29  48  72  98 131 173 215 261 314
#     4  12  24  36  53  80 113 150 185 220 266 324
#     4   9  19  37  62  86 109 139 179 229 282 326
#     4   9  19  37  62  86 109 139 179 229 282 326
#     4   9  19  36  54  76 107 142 179 222 269 320
#     4  12  24  36  53  80 113 150 185 220 266 324
#     4   9  17  29  48  72  98 131 173 215 261 314
#     4   9  19  36  54  76 107 142 179 222 269 320
#
# _framework density 22.481504000000001
#
# number of rings (size 3 to 8) (size 9 to 14) (size 15 to 20)
#    0.000    2.400    0.000    5.400    0.000    6.400 
#    0.000    5.000    0.000    0.000    0.000    0.000 
#    0.000    0.000    0.000    0.000    0.000    0.000 
#
# Total GULP energy -111496.353746 kJ/mol
# GULP energy per Si atom -5574.817687 kJ/mol
# Density = 2.243034 g / cm^3
# Si number density = 22.481504 Si / 1000 Ang^3
#
#
#
# Elastic Constant Matrix: (Units=GPa)
#
#
# Indices 1 2 3 4 5 6 
#
# 1 136.7668 19.9432 26.8056 0.0000 0.0000 0.0000
# 2 19.9432 43.4582 -0.4962 0.0000 0.0000 0.0000
# 3 26.8056 -0.4962 73.9121 0.0000 0.0000 0.0000
# 4 0.0000 0.0000 0.0000 37.8510 0.0000 0.0000
# 5 0.0000 0.0000 0.0000 0.0000 11.8809 0.0000
# 6 0.0000 0.0000 0.0000 0.0000 0.0000 17.1471
#
#
#
# Elastic Compliance Matrix: (Units=1/GPa)
#
#
# Indices 1 2 3 4 5 6 
#
# 1 0.008494 -0.003934 -0.003107 0.000000 0.000000 0.000000
# 2 -0.003934 0.024834 0.001593 0.000000 0.000000 0.000000
# 3 -0.003107 0.001593 0.014667 0.000000 0.000000 0.000000
# 4 0.000000 0.000000 0.000000 0.026419 0.000000 0.000000
# 5 0.000000 0.000000 0.000000 0.000000 0.084169 0.000000
# 6 0.000000 0.000000 0.000000 0.000000 0.000000 0.058319
#
#
# Mechanical properties :
#
#
# Convention : Reuss Voigt Hill
#
# Bulk Modulus (GPa) = 26.95361 38.51582 32.73472
# Shear Modulus (GPa) = 20.81911 27.23476 24.02693
#
# Velocity S-wave (km/s) = 3.04642 3.48434 3.27271
# Velocity P-wave (km/s) = 4.93857 5.77554 5.37338
#
# Compressibility (1/GPa) = 0.03710078
#
# Stress axis : x y z
#
# Youngs Moduli (GPa) = 117.72652 40.26748 68.17986
#
# Poissons Ratio (x) = 0.15839 0.21184
# Poissons Ratio (y) = 0.46308 -0.10863
# Poissons Ratio (z) = 0.36578 -0.06416
#
# Static dielectric constant tensor:
#      x y z
#    x 1.745620 0.000000 0.000000 
#    y 0.000000 1.869160 0.000000 
#    z 0.000000 0.000000 1.924200 
# 
# From -- ./inp_files/1352.got.cif
#   From: 2010.05.17/outbox.cif.g08.bks.cpg/sg26_1_cif.got.tgz:1352.got - 2010.06.04 01:07:29.
