data_PCOD9338271
_publ_section_title
;
Structure prediction by ZEFSAII (Michael W. Deem and Ramdas Pophale) SiO2 
 PCOD9338271
Probable space group: P M C 21
;
_chemical_formula_sum "Si O2"
_cell_formula_units_Z 32
_cell_length_a 7.393900
_cell_length_b 14.861134
_cell_length_c 12.865011
_cell_angle_alpha 90.000000
_cell_angle_beta 90.000000
_cell_angle_gamma 90.000000
_cell_volume 1413.629777
_symmetry_space_group_name_H-M "P M C 21"
_symmetry_group_IT_number 26
_symmetry_cell_setting 'orthorhombic'
loop_
_space_group_symop_operation_xyz
x,y,z
-x,-y,1/2+z
-x,y,z
x,-y,1/2+z
loop_
_atom_site_type_symbol
_atom_site_label
_atom_site_fract_x
_atom_site_fract_y
_atom_site_fract_z
Si Si1 0.218866 0.661093 0.166640
Si Si2 0.707805 0.848128 0.454074
Si Si3 0.720509 0.950522 0.248337
Si Si4 0.781446 0.355417 0.903778
Si Si5 0.720035 0.855333 0.686437
Si Si6 0.785325 0.453559 0.475996
Si Si7 0.717705 0.728716 0.861962
Si Si8 0.703097 0.158834 0.558026
O O1 0.263402 0.636141 0.282710
O O2 0.302619 0.755604 0.134873
O O3 0.000000 0.670541 0.158525
O O4 0.281994 0.588887 0.082926
O O5 0.500000 0.880013 0.458036
O O6 0.784521 0.895096 0.349659
O O7 0.711070 0.740413 0.441445
O O8 0.787194 0.865326 0.568448
O O9 0.500000 0.941445 0.244562
O O10 0.786043 0.914575 0.135513
O O11 0.764459 0.055656 0.252272
O O12 0.713571 0.447200 0.955137
O O13 0.000000 0.350719 0.913280
O O14 0.500000 0.850745 0.680080
O O15 0.778966 0.767816 0.751475
O O16 0.760764 0.374372 0.390628
O O17 0.000000 0.464486 0.485772
O O18 0.500000 0.734111 0.865884
O O19 0.784429 0.796330 0.953993
O O20 0.500000 0.127627 0.529819
#
# Coordination Sequence:
#
# PCOD9338271 Si02
#       8
#     4   4   4   4   4   4   4   4
#     4   9  17  31  49  70  97 128 164 208 254 297
#     4  10  20  34  53  77 105 135 171 211 254 304
#     4   9  17  29  49  76 101 130 168 207 247 298
#     4  10  20  34  53  75 102 135 170 213 260 304
#     4   9  19  32  49  77 110 139 167 207 259 305
#     4   9  19  34  52  74 100 136 177 209 252 311
#     4   9  18  32  50  74 104 133 167 213 258 296
#     4   9  16  28  49  73  95 124 166 210 246 289
#
# _framework density 22.636759999999999
#
# number of rings (size 3 to 8) (size 9 to 14) (size 15 to 20)
#    0.000    2.750    1.250    0.000    1.750    1.500 
#    0.000    1.875    0.000    3.000    0.000    0.000 
#    0.000    0.000    0.000    0.000    0.000    0.000 
#
# Total GULP energy -178500.351399 kJ/mol
# GULP energy per Si atom -5578.135981 kJ/mol
# Density = 2.258524 g / cm^3
# Si number density = 22.636760 Si / 1000 Ang^3
#
#
#
# Elastic Constant Matrix: (Units=GPa)
#
#
# Indices 1 2 3 4 5 6 
#
# 1 73.3588 -5.7368 0.7407 0.0000 0.0000 0.0000
# 2 -5.7368 110.2978 41.0945 0.0000 0.0000 0.0000
# 3 0.7407 41.0945 64.7872 0.0000 0.0000 0.0000
# 4 0.0000 0.0000 0.0000 22.7473 0.0000 0.0000
# 5 0.0000 0.0000 0.0000 0.0000 0.0767 0.0000
# 6 0.0000 0.0000 0.0000 0.0000 0.0000 17.8213
#
#
#
# Elastic Compliance Matrix: (Units=1/GPa)
#
#
# Indices 1 2 3 4 5 6 
#
# 1 0.013719 0.001011 -0.000798 0.000000 0.000000 0.000000
# 2 0.001011 0.011947 -0.007589 0.000000 0.000000 0.000000
# 3 -0.000798 -0.007589 0.020258 0.000000 0.000000 0.000000
# 4 0.000000 0.000000 0.000000 0.043961 0.000000 0.000000
# 5 0.000000 0.000000 0.000000 0.000000 13.031517 0.000000
# 6 0.000000 0.000000 0.000000 0.000000 0.000000 0.056113
#
#
# Mechanical properties :
#
#
# Convention : Reuss Voigt Hill
#
# Bulk Modulus (GPa) = 32.08155 35.62674 33.85414
# Shear Modulus (GPa) = 0.37871 22.28543 11.33207
#
# Velocity S-wave (km/s) = 0.40947 3.14105 2.23985
# Velocity P-wave (km/s) = 3.79824 5.37843 4.65586
#
# Compressibility (1/GPa) = 0.03117057
#
# Stress axis : x y z
#
# Youngs Moduli (GPa) = 72.89301 83.70648 49.36298
#
# Poissons Ratio (x) = -0.08462 0.03939
# Poissons Ratio (y) = -0.07369 0.37463
# Poissons Ratio (z) = 0.05817 0.63527
#
# Static dielectric constant tensor:
#      x y z
#    x 1.883300 0.000000 0.000000 
#    y 0.000000 1.821470 0.000000 
#    z 0.000000 0.000000 1.843280 
# 
# From -- ./inp_files/3355.got.cif
#   From: 2010.05.17/outbox.cif.g08.bks.cpg/sg26_2_cif.got.tgz:3355.got - 2010.06.04 01:07:29.
