data_PCOD9338366
_publ_section_title
;
Structure prediction by ZEFSAII (Michael W. Deem and Ramdas Pophale) SiO2 
 PCOD9338366
Probable space group: P M C 21
;
_chemical_formula_sum "Si O2"
_cell_formula_units_Z 32
_cell_length_a 11.672970
_cell_length_b 14.845079
_cell_length_c 9.072078
_cell_angle_alpha 90.000000
_cell_angle_beta 90.000000
_cell_angle_gamma 90.000000
_cell_volume 1572.065576
_symmetry_space_group_name_H-M "P M C 21"
_symmetry_group_IT_number 26
_symmetry_cell_setting 'orthorhombic'
loop_
_space_group_symop_operation_xyz
x,y,z
-x,-y,1/2+z
-x,y,z
x,-y,1/2+z
loop_
_atom_site_type_symbol
_atom_site_label
_atom_site_fract_x
_atom_site_fract_y
_atom_site_fract_z
Si Si1 0.364823 0.802713 0.256820
Si Si2 0.633088 0.322349 0.250313
Si Si3 0.630885 0.549431 0.034622
Si Si4 0.762864 0.012582 0.820716
Si Si5 0.875083 0.099217 0.069213
Si Si6 0.867465 0.685272 0.570102
Si Si7 0.367572 0.152815 0.437658
Si Si8 0.724615 0.611266 0.340951
O O1 0.500000 0.807331 0.269790
O O2 0.314122 0.898471 0.303789
O O3 0.327582 0.711847 0.337439
O O4 0.330918 0.794667 0.084732
O O5 0.500000 0.336472 0.190973
O O6 0.636724 0.378454 0.402547
O O7 0.753955 0.341176 0.166737
O O8 0.640530 0.218068 0.298030
O O9 0.500000 0.549698 0.092444
O O10 0.658998 0.457061 0.949734
O O11 0.710780 0.571761 0.175389
O O12 0.792165 0.957828 0.673771
O O13 0.701892 0.937185 0.918052
O O14 0.869273 0.052421 0.910359
O O15 0.855026 0.206171 0.053271
O O16 0.000000 0.090216 0.137457
O O17 0.847099 0.630978 0.417150
O O18 0.000000 0.669456 0.622298
O O19 0.500000 0.129096 0.457617
#
# Coordination Sequence:
#
# PCOD9338366 Si02
#       8
#     4   4   4   4   4   4   4   4
#     4  11  22  37  61  94 137 174 213 271 338 402
#     4  10  21  41  70 104 135 174 222 283 341 400
#     4  11  23  41  71 106 139 169 223 286 342 408
#     4  12  21  40  61  92 126 174 225 260 334 386
#     4  11  24  40  61  88 125 171 227 277 320 384
#     4  11  25  46  66  96 139 181 225 281 336 402
#     4  10  20  36  60  93 136 171 214 270 330 399
#     4  12  24  43  66  97 132 180 220 274 344 403
#
# _framework density 20.355384999999998
#
# number of rings (size 3 to 8) (size 9 to 14) (size 15 to 20)
#    0.000    1.000    5.000    2.625    0.000    2.500 
#    0.000    3.125    0.000    0.000    0.000    0.000 
#    0.000    0.000    0.000    0.000    0.000    0.000 
#
# Total GULP energy -178255.408051 kJ/mol
# GULP energy per Si atom -5570.481502 kJ/mol
# Density = 2.030906 g / cm^3
# Si number density = 20.355385 Si / 1000 Ang^3
#
#
#
# Elastic Constant Matrix: (Units=GPa)
#
#
# Indices 1 2 3 4 5 6 
#
# 1 89.5297 36.9227 46.6344 0.0000 0.0000 0.0000
# 2 36.9227 106.6773 30.5542 0.0000 0.0000 0.0000
# 3 46.6344 30.5542 68.8624 0.0000 0.0000 0.0000
# 4 0.0000 0.0000 0.0000 52.5087 0.0000 0.0000
# 5 0.0000 0.0000 0.0000 0.0000 22.7176 0.0000
# 6 0.0000 0.0000 0.0000 0.0000 0.0000 26.9319
#
#
#
# Elastic Compliance Matrix: (Units=1/GPa)
#
#
# Indices 1 2 3 4 5 6 
#
# 1 0.018142 -0.003162 -0.010883 0.000000 0.000000 0.000000
# 2 -0.003162 0.011290 -0.002868 0.000000 0.000000 0.000000
# 3 -0.010883 -0.002868 0.023164 0.000000 0.000000 0.000000
# 4 0.000000 0.000000 0.000000 0.019044 0.000000 0.000000
# 5 0.000000 0.000000 0.000000 0.000000 0.044019 0.000000
# 6 0.000000 0.000000 0.000000 0.000000 0.000000 0.037131
#
#
# Mechanical properties :
#
#
# Convention : Reuss Voigt Hill
#
# Bulk Modulus (GPa) = 53.27579 54.81023 54.04301
# Shear Modulus (GPa) = 25.92366 30.49552 28.20959
#
# Velocity S-wave (km/s) = 3.57256 3.87480 3.72674
# Velocity P-wave (km/s) = 6.57626 6.85594 6.71755
#
# Compressibility (1/GPa) = 0.01877025
#
# Stress axis : x y z
#
# Youngs Moduli (GPa) = 55.11921 88.57417 43.16972
#
# Poissons Ratio (x) = 0.28010 0.46982
# Poissons Ratio (y) = 0.17430 0.12380
# Poissons Ratio (z) = 0.59987 0.25401
#
# Static dielectric constant tensor:
#      x y z
#    x 1.720480 0.000000 0.000000 
#    y 0.000000 1.708250 0.000000 
#    z 0.000000 0.000000 1.794390 
# 
# From -- ./inp_files/1992.got.cif
#   From: 2010.05.17/outbox.cif.g08.bks.cpg/sg26_1_cif.got.tgz:1992.got - 2010.06.04 01:07:29.
