data_PCOD9338565
_publ_section_title
;
Structure prediction by ZEFSAII (Michael W. Deem and Ramdas Pophale) SiO2 
 PCOD9338565
Probable space group: P M C 21
;
_chemical_formula_sum "Si O2"
_cell_formula_units_Z 24
_cell_length_a 8.982159
_cell_length_b 10.206562
_cell_length_c 14.224450
_cell_angle_alpha 90.000000
_cell_angle_beta 90.000000
_cell_angle_gamma 90.000000
_cell_volume 1304.054372
_symmetry_space_group_name_H-M "P M C 21"
_symmetry_group_IT_number 26
_symmetry_cell_setting 'orthorhombic'
loop_
_space_group_symop_operation_xyz
x,y,z
-x,-y,1/2+z
-x,y,z
x,-y,1/2+z
loop_
_atom_site_type_symbol
_atom_site_label
_atom_site_fract_x
_atom_site_fract_y
_atom_site_fract_z
Si Si1 0.320737 0.378084 0.622830
Si Si2 0.827272 0.907960 0.607494
Si Si3 0.675710 0.131225 0.492565
Si Si4 0.825475 0.009411 0.321889
Si Si5 0.823746 0.376230 0.020139
Si Si6 0.320985 0.722296 0.330680
O O1 0.500000 0.393376 0.620497
O O2 0.281489 0.255541 0.555716
O O3 0.244571 0.505693 0.579935
O O4 0.279461 0.342407 0.730237
O O5 0.807067 0.935373 0.717276
O O6 0.802523 0.759056 0.577211
O O7 0.000000 0.940988 0.583721
O O8 0.718211 0.002435 0.551318
O O9 0.500000 0.136842 0.474916
O O10 0.762729 0.113743 0.395725
O O11 0.000000 0.985599 0.339310
O O12 0.741116 0.870878 0.332416
O O13 0.000000 0.395860 0.006527
O O14 0.745787 0.355666 0.919157
O O15 0.500000 0.725865 0.336994
#
# Coordination Sequence:
#
# PCOD9338565 Si02
#       6
#     4   4   4   4   4   4
#     4  10  24  43  62  90 126 164 208 255 307 370
#     4  10  22  39  60  89 123 158 204 256 303 364
#     4  11  22  38  62  91 121 158 208 256 305 364
#     4  11  22  37  61  93 127 162 206 257 310 364
#     4  11  24  41  63  93 126 164 208 254 311 371
#     4  11  22  40  64  90 123 164 208 254 310 369
#
# _framework density 18.404140999999999
#
# number of rings (size 3 to 8) (size 9 to 14) (size 15 to 20)
#    0.000    1.333    3.333    2.000    0.000    5.333 
#    0.000    3.333    0.000    0.000    0.000    0.000 
#    0.000    0.000    0.000    0.000    0.000    0.000 
#
# Total GULP energy -134123.658443 kJ/mol
# GULP energy per Si atom -5588.485768 kJ/mol
# Density = 1.836225 g / cm^3
# Si number density = 18.404141 Si / 1000 Ang^3
#
#
#
# Elastic Constant Matrix: (Units=GPa)
#
#
# Indices 1 2 3 4 5 6 
#
# 1 51.5586 37.2123 38.3917 0.0000 0.0000 0.0000
# 2 37.2123 83.0698 32.8744 0.0000 0.0000 0.0000
# 3 38.3917 32.8744 113.2197 0.0000 0.0000 0.0000
# 4 0.0000 0.0000 0.0000 28.8057 0.0000 0.0000
# 5 0.0000 0.0000 0.0000 0.0000 88.8215 0.0000
# 6 0.0000 0.0000 0.0000 0.0000 0.0000 27.9122
#
#
#
# Elastic Compliance Matrix: (Units=1/GPa)
#
#
# Indices 1 2 3 4 5 6 
#
# 1 0.034130 -0.012099 -0.008060 0.000000 0.000000 0.000000
# 2 -0.012099 0.017890 -0.001092 0.000000 0.000000 0.000000
# 3 -0.008060 -0.001092 0.011882 0.000000 0.000000 0.000000
# 4 0.000000 0.000000 0.000000 0.034715 0.000000 0.000000
# 5 0.000000 0.000000 0.000000 0.000000 0.011259 0.000000
# 6 0.000000 0.000000 0.000000 0.000000 0.000000 0.035827
#
#
# Mechanical properties :
#
#
# Convention : Reuss Voigt Hill
#
# Bulk Modulus (GPa) = 46.72829 51.64499 49.18664
# Shear Modulus (GPa) = 25.59664 38.39918 31.99791
#
# Velocity S-wave (km/s) = 3.73340 4.57271 4.17421
# Velocity P-wave (km/s) = 6.63548 7.48346 7.07219
#
# Compressibility (1/GPa) = 0.02140031
#
# Stress axis : x y z
#
# Youngs Moduli (GPa) = 29.30007 55.89660 84.15763
#
# Poissons Ratio (x) = 0.67630 0.67830
# Poissons Ratio (y) = 0.35451 0.09189
# Poissons Ratio (z) = 0.23616 0.06103
#
# Static dielectric constant tensor:
#      x y z
#    x 1.617980 0.000000 0.000000 
#    y 0.000000 1.594560 0.000000 
#    z 0.000000 0.000000 1.638250 
# 
# From -- ./inp_files/2811.got.cif
#   From: 2010.05.17/outbox.cif.g08.bks.cpg/sg26_2_cif.got.tgz:2811.got - 2010.06.04 01:07:29.
