data_PCOD9338469
_publ_section_title
;
Structure prediction by ZEFSAII (Michael W. Deem and Ramdas Pophale) SiO2 
 PCOD9338469
Probable space group: P M C 21
;
_chemical_formula_sum "Si O2"
_cell_formula_units_Z 24
_cell_length_a 29.935545
_cell_length_b 7.061542
_cell_length_c 5.219063
_cell_angle_alpha 90.000000
_cell_angle_beta 90.000000
_cell_angle_gamma 90.000000
_cell_volume 1103.263512
_symmetry_space_group_name_H-M "P M C 21"
_symmetry_group_IT_number 26
_symmetry_cell_setting 'orthorhombic'
loop_
_space_group_symop_operation_xyz
x,y,z
-x,-y,1/2+z
-x,y,z
x,-y,1/2+z
loop_
_atom_site_type_symbol
_atom_site_label
_atom_site_fract_x
_atom_site_fract_y
_atom_site_fract_z
Si Si1 0.049643 0.375088 0.970210
Si Si2 0.449911 0.129456 0.492159
Si Si3 0.865548 0.120327 0.086926
Si Si4 0.640447 0.711000 0.138065
Si Si5 0.231221 0.870966 0.490152
Si Si6 0.322611 0.713671 0.638237
O O1 0.052361 0.461185 0.685771
O O2 0.000000 0.286839 0.999327
O O3 0.090773 0.239337 0.025132
O O4 0.500000 0.211779 0.510947
O O5 0.409959 0.275716 0.539954
O O6 0.445985 0.973207 0.718169
O O7 0.817863 0.218709 0.029641
O O8 0.865851 0.051607 0.380727
O O9 0.646117 0.799815 0.417717
O O10 0.659380 0.499471 0.177885
O O11 0.671262 0.801369 0.918339
O O12 0.272292 0.731376 0.541107
O O13 0.234030 0.966685 0.210769
#
# Coordination Sequence:
#
# PCOD9338469 Si02
#       6
#     4   4   4   4   4   4
#     4  10  21  38  58  87 122 157 200 244 297 357
#     4  10  21  37  58  84 111 142 181 224 275 331
#     4  10  21  38  59  86 118 152 200 247 299 353
#     4  10  21  37  55  80 113 142 184 227 265 335
#     4  10  21  37  57  81 112 147 185 236 283 334
#     4  10  21  37  53  80 112 144 182 226 275 330
#
# _framework density 21.753640000000001
#
# number of rings (size 3 to 8) (size 9 to 14) (size 15 to 20)
#    0.000    2.000    0.000    3.000    0.000    4.667 
#    6.000    3.333    0.000    0.000    0.000    0.000 
#    0.000    0.000    0.000    0.000    0.000    0.000 
#
# Total GULP energy -133954.046198 kJ/mol
# GULP energy per Si atom -5581.418592 kJ/mol
# Density = 2.170413 g / cm^3
# Si number density = 21.753640 Si / 1000 Ang^3
#
#
#
# Elastic Constant Matrix: (Units=GPa)
#
#
# Indices 1 2 3 4 5 6 
#
# 1 178.4389 27.5392 -17.0986 0.0000 0.0000 0.0000
# 2 27.5392 41.9217 -17.9016 0.0000 0.0000 0.0000
# 3 -17.0986 -17.9016 119.1645 0.0000 0.0000 0.0000
# 4 0.0000 0.0000 0.0000 12.2908 0.0000 0.0000
# 5 0.0000 0.0000 0.0000 0.0000 33.9260 0.0000
# 6 0.0000 0.0000 0.0000 0.0000 0.0000 38.2546
#
#
#
# Elastic Compliance Matrix: (Units=1/GPa)
#
#
# Indices 1 2 3 4 5 6 
#
# 1 0.006246 -0.003976 0.000299 0.000000 0.000000 0.000000
# 2 -0.003976 0.028020 0.003639 0.000000 0.000000 0.000000
# 3 0.000299 0.003639 0.008981 0.000000 0.000000 0.000000
# 4 0.000000 0.000000 0.000000 0.081362 0.000000 0.000000
# 5 0.000000 0.000000 0.000000 0.000000 0.029476 0.000000
# 6 0.000000 0.000000 0.000000 0.000000 0.000000 0.026141
#
#
# Mechanical properties :
#
#
# Convention : Reuss Voigt Hill
#
# Bulk Modulus (GPa) = 23.16341 36.06701 29.61521
# Shear Modulus (GPa) = 25.68162 40.02669 32.85416
#
# Velocity S-wave (km/s) = 3.43967 4.29418 3.89045
# Velocity P-wave (km/s) = 5.14259 6.41890 5.81587
#
# Compressibility (1/GPa) = 0.04317154
#
# Stress axis : x y z
#
# Youngs Moduli (GPa) = 160.09223 35.68934 111.34233
#
# Poissons Ratio (x) = 0.14189 -0.03329
# Poissons Ratio (y) = 0.63648 -0.40515
# Poissons Ratio (z) = -0.04787 -0.12987
#
# Static dielectric constant tensor:
#      x y z
#    x 1.807660 0.000000 0.000000 
#    y 0.000000 1.414200 0.000000 
#    z 0.000000 0.000000 1.855200 
# 
# From -- ./inp_files/948.got.cif
#   From: 2010.05.17/outbox.cif.g08.bks.cpg/sg26_1_cif.got.tgz:948.got - 2010.06.04 01:07:29.
