data_PCOD9338609
_publ_section_title
;
Structure prediction by ZEFSAII (Michael W. Deem and Ramdas Pophale) SiO2 
 PCOD9338609
Probable space group: P M C 21
;
_chemical_formula_sum "Si O2"
_cell_formula_units_Z 32
_cell_length_a 8.686787
_cell_length_b 12.043201
_cell_length_c 15.647517
_cell_angle_alpha 90.000000
_cell_angle_beta 90.000000
_cell_angle_gamma 90.000000
_cell_volume 1636.991934
_symmetry_space_group_name_H-M "P M C 21"
_symmetry_group_IT_number 26
_symmetry_cell_setting 'orthorhombic'
loop_
_space_group_symop_operation_xyz
x,y,z
-x,-y,1/2+z
-x,y,z
x,-y,1/2+z
loop_
_atom_site_type_symbol
_atom_site_label
_atom_site_fract_x
_atom_site_fract_y
_atom_site_fract_z
Si Si1 0.184686 0.395459 0.310260
Si Si2 0.184679 0.344277 0.810124
Si Si3 0.816000 0.995707 0.898124
Si Si4 0.184501 0.241647 0.150612
Si Si5 0.684216 0.004350 0.208241
Si Si6 0.682719 0.759185 0.955695
Si Si7 0.317230 0.784753 0.471319
Si Si8 0.815634 0.783334 0.135229
O O1 0.221110 0.525436 0.306931
O O2 0.224108 0.332881 0.222075
O O3 0.267520 0.333227 0.387684
O O4 0.000000 0.383980 0.322118
O O5 0.269091 0.284793 0.888187
O O6 0.222995 0.285703 0.720442
O O7 0.000000 0.331533 0.822685
O O8 0.754103 0.092623 0.959107
O O9 0.000000 0.000139 0.893691
O O10 0.746474 0.015882 0.803996
O O11 0.761765 0.875040 0.928448
O O12 0.256261 0.124365 0.179150
O O13 0.000000 0.231089 0.147527
O O14 0.248420 0.268152 0.057074
O O15 0.500000 0.001521 0.207419
O O16 0.751242 0.907191 0.149091
O O17 0.500000 0.773772 0.954959
O O18 0.741861 0.732474 0.050481
O O19 0.500000 0.793495 0.477898
O O20 0.000000 0.787073 0.126322
#
# Coordination Sequence:
#
# PCOD9338609 Si02
#       8
#     4   4   4   4   4   4   4   4
#     4  10  23  44  68  92 122 166 219 267 312 373
#     4  10  23  44  68  92 122 166 219 267 312 373
#     4  12  23  40  65  93 127 169 212 256 311 384
#     4  11  23  41  66  94 128 170 213 258 310 378
#     4  12  23  38  63  97 133 165 202 258 321 380
#     4  12  25  41  64  96 132 167 207 264 322 375
#     4  12  25  41  64  96 132 167 207 264 322 375
#     4  11  23  41  66  94 128 170 213 258 310 378
#
# _framework density 19.548051999999998
#
# number of rings (size 3 to 8) (size 9 to 14) (size 15 to 20)
#    0.000    0.750    2.500    6.000    0.000    2.500 
#    0.000    2.500    0.000    0.000    0.000    0.000 
#    0.000    0.000    0.000    0.000    0.000    0.000 
#
# Total GULP energy -179142.826737 kJ/mol
# GULP energy per Si atom -5598.213336 kJ/mol
# Density = 1.950356 g / cm^3
# Si number density = 19.548052 Si / 1000 Ang^3
#
#
#
# Elastic Constant Matrix: (Units=GPa)
#
#
# Indices 1 2 3 4 5 6 
#
# 1 76.4887 34.4033 29.8789 0.0000 0.0000 0.0000
# 2 34.4033 93.3989 18.4871 0.0000 0.0000 0.0000
# 3 29.8789 18.4871 96.9947 0.0000 0.0000 0.0000
# 4 0.0000 0.0000 0.0000 0.4950 0.0000 0.0000
# 5 0.0000 0.0000 0.0000 0.0000-1686.0558 0.0000
# 6 0.0000 0.0000 0.0000 0.0000 0.0000 -29.3773
#
#
#
# Elastic Compliance Matrix: (Units=1/GPa)
#
#
# Indices 1 2 3 4 5 6 
#
# 1 0.017207 -0.005496 -0.004253 0.000000 0.000000 0.000000
# 2 -0.005496 0.012882 -0.000762 0.000000 0.000000 0.000000
# 3 -0.004253 -0.000762 0.011765 0.000000 0.000000 0.000000
# 4 0.000000 0.000000 0.000000 2.020184 0.000000 0.000000
# 5 0.000000 0.000000 0.000000 0.000000 -0.000593 0.000000
# 6 0.000000 0.000000 0.000000 0.000000 0.000000 -0.034040
#
#
# Mechanical properties :
#
#
# Convention : Reuss Voigt Hill
#
# Bulk Modulus (GPa) = 48.00427 48.04678 48.02552
# Shear Modulus (GPa) = 2.43265 -330.71343 -164.14039
#
# Velocity S-wave (km/s) = 1.11676 -13.02102 -9.17333
# Velocity P-wave (km/s) = 5.12574 14.19262 9.35835
#
# Compressibility (1/GPa) = 0.02083148
#
# Stress axis : x y z
#
# Youngs Moduli (GPa) = 58.11442 77.62622 84.99606
#
# Poissons Ratio (x) = 0.42667 0.36149
# Poissons Ratio (y) = 0.31942 0.06478
# Poissons Ratio (z) = 0.24716 0.05916
#
# Static dielectric constant tensor:
#      x y z
#    x 1.727760 0.000000 0.000000 
#    y 0.000000 1.655330 0.000000 
#    z 0.000000 0.000000 1.696280 
# 
# From -- ./inp_files/4241.got.cif
#   From: 2010.05.17/outbox.cif.g08.bks.cpg/sg26_3_cif.got.tgz:4241.got - 2010.06.04 01:07:29.
