data_PCOD9338872
_publ_section_title
;
Structure prediction by ZEFSAII (Michael W. Deem and Ramdas Pophale) SiO2 
 PCOD9338872
Probable space group: P C C 2
;
_chemical_formula_sum "Si O2"
_cell_formula_units_Z 30
_cell_length_a 11.876054
_cell_length_b 7.654909
_cell_length_c 15.542054
_cell_angle_alpha 90.000000
_cell_angle_beta 90.000000
_cell_angle_gamma 90.000000
_cell_volume 1412.929880
_symmetry_space_group_name_H-M "P C C 2"
_symmetry_group_IT_number 27
_symmetry_cell_setting 'orthorhombic'
loop_
_space_group_symop_operation_xyz
x,y,z
-x,-y,z
-x,y,1/2+z
x,-y,1/2+z
loop_
_atom_site_type_symbol
_atom_site_label
_atom_site_fract_x
_atom_site_fract_y
_atom_site_fract_z
Si Si1 0.097875 0.137579 0.713150
Si Si2 0.927232 0.178535 0.391988
Si Si3 0.277231 0.683690 0.609485
Si Si4 0.344759 0.995909 0.213265
Si Si5 0.500000 0.000000 0.866560
Si Si6 0.675868 0.729858 0.920931
Si Si7 0.380274 0.403705 0.734108
Si Si8 0.980279 0.694529 0.071737
O O1 0.073042 0.258840 0.795914
O O2 0.215004 0.046009 0.730087
O O3 0.082607 0.206824 0.617422
O O4 0.000000 0.000000 0.717997
O O5 0.793848 0.162854 0.414200
O O6 0.978969 0.287545 0.469656
O O7 0.000000 0.000000 0.393233
O O8 0.314257 0.634013 0.512458
O O9 0.300014 0.524097 0.674913
O O10 0.145422 0.738777 0.604974
O O11 0.345450 0.855459 0.641044
O O12 0.390183 0.797127 0.198989
O O13 0.405671 0.068024 0.298803
O O14 0.433306 0.144885 0.919513
O O15 0.663121 0.618854 0.832742
O O16 0.500000 0.500000 0.734361
O O17 0.000000 0.500000 0.099015
#
# Coordination Sequence:
#
# PCOD9338872 Si02
#       8
#     4   4   4   4   2   4   4   4
#     4  11  20  40  68  96 133 179 225 281 349 419
#     4  10  22  41  66  96 134 177 229 288 347 420
#     4  11  24  44  70 101 140 185 234 291 353 422
#     4  11  22  43  73  99 135 185 236 288 356 423
#     4  10  20  40  68  98 136 176 232 294 340 420
#     4  10  23  43  68 101 141 178 236 294 351 427
#     4  11  24  45  68  98 145 181 232 297 346 423
#     4  11  24  39  64 101 139 180 225 283 349 424
#
# _framework density 21.232475999999998
#
# number of rings (size 3 to 8) (size 9 to 14) (size 15 to 20)
#    0.000    1.333    4.000    2.800    1.867    2.667 
#    2.400    4.000    0.000    0.000    0.000    0.000 
#    0.000    0.000    0.000    0.000    0.000    0.000 
#
# Total GULP energy -167059.441766 kJ/mol
# GULP energy per Si atom -5568.648059 kJ/mol
# Density = 2.118415 g / cm^3
# Si number density = 21.232476 Si / 1000 Ang^3
#
#
#
# Elastic Constant Matrix: (Units=GPa)
#
#
# Indices 1 2 3 4 5 6 
#
# 1 98.2994 8.0195 16.7835 0.0000 0.0000 0.0000
# 2 8.0195 66.0038 20.7182 0.0000 0.0000 0.0000
# 3 16.7835 20.7182 122.7993 0.0000 0.0000 0.0000
# 4 0.0000 0.0000 0.0000 10.5926 0.0000 0.0000
# 5 0.0000 0.0000 0.0000 0.0000 34.1609 0.0000
# 6 0.0000 0.0000 0.0000 0.0000 0.0000 29.2719
#
#
#
# Elastic Compliance Matrix: (Units=1/GPa)
#
#
# Indices 1 2 3 4 5 6 
#
# 1 0.010463 -0.000868 -0.001284 0.000000 0.000000 0.000000
# 2 -0.000868 0.016070 -0.002593 0.000000 0.000000 0.000000
# 3 -0.001284 -0.002593 0.008756 0.000000 0.000000 0.000000
# 4 0.000000 0.000000 0.000000 0.094405 0.000000 0.000000
# 5 0.000000 0.000000 0.000000 0.000000 0.029273 0.000000
# 6 0.000000 0.000000 0.000000 0.000000 0.000000 0.034162
#
#
# Mechanical properties :
#
#
# Convention : Reuss Voigt Hill
#
# Bulk Modulus (GPa) = 38.75938 42.01612 40.38775
# Shear Modulus (GPa) = 23.67209 30.91050 27.29129
#
# Velocity S-wave (km/s) = 3.34263 3.81965 3.58908
# Velocity P-wave (km/s) = 5.76125 6.26774 6.01982
#
# Compressibility (1/GPa) = 0.02580021
#
# Stress axis : x y z
#
# Youngs Moduli (GPa) = 95.57492 62.22800 114.20478
#
# Poissons Ratio (x) = 0.05404 0.14658
# Poissons Ratio (y) = 0.08300 0.29608
# Poissons Ratio (z) = 0.12267 0.16133
#
# Static dielectric constant tensor:
#      x y z
#    x 1.746940 0.000000 0.000000 
#    y 0.000000 1.715150 0.000000 
#    z 0.000000 0.000000 1.834060 
# 
# From -- ./inp_files/3631.got.cif
#   From: 2010.05.17/outbox.cif.g08.bks.cpg/sg27_2_cif.got.tgz:3631.got - 2010.06.04 01:11:05.
