data_PCOD9338224
_publ_section_title
;
Structure prediction by ZEFSAII (Michael W. Deem and Ramdas Pophale) SiO2 
 PCOD9338224
Probable space group: P M C 21
;
_chemical_formula_sum "Si O2"
_cell_formula_units_Z 32
_cell_length_a 7.664108
_cell_length_b 15.759390
_cell_length_c 12.328302
_cell_angle_alpha 90.000000
_cell_angle_beta 90.000000
_cell_angle_gamma 90.000000
_cell_volume 1489.032867
_symmetry_space_group_name_H-M "P M C 21"
_symmetry_group_IT_number 26
_symmetry_cell_setting 'orthorhombic'
loop_
_space_group_symop_operation_xyz
x,y,z
-x,-y,1/2+z
-x,y,z
x,-y,1/2+z
loop_
_atom_site_type_symbol
_atom_site_label
_atom_site_fract_x
_atom_site_fract_y
_atom_site_fract_z
Si Si1 0.211340 0.147273 0.396260
Si Si2 0.211527 0.752177 0.309538
Si Si3 0.703449 0.248878 0.062918
Si Si4 0.701078 0.922979 0.673564
Si Si5 0.787915 0.660986 0.904653
Si Si6 0.207670 0.580308 0.689930
Si Si7 0.798503 0.112400 0.635798
Si Si8 0.786437 0.607517 0.141838
O O1 0.288868 0.090404 0.302340
O O2 0.253950 0.244127 0.368868
O O3 0.277703 0.131621 0.517618
O O4 0.000000 0.136484 0.393914
O O5 0.273928 0.752859 0.433244
O O6 0.271554 0.833054 0.237011
O O7 0.264890 0.668599 0.241128
O O8 0.000000 0.753021 0.316138
O O9 0.500000 0.247266 0.090023
O O10 0.777419 0.161820 0.116206
O O11 0.768816 0.337393 0.113885
O O12 0.500000 0.932127 0.638729
O O13 0.791643 0.011903 0.650019
O O14 0.723073 0.599799 0.810308
O O15 0.000000 0.655407 0.907870
O O16 0.727448 0.643993 0.026217
O O17 0.274209 0.489599 0.649953
O O18 0.000000 0.569736 0.700048
O O19 0.000000 0.140941 0.627906
O O20 0.000000 0.608946 0.141200
#
# Coordination Sequence:
#
# PCOD9338224 Si02
#       8
#     4   4   4   4   4   4   4   4
#     4  10  19  37  63  87 114 146 189 243 292 341
#     4  10  21  39  62  88 117 151 191 238 291 347
#     4  11  25  42  56  79 120 162 196 237 284 339
#     4  11  25  41  58  82 116 156 196 239 287 344
#     4   9  16  31  56  87 118 143 180 237 290 333
#     4  10  20  34  61  91 115 150 192 236 286 340
#     4  10  22  39  62  91 117 147 189 242 295 345
#     4   9  18  33  58  93 121 143 185 240 289 339
#
# _framework density 21.490459000000001
#
# number of rings (size 3 to 8) (size 9 to 14) (size 15 to 20)
#    0.000    2.000    2.500    0.750    3.500    2.500 
#    0.000    0.625    0.000    1.500    0.000    0.000 
#    0.000    0.000    0.000    0.000    0.000    0.000 
#
# Total GULP energy -178632.722137 kJ/mol
# GULP energy per Si atom -5582.272567 kJ/mol
# Density = 2.144155 g / cm^3
# Si number density = 21.490459 Si / 1000 Ang^3
#
#
#
# Elastic Constant Matrix: (Units=GPa)
#
#
# Indices 1 2 3 4 5 6 
#
# 1 36.1639 -6.6377 -13.5869 0.0000 0.0000 0.0000
# 2 -6.6377 108.4976 30.4864 0.0000 0.0000 0.0000
# 3 -13.5869 30.4864 109.7879 0.0000 0.0000 0.0000
# 4 0.0000 0.0000 0.0000 35.0915 0.0000 0.0000
# 5 0.0000 0.0000 0.0000 0.0000 -81.9755 0.0000
# 6 0.0000 0.0000 0.0000 0.0000 0.0000 -17.7711
#
#
#
# Elastic Compliance Matrix: (Units=1/GPa)
#
#
# Indices 1 2 3 4 5 6 
#
# 1 0.029069 0.000833 0.003366 0.000000 0.000000 0.000000
# 2 0.000833 0.010021 -0.002680 0.000000 0.000000 0.000000
# 3 0.003366 -0.002680 0.010269 0.000000 0.000000 0.000000
# 4 0.000000 0.000000 0.000000 0.028497 0.000000 0.000000
# 5 0.000000 0.000000 0.000000 0.000000 -0.012199 0.000000
# 6 0.000000 0.000000 0.000000 0.000000 0.000000 -0.056271
#
#
# Mechanical properties :
#
#
# Convention : Reuss Voigt Hill
#
# Bulk Modulus (GPa) = 19.08474 30.55254 24.81864
# Shear Modulus (GPa) = 209.96544 3.34817 106.65681
#
# Velocity S-wave (km/s) = 9.89514 1.24955 7.05249
# Velocity P-wave (km/s) = 11.80896 4.04097 8.82556
#
# Compressibility (1/GPa) = 0.05239789
#
# Stress axis : x y z
#
# Youngs Moduli (GPa) = 34.40038 99.79401 97.37907
#
# Poissons Ratio (x) = -0.08308 -0.32781
# Poissons Ratio (y) = -0.02864 0.26093
# Poissons Ratio (z) = -0.11580 0.26740
#
# Static dielectric constant tensor:
#      x y z
#    x 1.818790 0.000000 0.000000 
#    y 0.000000 1.772490 0.000000 
#    z 0.000000 0.000000 1.751540 
# 
# From -- ./inp_files/2987.got.cif
#   From: 2010.05.17/outbox.cif.g08.bks.cpg/sg26_2_cif.got.tgz:2987.got - 2010.06.04 01:07:29.
