data_PCOD9338880
_publ_section_title
;
Structure prediction by ZEFSAII (Michael W. Deem and Ramdas Pophale) SiO2 
 PCOD9338880
Probable space group: P C C 2
;
_chemical_formula_sum "Si O2"
_cell_formula_units_Z 20
_cell_length_a 16.032353
_cell_length_b 5.572650
_cell_length_c 8.528851
_cell_angle_alpha 90.000000
_cell_angle_beta 90.000000
_cell_angle_gamma 90.000000
_cell_volume 761.990508
_symmetry_space_group_name_H-M "P C C 2"
_symmetry_group_IT_number 27
_symmetry_cell_setting 'orthorhombic'
loop_
_space_group_symop_operation_xyz
x,y,z
-x,-y,z
-x,y,1/2+z
x,-y,1/2+z
loop_
_atom_site_type_symbol
_atom_site_label
_atom_site_fract_x
_atom_site_fract_y
_atom_site_fract_z
Si Si1 0.603295 0.258349 0.377760
Si Si2 0.247932 0.984134 0.183886
Si Si3 0.267054 0.367831 0.392880
Si Si4 0.113224 0.710738 0.326520
Si Si5 0.500000 0.000000 0.637819
Si Si6 0.000000 0.500000 0.063502
O O1 0.681679 0.139492 0.290462
O O2 0.641719 0.515775 0.420141
O O3 0.571658 0.109377 0.527202
O O4 0.531166 0.215017 0.249966
O O5 0.157216 0.948512 0.263160
O O6 0.267054 0.262128 0.214485
O O7 0.250671 0.838948 0.022260
O O8 0.189480 0.550498 0.393210
O O9 0.040239 0.705425 0.454048
O O10 0.072470 0.592613 0.174669
#
# Coordination Sequence:
#
# PCOD9338880 Si02
#       6
#     4   4   4   4   2   2
#     4  10  24  47  78 108 149 183 244 304 372 447
#     4  11  24  44  69 103 142 205 249 294 366 448
#     4  11  25  45  71 105 148 204 248 304 356 454
#     4  10  22  42  71  98 147 189 253 315 375 431
#     4  10  22  50  82 118 140 186 236 308 388 444
#     4  10  20  42  70 108 140 190 248 332 374 428
#
# _framework density 26.247043000000001
#
# number of rings (size 3 to 8) (size 9 to 14) (size 15 to 20)
#    0.000    1.600    2.000    1.200    2.800    4.800 
#    0.000   27.000    0.000    0.000    0.000    0.000 
#    0.000    0.000    0.000    0.000    0.000    0.000 
#
# Total GULP energy -111874.242969 kJ/mol
# GULP energy per Si atom -5593.712148 kJ/mol
# Density = 2.618730 g / cm^3
# Si number density = 26.247043 Si / 1000 Ang^3
#
#
#
# Elastic Constant Matrix: (Units=GPa)
#
#
# Indices 1 2 3 4 5 6 
#
# 1 107.4717 24.9408 62.1625 0.0000 0.0000 0.0000
# 2 24.9408 67.3366 43.6046 0.0000 0.0000 0.0000
# 3 62.1625 43.6046 152.0468 0.0000 0.0000 0.0000
# 4 0.0000 0.0000 0.0000 12.5599 0.0000 0.0000
# 5 0.0000 0.0000 0.0000 0.0000 42.1953 0.0000
# 6 0.0000 0.0000 0.0000 0.0000 0.0000 38.3540
#
#
#
# Elastic Compliance Matrix: (Units=1/GPa)
#
#
# Indices 1 2 3 4 5 6 
#
# 1 0.012325 -0.001599 -0.004580 0.000000 0.000000 0.000000
# 2 -0.001599 0.018445 -0.004636 0.000000 0.000000 0.000000
# 3 -0.004580 -0.004636 0.009779 0.000000 0.000000 0.000000
# 4 0.000000 0.000000 0.000000 0.079618 0.000000 0.000000
# 5 0.000000 0.000000 0.000000 0.000000 0.023699 0.000000
# 6 0.000000 0.000000 0.000000 0.000000 0.000000 0.026073
#
#
# Mechanical properties :
#
#
# Convention : Reuss Voigt Hill
#
# Bulk Modulus (GPa) = 52.85834 65.36344 59.11089
# Shear Modulus (GPa) = 25.26819 31.69833 28.48326
#
# Velocity S-wave (km/s) = 3.10612 3.47896 3.29781
# Velocity P-wave (km/s) = 5.74860 6.41052 6.08856
#
# Compressibility (1/GPa) = 0.01891849
#
# Stress axis : x y z
#
# Youngs Moduli (GPa) = 81.13441 54.21486 102.25856
#
# Poissons Ratio (x) = 0.08669 0.46839
# Poissons Ratio (y) = 0.12973 0.47407
# Poissons Ratio (z) = 0.37163 0.25134
#
# Static dielectric constant tensor:
#      x y z
#    x 2.056810 0.000000 0.000000 
#    y 0.000000 2.231230 0.000000 
#    z 0.000000 0.000000 2.078750 
# 
# From -- ./inp_files/887.got.cif
#   From: 2010.05.17/outbox.cif.g08.bks.cpg/sg27_1_cif.got.tgz:887.got - 2010.06.04 01:11:05.
