data_PCOD9338338
_publ_section_title
;
Structure prediction by ZEFSAII (Michael W. Deem and Ramdas Pophale) SiO2 
 PCOD9338338
Probable space group: P M C 21
;
_chemical_formula_sum "Si O2"
_cell_formula_units_Z 32
_cell_length_a 8.391208
_cell_length_b 11.803097
_cell_length_c 16.658350
_cell_angle_alpha 90.000000
_cell_angle_beta 90.000000
_cell_angle_gamma 90.000000
_cell_volume 1649.880332
_symmetry_space_group_name_H-M "P M C 21"
_symmetry_group_IT_number 26
_symmetry_cell_setting 'orthorhombic'
loop_
_space_group_symop_operation_xyz
x,y,z
-x,-y,1/2+z
-x,y,z
x,-y,1/2+z
loop_
_atom_site_type_symbol
_atom_site_label
_atom_site_fract_x
_atom_site_fract_y
_atom_site_fract_z
Si Si1 0.811274 0.058093 0.121130
Si Si2 0.314249 0.292090 0.743514
Si Si3 0.686933 0.126107 0.290660
Si Si4 0.809222 0.563448 0.390839
Si Si5 0.692894 0.807992 0.077710
Si Si6 0.679804 0.102993 0.873689
Si Si7 0.818200 0.243098 0.004942
Si Si8 0.307294 0.309077 0.411529
O O1 0.779345 0.079900 0.214335
O O2 0.000000 0.053757 0.105589
O O3 0.741194 0.938999 0.090541
O O4 0.743732 0.170637 0.076711
O O5 0.500000 0.324075 0.736239
O O6 0.237029 0.381693 0.804820
O O7 0.249811 0.266509 0.654545
O O8 0.307330 0.172149 0.790733
O O9 0.500000 0.137788 0.268312
O O10 0.747008 0.239402 0.333067
O O11 0.694337 0.028732 0.358022
O O12 0.745718 0.646291 0.462201
O O13 0.746102 0.438050 0.404293
O O14 0.000000 0.564400 0.395329
O O15 0.500000 0.805335 0.079470
O O16 0.746489 0.752445 0.993811
O O17 0.500000 0.126405 0.905146
O O18 0.809773 0.152174 0.932863
O O19 0.000000 0.271338 0.027168
O O20 0.500000 0.304001 0.411600
#
# Coordination Sequence:
#
# PCOD9338338 Si02
#       8
#     4   4   4   4   4   4   4   4
#     4  11  22  35  55  85 119 149 184 229 280 344
#     4   9  17  33  59  85 111 141 183 233 275 332
#     4  10  20  36  55  80 115 148 182 228 280 336
#     4  10  21  39  59  78 111 152 192 234 280 335
#     4  10  20  38  62  87 116 147 186 238 290 340
#     4   9  16  30  55  83 107 137 176 221 276 331
#     4   9  20  36  53  78 110 145 182 225 274 328
#     4  10  22  39  60  84 113 151 195 240 285 336
#
# _framework density 19.395344999999999
#
# number of rings (size 3 to 8) (size 9 to 14) (size 15 to 20)
#    0.000    2.250    1.250    1.500    0.000    4.500 
#    2.250    0.000    0.000    0.000    0.000    0.000 
#    0.000    0.000    0.000    0.000    0.000    0.000 
#
# Total GULP energy -178343.502019 kJ/mol
# GULP energy per Si atom -5573.234438 kJ/mol
# Density = 1.935120 g / cm^3
# Si number density = 19.395345 Si / 1000 Ang^3
#
#
#
# Elastic Constant Matrix: (Units=GPa)
#
#
# Indices 1 2 3 4 5 6 
#
# 1 13.6355 14.9749 9.8740 0.0000 0.0000 0.0000
# 2 14.9749 138.4620 49.4469 0.0000 0.0000 0.0000
# 3 9.8740 49.4469 57.1272 0.0000 0.0000 0.0000
# 4 0.0000 0.0000 0.0000 25.8203 0.0000 0.0000
# 5 0.0000 0.0000 0.0000 0.0000 14.1587 0.0000
# 6 0.0000 0.0000 0.0000 0.0000 0.0000 20.0906
#
#
#
# Elastic Compliance Matrix: (Units=1/GPa)
#
#
# Indices 1 2 3 4 5 6 
#
# 1 0.086980 -0.005845 -0.009975 0.000000 0.000000 0.000000
# 2 -0.005845 0.010846 -0.008378 0.000000 0.000000 0.000000
# 3 -0.009975 -0.008378 0.026480 0.000000 0.000000 0.000000
# 4 0.000000 0.000000 0.000000 0.038729 0.000000 0.000000
# 5 0.000000 0.000000 0.000000 0.000000 0.070628 0.000000
# 6 0.000000 0.000000 0.000000 0.000000 0.000000 0.049775
#
#
# Mechanical properties :
#
#
# Convention : Reuss Voigt Hill
#
# Bulk Modulus (GPa) = 13.17316 39.75735 26.46525
# Shear Modulus (GPa) = 14.00022 21.00917 17.50470
#
# Velocity S-wave (km/s) = 2.68961 3.29478 3.00746
# Velocity P-wave (km/s) = 4.05611 5.91752 5.07292
#
# Compressibility (1/GPa) = 0.07591193
#
# Stress axis : x y z
#
# Youngs Moduli (GPa) = 11.49687 92.19871 37.76402
#
# Poissons Ratio (x) = 0.53889 0.37668
# Poissons Ratio (y) = 0.06720 0.31638
# Poissons Ratio (z) = 0.11468 0.77241
#
# Static dielectric constant tensor:
#      x y z
#    x 1.698780 0.000000 0.000000 
#    y 0.000000 1.667770 0.000000 
#    z 0.000000 0.000000 1.716790 
# 
# From -- ./inp_files/4153.got.cif
#   From: 2010.05.17/outbox.cif.g08.bks.cpg/sg26_3_cif.got.tgz:4153.got - 2010.06.04 01:07:29.
