data_PCOD9338985
_publ_section_title
;
Structure prediction by ZEFSAII (Michael W. Deem and Ramdas Pophale) SiO2 
 PCOD9338985
Probable space group: P C C 2
;
_chemical_formula_sum "Si O2"
_cell_formula_units_Z 32
_cell_length_a 14.933272
_cell_length_b 7.336965
_cell_length_c 12.265655
_cell_angle_alpha 90.000000
_cell_angle_beta 90.000000
_cell_angle_gamma 90.000000
_cell_volume 1343.885190
_symmetry_space_group_name_H-M "P C C 2"
_symmetry_group_IT_number 27
_symmetry_cell_setting 'orthorhombic'
loop_
_space_group_symop_operation_xyz
x,y,z
-x,-y,z
-x,y,1/2+z
x,-y,1/2+z
loop_
_atom_site_type_symbol
_atom_site_label
_atom_site_fract_x
_atom_site_fract_y
_atom_site_fract_z
Si Si1 0.608580 0.174416 0.674570
Si Si2 0.768926 0.697181 0.755814
Si Si3 0.333250 0.748113 0.919800
Si Si4 0.902003 0.698281 0.581162
Si Si5 0.587869 0.265619 0.138725
Si Si6 0.898928 0.736901 0.124960
Si Si7 0.744322 0.129844 0.488149
Si Si8 0.153145 0.365532 0.351893
O O1 0.636628 0.206773 0.798659
O O2 0.516433 0.286633 0.665244
O O3 0.678904 0.223443 0.578332
O O4 0.598364 0.954288 0.660669
O O5 0.820624 0.781597 0.651605
O O6 0.671459 0.640793 0.703318
O O7 0.742246 0.800927 0.864464
O O8 0.850636 0.566048 0.800146
O O9 0.251431 0.613080 0.904087
O O10 0.289253 0.926232 0.972260
O O11 0.402773 0.688959 0.010595
O O12 0.891405 0.477385 0.591631
O O13 0.903989 0.714176 0.449914
O O14 0.995596 0.769420 0.626892
O O15 0.855915 0.758986 0.244993
O O16 0.843073 0.847549 0.036867
#
# Coordination Sequence:
#
# PCOD9338985 Si02
#       8
#     4   4   4   4   4   4   4   4
#     4  10  22  38  64  95 121 162 214 257 311 372
#     4  11  22  39  65  91 122 165 209 258 311 375
#     4  11  22  40  64  87 129 163 204 261 320 374
#     4  10  22  38  64  95 121 162 214 257 311 372
#     4  10  22  38  64  93 121 160 211 261 310 372
#     4  10  22  38  64  93 121 160 211 261 310 372
#     4  11  22  39  65  91 122 165 209 258 311 375
#     4  11  22  40  64  87 129 163 204 261 320 374
#
# _framework density 23.811561000000001
#
# number of rings (size 3 to 8) (size 9 to 14) (size 15 to 20)
#    0.000    1.500    5.000    0.000    3.500    2.000 
#    0.000    1.250    0.000    0.000    0.000    0.000 
#    0.000    0.000    0.000    0.000    0.000    0.000 
#
# Total GULP energy -178387.925225 kJ/mol
# GULP energy per Si atom -5574.622663 kJ/mol
# Density = 2.375736 g / cm^3
# Si number density = 23.811561 Si / 1000 Ang^3
#
#
#
# Elastic Constant Matrix: (Units=GPa)
#
#
# Indices 1 2 3 4 5 6 
#
# 1 130.4082 2.0139 64.0545 0.0000 0.0000 0.0000
# 2 2.0139 37.0540 18.0788 0.0000 0.0000 0.0000
# 3 64.0545 18.0788 190.3249 0.0000 0.0000 0.0000
# 4 0.0000 0.0000 0.0000 27.1078 0.0000 0.0000
# 5 0.0000 0.0000 0.0000 0.0000 30.0191 0.0000
# 6 0.0000 0.0000 0.0000 0.0000 0.0000 18.3292
#
#
#
# Elastic Compliance Matrix: (Units=1/GPa)
#
#
# Indices 1 2 3 4 5 6 
#
# 1 0.009227 0.001063 -0.003206 0.000000 0.000000 0.000000
# 2 0.001063 0.028422 -0.003057 0.000000 0.000000 0.000000
# 3 -0.003206 -0.003057 0.006624 0.000000 0.000000 0.000000
# 4 0.000000 0.000000 0.000000 0.036890 0.000000 0.000000
# 5 0.000000 0.000000 0.000000 0.000000 0.033312 0.000000
# 6 0.000000 0.000000 0.000000 0.000000 0.000000 0.054558
#
#
# Mechanical properties :
#
#
# Convention : Reuss Voigt Hill
#
# Bulk Modulus (GPa) = 29.52440 58.45350 43.98895
# Shear Modulus (GPa) = 26.21600 33.33389 29.77494
#
# Velocity S-wave (km/s) = 3.32170 3.74559 3.53999
# Velocity P-wave (km/s) = 5.20938 6.58085 5.93486
#
# Compressibility (1/GPa) = 0.03387029
#
# Stress axis : x y z
#
# Youngs Moduli (GPa) = 108.38156 35.18449 150.97384
#
# Poissons Ratio (x) = -0.03740 0.48406
# Poissons Ratio (y) = -0.11519 0.46160
# Poissons Ratio (z) = 0.34750 0.10757
#
# Static dielectric constant tensor:
#      x y z
#    x 1.934640 0.000000 0.000000 
#    y 0.000000 2.019750 0.000000 
#    z 0.000000 0.000000 2.008760 
# 
# From -- ./inp_files/2449.got.cif
#   From: 2010.05.17/outbox.cif.g08.bks.cpg/sg27_2_cif.got.tgz:2449.got - 2010.06.04 01:11:05.
