data_PCOD9338179
_publ_section_title
;
Structure prediction by ZEFSAII (Michael W. Deem and Ramdas Pophale) SiO2 
 PCOD9338179
Probable space group: P M C 21
;
_chemical_formula_sum "Si O2"
_cell_formula_units_Z 16
_cell_length_a 15.393931
_cell_length_b 8.126835
_cell_length_c 5.384489
_cell_angle_alpha 90.000000
_cell_angle_beta 90.000000
_cell_angle_gamma 90.000000
_cell_volume 673.620774
_symmetry_space_group_name_H-M "P M C 21"
_symmetry_group_IT_number 26
_symmetry_cell_setting 'orthorhombic'
loop_
_space_group_symop_operation_xyz
x,y,z
-x,-y,1/2+z
-x,y,z
x,-y,1/2+z
loop_
_atom_site_type_symbol
_atom_site_label
_atom_site_fract_x
_atom_site_fract_y
_atom_site_fract_z
Si Si1 0.500000 0.606299 0.160530
Si Si2 0.374217 0.904283 0.165390
Si Si3 0.810377 0.039254 0.166746
Si Si4 0.000000 0.406856 0.239819
Si Si5 0.195649 0.604767 0.663318
O O1 0.500000 0.497501 0.408126
O O2 0.416562 0.725917 0.163673
O O3 0.401135 0.999333 0.415935
O O4 0.269523 0.909182 0.165527
O O5 0.762205 0.216243 0.166102
O O6 0.860682 0.999380 0.416491
O O7 0.905983 0.335769 0.176130
O O8 0.000000 0.443369 0.535188
O O9 0.210834 0.503643 0.410130
#
# Coordination Sequence:
#
# PCOD9338179 Si02
#       5
#     2   4   4   2   4
#     4  12  24  40  64  92 112 142 192 238 274 332
#     4  10  21  41  62  82 116 155 180 222 289 342
#     4  10  21  38  56  81 117 155 184 224 287 340
#     4   8  16  30  52  80 112 142 180 236 288 318
#     4  10  19  35  58  84 110 147 194 236 274 330
#
# _framework density 23.752237999999998
#
# number of rings (size 3 to 8) (size 9 to 14) (size 15 to 20)
#    0.000    2.000    0.000    3.750    0.000    0.000 
#    0.000   31.250    0.000    0.000    0.000    0.000 
#    0.000    0.000    0.000    0.000    0.000    0.000 
#
# Total GULP energy -89277.415015 kJ/mol
# GULP energy per Si atom -5579.838438 kJ/mol
# Density = 2.369818 g / cm^3
# Si number density = 23.752238 Si / 1000 Ang^3
#
#
#
# Elastic Constant Matrix: (Units=GPa)
#
#
# Indices 1 2 3 4 5 6 
#
# 1 34.5572 -15.9958 -16.6555 0.0000 0.0000 0.0000
# 2 -15.9958 125.1058 82.3964 0.0000 0.0000 0.0000
# 3 -16.6555 82.3964 263.7238 0.0000 0.0000 0.0000
# 4 0.0000 0.0000 0.0000 55.8159 0.0000 0.0000
# 5 0.0000 0.0000 0.0000 0.0000 -35.6575 0.0000
# 6 0.0000 0.0000 0.0000 0.0000 0.0000 10.0936
#
#
#
# Elastic Compliance Matrix: (Units=1/GPa)
#
#
# Indices 1 2 3 4 5 6 
#
# 1 0.030928 0.003359 0.000904 0.000000 0.000000 0.000000
# 2 0.003359 0.010429 -0.003046 0.000000 0.000000 0.000000
# 3 0.000904 -0.003046 0.004801 0.000000 0.000000 0.000000
# 4 0.000000 0.000000 0.000000 0.017916 0.000000 0.000000
# 5 0.000000 0.000000 0.000000 0.000000 -0.028045 0.000000
# 6 0.000000 0.000000 0.000000 0.000000 0.000000 0.099072
#
#
# Mechanical properties :
#
#
# Convention : Reuss Voigt Hill
#
# Bulk Modulus (GPa) = 20.57990 58.09744 39.33867
# Shear Modulus (GPa) = 33.58746 30.95985 32.27366
#
# Velocity S-wave (km/s) = 3.76450 3.61425 3.69014
# Velocity P-wave (km/s) = 5.25152 6.47533 5.89527
#
# Compressibility (1/GPa) = 0.04859110
#
# Stress axis : x y z
#
# Youngs Moduli (GPa) = 32.33313 95.88626 208.30426
#
# Poissons Ratio (x) = -0.32210 -0.18825
# Poissons Ratio (y) = -0.10861 0.63454
# Poissons Ratio (z) = -0.02922 0.29209
#
# Static dielectric constant tensor:
#      x y z
#    x 2.033590 0.000000 0.000000 
#    y 0.000000 1.950600 0.000000 
#    z 0.000000 0.000000 2.037010 
# 
# From -- ./inp_files/845.got.cif
#   From: 2010.05.17/outbox.cif.g08.bks.cpg/sg26_1_cif.got.tgz:845.got - 2010.06.04 01:07:29.
