data_PCOD9338530
_publ_section_title
;
Structure prediction by ZEFSAII (Michael W. Deem and Ramdas Pophale) SiO2 
 PCOD9338530
Probable space group: P M C 21
;
_chemical_formula_sum "Si O2"
_cell_formula_units_Z 30
_cell_length_a 12.275401
_cell_length_b 9.760564
_cell_length_c 13.279661
_cell_angle_alpha 90.000000
_cell_angle_beta 90.000000
_cell_angle_gamma 90.000000
_cell_volume 1591.100419
_symmetry_space_group_name_H-M "P M C 21"
_symmetry_group_IT_number 26
_symmetry_cell_setting 'orthorhombic'
loop_
_space_group_symop_operation_xyz
x,y,z
-x,-y,1/2+z
-x,y,z
x,-y,1/2+z
loop_
_atom_site_type_symbol
_atom_site_label
_atom_site_fract_x
_atom_site_fract_y
_atom_site_fract_z
Si Si1 0.374471 0.909299 0.001310
Si Si2 0.810166 0.943077 0.163324
Si Si3 0.732170 0.152860 0.877941
Si Si4 0.622614 0.397083 0.430745
Si Si5 0.623478 0.395862 0.760268
Si Si6 0.870129 0.770142 0.572909
Si Si7 0.000000 0.266799 0.596000
Si Si8 0.794007 0.470383 0.591902
O O1 0.500000 0.924902 0.029936
O O2 0.298779 0.910781 0.099655
O O3 0.362331 0.765283 0.942870
O O4 0.337062 0.033059 0.930059
O O5 0.793274 0.906794 0.279979
O O6 0.905209 0.849806 0.117670
O O7 0.838072 0.101640 0.142874
O O8 0.656859 0.276170 0.837784
O O9 0.816124 0.203973 0.963267
O O10 0.500000 0.429760 0.470095
O O11 0.625477 0.460247 0.319858
O O12 0.719286 0.466048 0.492832
O O13 0.500000 0.372264 0.722675
O O14 0.715598 0.404736 0.676036
O O15 0.825156 0.626814 0.614631
O O16 0.000000 0.763437 0.563440
O O17 0.903258 0.382868 0.580702
#
# Coordination Sequence:
#
# PCOD9338530 Si02
#       8
#     4   4   4   4   4   4   2   4
#     4  10  22  41  65  95 127 166 213 262 317 379
#     4  11  24  43  65  92 129 170 212 264 322 378
#     4  11  23  41  67  95 128 167 220 263 319 383
#     4  10  21  40  62  90 126 159 204 263 320 380
#     4  11  23  39  63  93 126 163 206 260 322 383
#     4  11  25  41  63  93 132 168 214 267 321 380
#     4  12  22  40  68  90 122 166 220 258 304 388
#     4  12  23  41  65  92 125 167 212 264 320 383
#
# _framework density 18.854876000000001
#
# number of rings (size 3 to 8) (size 9 to 14) (size 15 to 20)
#    0.000    1.067    5.333    0.800    2.800    2.133 
#    0.000    1.333    5.867    0.000    0.000    0.000 
#    0.000    0.000    0.000    0.000    0.000    0.000 
#
# Total GULP energy -167021.928422 kJ/mol
# GULP energy per Si atom -5567.397614 kJ/mol
# Density = 1.881196 g / cm^3
# Si number density = 18.854876 Si / 1000 Ang^3
#
#
#
# Elastic Constant Matrix: (Units=GPa)
#
#
# Indices 1 2 3 4 5 6 
#
# 1 143.7421 35.2810 11.2517 0.0000 0.0000 0.0000
# 2 35.2810 107.5858 3.3914 0.0000 0.0000 0.0000
# 3 11.2517 3.3914 35.9991 0.0000 0.0000 0.0000
# 4 0.0000 0.0000 0.0000 26.6159 0.0000 0.0000
# 5 0.0000 0.0000 0.0000 0.0000 0.2436 0.0000
# 6 0.0000 0.0000 0.0000 0.0000 0.0000 30.7766
#
#
#
# Elastic Compliance Matrix: (Units=1/GPa)
#
#
# Indices 1 2 3 4 5 6 
#
# 1 0.007733 -0.002467 -0.002185 0.000000 0.000000 0.000000
# 2 -0.002467 0.010110 -0.000181 0.000000 0.000000 0.000000
# 3 -0.002185 -0.000181 0.028478 0.000000 0.000000 0.000000
# 4 0.000000 0.000000 0.000000 0.037571 0.000000 0.000000
# 5 0.000000 0.000000 0.000000 0.000000 4.105494 0.000000
# 6 0.000000 0.000000 0.000000 0.000000 0.000000 0.032492
#
#
# Mechanical properties :
#
#
# Convention : Reuss Voigt Hill
#
# Bulk Modulus (GPa) = 27.28124 43.01945 35.15034
# Shear Modulus (GPa) = 1.17820 27.35409 14.26615
#
# Velocity S-wave (km/s) = 0.79135 3.81303 2.75367
# Velocity P-wave (km/s) = 3.91605 6.50009 5.36594
#
# Compressibility (1/GPa) = 0.03665522
#
# Stress axis : x y z
#
# Youngs Moduli (GPa) = 129.30793 98.91490 35.11434
#
# Poissons Ratio (x) = 0.24404 0.07671
# Poissons Ratio (y) = 0.31903 0.00637
# Poissons Ratio (z) = 0.28250 0.01793
#
# Static dielectric constant tensor:
#      x y z
#    x 1.632270 0.000000 0.000000 
#    y 0.000000 1.665670 0.000000 
#    z 0.000000 0.000000 1.649600 
# 
# From -- ./inp_files/4507.got.cif
#   From: 2010.05.17/outbox.cif.g08.bks.cpg/sg26_3_cif.got.tgz:4507.got - 2010.06.04 01:07:29.
