data_PCOD9338104
_publ_section_title
;
Structure prediction by ZEFSAII (Michael W. Deem and Ramdas Pophale) SiO2 
 PCOD9338104
Probable space group: P M C 21
;
_chemical_formula_sum "Si O2"
_cell_formula_units_Z 32
_cell_length_a 7.771171
_cell_length_b 11.128610
_cell_length_c 14.241109
_cell_angle_alpha 90.000000
_cell_angle_beta 90.000000
_cell_angle_gamma 90.000000
_cell_volume 1231.604307
_symmetry_space_group_name_H-M "P M C 21"
_symmetry_group_IT_number 26
_symmetry_cell_setting 'orthorhombic'
loop_
_space_group_symop_operation_xyz
x,y,z
-x,-y,1/2+z
-x,y,z
x,-y,1/2+z
loop_
_atom_site_type_symbol
_atom_site_label
_atom_site_fract_x
_atom_site_fract_y
_atom_site_fract_z
Si Si1 0.703106 0.463937 0.416970
Si Si2 0.789261 0.436306 0.636532
Si Si3 0.297860 0.787820 0.933650
Si Si4 0.707195 0.068017 0.595748
Si Si5 0.795112 0.068040 0.268485
Si Si6 0.799629 0.695372 0.664455
Si Si7 0.802784 0.702366 0.310241
Si Si8 0.702531 0.171779 0.990845
O O1 0.500000 0.481835 0.398120
O O2 0.726874 0.446037 0.529495
O O3 0.772388 0.332262 0.384941
O O4 0.793616 0.576657 0.369088
O O5 0.728563 0.563462 0.681809
O O6 0.727348 0.332547 0.708143
O O7 0.000000 0.434904 0.635426
O O8 0.500000 0.763395 0.943681
O O9 0.279270 0.906455 0.870462
O O10 0.223623 0.820256 0.035657
O O11 0.500000 0.071478 0.590338
O O12 0.753398 0.044732 0.703190
O O13 0.770966 0.950524 0.537730
O O14 0.723736 0.185971 0.212748
O O15 0.000000 0.073160 0.276634
O O16 0.784207 0.722597 0.553261
O O17 0.000000 0.693474 0.688391
O O18 0.728624 0.800976 0.381545
O O19 0.000000 0.735906 0.295524
O O20 0.500000 0.174853 0.008367
#
# Coordination Sequence:
#
# PCOD9338104 Si02
#       8
#     4   4   4   4   4   4   4   4
#     4  11  23  38  59  88 118 152 196 245 286 336
#     4  10  21  36  55  80 114 158 191 224 286 353
#     4  10  22  41  61  84 118 159 197 236 292 350
#     4   9  20  40  62  83 113 153 195 240 291 345
#     4  10  20  35  60  92 117 147 196 246 290 339
#     4   9  17  32  54  79 110 147 185 230 282 338
#     4  11  22  37  57  83 118 157 189 228 291 356
#     4  10  19  33  56  83 106 139 189 239 282 329
#
# _framework density 25.982372000000002
#
# number of rings (size 3 to 8) (size 9 to 14) (size 15 to 20)
#    0.000    2.000    1.250    2.250    0.000    4.500 
#    2.250    0.000    0.000    0.000    0.000    0.000 
#    0.000    0.000    0.000    0.000    0.000    0.000 
#
# Total GULP energy -178861.399345 kJ/mol
# GULP energy per Si atom -5589.418730 kJ/mol
# Density = 2.592324 g / cm^3
# Si number density = 25.982372 Si / 1000 Ang^3
#
#
#
# Elastic Constant Matrix: (Units=GPa)
#
#
# Indices 1 2 3 4 5 6 
#
# 1 60.1479 -5.1881 -17.9632 0.0000 0.0000 0.0000
# 2 -5.1881 70.8052 19.7140 0.0000 0.0000 0.0000
# 3 -17.9632 19.7140 131.1885 0.0000 0.0000 0.0000
# 4 0.0000 0.0000 0.0000 53.6274 0.0000 0.0000
# 5 0.0000 0.0000 0.0000 0.0000 25.5382 0.0000
# 6 0.0000 0.0000 0.0000 0.0000 0.0000 -22.0197
#
#
#
# Elastic Compliance Matrix: (Units=1/GPa)
#
#
# Indices 1 2 3 4 5 6 
#
# 1 0.017362 0.000637 0.002282 0.000000 0.000000 0.000000
# 2 0.000637 0.014763 -0.002131 0.000000 0.000000 0.000000
# 3 0.002282 -0.002131 0.008255 0.000000 0.000000 0.000000
# 4 0.000000 0.000000 0.000000 0.018647 0.000000 0.000000
# 5 0.000000 0.000000 0.000000 0.000000 0.039157 0.000000
# 6 0.000000 0.000000 0.000000 0.000000 0.000000 -0.045414
#
#
# Mechanical properties :
#
#
# Convention : Reuss Voigt Hill
#
# Bulk Modulus (GPa) = 23.83501 28.36301 26.09901
# Shear Modulus (GPa) = 76.70876 29.13444 52.92160
#
# Velocity S-wave (km/s) = 5.43944 3.35224 4.51802
# Velocity P-wave (km/s) = 6.97448 5.09149 6.10601
#
# Compressibility (1/GPa) = 0.04195508
#
# Stress axis : x y z
#
# Youngs Moduli (GPa) = 57.59696 67.73539 121.13413
#
# Poissons Ratio (x) = -0.04314 -0.27638
# Poissons Ratio (y) = -0.03668 0.25817
# Poissons Ratio (z) = -0.13141 0.14437
#
# Static dielectric constant tensor:
#      x y z
#    x 1.905310 0.000000 0.000000 
#    y 0.000000 2.120410 0.000000 
#    z 0.000000 0.000000 2.129070 
# 
# From -- ./inp_files/4237.got.cif
#   From: 2010.05.17/outbox.cif.g08.bks.cpg/sg26_3_cif.got.tgz:4237.got - 2010.06.04 01:07:29.
