data_PCOD9338914
_publ_section_title
;
Structure prediction by ZEFSAII (Michael W. Deem and Ramdas Pophale) SiO2 
 PCOD9338914
Probable space group: P C C 2
;
_chemical_formula_sum "Si O2"
_cell_formula_units_Z 24
_cell_length_a 7.986237
_cell_length_b 21.635353
_cell_length_c 5.492349
_cell_angle_alpha 90.000000
_cell_angle_beta 90.000000
_cell_angle_gamma 90.000000
_cell_volume 948.995833
_symmetry_space_group_name_H-M "P C C 2"
_symmetry_group_IT_number 27
_symmetry_cell_setting 'orthorhombic'
loop_
_space_group_symop_operation_xyz
x,y,z
-x,-y,z
-x,y,1/2+z
x,-y,1/2+z
loop_
_atom_site_type_symbol
_atom_site_label
_atom_site_fract_x
_atom_site_fract_y
_atom_site_fract_z
Si Si1 0.917954 0.098069 0.802640
Si Si2 0.553830 0.929117 0.101206
Si Si3 0.404700 0.370755 0.816799
Si Si4 0.191150 0.475539 0.937232
Si Si5 0.468442 0.762267 0.821240
Si Si6 0.915581 0.248370 0.814109
O O1 0.732709 0.078602 0.729424
O O2 0.924271 0.173259 0.810233
O O3 0.030998 0.077145 0.573135
O O4 0.433703 0.905983 0.321593
O O5 0.500000 0.000000 0.064066
O O6 0.478969 0.387715 0.551045
O O7 0.407019 0.296351 0.819292
O O8 0.229477 0.404798 0.867302
O O9 0.265288 0.488852 0.203557
O O10 0.000000 0.500000 0.955705
O O11 0.498113 0.796613 0.570638
O O12 0.280537 0.736897 0.819840
O O13 0.998673 0.270346 0.563203
#
# Coordination Sequence:
#
# PCOD9338914 Si02
#       6
#     4   4   4   4   4   4
#     4  10  21  38  60  88 119 160 202 253 304 365
#     4  10  21  38  56  83 122 160 204 260 305 355
#     4  10  21  37  61  84 117 153 189 238 283 346
#     4  10  21  37  60  87 115 151 191 237 286 336
#     4  10  21  38  63  89 121 159 197 241 298 364
#     4  10  21  38  63  91 124 156 199 249 305 362
#
# _framework density 25.289888999999999
#
# number of rings (size 3 to 8) (size 9 to 14) (size 15 to 20)
#    0.000    2.000    0.000    3.000    0.000    3.333 
#    0.000   10.000   88.000    0.000    0.000    0.000 
#    0.000    0.000    0.000    0.000    0.000    0.000 
#
# Total GULP energy -134060.387092 kJ/mol
# GULP energy per Si atom -5585.849462 kJ/mol
# Density = 2.523233 g / cm^3
# Si number density = 25.289889 Si / 1000 Ang^3
#
#
#
# Elastic Constant Matrix: (Units=GPa)
#
#
# Indices 1 2 3 4 5 6 
#
# 1 54.9310 -10.7031 46.4412 0.0000 0.0000 0.0000
# 2 -10.7031 64.4655 30.5214 0.0000 0.0000 0.0000
# 3 46.4412 30.5214 247.3942 0.0000 0.0000 0.0000
# 4 0.0000 0.0000 0.0000 35.8330 0.0000 0.0000
# 5 0.0000 0.0000 0.0000 0.0000 35.8832 0.0000
# 6 0.0000 0.0000 0.0000 0.0000 0.0000 35.3031
#
#
#
# Elastic Compliance Matrix: (Units=1/GPa)
#
#
# Indices 1 2 3 4 5 6 
#
# 1 0.023944 0.006482 -0.005294 0.000000 0.000000 0.000000
# 2 0.006482 0.018229 -0.003466 0.000000 0.000000 0.000000
# 3 -0.005294 -0.003466 0.005464 0.000000 0.000000 0.000000
# 4 0.000000 0.000000 0.000000 0.027907 0.000000 0.000000
# 5 0.000000 0.000000 0.000000 0.000000 0.027868 0.000000
# 6 0.000000 0.000000 0.000000 0.000000 0.000000 0.028326
#
#
# Mechanical properties :
#
#
# Convention : Reuss Voigt Hill
#
# Bulk Modulus (GPa) = 23.21250 55.47885 39.34567
# Shear Modulus (GPa) = 33.18848 41.43929 37.31389
#
# Velocity S-wave (km/s) = 3.62653 4.05232 3.84532
# Velocity P-wave (km/s) = 5.17050 6.62419 5.94197
#
# Compressibility (1/GPa) = 0.04308024
#
# Stress axis : x y z
#
# Youngs Moduli (GPa) = 41.76442 54.85688 183.02964
#
# Poissons Ratio (x) = -0.35558 0.96904
# Poissons Ratio (y) = -0.27072 0.63434
# Poissons Ratio (z) = 0.22112 0.19012
#
# Static dielectric constant tensor:
#      x y z
#    x 2.051110 0.000000 0.000000 
#    y 0.000000 2.124990 0.000000 
#    z 0.000000 0.000000 2.084570 
# 
# From -- ./inp_files/185.got.cif
#   From: 2010.05.17/outbox.cif.g08.bks.cpg/sg27_1_cif.got.tgz:185.got - 2010.06.04 01:11:05.
