data_PCOD9338081
_publ_section_title
;
Structure prediction by ZEFSAII (Michael W. Deem and Ramdas Pophale) SiO2 
 PCOD9338081
Probable space group: P M C 21
;
_chemical_formula_sum "Si O2"
_cell_formula_units_Z 24
_cell_length_a 8.884308
_cell_length_b 9.428899
_cell_length_c 16.790729
_cell_angle_alpha 90.000000
_cell_angle_beta 90.000000
_cell_angle_gamma 90.000000
_cell_volume 1406.546655
_symmetry_space_group_name_H-M "P M C 21"
_symmetry_group_IT_number 26
_symmetry_cell_setting 'orthorhombic'
loop_
_space_group_symop_operation_xyz
x,y,z
-x,-y,1/2+z
-x,y,z
x,-y,1/2+z
loop_
_atom_site_type_symbol
_atom_site_label
_atom_site_fract_x
_atom_site_fract_y
_atom_site_fract_z
Si Si1 0.673488 0.918135 0.678940
Si Si2 0.180257 0.345850 0.606625
Si Si3 0.818478 0.671451 0.585748
Si Si4 0.671861 0.102257 0.515371
Si Si5 0.819410 0.826084 0.264479
Si Si6 0.318209 0.825404 0.432746
O O1 0.500000 0.897470 0.703243
O O2 0.753488 0.771978 0.655347
O O3 0.672371 0.008604 0.596534
O O4 0.762101 0.017155 0.740305
O O5 0.227788 0.508344 0.597762
O O6 0.238723 0.243335 0.536745
O O7 0.226166 0.276886 0.691258
O O8 0.000000 0.342557 0.604833
O O9 0.752098 0.730869 0.502916
O O10 0.000000 0.681463 0.584500
O O11 0.500000 0.140052 0.496638
O O12 0.728236 0.989565 0.450366
O O13 0.742535 0.782823 0.346808
O O14 0.000000 0.824345 0.271375
O O15 0.500000 0.819606 0.437173
#
# Coordination Sequence:
#
# PCOD9338081 Si02
#       6
#     4   4   4   4   4   4
#     4   9  17  31  50  73  98 127 163 203 242 291
#     4   9  19  33  51  75 102 130 166 206 247 298
#     4  10  19  33  52  75 102 134 168 205 248 300
#     4   8  16  30  49  70  94 124 160 198 240 290
#     4  10  19  33  53  76 100 131 168 210 256 301
#     4  10  20  34  51  75 102 130 167 212 255 300
#
# _framework density 17.063068000000001
#
# number of rings (size 3 to 8) (size 9 to 14) (size 15 to 20)
#    0.000    2.667    0.000    3.000    0.000    6.667 
#    0.000    1.667    0.000    2.000    0.000    0.000 
#    0.000    0.000    0.000    0.000    0.000    0.000 
#
# Total GULP energy -133731.240403 kJ/mol
# GULP energy per Si atom -5572.135017 kJ/mol
# Density = 1.702423 g / cm^3
# Si number density = 17.063068 Si / 1000 Ang^3
#
#
#
# Elastic Constant Matrix: (Units=GPa)
#
#
# Indices 1 2 3 4 5 6 
#
# 1 58.2160 45.7892 27.3685 0.0000 0.0000 0.0000
# 2 45.7892 144.9674 41.9625 0.0000 0.0000 0.0000
# 3 27.3685 41.9625 69.6983 0.0000 0.0000 0.0000
# 4 0.0000 0.0000 0.0000 15.8276 0.0000 0.0000
# 5 0.0000 0.0000 0.0000 0.0000 22.6647 0.0000
# 6 0.0000 0.0000 0.0000 0.0000 0.0000 17.0532
#
#
#
# Elastic Compliance Matrix: (Units=1/GPa)
#
#
# Indices 1 2 3 4 5 6 
#
# 1 0.024819 -0.006077 -0.006087 0.000000 0.000000 0.000000
# 2 -0.006077 0.009842 -0.003539 0.000000 0.000000 0.000000
# 3 -0.006087 -0.003539 0.018868 0.000000 0.000000 0.000000
# 4 0.000000 0.000000 0.000000 0.063181 0.000000 0.000000
# 5 0.000000 0.000000 0.000000 0.000000 0.044121 0.000000
# 6 0.000000 0.000000 0.000000 0.000000 0.000000 0.058640
#
#
# Mechanical properties :
#
#
# Convention : Reuss Voigt Hill
#
# Bulk Modulus (GPa) = 45.20183 55.90245 50.55214
# Shear Modulus (GPa) = 19.36089 21.62655 20.49372
#
# Velocity S-wave (km/s) = 3.37214 3.56399 3.46939
# Velocity P-wave (km/s) = 6.45835 7.05474 6.76312
#
# Compressibility (1/GPa) = 0.02212300
#
# Stress axis : x y z
#
# Youngs Moduli (GPa) = 40.29161 101.60376 52.99867
#
# Poissons Ratio (x) = 0.61749 0.32259
# Poissons Ratio (y) = 0.24487 0.18757
# Poissons Ratio (z) = 0.24524 0.35959
#
# Static dielectric constant tensor:
#      x y z
#    x 1.575570 0.000000 0.000000 
#    y 0.000000 1.578750 0.000000 
#    z 0.000000 0.000000 1.581090 
# 
# From -- ./inp_files/3912.got.cif
#   From: 2010.05.17/outbox.cif.g08.bks.cpg/sg26_2_cif.got.tgz:3912.got - 2010.06.04 01:07:29.
