data_PCOD9338332
_publ_section_title
;
Structure prediction by ZEFSAII (Michael W. Deem and Ramdas Pophale) SiO2 
 PCOD9338332
Probable space group: P M C 21
;
_chemical_formula_sum "Si O2"
_cell_formula_units_Z 32
_cell_length_a 17.041089
_cell_length_b 5.720634
_cell_length_c 12.955195
_cell_angle_alpha 90.000000
_cell_angle_beta 90.000000
_cell_angle_gamma 90.000000
_cell_volume 1262.947978
_symmetry_space_group_name_H-M "P M C 21"
_symmetry_group_IT_number 26
_symmetry_cell_setting 'orthorhombic'
loop_
_space_group_symop_operation_xyz
x,y,z
-x,-y,1/2+z
-x,y,z
x,-y,1/2+z
loop_
_atom_site_type_symbol
_atom_site_label
_atom_site_fract_x
_atom_site_fract_y
_atom_site_fract_z
Si Si1 0.188704 0.721390 0.228710
Si Si2 0.407548 0.646581 0.428867
Si Si3 0.086633 0.103491 0.292137
Si Si4 0.811856 0.410487 0.413778
Si Si5 0.591599 0.626979 0.675210
Si Si6 0.091226 0.411543 0.088581
Si Si7 0.347600 0.854124 0.934584
Si Si8 0.646225 0.124192 0.668569
O O1 0.216330 0.518473 0.305148
O O2 0.119231 0.638379 0.153635
O O3 0.261774 0.823104 0.169899
O O4 0.151653 0.910632 0.302694
O O5 0.500000 0.697652 0.416992
O O6 0.388473 0.619007 0.551932
O O7 0.390297 0.380333 0.390980
O O8 0.358981 0.879003 0.393841
O O9 0.106676 0.289979 0.379737
O O10 0.095017 0.212900 0.177292
O O11 0.000000 0.009250 0.304817
O O12 0.840758 0.591520 0.501480
O O13 0.742743 0.232909 0.442990
O O14 0.500000 0.675031 0.685955
O O15 0.607325 0.361409 0.712468
O O16 0.634187 0.863963 0.712078
O O17 0.000000 0.421158 0.054662
O O18 0.382434 0.883888 0.050255
#
# Coordination Sequence:
#
# PCOD9338332 Si02
#       8
#     4   4   4   4   4   4   4   4
#     4  11  24  40  64  93 133 173 218 278 337 397
#     4   9  18  33  58  93 130 169 221 277 329 392
#     4  10  24  43  66  95 129 172 221 279 342 404
#     4  11  24  40  65  95 133 173 221 276 335 406
#     4   9  18  33  59  94 127 167 221 273 327 394
#     4  10  22  43  67  92 127 169 220 275 334 401
#     4  10  20  35  61  93 129 174 223 271 332 399
#     4  10  20  35  62  91 130 173 217 273 332 393
#
# _framework density 25.337546
#
# number of rings (size 3 to 8) (size 9 to 14) (size 15 to 20)
#    0.000    2.000    1.250    1.500    5.250    6.500 
#    0.000    1.250    0.000    4.500    0.000    0.000 
#    0.000    0.000    0.000    0.000    0.000    0.000 
#
# Total GULP energy -178691.632092 kJ/mol
# GULP energy per Si atom -5584.113503 kJ/mol
# Density = 2.527988 g / cm^3
# Si number density = 25.337546 Si / 1000 Ang^3
#
#
#
# Elastic Constant Matrix: (Units=GPa)
#
#
# Indices 1 2 3 4 5 6 
#
# 1 92.2560 47.5560 4.6003 0.0000 0.0000 0.0000
# 2 47.5560 151.1601 37.8451 0.0000 0.0000 0.0000
# 3 4.6003 37.8451 57.6793 0.0000 0.0000 0.0000
# 4 0.0000 0.0000 0.0000 44.1067 0.0000 0.0000
# 5 0.0000 0.0000 0.0000 0.0000 23.8635 0.0000
# 6 0.0000 0.0000 0.0000 0.0000 0.0000 41.3526
#
#
#
# Elastic Compliance Matrix: (Units=1/GPa)
#
#
# Indices 1 2 3 4 5 6 
#
# 1 0.013126 -0.004627 0.001989 0.000000 0.000000 0.000000
# 2 -0.004627 0.009547 -0.005895 0.000000 0.000000 0.000000
# 3 0.001989 -0.005895 0.021047 0.000000 0.000000 0.000000
# 4 0.000000 0.000000 0.000000 0.022672 0.000000 0.000000
# 5 0.000000 0.000000 0.000000 0.000000 0.041905 0.000000
# 6 0.000000 0.000000 0.000000 0.000000 0.000000 0.024182
#
#
# Mechanical properties :
#
#
# Convention : Reuss Voigt Hill
#
# Bulk Modulus (GPa) = 37.51942 53.45535 45.48739
# Shear Modulus (GPa) = 31.55972 35.93751 33.74861
#
# Velocity S-wave (km/s) = 3.53309 3.77018 3.65356
# Velocity P-wave (km/s) = 5.61103 6.33210 5.98244
#
# Compressibility (1/GPa) = 0.02665286
#
# Stress axis : x y z
#
# Youngs Moduli (GPa) = 76.18726 104.74191 47.51366
#
# Poissons Ratio (x) = 0.48469 -0.09452
# Poissons Ratio (y) = 0.35255 0.28010
# Poissons Ratio (z) = -0.15156 0.61747
#
# Static dielectric constant tensor:
#      x y z
#    x 1.893730 0.000000 0.000000 
#    y 0.000000 2.049730 0.000000 
#    z 0.000000 0.000000 2.106610 
# 
# From -- ./inp_files/4713.got.cif
#   From: 2010.05.17/outbox.cif.g08.bks.cpg/sg26_3_cif.got.tgz:4713.got - 2010.06.04 01:07:29.
