data_PCOD9338627
_publ_section_title
;
Structure prediction by ZEFSAII (Michael W. Deem and Ramdas Pophale) SiO2 
 PCOD9338627
Probable space group: P M C 21
;
_chemical_formula_sum "Si O2"
_cell_formula_units_Z 32
_cell_length_a 14.547667
_cell_length_b 13.970932
_cell_length_c 9.936412
_cell_angle_alpha 90.000000
_cell_angle_beta 90.000000
_cell_angle_gamma 90.000000
_cell_volume 2019.520755
_symmetry_space_group_name_H-M "P M C 21"
_symmetry_group_IT_number 26
_symmetry_cell_setting 'orthorhombic'
loop_
_space_group_symop_operation_xyz
x,y,z
-x,-y,1/2+z
-x,y,z
x,-y,1/2+z
loop_
_atom_site_type_symbol
_atom_site_label
_atom_site_fract_x
_atom_site_fract_y
_atom_site_fract_z
Si Si1 0.398832 0.915083 0.224570
Si Si2 0.201753 0.903166 0.145133
Si Si3 0.601442 0.893582 0.544367
Si Si4 0.110925 0.421108 0.463339
Si Si5 0.891462 0.800180 0.375814
Si Si6 0.112340 0.408594 0.770439
Si Si7 0.203649 0.868896 0.631208
Si Si8 0.889848 0.797594 0.897548
O O1 0.500000 0.869852 0.203713
O O2 0.307578 0.868871 0.161117
O O3 0.386179 0.924408 0.386878
O O4 0.402221 0.016388 0.146538
O O5 0.156036 0.882445 0.288567
O O6 0.199864 0.015985 0.113115
O O7 0.143952 0.845093 0.035973
O O8 0.500000 0.846850 0.551772
O O9 0.692429 0.838588 0.592065
O O10 0.143410 0.425382 0.617507
O O11 0.144083 0.507308 0.369553
O O12 0.128896 0.315903 0.404737
O O13 0.000000 0.429757 0.468721
O O14 0.860356 0.696403 0.322228
O O15 0.864280 0.816600 0.528897
O O16 0.000000 0.806045 0.357630
O O17 0.000000 0.409345 0.769984
O O18 0.169728 0.844068 0.779439
O O19 0.000000 0.811859 0.880222
#
# Coordination Sequence:
#
# PCOD9338627 Si02
#       8
#     4   4   4   4   4   4   4   4
#     4   9  18  32  51  72  94 125 166 215 263 298
#     4  11  21  35  50  69 101 141 174 208 243 291
#     4   9  18  33  51  71  95 125 166 216 263 296
#     4   9  18  33  51  70  92 124 164 212 262 294
#     4  11  21  34  49  70 101 136 175 207 242 294
#     4   9  18  32  51  70  92 124 164 213 260 296
#     4  11  23  33  48  74 100 141 176 206 242 289
#     4  11  23  36  49  70 105 140 175 211 243 290
#
# _framework density 15.845343
#
# number of rings (size 3 to 8) (size 9 to 14) (size 15 to 20)
#    0.000    2.000    2.500    1.500    7.000    3.000 
#    0.000    0.000    0.000    0.000    0.000    0.000 
#    0.000    6.000    0.000    0.000    0.000    0.000 
#
# Total GULP energy -178208.904179 kJ/mol
# GULP energy per Si atom -5569.028256 kJ/mol
# Density = 1.580928 g / cm^3
# Si number density = 15.845343 Si / 1000 Ang^3
#
#
#
# Elastic Constant Matrix: (Units=GPa)
#
#
# Indices 1 2 3 4 5 6 
#
# 1 64.0418 21.1964 0.1485 0.0000 0.0000 0.0000
# 2 21.1964 48.1948 9.5222 0.0000 0.0000 0.0000
# 3 0.1485 9.5222 35.5074 0.0000 0.0000 0.0000
# 4 0.0000 0.0000 0.0000 22.8260 0.0000 0.0000
# 5 0.0000 0.0000 0.0000 0.0000 24.1575 0.0000
# 6 0.0000 0.0000 0.0000 0.0000 0.0000 -2.1641
#
#
#
# Elastic Compliance Matrix: (Units=1/GPa)
#
#
# Indices 1 2 3 4 5 6 
#
# 1 0.018439 -0.008547 0.002215 0.000000 0.000000 0.000000
# 2 -0.008547 0.025872 -0.006902 0.000000 0.000000 0.000000
# 3 0.002215 -0.006902 0.030005 0.000000 0.000000 0.000000
# 4 0.000000 0.000000 0.000000 0.043810 0.000000 0.000000
# 5 0.000000 0.000000 0.000000 0.000000 0.041395 0.000000
# 6 0.000000 0.000000 0.000000 0.000000 0.000000 -0.462096
#
#
# Mechanical properties :
#
#
# Convention : Reuss Voigt Hill
#
# Bulk Modulus (GPa) = 20.90020 23.27535 22.08778
# Shear Modulus (GPa) = -19.21906 16.75569 -1.23169
#
# Velocity S-wave (km/s) = -3.48647 3.25538 -0.88261
# Velocity P-wave (km/s) = 1.72874 5.37131 3.59600
#
# Compressibility (1/GPa) = 0.04784644
#
# Stress axis : x y z
#
# Youngs Moduli (GPa) = 54.23431 38.65195 33.32779
#
# Poissons Ratio (x) = 0.33036 -0.07382
# Poissons Ratio (y) = 0.46354 0.23004
# Poissons Ratio (z) = -0.12013 0.26679
#
# Static dielectric constant tensor:
#      x y z
#    x 1.555860 0.000000 0.000000 
#    y 0.000000 1.508660 0.000000 
#    z 0.000000 0.000000 1.529470 
# 
# From -- ./inp_files/2257.got.cif
#   From: 2010.05.17/outbox.cif.g08.bks.cpg/sg26_2_cif.got.tgz:2257.got - 2010.06.04 01:07:29.
