data_PCOD9338774
_publ_section_title
;
Structure prediction by ZEFSAII (Michael W. Deem and Ramdas Pophale) SiO2 
 PCOD9338774
Probable space group: P C C 2
;
_chemical_formula_sum "Si O2"
_cell_formula_units_Z 28
_cell_length_a 4.990689
_cell_length_b 13.327482
_cell_length_c 19.763803
_cell_angle_alpha 90.000000
_cell_angle_beta 90.000000
_cell_angle_gamma 90.000000
_cell_volume 1314.556110
_symmetry_space_group_name_H-M "P C C 2"
_symmetry_group_IT_number 27
_symmetry_cell_setting 'orthorhombic'
loop_
_space_group_symop_operation_xyz
x,y,z
-x,-y,z
-x,y,1/2+z
x,-y,1/2+z
loop_
_atom_site_type_symbol
_atom_site_label
_atom_site_fract_x
_atom_site_fract_y
_atom_site_fract_z
Si Si1 0.390838 0.606107 0.643980
Si Si2 0.353146 0.674542 0.497636
Si Si3 0.596700 0.612398 0.845775
Si Si4 0.883527 0.740478 0.310246
Si Si5 0.102293 0.739173 0.170968
Si Si6 0.230990 0.066963 0.402052
Si Si7 0.145019 0.806940 0.025293
O O1 0.500000 0.500000 0.669113
O O2 0.369488 0.602401 0.562082
O O3 0.603758 0.691906 0.664127
O O4 0.098867 0.643707 0.665389
O O5 0.435696 0.628433 0.426469
O O6 0.558539 0.763058 0.515832
O O7 0.061284 0.725074 0.494714
O O8 0.500000 0.500000 0.831133
O O9 0.392126 0.680447 0.803578
O O10 0.893708 0.656913 0.832046
O O11 0.795123 0.827646 0.362384
O O12 0.012499 0.785996 0.241941
O O13 0.070558 0.809107 0.104664
O O14 0.149582 0.095534 0.478953
O O15 0.500000 0.000000 0.399835
O O16 0.000000 0.000000 0.370783
#
# Coordination Sequence:
#
# PCOD9338774 Si02
#       7
#     4   4   4   4   4   4   4
#     4  10  20  34  57  87 121 167 225 258 296 374
#     4  10  18  36  58  88 125 164 206 272 311 357
#     4  12  23  37  62  93 134 180 217 261 317 380
#     4  12  25  43  60  95 135 169 213 269 322 398
#     4  10  23  38  61  82 126 173 197 259 332 366
#     4  12  24  42  71  98 120 163 215 273 335 390
#     4  10  20  40  64  89 119 158 210 264 323 377
#
# _framework density 21.299963999999999
#
# number of rings (size 3 to 8) (size 9 to 14) (size 15 to 20)
#    0.000    1.143    2.857    3.857    0.000    3.429 
#    0.000    5.000    0.000    1.714    0.000    0.000 
#    0.000    0.000    0.000    0.000    0.000    0.000 
#
# Total GULP energy -156172.226054 kJ/mol
# GULP energy per Si atom -5577.579502 kJ/mol
# Density = 2.125148 g / cm^3
# Si number density = 21.299964 Si / 1000 Ang^3
#
#
#
# Elastic Constant Matrix: (Units=GPa)
#
#
# Indices 1 2 3 4 5 6 
#
# 1 81.7487 20.4499 21.1861 0.0000 0.0000 0.0000
# 2 20.4499 88.9974 28.4687 0.0000 0.0000 0.0000
# 3 21.1861 28.4687 135.3989 0.0000 0.0000 0.0000
# 4 0.0000 0.0000 0.0000 6.4168 0.0000 0.0000
# 5 0.0000 0.0000 0.0000 0.0000 39.3046 0.0000
# 6 0.0000 0.0000 0.0000 0.0000 0.0000 28.9800
#
#
#
# Elastic Compliance Matrix: (Units=1/GPa)
#
#
# Indices 1 2 3 4 5 6 
#
# 1 0.013271 -0.002557 -0.001539 0.000000 0.000000 0.000000
# 2 -0.002557 0.012539 -0.002236 0.000000 0.000000 0.000000
# 3 -0.001539 -0.002236 0.008097 0.000000 0.000000 0.000000
# 4 0.000000 0.000000 0.000000 0.155842 0.000000 0.000000
# 5 0.000000 0.000000 0.000000 0.000000 0.025442 0.000000
# 6 0.000000 0.000000 0.000000 0.000000 0.000000 0.034507
#
#
# Mechanical properties :
#
#
# Convention : Reuss Voigt Hill
#
# Bulk Modulus (GPa) = 47.07630 49.59493 48.33561
# Shear Modulus (GPa) = 18.55677 30.67629 24.61653
#
# Velocity S-wave (km/s) = 2.95483 3.79912 3.40326
# Velocity P-wave (km/s) = 5.81300 6.52526 6.17940
#
# Compressibility (1/GPa) = 0.02124211
#
# Stress axis : x y z
#
# Youngs Moduli (GPa) = 75.35158 79.74961 123.50881
#
# Poissons Ratio (x) = 0.20393 0.19007
# Poissons Ratio (y) = 0.19269 0.27621
# Poissons Ratio (z) = 0.11596 0.17835
#
# Static dielectric constant tensor:
#      x y z
#    x 1.740090 0.000000 0.000000 
#    y 0.000000 1.504980 0.000000 
#    z 0.000000 0.000000 1.859130 
# 
# From -- ./inp_files/4664.got.cif
#   From: 2010.05.17/outbox.cif.g08.bks.cpg/sg27_3_cif.got.tgz:4664.got - 2010.06.04 01:11:05.
