data_PCOD9338540
_publ_section_title
;
Structure prediction by ZEFSAII (Michael W. Deem and Ramdas Pophale) SiO2 
 PCOD9338540
Probable space group: P M C 21
;
_chemical_formula_sum "Si O2"
_cell_formula_units_Z 12
_cell_length_a 15.474394
_cell_length_b 5.160807
_cell_length_c 4.818396
_cell_angle_alpha 90.000000
_cell_angle_beta 90.000000
_cell_angle_gamma 90.000000
_cell_volume 384.798843
_symmetry_space_group_name_H-M "P M C 21"
_symmetry_group_IT_number 26
_symmetry_cell_setting 'orthorhombic'
loop_
_space_group_symop_operation_xyz
x,y,z
-x,-y,1/2+z
-x,y,z
x,-y,1/2+z
loop_
_atom_site_type_symbol
_atom_site_label
_atom_site_fract_x
_atom_site_fract_y
_atom_site_fract_z
Si Si1 0.160434 0.999861 0.710380
Si Si2 0.500000 0.687752 0.590980
Si Si3 0.679792 0.315669 0.937405
Si Si4 0.000000 0.683964 0.477684
O O1 0.084528 0.132784 0.952120
O O2 0.160136 0.228775 0.460298
O O3 0.236280 0.865179 0.470399
O O4 0.500000 0.427741 0.397614
O O5 0.410333 0.824864 0.513009
O O6 0.678277 0.561071 0.138242
O O7 0.000000 0.539392 0.760530
#
# Coordination Sequence:
#
# PCOD9338540 Si02
#       4
#     4   2   4   2
#     4  12  26  45  68 103 135 168 230 280 333 409
#     4   8  16  34  62  96 134 178 218 252 318 408
#     4  10  21  40  68 101 139 177 214 269 335 402
#     4  12  28  50  72  92 128 182 232 284 338 394
#
# _framework density 31.185123000000001
#
# number of rings (size 3 to 8) (size 9 to 14) (size 15 to 20)
#    0.000    1.333    0.000    5.000    0.000    8.000 
#    0.000    3.333    0.000    0.000    0.000    2.333 
#    0.000    0.000    0.000    0.000    0.000    0.000 
#
# Total GULP energy -67002.800026 kJ/mol
# GULP energy per Si atom -5583.566669 kJ/mol
# Density = 3.111414 g / cm^3
# Si number density = 31.185123 Si / 1000 Ang^3
#
#
#
# Elastic Constant Matrix: (Units=GPa)
#
#
# Indices 1 2 3 4 5 6 
#
# 1 379.8822 87.2853 46.8125 0.0000 0.0000 0.0000
# 2 87.2853 94.5120 17.0558 0.0000 0.0000 0.0000
# 3 46.8125 17.0558 330.7979 0.0000 0.0000 0.0000
# 4 0.0000 0.0000 0.0000 85.6691 0.0000 0.0000
# 5 0.0000 0.0000 0.0000 0.0000 50.3244 0.0000
# 6 0.0000 0.0000 0.0000 0.0000 0.0000 -11.4010
#
#
#
# Elastic Compliance Matrix: (Units=1/GPa)
#
#
# Indices 1 2 3 4 5 6 
#
# 1 0.003375 -0.003059 -0.000320 0.000000 0.000000 0.000000
# 2 -0.003059 0.013453 -0.000261 0.000000 0.000000 0.000000
# 3 -0.000320 -0.000261 0.003082 0.000000 0.000000 0.000000
# 4 0.000000 0.000000 0.000000 0.011673 0.000000 0.000000
# 5 0.000000 0.000000 0.000000 0.000000 0.019871 0.000000
# 6 0.000000 0.000000 0.000000 0.000000 0.000000 -0.087712
#
#
# Mechanical properties :
#
#
# Convention : Reuss Voigt Hill
#
# Bulk Modulus (GPa) = 79.17587 123.05547 101.11567
# Shear Modulus (GPa) = -201.86000 68.52108 -66.66946
#
# Velocity S-wave (km/s) = -8.05420 4.69255 -4.62872
# Velocity P-wave (km/s) = 7.81341 8.30093 1.98192
#
# Compressibility (1/GPa) = 0.01263011
#
# Stress axis : x y z
#
# Youngs Moduli (GPa) = 296.32724 74.33448 324.49628
#
# Poissons Ratio (x) = 0.22738 0.10379
# Poissons Ratio (y) = 0.90643 0.08461
# Poissons Ratio (z) = 0.09478 0.01938
#
# Static dielectric constant tensor:
#      x y z
#    x 2.761320 0.000000 0.000000 
#    y 0.000000 2.058880 0.000000 
#    z 0.000000 0.000000 2.693290 
# 
# From -- ./inp_files/685.got.cif
#   From: 2010.05.17/outbox.cif.g08.bks.cpg/sg26_1_cif.got.tgz:685.got - 2010.06.04 01:07:29.
