data_PCOD9338557
_publ_section_title
;
Structure prediction by ZEFSAII (Michael W. Deem and Ramdas Pophale) SiO2 
 PCOD9338557
Probable space group: P M C 21
;
_chemical_formula_sum "Si O2"
_cell_formula_units_Z 24
_cell_length_a 8.752374
_cell_length_b 10.244462
_cell_length_c 14.292032
_cell_angle_alpha 90.000000
_cell_angle_beta 90.000000
_cell_angle_gamma 90.000000
_cell_volume 1281.471651
_symmetry_space_group_name_H-M "P M C 21"
_symmetry_group_IT_number 26
_symmetry_cell_setting 'orthorhombic'
loop_
_space_group_symop_operation_xyz
x,y,z
-x,-y,1/2+z
-x,y,z
x,-y,1/2+z
loop_
_atom_site_type_symbol
_atom_site_label
_atom_site_fract_x
_atom_site_fract_y
_atom_site_fract_z
Si Si1 0.315901 0.146721 0.009190
Si Si2 0.816905 0.218907 0.811021
Si Si3 0.180611 0.644266 0.016649
Si Si4 0.317790 0.113605 0.617711
Si Si5 0.817008 0.525874 0.813423
Si Si6 0.318476 0.405284 0.125649
O O1 0.500000 0.141692 0.999505
O O2 0.276699 0.278636 0.065308
O O3 0.267752 0.022820 0.071357
O O4 0.244376 0.153996 0.906175
O O5 0.755505 0.149442 0.717669
O O6 0.770775 0.372777 0.811760
O O7 0.000000 0.215074 0.810686
O O8 0.271350 0.772272 0.046144
O O9 0.228618 0.529512 0.086617
O O10 0.000000 0.669664 0.024720
O O11 0.214219 0.589796 0.913652
O O12 0.500000 0.110223 0.629759
O O13 0.729520 0.603995 0.733225
O O14 0.000000 0.530859 0.797264
O O15 0.500000 0.426273 0.117209
#
# Coordination Sequence:
#
# PCOD9338557 Si02
#       6
#     4   4   4   4   4   4
#     4  10  24  43  62  89 126 163 204 250 303 362
#     4  11  22  39  64  91 121 162 204 248 308 366
#     4  11  22  39  61  89 122 157 202 253 301 357
#     4  11  24  42  63  90 126 165 202 252 306 360
#     4  10  22  38  60  90 125 160 199 254 305 354
#     4  11  22  37  62  91 118 157 203 249 299 359
#
# _framework density 18.728466000000001
#
# number of rings (size 3 to 8) (size 9 to 14) (size 15 to 20)
#    0.000    1.333    3.333    2.000    0.000    5.333 
#    0.000    5.000    0.000    0.000    0.000    0.000 
#    0.000    0.000    0.000    0.000    0.000    0.000 
#
# Total GULP energy -134130.378530 kJ/mol
# GULP energy per Si atom -5588.765772 kJ/mol
# Density = 1.868584 g / cm^3
# Si number density = 18.728466 Si / 1000 Ang^3
#
#
#
# Elastic Constant Matrix: (Units=GPa)
#
#
# Indices 1 2 3 4 5 6 
#
# 1 17.1876 6.2534 26.2189 0.0000 0.0000 0.0000
# 2 6.2534 65.9333 17.8549 0.0000 0.0000 0.0000
# 3 26.2189 17.8549 104.3918 0.0000 0.0000 0.0000
# 4 0.0000 0.0000 0.0000 27.6609 0.0000 0.0000
# 5 0.0000 0.0000 0.0000 0.0000 38.9396 0.0000
# 6 0.0000 0.0000 0.0000 0.0000 0.0000 14.2821
#
#
#
# Elastic Compliance Matrix: (Units=1/GPa)
#
#
# Indices 1 2 3 4 5 6 
#
# 1 0.094762 -0.002666 -0.023344 0.000000 0.000000 0.000000
# 2 -0.002666 0.015978 -0.002063 0.000000 0.000000 0.000000
# 3 -0.023344 -0.002063 0.015795 0.000000 0.000000 0.000000
# 4 0.000000 0.000000 0.000000 0.036152 0.000000 0.000000
# 5 0.000000 0.000000 0.000000 0.000000 0.025681 0.000000
# 6 0.000000 0.000000 0.000000 0.000000 0.000000 0.070017
#
#
# Mechanical properties :
#
#
# Convention : Reuss Voigt Hill
#
# Bulk Modulus (GPa) = 14.20683 32.01855 23.11269
# Shear Modulus (GPa) = 14.79306 25.32224 20.05765
#
# Velocity S-wave (km/s) = 2.81351 3.68104 3.27612
# Velocity P-wave (km/s) = 4.26106 5.93297 5.16511
#
# Compressibility (1/GPa) = 0.07038869
#
# Stress axis : x y z
#
# Youngs Moduli (GPa) = 10.55275 62.58430 63.30992
#
# Poissons Ratio (x) = 0.16685 1.47793
# Poissons Ratio (y) = 0.02813 0.13063
# Poissons Ratio (z) = 0.24635 0.12913
#
# Static dielectric constant tensor:
#      x y z
#    x 1.630490 0.000000 0.000000 
#    y 0.000000 1.631790 0.000000 
#    z 0.000000 0.000000 1.632370 
# 
# From -- ./inp_files/3932.got.cif
#   From: 2010.05.17/outbox.cif.g08.bks.cpg/sg26_2_cif.got.tgz:3932.got - 2010.06.04 01:07:29.
