data_PCOD9338837
_publ_section_title
;
Structure prediction by ZEFSAII (Michael W. Deem and Ramdas Pophale) SiO2 
 PCOD9338837
Probable space group: P C C 2
;
_chemical_formula_sum "Si O2"
_cell_formula_units_Z 14
_cell_length_a 8.058523
_cell_length_b 9.929442
_cell_length_c 9.018954
_cell_angle_alpha 90.000000
_cell_angle_beta 90.000000
_cell_angle_gamma 90.000000
_cell_volume 721.666366
_symmetry_space_group_name_H-M "P C C 2"
_symmetry_group_IT_number 27
_symmetry_cell_setting 'orthorhombic'
loop_
_space_group_symop_operation_xyz
x,y,z
-x,-y,z
-x,y,1/2+z
x,-y,1/2+z
loop_
_atom_site_type_symbol
_atom_site_label
_atom_site_fract_x
_atom_site_fract_y
_atom_site_fract_z
Si Si1 0.364497 0.680935 0.347700
Si Si2 0.367812 0.103728 0.438093
Si Si3 0.500000 0.500000 0.087822
Si Si4 0.827870 0.919092 0.726164
O O1 0.527720 0.768723 0.387553
O O2 0.405638 0.603416 0.196037
O O3 0.366111 0.574287 0.481800
O O4 0.211299 0.784532 0.324395
O O5 0.295408 0.028860 0.296074
O O6 0.500000 0.000000 0.507244
O O7 0.225931 0.121489 0.560367
O O8 0.000000 0.000000 0.727704
#
# Coordination Sequence:
#
# PCOD9338837 Si02
#       4
#     4   4   2   4
#     4  10  20  37  63  93 117 163 213 259 299 380
#     4  10  20  36  59  88 118 158 210 263 309 365
#     4  10  20  36  64  94 120 164 220 252 298 364
#     4  11  22  36  58  92 127 162 200 267 327 366
#
# _framework density 19.399546000000001
#
# number of rings (size 3 to 8) (size 9 to 14) (size 15 to 20)
#    0.000    1.714    2.857    3.429    4.000    0.000 
#    0.000    0.000    0.000   10.286    0.000    0.000 
#    0.000    0.000    0.000    0.000    0.000    0.000 
#
# Total GULP energy -77981.321126 kJ/mol
# GULP energy per Si atom -5570.094366 kJ/mol
# Density = 1.935539 g / cm^3
# Si number density = 19.399546 Si / 1000 Ang^3
#
#
#
# Elastic Constant Matrix: (Units=GPa)
#
#
# Indices 1 2 3 4 5 6 
#
# 1 94.6687 47.2140 38.6728 0.0000 0.0000 0.0000
# 2 47.2140 115.4301 58.0283 0.0000 0.0000 0.0000
# 3 38.6728 58.0283 121.2155 0.0000 0.0000 0.0000
# 4 0.0000 0.0000 0.0000 -0.6473 0.0000 0.0000
# 5 0.0000 0.0000 0.0000 0.0000 17.2192 0.0000
# 6 0.0000 0.0000 0.0000 0.0000 0.0000 33.0265
#
#
#
# Elastic Compliance Matrix: (Units=1/GPa)
#
#
# Indices 1 2 3 4 5 6 
#
# 1 0.013711 -0.004490 -0.002225 0.000000 0.000000 0.000000
# 2 -0.004490 0.012879 -0.004733 0.000000 0.000000 0.000000
# 3 -0.002225 -0.004733 0.011226 0.000000 0.000000 0.000000
# 4 0.000000 0.000000 0.000000 -1.544819 0.000000 0.000000
# 5 0.000000 0.000000 0.000000 0.000000 0.058075 0.000000
# 6 0.000000 0.000000 0.000000 0.000000 0.000000 0.030279
#
#
# Mechanical properties :
#
#
# Convention : Reuss Voigt Hill
#
# Bulk Modulus (GPa) = 67.02407 68.79385 67.90896
# Shear Modulus (GPa) = -3.59510 22.41296 9.40893
#
# Velocity S-wave (km/s) = -1.36280 3.40271 2.20468
# Velocity P-wave (km/s) = 5.66992 7.13978 6.44688
#
# Compressibility (1/GPa) = 0.01492001
#
# Stress axis : x y z
#
# Youngs Moduli (GPa) = 72.93271 77.64570 89.08281
#
# Poissons Ratio (x) = 0.34860 0.19822
# Poissons Ratio (y) = 0.32744 0.42163
# Poissons Ratio (z) = 0.16229 0.36750
#
# Static dielectric constant tensor:
#      x y z
#    x 1.713420 0.000000 0.000000 
#    y 0.000000 1.724160 0.000000 
#    z 0.000000 0.000000 1.701790 
# 
# From -- ./inp_files/926.got.cif
#   From: 2010.05.17/outbox.cif.g08.bks.cpg/sg27_1_cif.got.tgz:926.got - 2010.06.04 01:11:05.
