data_PCOD9338948
_publ_section_title
;
Structure prediction by ZEFSAII (Michael W. Deem and Ramdas Pophale) SiO2 
 PCOD9338948
Probable space group: P C C 2
;
_chemical_formula_sum "Si O2"
_cell_formula_units_Z 20
_cell_length_a 7.778306
_cell_length_b 19.530465
_cell_length_c 5.471545
_cell_angle_alpha 90.000000
_cell_angle_beta 90.000000
_cell_angle_gamma 90.000000
_cell_volume 831.203921
_symmetry_space_group_name_H-M "P C C 2"
_symmetry_group_IT_number 27
_symmetry_cell_setting 'orthorhombic'
loop_
_space_group_symop_operation_xyz
x,y,z
-x,-y,z
-x,y,1/2+z
x,-y,1/2+z
loop_
_atom_site_type_symbol
_atom_site_label
_atom_site_fract_x
_atom_site_fract_y
_atom_site_fract_z
Si Si1 0.920937 0.754282 0.875000
Si Si2 0.931470 0.422242 0.196746
Si Si3 0.564462 0.079213 0.121790
Si Si4 0.950657 0.090798 0.933508
Si Si5 0.608350 0.660770 0.784972
O O1 0.734951 0.726769 0.796311
O O2 0.042536 0.730926 0.651277
O O3 0.964602 0.834902 0.887382
O O4 0.736829 0.405032 0.272111
O O5 0.000000 0.500000 0.173678
O O6 0.040269 0.394063 0.424882
O O7 0.462931 0.110176 0.890473
O O8 0.760411 0.086626 0.041692
O O9 0.500000 0.000000 0.145526
O O10 0.935517 0.061967 0.657460
O O11 0.499083 0.660530 0.535817
#
# Coordination Sequence:
#
# PCOD9338948 Si02
#       5
#     4   4   4   4   4
#     4  10  21  41  64  89 122 166 207 245 306 383
#     4  10  21  41  65  89 124 173 210 249 308 378
#     4  10  21  40  62  91 123 155 200 260 306 348
#     4  10  21  40  63  90 122 165 205 244 305 383
#     4  12  24  40  64  97 126 157 208 268 312 356
#
# _framework density 24.061481000000001
#
# number of rings (size 3 to 8) (size 9 to 14) (size 15 to 20)
#    0.000    1.600    0.000    4.800    0.000    0.000 
#    0.000   48.000    0.000    0.000    0.000    0.000 
#    0.000    0.000    0.000    0.000    0.000    0.000 
#
# Total GULP energy -111525.721347 kJ/mol
# GULP energy per Si atom -5576.286067 kJ/mol
# Density = 2.400672 g / cm^3
# Si number density = 24.061481 Si / 1000 Ang^3
#
#
#
# Elastic Constant Matrix: (Units=GPa)
#
#
# Indices 1 2 3 4 5 6 
#
# 1 131.8057 27.3971 31.2778 0.0000 0.0000 0.0000
# 2 27.3971 129.6439 13.2091 0.0000 0.0000 0.0000
# 3 31.2778 13.2091 225.5247 0.0000 0.0000 0.0000
# 4 0.0000 0.0000 0.0000 23.3782 0.0000 0.0000
# 5 0.0000 0.0000 0.0000 0.0000 71.1885 0.0000
# 6 0.0000 0.0000 0.0000 0.0000 0.0000 -51.6313
#
#
#
# Elastic Compliance Matrix: (Units=1/GPa)
#
#
# Indices 1 2 3 4 5 6 
#
# 1 0.008170 -0.001621 -0.001038 0.000000 0.000000 0.000000
# 2 -0.001621 0.008081 -0.000249 0.000000 0.000000 0.000000
# 3 -0.001038 -0.000249 0.004593 0.000000 0.000000 0.000000
# 4 0.000000 0.000000 0.000000 0.042775 0.000000 0.000000
# 5 0.000000 0.000000 0.000000 0.000000 0.014047 0.000000
# 6 0.000000 0.000000 0.000000 0.000000 0.000000 -0.019368
#
#
# Mechanical properties :
#
#
# Convention : Reuss Voigt Hill
#
# Bulk Modulus (GPa) = 66.53769 70.08249 68.31009
# Shear Modulus (GPa) = 72.33493 36.25977 54.29735
#
# Velocity S-wave (km/s) = 5.48888 3.88617 4.75553
# Velocity P-wave (km/s) = 8.23915 7.02326 7.65538
#
# Compressibility (1/GPa) = 0.01502908
#
# Stress axis : x y z
#
# Youngs Moduli (GPa) = 122.39623 123.74284 217.73941
#
# Poissons Ratio (x) = 0.20056 0.22605
# Poissons Ratio (y) = 0.19838 0.05412
# Poissons Ratio (z) = 0.12707 0.03075
#
# Static dielectric constant tensor:
#      x y z
#    x 1.885800 0.000000 0.000000 
#    y 0.000000 2.410460 0.000000 
#    z 0.000000 0.000000 2.018450 
# 
# From -- ./inp_files/58.got.cif
#   From: 2010.05.17/outbox.cif.g08.bks.cpg/sg27_1_cif.got.tgz:58.got - 2010.06.04 01:11:05.
