data_PCOD9338543
_publ_section_title
;
Structure prediction by ZEFSAII (Michael W. Deem and Ramdas Pophale) SiO2 
 PCOD9338543
Probable space group: P M C 21
;
_chemical_formula_sum "Si O2"
_cell_formula_units_Z 24
_cell_length_a 11.453761
_cell_length_b 9.568856
_cell_length_c 9.601595
_cell_angle_alpha 90.000000
_cell_angle_beta 90.000000
_cell_angle_gamma 90.000000
_cell_volume 1052.328952
_symmetry_space_group_name_H-M "P M C 21"
_symmetry_group_IT_number 26
_symmetry_cell_setting 'orthorhombic'
loop_
_space_group_symop_operation_xyz
x,y,z
-x,-y,1/2+z
-x,y,z
x,-y,1/2+z
loop_
_atom_site_type_symbol
_atom_site_label
_atom_site_fract_x
_atom_site_fract_y
_atom_site_fract_z
Si Si1 0.871280 0.144256 0.828200
Si Si2 0.773058 0.034039 0.101549
Si Si3 0.372241 0.800556 0.055315
Si Si4 0.759564 0.297217 0.293825
Si Si5 0.368083 0.506549 0.609255
Si Si6 0.868621 0.545652 0.423444
O O1 0.858312 0.077132 0.676466
O O2 0.858674 0.310924 0.836350
O O3 0.000000 0.111154 0.882792
O O4 0.787143 0.072882 0.940531
O O5 0.787156 0.178752 0.182724
O O6 0.653389 0.948637 0.125278
O O7 0.500000 0.803381 0.991800
O O8 0.277760 0.776676 0.935732
O O9 0.365413 0.658701 0.145621
O O10 0.859353 0.409108 0.326716
O O11 0.652190 0.391658 0.238831
O O12 0.500000 0.531665 0.550424
O O13 0.250073 0.535357 0.517492
O O14 0.000000 0.547551 0.488974
#
# Coordination Sequence:
#
# PCOD9338543 Si02
#       6
#     4   4   4   4   4   4
#     4  11  24  44  67  96 137 179 227 288 351 420
#     4  12  23  44  65 100 135 178 232 281 349 421
#     4  10  23  42  65  98 138 180 230 288 347 413
#     4  11  22  41  69  98 138 178 237 288 352 410
#     4  10  21  41  68  99 138 183 233 289 349 416
#     4  10  23  42  66  99 136 180 235 288 346 418
#
# _framework density 22.806554999999999
#
# number of rings (size 3 to 8) (size 9 to 14) (size 15 to 20)
#    0.000    1.333    3.333    2.000    0.000    4.000 
#    0.000    3.333    0.000    0.000    0.000    0.000 
#    0.000    0.000    0.000    0.000    0.000    0.000 
#
# Total GULP energy -133753.012674 kJ/mol
# GULP energy per Si atom -5573.042195 kJ/mol
# Density = 2.275465 g / cm^3
# Si number density = 22.806555 Si / 1000 Ang^3
#
#
#
# Elastic Constant Matrix: (Units=GPa)
#
#
# Indices 1 2 3 4 5 6 
#
# 1 124.6921 33.5406 18.9464 0.0000 0.0000 0.0000
# 2 33.5406 130.5256 22.5981 0.0000 0.0000 0.0000
# 3 18.9464 22.5981 53.8974 0.0000 0.0000 0.0000
# 4 0.0000 0.0000 0.0000 30.8719 0.0000 0.0000
# 5 0.0000 0.0000 0.0000 0.0000 18.7600 0.0000
# 6 0.0000 0.0000 0.0000 0.0000 0.0000 20.5688
#
#
#
# Elastic Compliance Matrix: (Units=1/GPa)
#
#
# Indices 1 2 3 4 5 6 
#
# 1 0.008879 -0.001878 -0.002334 0.000000 0.000000 0.000000
# 2 -0.001878 0.008658 -0.002970 0.000000 0.000000 0.000000
# 3 -0.002334 -0.002970 0.020620 0.000000 0.000000 0.000000
# 4 0.000000 0.000000 0.000000 0.032392 0.000000 0.000000
# 5 0.000000 0.000000 0.000000 0.000000 0.053305 0.000000
# 6 0.000000 0.000000 0.000000 0.000000 0.000000 0.048617
#
#
# Mechanical properties :
#
#
# Convention : Reuss Voigt Hill
#
# Bulk Modulus (GPa) = 42.02847 51.03169 46.53008
# Shear Modulus (GPa) = 25.67182 29.64214 27.65698
#
# Velocity S-wave (km/s) = 3.35869 3.60907 3.48613
# Velocity P-wave (km/s) = 5.78872 6.30807 6.05396
#
# Compressibility (1/GPa) = 0.02379339
#
# Stress axis : x y z
#
# Youngs Moduli (GPa) = 112.61938 115.49973 48.49760
#
# Poissons Ratio (x) = 0.21686 0.11320
# Poissons Ratio (y) = 0.21145 0.14404
# Poissons Ratio (z) = 0.26287 0.34305
#
# Static dielectric constant tensor:
#      x y z
#    x 1.929340 0.000000 0.000000 
#    y 0.000000 1.857470 0.000000 
#    z 0.000000 0.000000 1.904130 
# 
# From -- ./inp_files/3246.got.cif
#   From: 2010.05.17/outbox.cif.g08.bks.cpg/sg26_2_cif.got.tgz:3246.got - 2010.06.04 01:07:29.
