data_PCOD9338856
_publ_section_title
;
Structure prediction by ZEFSAII (Michael W. Deem and Ramdas Pophale) SiO2 
 PCOD9338856
Probable space group: P C C 2
;
_chemical_formula_sum "Si O2"
_cell_formula_units_Z 26
_cell_length_a 8.911076
_cell_length_b 15.326165
_cell_length_c 9.458518
_cell_angle_alpha 90.000000
_cell_angle_beta 90.000000
_cell_angle_gamma 90.000000
_cell_volume 1291.774595
_symmetry_space_group_name_H-M "P C C 2"
_symmetry_group_IT_number 27
_symmetry_cell_setting 'orthorhombic'
loop_
_space_group_symop_operation_xyz
x,y,z
-x,-y,z
-x,y,1/2+z
x,-y,1/2+z
loop_
_atom_site_type_symbol
_atom_site_label
_atom_site_fract_x
_atom_site_fract_y
_atom_site_fract_z
Si Si1 0.860750 0.747643 0.891630
Si Si2 0.444275 0.318384 0.769135
Si Si3 0.000000 0.000000 0.085998
Si Si4 0.900324 0.115735 0.831831
Si Si5 0.913372 0.412395 0.835991
Si Si6 0.743706 0.261674 0.694055
Si Si7 0.382606 0.422590 0.504515
O O1 0.702955 0.730246 0.818364
O O2 0.946101 0.828481 0.822961
O O3 0.965114 0.660828 0.882885
O O4 0.827899 0.768535 0.054113
O O5 0.566239 0.266590 0.677252
O O6 0.388060 0.395875 0.667881
O O7 0.543777 0.350245 0.901420
O O8 0.104487 0.052771 0.196237
O O9 0.908768 0.062369 0.977683
O O10 0.779573 0.193008 0.818089
O O11 0.812776 0.358192 0.723428
O O12 0.000000 0.500000 0.790807
O O13 0.788310 0.437234 0.954122
O O14 0.500000 0.500000 0.485732
#
# Coordination Sequence:
#
# PCOD9338856 Si02
#       7
#     4   4   2   4   4   4   4
#     4  11  22  41  61  95 125 165 216 265 317 374
#     4  11  23  40  63  83 124 169 212 265 323 385
#     4  10  20  38  66 106 126 160 198 248 322 376
#     4  10  21  38  70  97 129 160 201 258 305 385
#     4  10  24  38  61  89 123 171 218 276 311 372
#     4  10  22  41  61  91 127 165 217 255 322 380
#     4  11  23  40  57  86 120 169 219 273 327 375
#
# _framework density 20.127351000000001
#
# number of rings (size 3 to 8) (size 9 to 14) (size 15 to 20)
#    0.000    1.538    3.077    1.385    4.308    3.077 
#    0.000    0.000    0.000    5.538    0.000    0.000 
#    0.000    0.000    0.000    0.000    0.000    0.000 
#
# Total GULP energy -144996.173855 kJ/mol
# GULP energy per Si atom -5576.775917 kJ/mol
# Density = 2.008154 g / cm^3
# Si number density = 20.127351 Si / 1000 Ang^3
#
#
#
# Elastic Constant Matrix: (Units=GPa)
#
#
# Indices 1 2 3 4 5 6 
#
# 1 111.2046 26.7190 14.2651 0.0000 0.0000 0.0000
# 2 26.7190 82.7947 20.0133 0.0000 0.0000 0.0000
# 3 14.2651 20.0133 76.2566 0.0000 0.0000 0.0000
# 4 0.0000 0.0000 0.0000 20.8132 0.0000 0.0000
# 5 0.0000 0.0000 0.0000 0.0000 12.5886 0.0000
# 6 0.0000 0.0000 0.0000 0.0000 0.0000 8.2154
#
#
#
# Elastic Compliance Matrix: (Units=1/GPa)
#
#
# Indices 1 2 3 4 5 6 
#
# 1 0.009830 -0.002913 -0.001074 0.000000 0.000000 0.000000
# 2 -0.002913 0.013759 -0.003066 0.000000 0.000000 0.000000
# 3 -0.001074 -0.003066 0.014119 0.000000 0.000000 0.000000
# 4 0.000000 0.000000 0.000000 0.048046 0.000000 0.000000
# 5 0.000000 0.000000 0.000000 0.000000 0.079437 0.000000
# 6 0.000000 0.000000 0.000000 0.000000 0.000000 0.121723
#
#
# Mechanical properties :
#
#
# Convention : Reuss Voigt Hill
#
# Bulk Modulus (GPa) = 42.36923 43.58343 42.97633
# Shear Modulus (GPa) = 16.18708 22.27402 19.23055
#
# Velocity S-wave (km/s) = 2.83898 3.33025 3.09438
# Velocity P-wave (km/s) = 5.64293 6.04055 5.84512
#
# Compressibility (1/GPa) = 0.02360204
#
# Stress axis : x y z
#
# Youngs Moduli (GPa) = 101.72873 72.67884 70.82488
#
# Poissons Ratio (x) = 0.21168 0.07610
# Poissons Ratio (y) = 0.29629 0.21716
# Poissons Ratio (z) = 0.10931 0.22285
#
# Static dielectric constant tensor:
#      x y z
#    x 1.753290 0.000000 0.000000 
#    y 0.000000 1.757390 0.000000 
#    z 0.000000 0.000000 1.759990 
# 
# From -- ./inp_files/1197.got.cif
#   From: 2010.05.17/outbox.cif.g08.bks.cpg/sg27_1_cif.got.tgz:1197.got - 2010.06.04 01:11:05.
