data_PCOD9338038
_publ_section_title
;
Structure prediction by ZEFSAII (Michael W. Deem and Ramdas Pophale) SiO2 
 PCOD9338038
Probable space group: P M C 21
;
_chemical_formula_sum "Si O2"
_cell_formula_units_Z 32
_cell_length_a 14.635377
_cell_length_b 8.538139
_cell_length_c 15.271508
_cell_angle_alpha 90.000000
_cell_angle_beta 90.000000
_cell_angle_gamma 90.000000
_cell_volume 1908.310584
_symmetry_space_group_name_H-M "P M C 21"
_symmetry_group_IT_number 26
_symmetry_cell_setting 'orthorhombic'
loop_
_space_group_symop_operation_xyz
x,y,z
-x,-y,1/2+z
-x,y,z
x,-y,1/2+z
loop_
_atom_site_type_symbol
_atom_site_label
_atom_site_fract_x
_atom_site_fract_y
_atom_site_fract_z
Si Si1 0.394151 0.141057 0.133800
Si Si2 0.750000 0.611198 0.953854
Si Si3 0.750000 0.116407 0.878920
Si Si4 0.893885 0.661840 0.453419
Si Si5 0.606115 0.661840 0.453419
Si Si6 0.105849 0.141057 0.133800
Si Si7 0.250000 0.081468 0.558904
Si Si8 0.250000 0.806215 0.774272
O O1 0.500000 0.113845 0.153720
O O2 0.338553 0.218019 0.213457
O O3 0.338965 0.982756 0.109430
O O4 0.388199 0.251587 0.047881
O O5 0.838137 0.499148 0.958837
O O6 0.661863 0.499148 0.958837
O O7 0.750000 0.701277 0.860917
O O8 0.750000 0.738574 0.031495
O O9 0.838664 0.227245 0.885812
O O10 0.661336 0.227245 0.885812
O O11 0.750000 0.988602 0.803423
O O12 0.750000 0.013781 0.967571
O O13 0.888199 0.748413 0.547881
O O14 0.000000 0.642796 0.431094
O O15 0.500000 0.642796 0.431094
O O16 0.161447 0.218019 0.213457
O O17 0.000000 0.113845 0.153720
O O18 0.161035 0.982756 0.109430
#
# Coordination Sequence:
#
# PCOD9338038 Si02
#       8
#     4   4   4   4   4   4   4   4
#     4   9  18  34  53  70  94 130 166 200 241 288
#     4  10  19  31  51  77 101 125 159 203 243 285
#     4   8  16  31  49  69  93 123 158 197 237 279
#     4   9  18  34  53  70  95 133 167 194 234 291
#     4   9  18  34  53  70  95 133 167 194 234 291
#     4   9  18  34  53  70  94 130 166 200 241 288
#     4   8  16  31  50  71  92 120 162 200 231 276
#     4  10  19  31  50  75 100 124 157 206 251 284
#
# _framework density 16.768757999999998
#
# number of rings (size 3 to 8) (size 9 to 14) (size 15 to 20)
#    0.000    3.000    0.000    2.250    0.000    3.000 
#    0.000   15.000    0.000    0.000    0.000    0.000 
#    0.000    0.000    0.000    0.000    0.000    0.000 
#
# Total GULP energy -178198.301668 kJ/mol
# GULP energy per Si atom -5568.696927 kJ/mol
# Density = 1.673059 g / cm^3
# Si number density = 16.768758 Si / 1000 Ang^3
#
#
#
# Elastic Constant Matrix: (Units=GPa)
#
#
# Indices 1 2 3 4 5 6 
#
# 1 180.2342 61.0139 41.2087 0.0000 0.0000 0.0000
# 2 61.0139 95.6411 11.1120 0.0000 0.0000 0.0000
# 3 41.2087 11.1120 48.9638 0.0000 0.0000 0.0000
# 4 0.0000 0.0000 0.0000 19.5028 0.0000 0.0000
# 5 0.0000 0.0000 0.0000 0.0000 16.5077 0.0000
# 6 0.0000 0.0000 0.0000 0.0000 0.0000 7.2726
#
#
#
# Elastic Compliance Matrix: (Units=1/GPa)
#
#
# Indices 1 2 3 4 5 6 
#
# 1 0.008555 -0.004746 -0.006123 0.000000 0.000000 0.000000
# 2 -0.004746 0.013372 0.000960 0.000000 0.000000 0.000000
# 3 -0.006123 0.000960 0.025359 0.000000 0.000000 0.000000
# 4 0.000000 0.000000 0.000000 0.051275 0.000000 0.000000
# 5 0.000000 0.000000 0.000000 0.000000 0.060578 0.000000
# 6 0.000000 0.000000 0.000000 0.000000 0.000000 0.137502
#
#
# Mechanical properties :
#
#
# Convention : Reuss Voigt Hill
#
# Bulk Modulus (GPa) = 36.40735 61.27870 48.84302
# Shear Modulus (GPa) = 15.35559 22.75692 19.05625
#
# Velocity S-wave (km/s) = 3.02938 3.68788 3.37473
# Velocity P-wave (km/s) = 5.83050 7.39978 6.66151
#
# Compressibility (1/GPa) = 0.02746698
#
# Stress axis : x y z
#
# Youngs Moduli (GPa) = 116.89065 74.78260 39.43443
#
# Poissons Ratio (x) = 0.35494 0.24145
# Poissons Ratio (y) = 0.55479 -0.03785
# Poissons Ratio (z) = 0.71571 -0.07178
#
# Static dielectric constant tensor:
#      x y z
#    x 1.555760 0.000000 0.000000 
#    y 0.000000 1.561780 0.000000 
#    z 0.000000 0.000000 1.577940 
# 
# From -- ./inp_files/4657.got.cif
#   From: 2010.05.17/outbox.cif.g08.bks.cpg/sg26_3_cif.got.tgz:4657.got - 2010.06.04 01:07:29.
