data_PCOD9338066
_publ_section_title
;
Structure prediction by ZEFSAII (Michael W. Deem and Ramdas Pophale) SiO2 
 PCOD9338066
Probable space group: P M C 21
;
_chemical_formula_sum "Si O2"
_cell_formula_units_Z 24
_cell_length_a 9.015382
_cell_length_b 10.035831
_cell_length_c 11.712392
_cell_angle_alpha 90.000000
_cell_angle_beta 90.000000
_cell_angle_gamma 90.000000
_cell_volume 1059.700336
_symmetry_space_group_name_H-M "P M C 21"
_symmetry_group_IT_number 26
_symmetry_cell_setting 'orthorhombic'
loop_
_space_group_symop_operation_xyz
x,y,z
-x,-y,1/2+z
-x,y,z
x,-y,1/2+z
loop_
_atom_site_type_symbol
_atom_site_label
_atom_site_fract_x
_atom_site_fract_y
_atom_site_fract_z
Si Si1 0.832627 0.901240 0.193360
Si Si2 0.332866 0.860703 0.981058
Si Si3 0.172440 0.494390 0.175715
Si Si4 0.177669 0.567244 0.432148
Si Si5 0.666579 0.168848 0.914109
Si Si6 0.835108 0.800473 0.760997
O O1 0.710781 0.856631 0.283456
O O2 0.000000 0.867725 0.230099
O O3 0.823802 0.062336 0.190952
O O4 0.789704 0.833054 0.075791
O O5 0.500000 0.823129 0.013426
O O6 0.286235 0.802321 0.859916
O O7 0.327915 0.021826 0.967443
O O8 0.233104 0.540800 0.300977
O O9 0.174050 0.334525 0.191761
O O10 0.000000 0.539420 0.173350
O O11 0.233396 0.513848 0.045523
O O12 0.219049 0.720708 0.454670
O O13 0.000000 0.547619 0.429258
O O14 0.500000 0.220752 0.928172
O O15 0.000000 0.804155 0.815428
#
# Coordination Sequence:
#
# PCOD9338066 Si02
#       6
#     4   4   4   4   4   4
#     4  10  19  32  54  81 109 144 185 229 275 333
#     4  10  20  33  51  78 112 145 178 225 283 340
#     4   9  19  35  57  83 111 144 188 241 289 334
#     4  10  20  37  59  82 109 146 192 239 287 338
#     4  10  21  36  53  78 113 149 184 226 280 338
#     4   9  18  33  52  76 106 142 185 228 274 335
#
# _framework density 22.647911000000001
#
# number of rings (size 3 to 8) (size 9 to 14) (size 15 to 20)
#    0.000    2.333    0.000    2.500    0.000    5.333 
#    0.000    5.833    0.000    0.000    0.000    0.000 
#    0.000    0.000    0.000    0.000    0.000    0.000 
#
# Total GULP energy -133763.269373 kJ/mol
# GULP energy per Si atom -5573.469557 kJ/mol
# Density = 2.259636 g / cm^3
# Si number density = 22.647911 Si / 1000 Ang^3
#
#
#
# Elastic Constant Matrix: (Units=GPa)
#
#
# Indices 1 2 3 4 5 6 
#
# 1 10.8407 -12.8217 12.8461 0.0000 0.0000 0.0000
# 2 -12.8217 47.7587 -35.2358 0.0000 0.0000 0.0000
# 3 12.8461 -35.2358 39.8173 0.0000 0.0000 0.0000
# 4 0.0000 0.0000 0.0000 3.3746 0.0000 0.0000
# 5 0.0000 0.0000 0.0000 0.0000 11.0960 0.0000
# 6 0.0000 0.0000 0.0000 0.0000 0.0000 13.9787
#
#
#
# Elastic Compliance Matrix: (Units=1/GPa)
#
#
# Indices 1 2 3 4 5 6 
#
# 1 0.152237 0.013350 -0.037302 0.000000 0.000000 0.000000
# 2 0.013350 0.061495 0.050112 0.000000 0.000000 0.000000
# 3 -0.037302 0.050112 0.081495 0.000000 0.000000 0.000000
# 4 0.000000 0.000000 0.000000 0.296331 0.000000 0.000000
# 5 0.000000 0.000000 0.000000 0.000000 0.090122 0.000000
# 6 0.000000 0.000000 0.000000 0.000000 0.000000 0.071538
#
#
# Mechanical properties :
#
#
# Convention : Reuss Voigt Hill
#
# Bulk Modulus (GPa) = 2.87731 3.11043 2.99387
# Shear Modulus (GPa) = 6.12186 14.59840 10.36013
#
# Velocity S-wave (km/s) = 1.64588 2.54161 2.14111
# Velocity P-wave (km/s) = 2.21023 3.16061 2.72714
#
# Compressibility (1/GPa) = 0.34754719
#
# Stress axis : x y z
#
# Youngs Moduli (GPa) = 6.56871 16.26158 12.27070
#
# Poissons Ratio (x) = -0.21710 0.45772
# Poissons Ratio (y) = -0.08769 -0.61491
# Poissons Ratio (z) = 0.24502 -0.81490
#
# Static dielectric constant tensor:
#      x y z
#    x 1.775460 0.000000 0.000000 
#    y 0.000000 1.871070 0.000000 
#    z 0.000000 0.000000 1.939010 
# 
# From -- ./inp_files/2789.got.cif
#   From: 2010.05.17/outbox.cif.g08.bks.cpg/sg26_2_cif.got.tgz:2789.got - 2010.06.04 01:07:29.
