data_PCOD9338189
_publ_section_title
;
Structure prediction by ZEFSAII (Michael W. Deem and Ramdas Pophale) SiO2 
 PCOD9338189
Probable space group: P M C 21
;
_chemical_formula_sum "Si O2"
_cell_formula_units_Z 24
_cell_length_a 7.773314
_cell_length_b 15.074896
_cell_length_c 8.531941
_cell_angle_alpha 90.000000
_cell_angle_beta 90.000000
_cell_angle_gamma 90.000000
_cell_volume 999.789058
_symmetry_space_group_name_H-M "P M C 21"
_symmetry_group_IT_number 26
_symmetry_cell_setting 'orthorhombic'
loop_
_space_group_symop_operation_xyz
x,y,z
-x,-y,1/2+z
-x,y,z
x,-y,1/2+z
loop_
_atom_site_type_symbol
_atom_site_label
_atom_site_fract_x
_atom_site_fract_y
_atom_site_fract_z
Si Si1 0.207594 0.206536 0.750000
Si Si2 0.201197 0.457831 0.247490
Si Si3 0.697988 0.126147 0.273561
Si Si4 0.704881 0.288783 0.084397
Si Si5 0.788514 0.625591 0.067658
Si Si6 0.799125 0.032922 0.590158
O O1 0.266762 0.276922 0.618783
O O2 0.269447 0.108350 0.708872
O O3 0.000000 0.201993 0.743038
O O4 0.255863 0.245987 0.917134
O O5 0.218640 0.386089 0.108820
O O6 0.274603 0.410443 0.401034
O O7 0.270392 0.552648 0.194784
O O8 0.000000 0.472207 0.278990
O O9 0.500000 0.139469 0.316733
O O10 0.772686 0.220075 0.216858
O O11 0.783511 0.075974 0.418813
O O12 0.707852 0.059394 0.125471
O O13 0.500000 0.295395 0.101375
O O14 0.000000 0.626559 0.065775
O O15 0.000000 0.016057 0.620453
#
# Coordination Sequence:
#
# PCOD9338189 Si02
#       6
#     4   4   4   4   4   4
#     4  10  21  38  60  86 115 148 188 236 288 339
#     4  10  19  35  60  85 112 147 188 235 284 338
#     4  11  24  41  60  83 118 160 194 231 290 356
#     4  11  24  39  56  82 115 153 194 233 280 340
#     4   9  18  34  59  88 113 144 187 232 285 345
#     4  11  23  39  63  92 117 146 193 247 289 334
#
# _framework density 24.005065999999999
#
# number of rings (size 3 to 8) (size 9 to 14) (size 15 to 20)
#    0.000    1.667    0.000    4.500    0.000   10.667 
#    0.000    4.167    0.000    0.000    0.000    0.000 
#    0.000    0.000    0.000    0.000    0.000    0.000 
#
# Total GULP energy -134284.691546 kJ/mol
# GULP energy per Si atom -5595.195481 kJ/mol
# Density = 2.395043 g / cm^3
# Si number density = 24.005066 Si / 1000 Ang^3
#
#
#
# Elastic Constant Matrix: (Units=GPa)
#
#
# Indices 1 2 3 4 5 6 
#
# 1 41.2612 -1.6082 -8.9329 0.0000 0.0000 0.0000
# 2 -1.6082 84.9290 -21.2326 0.0000 0.0000 0.0000
# 3 -8.9329 -21.2326 60.8023 0.0000 0.0000 0.0000
# 4 0.0000 0.0000 0.0000 40.9527 0.0000 0.0000
# 5 0.0000 0.0000 0.0000 0.0000 1.6224 0.0000
# 6 0.0000 0.0000 0.0000 0.0000 0.0000 -0.9613
#
#
#
# Elastic Compliance Matrix: (Units=1/GPa)
#
#
# Indices 1 2 3 4 5 6 
#
# 1 0.025214 0.001538 0.004241 0.000000 0.000000 0.000000
# 2 0.001538 0.012995 0.004764 0.000000 0.000000 0.000000
# 3 0.004241 0.004764 0.018733 0.000000 0.000000 0.000000
# 4 0.000000 0.000000 0.000000 0.024418 0.000000 0.000000
# 5 0.000000 0.000000 0.000000 0.000000 0.616358 0.000000
# 6 0.000000 0.000000 0.000000 0.000000 0.000000 -1.040230
#
#
# Mechanical properties :
#
#
# Convention : Reuss Voigt Hill
#
# Bulk Modulus (GPa) = 12.81592 13.71612 13.26602
# Shear Modulus (GPa) = -14.81094 22.90719 4.04812
#
# Velocity S-wave (km/s) = -2.48663 3.09247 1.30001
# Velocity P-wave (km/s) = 1.70117 4.29853 2.79136
#
# Compressibility (1/GPa) = 0.07802795
#
# Stress axis : x y z
#
# Youngs Moduli (GPa) = 39.66049 76.95494 53.38058
#
# Poissons Ratio (x) = -0.11834 -0.22641
# Poissons Ratio (y) = -0.06099 -0.25429
# Poissons Ratio (z) = -0.16822 -0.36659
#
# Static dielectric constant tensor:
#      x y z
#    x 1.870980 0.000000 0.000000 
#    y 0.000000 1.885250 0.000000 
#    z 0.000000 0.000000 1.948790 
# 
# From -- ./inp_files/1426.got.cif
#   From: 2010.05.17/outbox.cif.g08.bks.cpg/sg26_1_cif.got.tgz:1426.got - 2010.06.04 01:07:29.
