data_PCOD9338355
_publ_section_title
;
Structure prediction by ZEFSAII (Michael W. Deem and Ramdas Pophale) SiO2 
 PCOD9338355
Probable space group: P M C 21
;
_chemical_formula_sum "Si O2"
_cell_formula_units_Z 32
_cell_length_a 8.753294
_cell_length_b 12.766090
_cell_length_c 14.989781
_cell_angle_alpha 90.000000
_cell_angle_beta 90.000000
_cell_angle_gamma 90.000000
_cell_volume 1675.038159
_symmetry_space_group_name_H-M "P M C 21"
_symmetry_group_IT_number 26
_symmetry_cell_setting 'orthorhombic'
loop_
_space_group_symop_operation_xyz
x,y,z
-x,-y,1/2+z
-x,y,z
x,-y,1/2+z
loop_
_atom_site_type_symbol
_atom_site_label
_atom_site_fract_x
_atom_site_fract_y
_atom_site_fract_z
Si Si1 0.316118 0.382068 0.275660
Si Si2 0.682840 0.378028 0.777526
Si Si3 0.680266 0.006160 0.920503
Si Si4 0.182231 0.230390 0.131302
Si Si5 0.816815 0.000978 0.117071
Si Si6 0.685070 0.775090 0.929676
Si Si7 0.181787 0.775412 0.421112
Si Si8 0.818180 0.769292 0.128464
O O1 0.500000 0.383368 0.276267
O O2 0.262111 0.501829 0.276564
O O3 0.262462 0.317790 0.189691
O O4 0.267082 0.316331 0.362620
O O5 0.500000 0.378295 0.778772
O O6 0.743058 0.314770 0.862781
O O7 0.739708 0.315009 0.691258
O O8 0.500000 0.019647 0.906795
O O9 0.765566 0.109763 0.887894
O O10 0.726510 0.889678 0.889667
O O11 0.721341 0.001279 0.025729
O O12 0.000000 0.244101 0.138294
O O13 0.218914 0.111425 0.163125
O O14 0.222408 0.234979 0.026079
O O15 0.786190 0.888902 0.161187
O O16 0.000000 0.003714 0.095334
O O17 0.500000 0.774275 0.939525
O O18 0.759111 0.762647 0.026904
O O19 0.000000 0.769290 0.413510
O O20 0.000000 0.754672 0.130485
#
# Coordination Sequence:
#
# PCOD9338355 Si02
#       8
#     4   4   4   4   4   4   4   4
#     4  10  23  40  56  77 108 146 187 230 273 321
#     4  11  24  40  56  77 107 145 190 233 273 323
#     4   9  16  29  54  85 113 141 175 218 270 328
#     4   9  19  36  58  83 111 141 175 220 271 324
#     4   8  16  32  53  81 114 143 174 215 268 328
#     4   9  19  37  58  83 114 145 181 225 272 324
#     4  10  21  38  58  81 112 146 181 226 276 326
#     4  10  20  36  59  85 113 145 179 221 277 332
#
# _framework density 19.104042
#
# number of rings (size 3 to 8) (size 9 to 14) (size 15 to 20)
#    0.000    2.500    0.000    2.250    0.000    7.000 
#    0.000    6.250    0.000    0.000    0.000    0.000 
#    0.000    0.000    0.000    0.000    0.000    0.000 
#
# Total GULP energy -178506.354635 kJ/mol
# GULP energy per Si atom -5578.323582 kJ/mol
# Density = 1.906056 g / cm^3
# Si number density = 19.104042 Si / 1000 Ang^3
#
#
#
# Elastic Constant Matrix: (Units=GPa)
#
#
# Indices 1 2 3 4 5 6 
#
# 1 29.1270 52.3259 30.6615 0.0000 0.0000 0.0000
# 2 52.3259 209.9217 82.2673 0.0000 0.0000 0.0000
# 3 30.6615 82.2673 93.6664 0.0000 0.0000 0.0000
# 4 0.0000 0.0000 0.0000 31.1617 0.0000 0.0000
# 5 0.0000 0.0000 0.0000 0.0000 -259.7560 0.0000
# 6 0.0000 0.0000 0.0000 0.0000 0.0000 -19.8336
#
#
#
# Elastic Compliance Matrix: (Units=1/GPa)
#
#
# Indices 1 2 3 4 5 6 
#
# 1 0.069420 -0.012806 -0.011477 0.000000 0.000000 0.000000
# 2 -0.012806 0.009626 -0.004263 0.000000 0.000000 0.000000
# 3 -0.011477 -0.004263 0.018177 0.000000 0.000000 0.000000
# 4 0.000000 0.000000 0.000000 0.032091 0.000000 0.000000
# 5 0.000000 0.000000 0.000000 0.000000 -0.003850 0.000000
# 6 0.000000 0.000000 0.000000 0.000000 0.000000 -0.050419
#
#
# Mechanical properties :
#
#
# Convention : Reuss Voigt Hill
#
# Bulk Modulus (GPa) = 24.91787 73.69162 49.30474
# Shear Modulus (GPa) = 34.36111 -38.52156 -2.08023
#
# Velocity S-wave (km/s) = 4.24563 -4.49532 -1.04463
# Velocity P-wave (km/s) = 6.09142 3.42254 4.94060
#
# Compressibility (1/GPa) = 0.04013184
#
# Stress axis : x y z
#
# Youngs Moduli (GPa) = 14.40511 103.88147 55.01442
#
# Poissons Ratio (x) = 1.33033 0.63139
# Poissons Ratio (y) = 0.18447 0.23451
# Poissons Ratio (z) = 0.16532 0.44282
#
# Static dielectric constant tensor:
#      x y z
#    x 1.733500 0.000000 0.000000 
#    y 0.000000 1.684840 0.000000 
#    z 0.000000 0.000000 1.659460 
# 
# From -- ./inp_files/4266.got.cif
#   From: 2010.05.17/outbox.cif.g08.bks.cpg/sg26_3_cif.got.tgz:4266.got - 2010.06.04 01:07:29.
