data_PCOD9338514
_publ_section_title
;
Structure prediction by ZEFSAII (Michael W. Deem and Ramdas Pophale) SiO2 
 PCOD9338514
Probable space group: P M C 21
;
_chemical_formula_sum "Si O2"
_cell_formula_units_Z 24
_cell_length_a 8.817938
_cell_length_b 14.205168
_cell_length_c 8.007052
_cell_angle_alpha 90.000000
_cell_angle_beta 90.000000
_cell_angle_gamma 90.000000
_cell_volume 1002.965661
_symmetry_space_group_name_H-M "P M C 21"
_symmetry_group_IT_number 26
_symmetry_cell_setting 'orthorhombic'
loop_
_space_group_symop_operation_xyz
x,y,z
-x,-y,1/2+z
-x,y,z
x,-y,1/2+z
loop_
_atom_site_type_symbol
_atom_site_label
_atom_site_fract_x
_atom_site_fract_y
_atom_site_fract_z
Si Si1 0.824720 0.128569 0.751040
Si Si2 0.824707 0.368642 0.054948
Si Si3 0.675551 0.519479 0.257194
Si Si4 0.327916 0.293784 0.587704
Si Si5 0.677851 0.971400 0.937675
Si Si6 0.673513 0.203515 0.220114
O O1 0.783654 0.235368 0.705952
O O2 0.781586 0.073465 0.580059
O O3 0.000000 0.117479 0.792184
O O4 0.722804 0.076628 0.888561
O O5 0.784956 0.433342 0.215971
O O6 0.781482 0.261545 0.098642
O O7 0.000000 0.376439 0.010517
O O8 0.720986 0.416146 0.913715
O O9 0.500000 0.488573 0.268003
O O10 0.690433 0.595162 0.105973
O O11 0.500000 0.271175 0.643083
O O12 0.314712 0.256438 0.400008
O O13 0.500000 0.963764 0.983828
O O14 0.700476 0.904213 0.774516
O O15 0.500000 0.212837 0.161442
#
# Coordination Sequence:
#
# PCOD9338514 Si02
#       6
#     4   4   4   4   4   4
#     4  11  22  36  58  88 120 151 189 242 297 342
#     4  12  25  39  59  89 122 151 186 239 296 342
#     4  11  23  41  64  86 114 155 199 236 277 342
#     4   9  20  39  62  85 111 150 197 239 283 341
#     4  10  21  39  61  83 114 157 200 237 280 343
#     4   9  19  38  62  85 111 150 197 239 283 340
#
# _framework density 23.929034000000001
#
# number of rings (size 3 to 8) (size 9 to 14) (size 15 to 20)
#    0.000    1.667    0.000    6.000    0.000    7.333 
#    0.000    1.667    0.000    0.000    0.000    0.000 
#    0.000    0.000    0.000    0.000    0.000    0.000 
#
# Total GULP energy -134371.011399 kJ/mol
# GULP energy per Si atom -5598.792142 kJ/mol
# Density = 2.387457 g / cm^3
# Si number density = 23.929034 Si / 1000 Ang^3
#
#
#
# Elastic Constant Matrix: (Units=GPa)
#
#
# Indices 1 2 3 4 5 6 
#
# 1 76.0260 19.4871 1.1195 0.0000 0.0000 0.0000
# 2 19.4871 104.3685 -9.7019 0.0000 0.0000 0.0000
# 3 1.1195 -9.7019 42.1152 0.0000 0.0000 0.0000
# 4 0.0000 0.0000 0.0000 41.0712 0.0000 0.0000
# 5 0.0000 0.0000 0.0000 0.0000 27.3138 0.0000
# 6 0.0000 0.0000 0.0000 0.0000 0.0000 29.3858
#
#
#
# Elastic Compliance Matrix: (Units=1/GPa)
#
#
# Indices 1 2 3 4 5 6 
#
# 1 0.013854 -0.002678 -0.000985 0.000000 0.000000 0.000000
# 2 -0.002678 0.010309 0.002446 0.000000 0.000000 0.000000
# 3 -0.000985 0.002446 0.024334 0.000000 0.000000 0.000000
# 4 0.000000 0.000000 0.000000 0.024348 0.000000 0.000000
# 5 0.000000 0.000000 0.000000 0.000000 0.036612 0.000000
# 6 0.000000 0.000000 0.000000 0.000000 0.000000 0.034030
#
#
# Mechanical properties :
#
#
# Convention : Reuss Voigt Hill
#
# Bulk Modulus (GPa) = 21.70982 27.14653 24.42818
# Shear Modulus (GPa) = 31.00270 33.66117 32.33193
#
# Velocity S-wave (km/s) = 3.60336 3.75468 3.67980
# Velocity P-wave (km/s) = 5.13854 5.49236 5.31839
#
# Compressibility (1/GPa) = 0.04606211
#
# Stress axis : x y z
#
# Youngs Moduli (GPa) = 72.17901 97.00343 41.09461
#
# Poissons Ratio (x) = 0.25981 0.04049
# Poissons Ratio (y) = 0.19332 -0.10052
# Poissons Ratio (z) = 0.07112 -0.23727
#
# Static dielectric constant tensor:
#      x y z
#    x 1.781680 0.000000 0.000000 
#    y 0.000000 1.938270 0.000000 
#    z 0.000000 0.000000 2.017970 
# 
# From -- ./inp_files/1415.got.cif
#   From: 2010.05.17/outbox.cif.g08.bks.cpg/sg26_1_cif.got.tgz:1415.got - 2010.06.04 01:07:29.
