data_PCOD9338250
_publ_section_title
;
Structure prediction by ZEFSAII (Michael W. Deem and Ramdas Pophale) SiO2 
 PCOD9338250
Probable space group: P M C 21
;
_chemical_formula_sum "Si O2"
_cell_formula_units_Z 32
_cell_length_a 7.492432
_cell_length_b 12.926877
_cell_length_c 14.341039
_cell_angle_alpha 90.000000
_cell_angle_beta 90.000000
_cell_angle_gamma 90.000000
_cell_volume 1388.983362
_symmetry_space_group_name_H-M "P M C 21"
_symmetry_group_IT_number 26
_symmetry_cell_setting 'orthorhombic'
loop_
_space_group_symop_operation_xyz
x,y,z
-x,-y,1/2+z
-x,y,z
x,-y,1/2+z
loop_
_atom_site_type_symbol
_atom_site_label
_atom_site_fract_x
_atom_site_fract_y
_atom_site_fract_z
Si Si1 0.210270 0.560430 0.787940
Si Si2 0.281591 0.875973 0.195261
Si Si3 0.718519 0.182228 0.495158
Si Si4 0.285088 0.640258 0.496665
Si Si5 0.703135 0.932430 0.809559
Si Si6 0.210250 0.757604 0.673179
Si Si7 0.298248 0.583393 0.000197
Si Si8 0.285888 0.336161 0.785329
O O1 0.275023 0.653798 0.724773
O O2 0.304113 0.566643 0.887992
O O3 0.237858 0.447622 0.744452
O O4 0.000000 0.573975 0.805083
O O5 0.500000 0.879924 0.196950
O O6 0.223327 0.763396 0.230264
O O7 0.215732 0.963422 0.266526
O O8 0.232293 0.883690 0.086490
O O9 0.500000 0.189359 0.490033
O O10 0.780260 0.128905 0.398851
O O11 0.780588 0.301411 0.509805
O O12 0.500000 0.631030 0.493769
O O13 0.239614 0.733132 0.565434
O O14 0.216117 0.527136 0.530619
O O15 0.220747 0.662241 0.392173
O O16 0.500000 0.958354 0.837535
O O17 0.700490 0.854067 0.722452
O O18 0.000000 0.769448 0.689635
O O19 0.500000 0.589036 0.039110
O O20 0.500000 0.330440 0.787716
#
# Coordination Sequence:
#
# PCOD9338250 Si02
#       8
#     4   4   4   4   4   4   4   4
#     4  10  20  33  51  77 110 146 182 224 275 329
#     4   9  19  34  57  88 113 141 184 235 283 329
#     4   9  17  31  54  84 112 140 179 227 278 328
#     4   9  19  32  52  83 112 144 183 227 278 334
#     4  10  20  36  59  83 111 147 187 232 277 328
#     4  11  23  36  52  78 112 151 189 228 273 328
#     4   9  17  32  54  81 109 141 185 229 276 329
#     4   9  19  36  57  82 113 144 181 230 282 333
#
# _framework density 23.038430999999999
#
# number of rings (size 3 to 8) (size 9 to 14) (size 15 to 20)
#    0.000    2.500    1.250    1.500    1.750    4.500 
#    0.000    4.375    0.000    3.750    0.000    0.000 
#    0.000    0.000    0.000    0.000    0.000    0.000 
#
# Total GULP energy -178645.603040 kJ/mol
# GULP energy per Si atom -5582.675095 kJ/mol
# Density = 2.298599 g / cm^3
# Si number density = 23.038431 Si / 1000 Ang^3
#
#
#
# Elastic Constant Matrix: (Units=GPa)
#
#
# Indices 1 2 3 4 5 6 
#
# 1 69.6390 1.1314 -0.6998 0.0000 0.0000 0.0000
# 2 1.1314 101.5935 26.8002 0.0000 0.0000 0.0000
# 3 -0.6998 26.8002 83.5316 0.0000 0.0000 0.0000
# 4 0.0000 0.0000 0.0000 27.2416 0.0000 0.0000
# 5 0.0000 0.0000 0.0000 0.0000 -28.8897 0.0000
# 6 0.0000 0.0000 0.0000 0.0000 0.0000 13.4985
#
#
#
# Elastic Compliance Matrix: (Units=1/GPa)
#
#
# Indices 1 2 3 4 5 6 
#
# 1 0.014365 -0.000209 0.000188 0.000000 0.000000 0.000000
# 2 -0.000209 0.010756 -0.003453 0.000000 0.000000 0.000000
# 3 0.000188 -0.003453 0.013081 0.000000 0.000000 0.000000
# 4 0.000000 0.000000 0.000000 0.036709 0.000000 0.000000
# 5 0.000000 0.000000 0.000000 0.000000 -0.034614 0.000000
# 6 0.000000 0.000000 0.000000 0.000000 0.000000 0.074082
#
#
# Mechanical properties :
#
#
# Convention : Reuss Voigt Hill
#
# Bulk Modulus (GPa) = 31.99709 34.35864 33.17786
# Shear Modulus (GPa) = 37.95184 17.53889 27.74536
#
# Velocity S-wave (km/s) = 4.06313 2.76214 3.47408
# Velocity P-wave (km/s) = 5.99423 5.01184 5.52491
#
# Compressibility (1/GPa) = 0.03125285
#
# Stress axis : x y z
#
# Youngs Moduli (GPa) = 69.61334 92.96849 76.44746
#
# Poissons Ratio (x) = 0.01947 -0.01434
# Poissons Ratio (y) = 0.01458 0.26396
# Poissons Ratio (z) = -0.01306 0.32100
#
# Static dielectric constant tensor:
#      x y z
#    x 1.894420 0.000000 0.000000 
#    y 0.000000 1.855570 0.000000 
#    z 0.000000 0.000000 1.856650 
# 
# From -- ./inp_files/4128.got.cif
#   From: 2010.05.17/outbox.cif.g08.bks.cpg/sg26_3_cif.got.tgz:4128.got - 2010.06.04 01:07:29.
