data_PCOD9338490
_publ_section_title
;
Structure prediction by ZEFSAII (Michael W. Deem and Ramdas Pophale) SiO2 
 PCOD9338490
Probable space group: P M C 21
;
_chemical_formula_sum "Si O2"
_cell_formula_units_Z 32
_cell_length_a 13.285884
_cell_length_b 9.835860
_cell_length_c 11.914465
_cell_angle_alpha 90.000000
_cell_angle_beta 90.000000
_cell_angle_gamma 90.000000
_cell_volume 1556.959589
_symmetry_space_group_name_H-M "P M C 21"
_symmetry_group_IT_number 26
_symmetry_cell_setting 'orthorhombic'
loop_
_space_group_symop_operation_xyz
x,y,z
-x,-y,1/2+z
-x,y,z
x,-y,1/2+z
loop_
_atom_site_type_symbol
_atom_site_label
_atom_site_fract_x
_atom_site_fract_y
_atom_site_fract_z
Si Si1 0.683938 0.175518 0.439040
Si Si2 0.112602 0.235988 0.305905
Si Si3 0.606171 0.456487 0.382454
Si Si4 0.114175 0.042713 0.087898
Si Si5 0.709219 0.877401 0.415192
Si Si6 0.778047 0.480338 0.221487
Si Si7 0.774787 0.782849 0.167808
Si Si8 0.612009 0.657095 0.574628
O O1 0.797176 0.202621 0.391039
O O2 0.617893 0.295263 0.388131
O O3 0.689471 0.192111 0.573316
O O4 0.655877 0.023872 0.404662
O O5 0.123540 0.139250 0.197237
O O6 0.129831 0.390923 0.264963
O O7 0.000000 0.217677 0.351744
O O8 0.500000 0.497515 0.328106
O O9 0.703573 0.517136 0.323407
O O10 0.605166 0.516661 0.506282
O O11 0.000000 0.051389 0.046435
O O12 0.140720 0.891319 0.130701
O O13 0.192595 0.090544 0.992782
O O14 0.740039 0.823088 0.293002
O O15 0.641951 0.773020 0.486016
O O16 0.803449 0.623030 0.163399
O O17 0.705616 0.373888 0.155374
O O18 0.500000 0.686290 0.621327
#
# Coordination Sequence:
#
# PCOD9338490 Si02
#       8
#     4   4   4   4   4   4   4   4
#     4  10  22  38  63  87 125 162 200 259 311 365
#     4  10  21  40  63  88 122 163 205 252 308 371
#     4  10  21  37  60  89 121 162 206 250 310 372
#     4  10  22  40  63  89 120 162 206 254 312 374
#     4  11  22  40  62  90 126 162 206 259 311 365
#     4  11  21  39  64  89 128 162 204 261 312 369
#     4  11  22  38  61  89 122 161 208 250 310 367
#     4  11  22  38  61  91 124 162 210 255 309 371
#
# _framework density 20.552876999999999
#
# number of rings (size 3 to 8) (size 9 to 14) (size 15 to 20)
#    0.000    1.500    5.000    0.375    0.000    3.500 
#    0.000    0.625    0.000    0.750    0.000    0.000 
#    0.000    0.000    0.000    0.000    0.000    0.000 
#
# Total GULP energy -178473.959339 kJ/mol
# GULP energy per Si atom -5577.311229 kJ/mol
# Density = 2.050610 g / cm^3
# Si number density = 20.552877 Si / 1000 Ang^3
#
#
#
# Elastic Constant Matrix: (Units=GPa)
#
#
# Indices 1 2 3 4 5 6 
#
# 1 71.3361 9.9298 11.4902 0.0000 0.0000 0.0000
# 2 9.9298 122.9292 11.2804 0.0000 0.0000 0.0000
# 3 11.4902 11.2804 72.5257 0.0000 0.0000 0.0000
# 4 0.0000 0.0000 0.0000 35.2288 0.0000 0.0000
# 5 0.0000 0.0000 0.0000 0.0000 -23.0953 0.0000
# 6 0.0000 0.0000 0.0000 0.0000 0.0000 -3.0734
#
#
#
# Elastic Compliance Matrix: (Units=1/GPa)
#
#
# Indices 1 2 3 4 5 6 
#
# 1 0.014499 -0.000974 -0.002146 0.000000 0.000000 0.000000
# 2 -0.000974 0.008318 -0.001139 0.000000 0.000000 0.000000
# 3 -0.002146 -0.001139 0.014305 0.000000 0.000000 0.000000
# 4 0.000000 0.000000 0.000000 0.028386 0.000000 0.000000
# 5 0.000000 0.000000 0.000000 0.000000 -0.043299 0.000000
# 6 0.000000 0.000000 0.000000 0.000000 0.000000 -0.325377
#
#
# Mechanical properties :
#
#
# Convention : Reuss Voigt Hill
#
# Bulk Modulus (GPa) = 34.95997 36.91019 35.93508
# Shear Modulus (GPa) = -17.53688 17.41807 -0.05940
#
# Velocity S-wave (km/s) = -2.92422 2.91430 -0.17019
# Velocity P-wave (km/s) = 2.37597 5.41497 4.18133
#
# Compressibility (1/GPa) = 0.02860414
#
# Stress axis : x y z
#
# Youngs Moduli (GPa) = 68.96859 120.22088 69.90393
#
# Poissons Ratio (x) = 0.11713 0.14998
# Poissons Ratio (y) = 0.06720 0.07965
# Poissons Ratio (z) = 0.14798 0.13698
#
# Static dielectric constant tensor:
#      x y z
#    x 1.738820 0.000000 0.000000 
#    y 0.000000 1.737950 0.000000 
#    z 0.000000 0.000000 1.761230 
# 
# From -- ./inp_files/3584.got.cif
#   From: 2010.05.17/outbox.cif.g08.bks.cpg/sg26_2_cif.got.tgz:3584.got - 2010.06.04 01:07:29.
