data_PCOD9338151
_publ_section_title
;
Structure prediction by ZEFSAII (Michael W. Deem and Ramdas Pophale) SiO2 
 PCOD9338151
Probable space group: P M C 21
;
_chemical_formula_sum "Si O2"
_cell_formula_units_Z 32
_cell_length_a 9.251269
_cell_length_b 14.653057
_cell_length_c 12.705695
_cell_angle_alpha 90.000000
_cell_angle_beta 90.000000
_cell_angle_gamma 90.000000
_cell_volume 1722.376035
_symmetry_space_group_name_H-M "P M C 21"
_symmetry_group_IT_number 26
_symmetry_cell_setting 'orthorhombic'
loop_
_space_group_symop_operation_xyz
x,y,z
-x,-y,1/2+z
-x,y,z
x,-y,1/2+z
loop_
_atom_site_type_symbol
_atom_site_label
_atom_site_fract_x
_atom_site_fract_y
_atom_site_fract_z
Si Si1 0.330171 0.555686 0.174840
Si Si2 0.837084 0.366193 0.863622
Si Si3 0.672000 0.256578 0.558032
Si Si4 0.670051 0.644153 0.579179
Si Si5 0.824236 0.945215 0.448987
Si Si6 0.165006 0.829880 0.250038
Si Si7 0.173154 0.145877 0.390578
Si Si8 0.173764 0.823912 0.649219
O O1 0.500000 0.566251 0.203561
O O2 0.230275 0.569031 0.275759
O O3 0.297480 0.639069 0.094419
O O4 0.309020 0.455743 0.128326
O O5 0.843096 0.266139 0.811540
O O6 0.000000 0.392243 0.894063
O O7 0.733801 0.360619 0.962641
O O8 0.500000 0.245757 0.552213
O O9 0.738867 0.190970 0.648493
O O10 0.746097 0.227754 0.449248
O O11 0.500000 0.664243 0.578357
O O12 0.753651 0.725461 0.636804
O O13 0.778299 0.899696 0.338198
O O14 0.777768 0.889168 0.552490
O O15 0.000000 0.940723 0.447473
O O16 0.783679 0.051012 0.446347
O O17 0.000000 0.856135 0.218536
O O18 0.204794 0.139445 0.266160
O O19 0.000000 0.157299 0.401705
O O20 0.000000 0.814689 0.639711
#
# Coordination Sequence:
#
# PCOD9338151 Si02
#       8
#     4   4   4   4   4   4   4   4
#     4   9  21  39  57  80 112 156 202 236 285 353
#     4  10  19  34  57  85 112 142 187 248 296 333
#     4  10  21  38  57  80 116 152 188 242 291 340
#     4  11  22  37  59  84 116 159 196 234 290 358
#     4   9  18  35  60  86 112 147 190 238 288 344
#     4   9  17  33  59  83 106 141 188 238 285 338
#     4  10  22  37  60  87 116 157 195 237 291 352
#     4  10  21  39  59  87 120 148 194 249 292 340
#
# _framework density 18.578987999999999
#
# number of rings (size 3 to 8) (size 9 to 14) (size 15 to 20)
#    0.000    2.250    1.250    1.125    1.750    3.500 
#    0.000    5.000    0.000    0.000    0.000    0.000 
#    0.000    0.000    0.000    0.000    0.000    0.000 
#
# Total GULP energy -178529.157185 kJ/mol
# GULP energy per Si atom -5579.036162 kJ/mol
# Density = 1.853670 g / cm^3
# Si number density = 18.578988 Si / 1000 Ang^3
#
#
#
# Elastic Constant Matrix: (Units=GPa)
#
#
# Indices 1 2 3 4 5 6 
#
# 1 28.6728 38.6416 34.1130 0.0000 0.0000 0.0000
# 2 38.6416 82.1473 43.3338 0.0000 0.0000 0.0000
# 3 34.1130 43.3338 76.1172 0.0000 0.0000 0.0000
# 4 0.0000 0.0000 0.0000 12.4301 0.0000 0.0000
# 5 0.0000 0.0000 0.0000 0.0000 25.4976 0.0000
# 6 0.0000 0.0000 0.0000 0.0000 0.0000 12.1458
#
#
#
# Elastic Compliance Matrix: (Units=1/GPa)
#
#
# Indices 1 2 3 4 5 6 
#
# 1 0.143743 -0.048069 -0.037054 0.000000 0.000000 0.000000
# 2 -0.048069 0.033473 0.002487 0.000000 0.000000 0.000000
# 3 -0.037054 0.002487 0.028328 0.000000 0.000000 0.000000
# 4 0.000000 0.000000 0.000000 0.080450 0.000000 0.000000
# 5 0.000000 0.000000 0.000000 0.000000 0.039219 0.000000
# 6 0.000000 0.000000 0.000000 0.000000 0.000000 0.082333
#
#
# Mechanical properties :
#
#
# Convention : Reuss Voigt Hill
#
# Bulk Modulus (GPa) = 24.83212 46.56825 35.70018
# Shear Modulus (GPa) = 8.52886 14.73797 11.63341
#
# Velocity S-wave (km/s) = 2.14489 2.81954 2.50503
# Velocity P-wave (km/s) = 4.41914 5.97655 5.25585
#
# Compressibility (1/GPa) = 0.04027042
#
# Stress axis : x y z
#
# Youngs Moduli (GPa) = 6.95684 29.87471 35.30015
#
# Poissons Ratio (x) = 1.43606 1.30803
# Poissons Ratio (y) = 0.33441 -0.08778
# Poissons Ratio (z) = 0.25778 -0.07429
#
# Static dielectric constant tensor:
#      x y z
#    x 1.623740 0.000000 0.000000 
#    y 0.000000 1.642490 0.000000 
#    z 0.000000 0.000000 1.644380 
# 
# From -- ./inp_files/2961.got.cif
#   From: 2010.05.17/outbox.cif.g08.bks.cpg/sg26_2_cif.got.tgz:2961.got - 2010.06.04 01:07:29.
