data_PCOD9338007
_publ_section_title
;
Structure prediction by ZEFSAII (Michael W. Deem and Ramdas Pophale) SiO2 
 PCOD9338007
Probable space group: P M C 21
;
_chemical_formula_sum "Si O2"
_cell_formula_units_Z 32
_cell_length_a 7.551196
_cell_length_b 12.591996
_cell_length_c 15.599643
_cell_angle_alpha 90.000000
_cell_angle_beta 90.000000
_cell_angle_gamma 90.000000
_cell_volume 1483.286280
_symmetry_space_group_name_H-M "P M C 21"
_symmetry_group_IT_number 26
_symmetry_cell_setting 'orthorhombic'
loop_
_space_group_symop_operation_xyz
x,y,z
-x,-y,1/2+z
-x,y,z
x,-y,1/2+z
loop_
_atom_site_type_symbol
_atom_site_label
_atom_site_fract_x
_atom_site_fract_y
_atom_site_fract_z
Si Si1 0.299964 0.987258 0.939620
Si Si2 0.783095 0.374232 0.794486
Si Si3 0.216453 0.462861 0.440194
Si Si4 0.792497 0.132807 0.780098
Si Si5 0.793542 0.979700 0.631146
Si Si6 0.793962 0.762389 0.870600
Si Si7 0.206204 0.750548 0.665994
Si Si8 0.216788 0.484356 0.131767
O O1 0.500000 0.023078 0.952921
O O2 0.220700 0.065288 0.867680
O O3 0.296508 0.868761 0.902319
O O4 0.213081 0.984096 0.033118
O O5 0.726842 0.441380 0.877958
O O6 0.720650 0.252226 0.790994
O O7 0.728647 0.440194 0.710040
O O8 0.000000 0.373143 0.796271
O O9 0.276327 0.348793 0.405683
O O10 0.269023 0.475765 0.538378
O O11 0.000000 0.462386 0.436931
O O12 0.000000 0.147953 0.760395
O O13 0.717795 0.062341 0.701035
O O14 0.714192 0.861230 0.634317
O O15 0.000000 0.966599 0.656975
O O16 0.790374 0.756921 0.768405
O O17 0.000000 0.771895 0.897222
O O18 0.281428 0.636515 0.641322
O O19 0.000000 0.747792 0.636316
O O20 0.000000 0.482414 0.135578
#
# Coordination Sequence:
#
# PCOD9338007 Si02
#       8
#     4   4   4   4   4   4   4   4
#     4  12  26  40  56  81 115 155 193 237 287 341
#     4   9  17  29  47  81 119 143 173 222 280 337
#     4   9  17  27  48  81 115 143 172 222 284 335
#     4  10  21  38  61  87 116 150 191 237 282 334
#     4  10  21  37  59  86 113 149 193 239 284 333
#     4  10  18  35  59  82 108 143 190 239 279 328
#     4   9  16  30  53  81 113 143 182 233 281 328
#     4   9  16  26  44  79 117 144 170 217 285 338
#
# _framework density 21.573716999999998
#
# number of rings (size 3 to 8) (size 9 to 14) (size 15 to 20)
#    0.000    2.250    2.500    1.125    3.500    0.500 
#    0.000    0.000    0.000    0.750    0.000    0.000 
#    0.000    0.000    0.000    0.000    0.000    0.000 
#
# Total GULP energy -178624.409187 kJ/mol
# GULP energy per Si atom -5582.012787 kJ/mol
# Density = 2.152461 g / cm^3
# Si number density = 21.573717 Si / 1000 Ang^3
#
#
#
# Elastic Constant Matrix: (Units=GPa)
#
#
# Indices 1 2 3 4 5 6 
#
# 1 46.4533 -2.3388 -7.2069 0.0000 0.0000 0.0000
# 2 -2.3388 134.4366 20.5909 0.0000 0.0000 0.0000
# 3 -7.2069 20.5909 71.1682 0.0000 0.0000 0.0000
# 4 0.0000 0.0000 0.0000 34.8840 0.0000 0.0000
# 5 0.0000 0.0000 0.0000 0.0000 22.6380 0.0000
# 6 0.0000 0.0000 0.0000 0.0000 0.0000 -18.7542
#
#
#
# Elastic Compliance Matrix: (Units=1/GPa)
#
#
# Indices 1 2 3 4 5 6 
#
# 1 0.021871 0.000043 0.002202 0.000000 0.000000 0.000000
# 2 0.000043 0.007783 -0.002248 0.000000 0.000000 0.000000
# 3 0.002202 -0.002248 0.014925 0.000000 0.000000 0.000000
# 4 0.000000 0.000000 0.000000 0.028666 0.000000 0.000000
# 5 0.000000 0.000000 0.000000 0.000000 0.044174 0.000000
# 6 0.000000 0.000000 0.000000 0.000000 0.000000 -0.053321
#
#
# Mechanical properties :
#
#
# Convention : Reuss Voigt Hill
#
# Bulk Modulus (GPa) = 22.43434 30.46093 26.44763
# Shear Modulus (GPa) = 63.32336 23.82109 43.57222
#
# Velocity S-wave (km/s) = 5.42363 3.32651 4.49897
# Velocity P-wave (km/s) = 7.04575 5.37628 6.26685
#
# Compressibility (1/GPa) = 0.04457453
#
# Stress axis : x y z
#
# Youngs Moduli (GPa) = 45.72299 128.47765 67.00379
#
# Poissons Ratio (x) = -0.00555 -0.14756
# Poissons Ratio (y) = -0.00197 0.15060
# Poissons Ratio (z) = -0.10069 0.28877
#
# Static dielectric constant tensor:
#      x y z
#    x 1.809070 0.000000 0.000000 
#    y 0.000000 1.740700 0.000000 
#    z 0.000000 0.000000 1.729520 
# 
# From -- ./inp_files/4165.got.cif
#   From: 2010.05.17/outbox.cif.g08.bks.cpg/sg26_3_cif.got.tgz:4165.got - 2010.06.04 01:07:29.
