data_PCOD9338356
_publ_section_title
;
Structure prediction by ZEFSAII (Michael W. Deem and Ramdas Pophale) SiO2 
 PCOD9338356
Probable space group: P M C 21
;
_chemical_formula_sum "Si O2"
_cell_formula_units_Z 24
_cell_length_a 7.876235
_cell_length_b 8.606574
_cell_length_c 15.183390
_cell_angle_alpha 90.000000
_cell_angle_beta 90.000000
_cell_angle_gamma 90.000000
_cell_volume 1029.242522
_symmetry_space_group_name_H-M "P M C 21"
_symmetry_group_IT_number 26
_symmetry_cell_setting 'orthorhombic'
loop_
_space_group_symop_operation_xyz
x,y,z
-x,-y,1/2+z
-x,y,z
x,-y,1/2+z
loop_
_atom_site_type_symbol
_atom_site_label
_atom_site_fract_x
_atom_site_fract_y
_atom_site_fract_z
Si Si1 0.706336 0.092920 0.784200
Si Si2 0.299171 0.071290 0.114983
Si Si3 0.302476 0.584045 0.032833
Si Si4 0.798409 0.575505 0.363020
Si Si5 0.707215 0.904336 0.947091
Si Si6 0.802791 0.604174 0.695751
O O1 0.500000 0.096854 0.783026
O O2 0.766296 0.255152 0.823232
O O3 0.768287 0.051108 0.686799
O O4 0.762302 0.955754 0.850517
O O5 0.500000 0.044763 0.109668
O O6 0.274951 0.242235 0.153224
O O7 0.235364 0.034795 0.017437
O O8 0.500000 0.608424 0.054441
O O9 0.285438 0.453252 0.957382
O O10 0.235321 0.740065 0.986258
O O11 0.215935 0.530382 0.122520
O O12 0.731321 0.454169 0.289118
O O13 0.000000 0.553674 0.373889
O O14 0.500000 0.898074 0.943120
O O15 0.000000 0.636362 0.709337
#
# Coordination Sequence:
#
# PCOD9338356 Si02
#       6
#     4   4   4   4   4   4
#     4  10  20  36  59  85 113 148 194 242 286 340
#     4  10  20  36  59  85 113 148 194 242 286 340
#     4  11  22  39  64  88 114 151 196 245 294 344
#     4  11  24  40  58  85 122 159 195 237 290 353
#     4   9  19  35  56  84 112 141 184 239 292 338
#     4  11  24  40  58  85 122 159 195 237 290 353
#
# _framework density 23.31812
#
# number of rings (size 3 to 8) (size 9 to 14) (size 15 to 20)
#    0.000    1.667    0.000    4.500    0.000    7.333 
#    0.000    3.333    0.000    0.000    0.000    0.000 
#    0.000    0.000    0.000    0.000    0.000    0.000 
#
# Total GULP energy -134237.738050 kJ/mol
# GULP energy per Si atom -5593.239085 kJ/mol
# Density = 2.326505 g / cm^3
# Si number density = 23.318120 Si / 1000 Ang^3
#
#
#
# Elastic Constant Matrix: (Units=GPa)
#
#
# Indices 1 2 3 4 5 6 
#
# 1 24.9574 -12.4570 3.1188 0.0000 0.0000 0.0000
# 2 -12.4570 54.1498 -21.6821 0.0000 0.0000 0.0000
# 3 3.1188 -21.6821 76.9029 0.0000 0.0000 0.0000
# 4 0.0000 0.0000 0.0000 41.1475 0.0000 0.0000
# 5 0.0000 0.0000 0.0000 0.0000 14.6788 0.0000
# 6 0.0000 0.0000 0.0000 0.0000 0.0000 86.8360
#
#
#
# Elastic Compliance Matrix: (Units=1/GPa)
#
#
# Indices 1 2 3 4 5 6 
#
# 1 0.045371 0.010935 0.001243 0.000000 0.000000 0.000000
# 2 0.010935 0.023453 0.006169 0.000000 0.000000 0.000000
# 3 0.001243 0.006169 0.014692 0.000000 0.000000 0.000000
# 4 0.000000 0.000000 0.000000 0.024303 0.000000 0.000000
# 5 0.000000 0.000000 0.000000 0.000000 0.068125 0.000000
# 6 0.000000 0.000000 0.000000 0.000000 0.000000 0.011516
#
#
# Mechanical properties :
#
#
# Convention : Reuss Voigt Hill
#
# Bulk Modulus (GPa) = 8.31875 10.44107 9.37991
# Shear Modulus (GPa) = 26.20049 41.00117 33.60083
#
# Velocity S-wave (km/s) = 3.35567 4.19780 3.80014
# Velocity P-wave (km/s) = 4.31153 5.28988 4.82556
#
# Compressibility (1/GPa) = 0.12021041
#
# Stress axis : x y z
#
# Youngs Moduli (GPa) = 22.04054 42.63852 68.06306
#
# Poissons Ratio (x) = -0.46626 -0.08461
# Poissons Ratio (y) = -0.24102 -0.41987
# Poissons Ratio (z) = -0.02740 -0.26303
#
# Static dielectric constant tensor:
#      x y z
#    x 1.848740 0.000000 0.000000 
#    y 0.000000 1.895060 0.000000 
#    z 0.000000 0.000000 1.868350 
# 
# From -- ./inp_files/3940.got.cif
#   From: 2010.05.17/outbox.cif.g08.bks.cpg/sg26_2_cif.got.tgz:3940.got - 2010.06.04 01:07:29.
