data_PCOD9338655
_publ_section_title
;
Structure prediction by ZEFSAII (Michael W. Deem and Ramdas Pophale) SiO2 
 PCOD9338655
Probable space group: P M C 21
;
_chemical_formula_sum "Si O2"
_cell_formula_units_Z 20
_cell_length_a 11.478344
_cell_length_b 17.222145
_cell_length_c 5.387390
_cell_angle_alpha 90.000000
_cell_angle_beta 90.000000
_cell_angle_gamma 90.000000
_cell_volume 1064.988439
_symmetry_space_group_name_H-M "P M C 21"
_symmetry_group_IT_number 26
_symmetry_cell_setting 'orthorhombic'
loop_
_space_group_symop_operation_xyz
x,y,z
-x,-y,1/2+z
-x,y,z
x,-y,1/2+z
loop_
_atom_site_type_symbol
_atom_site_label
_atom_site_fract_x
_atom_site_fract_y
_atom_site_fract_z
Si Si1 0.641821 0.456521 0.084440
Si Si2 0.751463 0.790637 0.084429
Si Si3 0.240981 0.975529 0.084461
Si Si4 0.639701 0.275222 0.084428
Si Si5 0.000000 0.922609 0.584463
Si Si6 0.000000 0.816464 0.084463
O O1 0.500000 0.459038 0.084440
O O2 0.680679 0.499999 0.334442
O O3 0.673686 0.366059 0.084435
O O4 0.688039 0.763936 0.334207
O O5 0.885189 0.764105 0.084457
O O6 0.768213 0.883600 0.084447
O O7 0.688060 0.763943 0.834620
O O8 0.117187 0.024113 0.084464
O O9 0.303272 0.999997 0.334464
O O10 0.500000 0.270200 0.084455
O O11 0.000000 0.869472 0.336707
O O12 0.000000 0.869472 0.832221
#
# Coordination Sequence:
#
# PCOD9338655 Si02
#       6
#     4   4   4   4   2   2
#     4   9  17  33  60  90 112 136 183 241 286 330
#     4  12  23  37  58  88 120 154 192 243 301 346
#     4  12  20  33  53  82 110 144 198 243 305 343
#     4  11  24  41  60  86 123 160 186 224 292 357
#     4  12  19  36  54  88 108 141 194 267 326 316
#     4  12  23  36  60  92 114 145 192 257 314 340
#
# _framework density 18.779548999999999
#
# number of rings (size 3 to 8) (size 9 to 14) (size 15 to 20)
#    0.000    0.800    4.000    5.400    0.000    3.200 
#    0.000    0.000    0.000   12.000    0.000   14.000 
#    0.000    0.000    0.000    0.000    0.000    0.000 
#
# Total GULP energy -111656.687055 kJ/mol
# GULP energy per Si atom -5582.834353 kJ/mol
# Density = 1.873681 g / cm^3
# Si number density = 18.779549 Si / 1000 Ang^3
#
#
#
# Elastic Constant Matrix: (Units=GPa)
#
#
# Indices 1 2 3 4 5 6 
#
# 1 76.9204 37.2157 49.9218 0.0000 0.0000 0.0000
# 2 37.2157 87.4003 67.2933 0.0000 0.0000 0.0000
# 3 49.9218 67.2933 225.0576 0.0000 0.0000 0.0000
# 4 0.0000 0.0000 0.0000 24.9630 0.0000 0.0000
# 5 0.0000 0.0000 0.0000 0.0000 46.5329 0.0000
# 6 0.0000 0.0000 0.0000 0.0000 0.0000 195.1115
#
#
#
# Elastic Compliance Matrix: (Units=1/GPa)
#
#
# Indices 1 2 3 4 5 6 
#
# 1 0.017105 -0.005667 -0.002100 0.000000 0.000000 0.000000
# 2 -0.005667 0.016741 -0.003749 0.000000 0.000000 0.000000
# 3 -0.002100 -0.003749 0.006030 0.000000 0.000000 0.000000
# 4 0.000000 0.000000 0.000000 0.040059 0.000000 0.000000
# 5 0.000000 0.000000 0.000000 0.000000 0.021490 0.000000
# 6 0.000000 0.000000 0.000000 0.000000 0.000000 0.005125
#
#
# Mechanical properties :
#
#
# Convention : Reuss Voigt Hill
#
# Bulk Modulus (GPa) = 59.36330 77.58223 68.47276
# Shear Modulus (GPa) = 36.98346 68.98463 52.98404
#
# Velocity S-wave (km/s) = 4.44255 6.06743 5.31742
# Velocity P-wave (km/s) = 7.61539 9.51245 8.61629
#
# Compressibility (1/GPa) = 0.01684543
#
# Stress axis : x y z
#
# Youngs Moduli (GPa) = 58.46281 59.73463 165.83936
#
# Poissons Ratio (x) = 0.33849 0.34823
# Poissons Ratio (y) = 0.33129 0.62166
# Poissons Ratio (z) = 0.12276 0.22392
#
# Static dielectric constant tensor:
#      x y z
#    x 1.666480 0.000000 0.000000 
#    y 0.000000 1.637830 0.000000 
#    z 0.000000 0.000000 1.743380 
# 
# From -- ./inp_files/354.got.cif
#   From: 2010.05.17/outbox.cif.g08.bks.cpg/sg26_1_cif.got.tgz:354.got - 2010.06.04 01:07:29.
