data_PCOD9338140
_publ_section_title
;
Structure prediction by ZEFSAII (Michael W. Deem and Ramdas Pophale) SiO2 
 PCOD9338140
Probable space group: P M C 21
;
_chemical_formula_sum "Si O2"
_cell_formula_units_Z 32
_cell_length_a 10.250708
_cell_length_b 9.110701
_cell_length_c 17.704657
_cell_angle_alpha 90.000000
_cell_angle_beta 90.000000
_cell_angle_gamma 90.000000
_cell_volume 1653.458023
_symmetry_space_group_name_H-M "P M C 21"
_symmetry_group_IT_number 26
_symmetry_cell_setting 'orthorhombic'
loop_
_space_group_symop_operation_xyz
x,y,z
-x,-y,1/2+z
-x,y,z
x,-y,1/2+z
loop_
_atom_site_type_symbol
_atom_site_label
_atom_site_fract_x
_atom_site_fract_y
_atom_site_fract_z
Si Si1 0.856102 0.257709 0.525260
Si Si2 0.856102 0.742289 0.751870
Si Si3 0.248901 0.500000 0.138564
Si Si4 0.650226 0.762242 0.542662
Si Si5 0.203684 0.000000 0.138566
Si Si6 0.342193 0.640722 0.388565
Si Si7 0.349774 0.762241 0.234468
Si Si8 0.659491 0.709583 0.888565
O O1 0.829612 0.402224 0.577295
O O2 0.739264 0.239498 0.463740
O O3 0.000000 0.271460 0.489388
O O4 0.860669 0.119711 0.582909
O O5 0.829612 0.597775 0.699834
O O6 0.860669 0.880288 0.694222
O O7 0.739264 0.760499 0.813390
O O8 0.000000 0.728537 0.787741
O O9 0.334401 0.381409 0.094274
O O10 0.334401 0.618592 0.182854
O O11 0.500000 0.796670 0.531657
O O12 0.714799 0.898014 0.582860
O O13 0.711155 0.718246 0.462801
O O14 0.285201 0.898014 0.194271
O O15 0.500000 0.656253 0.388565
O O16 0.288845 0.718242 0.314329
O O17 0.322294 0.466871 0.388566
O O18 0.500000 0.796669 0.245473
O O19 0.500000 0.739798 0.888565
#
# Coordination Sequence:
#
# PCOD9338140 Si02
#       8
#     4   4   4   4   4   4   4   4
#     4  11  23  42  64  90 128 169 209 256 310 370
#     4  11  23  42  64  90 128 169 209 256 310 370
#     4  10  20  34  60  90 119 162 211 256 303 366
#     4  10  19  34  56  87 126 162 203 257 313 364
#     4  10  24  38  58  90 125 170 213 248 303 376
#     4   9  18  34  57  84 120 158 195 251 314 365
#     4  10  19  34  56  87 126 162 203 257 313 364
#     4  11  23  40  65  96 124 158 207 263 320 375
#
# _framework density 19.353380000000001
#
# number of rings (size 3 to 8) (size 9 to 14) (size 15 to 20)
#    0.000    1.750    2.500    1.875    0.000    6.000 
#    0.000    1.250    0.000    0.000    0.000    0.000 
#    0.000    0.000    0.000    0.000    0.000    0.000 
#
# Total GULP energy -178244.357987 kJ/mol
# GULP energy per Si atom -5570.136187 kJ/mol
# Density = 1.930933 g / cm^3
# Si number density = 19.353380 Si / 1000 Ang^3
#
#
#
# Elastic Constant Matrix: (Units=GPa)
#
#
# Indices 1 2 3 4 5 6 
#
# 1 99.5452 23.4574 44.5896 0.0000 0.0000 0.0000
# 2 23.4574 100.0719 32.1045 0.0000 0.0000 0.0000
# 3 44.5896 32.1045 113.4596 0.0000 0.0000 0.0000
# 4 0.0000 0.0000 0.0000 31.3991 0.0000 0.0000
# 5 0.0000 0.0000 0.0000 0.0000 827.1554 0.0000
# 6 0.0000 0.0000 0.0000 0.0000 0.0000 -19.4276
#
#
#
# Elastic Compliance Matrix: (Units=1/GPa)
#
#
# Indices 1 2 3 4 5 6 
#
# 1 0.012387 -0.001476 -0.004450 0.000000 0.000000 0.000000
# 2 -0.001476 0.011166 -0.002580 0.000000 0.000000 0.000000
# 3 -0.004450 -0.002580 0.011293 0.000000 0.000000 0.000000
# 4 0.000000 0.000000 0.000000 0.031848 0.000000 0.000000
# 5 0.000000 0.000000 0.000000 0.000000 0.001209 0.000000
# 6 0.000000 0.000000 0.000000 0.000000 0.000000 -0.051473
#
#
# Mechanical properties :
#
#
# Convention : Reuss Voigt Hill
#
# Bulk Modulus (GPa) = 56.07220 57.04221 56.55720
# Shear Modulus (GPa) = 126.94707 182.02039 154.48373
#
# Velocity S-wave (km/s) = 8.10781 9.70851 8.94404
# Velocity P-wave (km/s) = 10.80206 12.45839 11.65968
#
# Compressibility (1/GPa) = 0.01783415
#
# Stress axis : x y z
#
# Youngs Moduli (GPa) = 80.72997 89.55491 88.55284
#
# Poissons Ratio (x) = 0.13216 0.39410
# Poissons Ratio (y) = 0.11914 0.22843
# Poissons Ratio (z) = 0.35929 0.23102
#
# Static dielectric constant tensor:
#      x y z
#    x 1.668290 0.000000 0.000000 
#    y 0.000000 1.646310 0.000000 
#    z 0.000000 0.000000 1.757910 
# 
# From -- ./inp_files/5195.got.cif
#   From: 2010.05.17/outbox.cif.g08.bks.cpg/sg26_3_cif.got.tgz:5195.got - 2010.06.04 01:07:29.
