data_PCOD9338678
_publ_section_title
;
Structure prediction by ZEFSAII (Michael W. Deem and Ramdas Pophale) SiO2 
 PCOD9338678
Probable space group: P M C 21
;
_chemical_formula_sum "Si O2"
_cell_formula_units_Z 32
_cell_length_a 14.548740
_cell_length_b 14.350360
_cell_length_c 7.195217
_cell_angle_alpha 90.000000
_cell_angle_beta 90.000000
_cell_angle_gamma 90.000000
_cell_volume 1502.214934
_symmetry_space_group_name_H-M "P M C 21"
_symmetry_group_IT_number 26
_symmetry_cell_setting 'orthorhombic'
loop_
_space_group_symop_operation_xyz
x,y,z
-x,-y,1/2+z
-x,y,z
x,-y,1/2+z
loop_
_atom_site_type_symbol
_atom_site_label
_atom_site_fract_x
_atom_site_fract_y
_atom_site_fract_z
Si Si1 0.897499 0.568166 0.376770
Si Si2 0.241236 0.283675 0.992194
Si Si3 0.102876 0.136329 0.071887
Si Si4 0.395220 0.367747 0.505082
Si Si5 0.896631 0.078055 0.642077
Si Si6 0.243586 0.775413 0.055099
Si Si7 0.394864 0.421661 0.939520
Si Si8 0.102011 0.370973 0.450486
O O1 0.838528 0.639096 0.492124
O O2 0.903632 0.606929 0.170375
O O3 0.857825 0.465003 0.365623
O O4 0.000000 0.558160 0.455004
O O5 0.250923 0.249692 0.776453
O O6 0.331434 0.344581 0.041913
O O7 0.194714 0.197619 0.099705
O O8 0.000000 0.173926 0.120626
O O9 0.111286 0.033119 0.155394
O O10 0.099582 0.120460 0.848647
O O11 0.500000 0.354860 0.441270
O O12 0.336028 0.273545 0.475646
O O13 0.396507 0.386997 0.727144
O O14 0.361511 0.470270 0.435323
O O15 0.805078 0.122907 0.550304
O O16 0.000000 0.097717 0.559012
O O17 0.166576 0.715683 0.950401
O O18 0.500000 0.424021 0.010855
O O19 0.000000 0.354276 0.378723
#
# Coordination Sequence:
#
# PCOD9338678 Si02
#       8
#     4   4   4   4   4   4   4   4
#     4   9  16  25  37  55  80 108 135 162 195 239
#     4   9  16  27  44  62  81 109 142 171 204 250
#     4   9  17  30  47  65  85 110 141 177 215 254
#     4   9  17  29  45  65  88 114 144 176 209 247
#     4   9  17  30  47  65  85 110 141 177 215 254
#     4   9  16  27  44  62  81 109 142 171 204 250
#     4   9  17  29  45  65  88 114 144 176 209 247
#     4   9  16  25  37  55  80 108 135 162 195 239
#
# _framework density 21.301877999999999
#
# number of rings (size 3 to 8) (size 9 to 14) (size 15 to 20)
#    0.000    3.000    0.000    1.500    0.000    3.000 
#    0.000    2.500    0.000    6.750    0.000    0.000 
#    0.000    0.000    0.000    0.000    0.000    0.000 
#
# Total GULP energy -178305.474582 kJ/mol
# GULP energy per Si atom -5572.046081 kJ/mol
# Density = 2.125339 g / cm^3
# Si number density = 21.301878 Si / 1000 Ang^3
#
#
#
# Elastic Constant Matrix: (Units=GPa)
#
#
# Indices 1 2 3 4 5 6 
#
# 1 119.7488 56.5109 9.2874 0.0000 0.0000 0.0000
# 2 56.5109 90.1945 9.7647 0.0000 0.0000 0.0000
# 3 9.2874 9.7647 29.4048 0.0000 0.0000 0.0000
# 4 0.0000 0.0000 0.0000 26.7858 0.0000 0.0000
# 5 0.0000 0.0000 0.0000 0.0000 -3.0540 0.0000
# 6 0.0000 0.0000 0.0000 0.0000 0.0000 37.4999
#
#
#
# Elastic Compliance Matrix: (Units=1/GPa)
#
#
# Indices 1 2 3 4 5 6 
#
# 1 0.011906 -0.007316 -0.001331 0.000000 0.000000 0.000000
# 2 -0.007316 0.015996 -0.003001 0.000000 0.000000 0.000000
# 3 -0.001331 -0.003001 0.035425 0.000000 0.000000 0.000000
# 4 0.000000 0.000000 0.000000 0.037333 0.000000 0.000000
# 5 0.000000 0.000000 0.000000 0.000000 -0.327435 0.000000
# 6 0.000000 0.000000 0.000000 0.000000 0.000000 0.026667
#
#
# Mechanical properties :
#
#
# Convention : Reuss Voigt Hill
#
# Bulk Modulus (GPa) = 24.98064 43.38601 34.18332
# Shear Modulus (GPa) = -30.58718 23.16534 -3.71092
#
# Velocity S-wave (km/s) = -3.79343 3.30127 -1.32130
# Velocity P-wave (km/s) = 2.72660 5.91123 3.70866
#
# Compressibility (1/GPa) = 0.04003101
#
# Stress axis : x y z
#
# Youngs Moduli (GPa) = 83.98782 62.51654 28.22854
#
# Poissons Ratio (x) = 0.45736 0.03758
# Poissons Ratio (y) = 0.61444 0.08472
# Poissons Ratio (z) = 0.11180 0.18762
#
# Static dielectric constant tensor:
#      x y z
#    x 1.850370 0.000000 0.000000 
#    y 0.000000 1.792500 0.000000 
#    z 0.000000 0.000000 1.876620 
# 
# From -- ./inp_files/2283.got.cif
#   From: 2010.05.17/outbox.cif.g08.bks.cpg/sg26_2_cif.got.tgz:2283.got - 2010.06.04 01:07:29.
