data_PCOD9338668
_publ_section_title
;
Structure prediction by ZEFSAII (Michael W. Deem and Ramdas Pophale) SiO2 
 PCOD9338668
Probable space group: P M C 21
;
_chemical_formula_sum "Si O2"
_cell_formula_units_Z 14
_cell_length_a 13.691329
_cell_length_b 4.690706
_cell_length_c 8.052198
_cell_angle_alpha 90.000000
_cell_angle_beta 90.000000
_cell_angle_gamma 90.000000
_cell_volume 517.128253
_symmetry_space_group_name_H-M "P M C 21"
_symmetry_group_IT_number 26
_symmetry_cell_setting 'orthorhombic'
loop_
_space_group_symop_operation_xyz
x,y,z
-x,-y,1/2+z
-x,y,z
x,-y,1/2+z
loop_
_atom_site_type_symbol
_atom_site_label
_atom_site_fract_x
_atom_site_fract_y
_atom_site_fract_z
Si Si1 0.101786 0.186259 0.151200
Si Si2 0.387563 0.364361 0.315601
Si Si3 0.000000 0.307226 0.494070
Si Si4 0.305952 0.846933 0.487888
O O1 0.200528 0.240320 0.057816
O O2 0.000000 0.340164 0.059343
O O3 0.084335 0.277539 0.337878
O O4 0.082171 0.852717 0.125141
O O5 0.500000 0.366496 0.368460
O O6 0.338521 0.671632 0.326888
O O7 0.379831 0.242188 0.131978
O O8 0.321882 0.169304 0.435156
#
# Coordination Sequence:
#
# PCOD9338668 Si02
#       4
#     4   4   2   4
#     4   8  16  35  62  94 132 167 218 264 330 398
#     4  12  26  45  70 101 136 177 232 283 336 398
#     4   6  14  28  58  80 136 150 218 244 328 360
#     4  12  25  45  73 100 137 181 223 278 346 400
#
# _framework density 27.072585
#
# number of rings (size 3 to 8) (size 9 to 14) (size 15 to 20)
#    1.714    0.000    0.000    6.000    0.000    0.000 
#    0.000    2.857    0.000    0.000    0.000    0.000 
#    0.000    0.000    0.000    0.000    0.000    0.000 
#
# Total GULP energy -78058.315079 kJ/mol
# GULP energy per Si atom -5575.593934 kJ/mol
# Density = 2.701097 g / cm^3
# Si number density = 27.072585 Si / 1000 Ang^3
#
#
#
# Elastic Constant Matrix: (Units=GPa)
#
#
# Indices 1 2 3 4 5 6 
#
# 1 144.1907 28.1875 -7.6173 0.0000 0.0000 0.0000
# 2 28.1875 101.1441 12.7153 0.0000 0.0000 0.0000
# 3 -7.6173 12.7153 99.4129 0.0000 0.0000 0.0000
# 4 0.0000 0.0000 0.0000 51.3547 0.0000 0.0000
# 5 0.0000 0.0000 0.0000 0.0000 36.9227 0.0000
# 6 0.0000 0.0000 0.0000 0.0000 0.0000 20.7736
#
#
#
# Elastic Compliance Matrix: (Units=1/GPa)
#
#
# Indices 1 2 3 4 5 6 
#
# 1 0.007404 -0.002170 0.000845 0.000000 0.000000 0.000000
# 2 -0.002170 0.010684 -0.001533 0.000000 0.000000 0.000000
# 3 0.000845 -0.001533 0.010320 0.000000 0.000000 0.000000
# 4 0.000000 0.000000 0.000000 0.019472 0.000000 0.000000
# 5 0.000000 0.000000 0.000000 0.000000 0.027084 0.000000
# 6 0.000000 0.000000 0.000000 0.000000 0.000000 0.048138
#
#
# Mechanical properties :
#
#
# Convention : Reuss Voigt Hill
#
# Bulk Modulus (GPa) = 44.06664 45.70210 44.88437
# Shear Modulus (GPa) = 36.66187 42.57435 39.61811
#
# Velocity S-wave (km/s) = 3.68395 3.96990 3.82960
# Velocity P-wave (km/s) = 5.86582 6.15885 6.01412
#
# Compressibility (1/GPa) = 0.02269290
#
# Stress axis : x y z
#
# Youngs Moduli (GPa) = 135.06173 93.59598 96.90070
#
# Poissons Ratio (x) = 0.20307 -0.08186
# Poissons Ratio (y) = 0.29303 0.14853
# Poissons Ratio (z) = -0.11410 0.14346
#
# Static dielectric constant tensor:
#      x y z
#    x 2.176790 0.000000 0.000000 
#    y 0.000000 2.095020 0.000000 
#    z 0.000000 0.000000 2.019670 
# 
# From -- ./inp_files/2036.got.cif
#   From: 2010.05.17/outbox.cif.g08.bks.cpg/sg26_2_cif.got.tgz:2036.got - 2010.06.04 01:07:29.
