data_PCOD9338492
_publ_section_title
;
Structure prediction by ZEFSAII (Michael W. Deem and Ramdas Pophale) SiO2 
 PCOD9338492
Probable space group: P M C 21
;
_chemical_formula_sum "Si O2"
_cell_formula_units_Z 32
_cell_length_a 9.848044
_cell_length_b 13.664007
_cell_length_c 10.777874
_cell_angle_alpha 90.000000
_cell_angle_beta 90.000000
_cell_angle_gamma 90.000000
_cell_volume 1450.311058
_symmetry_space_group_name_H-M "P M C 21"
_symmetry_group_IT_number 26
_symmetry_cell_setting 'orthorhombic'
loop_
_space_group_symop_operation_xyz
x,y,z
-x,-y,1/2+z
-x,y,z
x,-y,1/2+z
loop_
_atom_site_type_symbol
_atom_site_label
_atom_site_fract_x
_atom_site_fract_y
_atom_site_fract_z
Si Si1 0.642115 0.471839 0.824510
Si Si2 0.840256 0.724516 0.089437
Si Si3 0.658956 0.780881 0.852595
Si Si4 0.155762 0.055301 0.237154
Si Si5 0.155012 0.503474 0.020932
Si Si6 0.656698 0.238659 0.819126
Si Si7 0.646554 0.625539 0.633292
Si Si8 0.844942 0.103242 0.955774
O O1 0.500000 0.503864 0.886650
O O2 0.650134 0.356064 0.829553
O O3 0.634015 0.515486 0.688411
O O4 0.763766 0.521874 0.895053
O O5 0.838756 0.605290 0.098275
O O6 0.758768 0.773234 0.202821
O O7 0.000000 0.753602 0.084408
O O8 0.754846 0.753253 0.967718
O O9 0.500000 0.795275 0.888065
O O10 0.728200 0.872755 0.785837
O O11 0.661564 0.697104 0.747901
O O12 0.000000 0.093876 0.252194
O O13 0.163804 0.964965 0.333244
O O14 0.173810 0.045600 0.087189
O O15 0.216604 0.398131 0.061892
O O16 0.000000 0.487508 0.993956
O O17 0.500000 0.204777 0.800972
O O18 0.729270 0.185171 0.934812
O O19 0.500000 0.651350 0.574258
O O20 0.000000 0.143143 0.958697
#
# Coordination Sequence:
#
# PCOD9338492 Si02
#       8
#     4   4   4   4   4   4   4   4
#     4  10  21  38  58  82 122 172 215 260 317 382
#     4  11  23  39  61  92 131 176 221 275 336 394
#     4  11  24  41  65  96 129 171 223 274 331 395
#     4  10  24  47  73 101 134 174 218 270 337 407
#     4  11  23  35  55  86 123 168 223 277 322 376
#     4  11  24  41  65  96 129 171 223 274 331 395
#     4  10  21  38  58  82 122 172 215 260 317 382
#     4  10  24  47  73 101 134 174 218 270 337 407
#
# _framework density 22.064230999999999
#
# number of rings (size 3 to 8) (size 9 to 14) (size 15 to 20)
#    0.000    1.500    2.500    1.500    3.500    4.500 
#    0.000    0.000    0.000    0.000    0.000    0.000 
#    0.000    0.000    0.000    0.000    0.000    0.000 
#
# Total GULP energy -178299.833246 kJ/mol
# GULP energy per Si atom -5571.869789 kJ/mol
# Density = 2.201401 g / cm^3
# Si number density = 22.064231 Si / 1000 Ang^3
#
#
#
# Elastic Constant Matrix: (Units=GPa)
#
#
# Indices 1 2 3 4 5 6 
#
# 1 187.2833 38.0358 39.3953 0.0000 0.0000 0.0000
# 2 38.0358 48.3162 6.2618 0.0000 0.0000 0.0000
# 3 39.3953 6.2618 55.9389 0.0000 0.0000 0.0000
# 4 0.0000 0.0000 0.0000 24.3220 0.0000 0.0000
# 5 0.0000 0.0000 0.0000 0.0000 28.7792 0.0000
# 6 0.0000 0.0000 0.0000 0.0000 0.0000 35.8708
#
#
#
# Elastic Compliance Matrix: (Units=1/GPa)
#
#
# Indices 1 2 3 4 5 6 
#
# 1 0.007364 -0.005201 -0.004604 0.000000 0.000000 0.000000
# 2 -0.005201 0.024674 0.000900 0.000000 0.000000 0.000000
# 3 -0.004604 0.000900 0.021018 0.000000 0.000000 0.000000
# 4 0.000000 0.000000 0.000000 0.041115 0.000000 0.000000
# 5 0.000000 0.000000 0.000000 0.000000 0.034747 0.000000
# 6 0.000000 0.000000 0.000000 0.000000 0.000000 0.027878
#
#
# Mechanical properties :
#
#
# Convention : Reuss Voigt Hill
#
# Bulk Modulus (GPa) = 28.37006 50.99157 39.68081
# Shear Modulus (GPa) = 26.83052 31.65077 29.24065
#
# Velocity S-wave (km/s) = 3.49093 3.79157 3.64435
# Velocity P-wave (km/s) = 5.39765 6.50605 5.97760
#
# Compressibility (1/GPa) = 0.03524843
#
# Stress axis : x y z
#
# Youngs Moduli (GPa) = 135.79237 40.52795 47.57753
#
# Poissons Ratio (x) = 0.21077 0.21905
# Poissons Ratio (y) = 0.70620 -0.04284
# Poissons Ratio (z) = 0.62520 -0.03650
#
# Static dielectric constant tensor:
#      x y z
#    x 2.150450 0.000000 0.000000 
#    y 0.000000 1.859120 0.000000 
#    z 0.000000 0.000000 1.920080 
# 
# From -- ./inp_files/3016.got.cif
#   From: 2010.05.17/outbox.cif.g08.bks.cpg/sg26_2_cif.got.tgz:3016.got - 2010.06.04 01:07:29.
