data_PCOD9338319
_publ_section_title
;
Structure prediction by ZEFSAII (Michael W. Deem and Ramdas Pophale) SiO2 
 PCOD9338319
Probable space group: P M C 21
;
_chemical_formula_sum "Si O2"
_cell_formula_units_Z 32
_cell_length_a 7.945695
_cell_length_b 19.499498
_cell_length_c 8.305777
_cell_angle_alpha 90.000000
_cell_angle_beta 90.000000
_cell_angle_gamma 90.000000
_cell_volume 1286.872701
_symmetry_space_group_name_H-M "P M C 21"
_symmetry_group_IT_number 26
_symmetry_cell_setting 'orthorhombic'
loop_
_space_group_symop_operation_xyz
x,y,z
-x,-y,1/2+z
-x,y,z
x,-y,1/2+z
loop_
_atom_site_type_symbol
_atom_site_label
_atom_site_fract_x
_atom_site_fract_y
_atom_site_fract_z
Si Si1 0.692266 0.645215 0.726710
Si Si2 0.705257 0.897023 0.727842
Si Si3 0.697756 0.024129 0.541180
Si Si4 0.698708 0.526204 0.939967
Si Si5 0.796086 0.278564 0.547065
Si Si6 0.195226 0.771435 0.541591
Si Si7 0.796362 0.147625 0.734882
Si Si8 0.193148 0.598978 0.260717
O O1 0.500000 0.631333 0.689468
O O2 0.764341 0.572976 0.790190
O O3 0.756735 0.694240 0.586115
O O4 0.711383 0.691394 0.888628
O O5 0.500000 0.893615 0.730056
O O6 0.773104 0.821780 0.692388
O O7 0.764035 0.949339 0.586896
O O8 0.767524 0.933842 0.890266
O O9 0.500000 0.015460 0.510913
O O10 0.720487 0.074170 0.694268
O O11 0.500000 0.540228 0.964053
O O12 0.718380 0.446892 0.895264
O O13 0.791145 0.554034 0.096729
O O14 0.755900 0.200859 0.590925
O O15 0.745904 0.327060 0.698658
O O16 0.000000 0.285150 0.529351
O O17 0.272437 0.813320 0.392453
O O18 0.000000 0.768436 0.504605
O O19 0.000000 0.140409 0.742349
O O20 0.000000 0.605831 0.308770
#
# Coordination Sequence:
#
# PCOD9338319 Si02
#       8
#     4   4   4   4   4   4   4   4
#     4  10  21  37  57  81 109 144 184 226 275 330
#     4  10  21  38  59  83 111 143 181 224 271 325
#     4  10  21  37  59  84 109 141 180 223 271 323
#     4  10  21  37  56  81 114 148 184 230 284 338
#     4   9  19  37  58  80 108 143 183 228 276 326
#     4  11  23  37  55  81 112 146 183 225 272 323
#     4  10  22  38  55  79 111 144 180 223 271 323
#     4  10  20  35  57  83 110 145 189 233 280 336
#
# _framework density 24.866484
#
# number of rings (size 3 to 8) (size 9 to 14) (size 15 to 20)
#    0.000    2.000    0.000    3.000    0.000    8.500 
#    0.000    1.250    0.000    0.000    0.000    0.000 
#    0.000    0.000    0.000    0.000    0.000    0.000 
#
# Total GULP energy -178947.236454 kJ/mol
# GULP energy per Si atom -5592.101139 kJ/mol
# Density = 2.480989 g / cm^3
# Si number density = 24.866484 Si / 1000 Ang^3
#
#
#
# Elastic Constant Matrix: (Units=GPa)
#
#
# Indices 1 2 3 4 5 6 
#
# 1 22.0842 -3.2530 -7.4962 0.0000 0.0000 0.0000
# 2 -3.2530 133.2231 3.5862 0.0000 0.0000 0.0000
# 3 -7.4962 3.5862 63.6828 0.0000 0.0000 0.0000
# 4 0.0000 0.0000 0.0000 46.9889 0.0000 0.0000
# 5 0.0000 0.0000 0.0000 0.0000 29.8654 0.0000
# 6 0.0000 0.0000 0.0000 0.0000 0.0000 20.2820
#
#
#
# Elastic Compliance Matrix: (Units=1/GPa)
#
#
# Indices 1 2 3 4 5 6 
#
# 1 0.047300 0.001007 0.005511 0.000000 0.000000 0.000000
# 2 0.001007 0.007539 -0.000306 0.000000 0.000000 0.000000
# 3 0.005511 -0.000306 0.016369 0.000000 0.000000 0.000000
# 4 0.000000 0.000000 0.000000 0.021282 0.000000 0.000000
# 5 0.000000 0.000000 0.000000 0.000000 0.033484 0.000000
# 6 0.000000 0.000000 0.000000 0.000000 0.000000 0.049305
#
#
# Mechanical properties :
#
#
# Convention : Reuss Voigt Hill
#
# Bulk Modulus (GPa) = 11.95724 22.74044 17.34884
# Shear Modulus (GPa) = 26.21481 34.50413 30.35947
#
# Velocity S-wave (km/s) = 3.25040 3.72906 3.49793
# Velocity P-wave (km/s) = 4.34808 5.26365 4.82762
#
# Compressibility (1/GPa) = 0.08363136
#
# Stress axis : x y z
#
# Youngs Moduli (GPa) = 21.14156 132.64321 61.09184
#
# Poissons Ratio (x) = -0.13352 -0.33668
# Poissons Ratio (y) = -0.02128 0.01870
# Poissons Ratio (z) = -0.11651 0.04060
#
# Static dielectric constant tensor:
#      x y z
#    x 1.868710 0.000000 0.000000 
#    y 0.000000 1.935990 0.000000 
#    z 0.000000 0.000000 2.080320 
# 
# From -- ./inp_files/1580.got.cif
#   From: 2010.05.17/outbox.cif.g08.bks.cpg/sg26_1_cif.got.tgz:1580.got - 2010.06.04 01:07:29.
