data_PCOD9338113
_publ_section_title
;
Structure prediction by ZEFSAII (Michael W. Deem and Ramdas Pophale) SiO2 
 PCOD9338113
Probable space group: P M C 21
;
_chemical_formula_sum "Si O2"
_cell_formula_units_Z 32
_cell_length_a 8.931670
_cell_length_b 12.268652
_cell_length_c 14.773224
_cell_angle_alpha 90.000000
_cell_angle_beta 90.000000
_cell_angle_gamma 90.000000
_cell_volume 1618.843253
_symmetry_space_group_name_H-M "P M C 21"
_symmetry_group_IT_number 26
_symmetry_cell_setting 'orthorhombic'
loop_
_space_group_symop_operation_xyz
x,y,z
-x,-y,1/2+z
-x,y,z
x,-y,1/2+z
loop_
_atom_site_type_symbol
_atom_site_label
_atom_site_fract_x
_atom_site_fract_y
_atom_site_fract_z
Si Si1 0.175655 0.766850 0.075580
Si Si2 0.672215 0.444472 0.540587
Si Si3 0.820327 0.019151 0.051228
Si Si4 0.324947 0.991023 0.361737
Si Si5 0.673606 0.657380 0.448458
Si Si6 0.319791 0.160070 0.214669
Si Si7 0.176815 0.639907 0.629906
Si Si8 0.674549 0.232240 0.761699
O O1 0.222657 0.891142 0.059497
O O2 0.220069 0.741857 0.178769
O O3 0.000000 0.759519 0.060324
O O4 0.257809 0.671871 0.021310
O O5 0.500000 0.432915 0.567317
O O6 0.678874 0.526346 0.455201
O O7 0.756812 0.517909 0.616864
O O8 0.000000 0.029669 0.059814
O O9 0.743361 0.088004 0.130952
O O10 0.766271 0.045251 0.949761
O O11 0.500000 0.001559 0.387678
O O12 0.276224 0.100043 0.308666
O O13 0.314686 0.894406 0.288522
O O14 0.500000 0.690592 0.467410
O O15 0.777878 0.692328 0.531828
O O16 0.714999 0.702230 0.351823
O O17 0.500000 0.161396 0.209994
O O18 0.254971 0.281426 0.202150
O O19 0.000000 0.637397 0.641602
O O20 0.500000 0.254803 0.739447
#
# Coordination Sequence:
#
# PCOD9338113 Si02
#       8
#     4   4   4   4   4   4   4   4
#     4  11  23  38  57  86 122 159 197 242 300 364
#     4   9  19  37  59  83 111 152 196 242 291 349
#     4  11  24  39  58  86 122 161 196 246 308 359
#     4  10  22  37  59  88 117 157 204 249 297 360
#     4   8  17  33  56  85 112 146 194 243 287 343
#     4  11  21  37  59  86 119 155 200 244 292 359
#     4  10  19  33  57  86 116 152 190 239 301 348
#     4  10  19  36  59  86 115 150 199 249 294 350
#
# _framework density 19.767201
#
# number of rings (size 3 to 8) (size 9 to 14) (size 15 to 20)
#    0.750    1.250    1.250    3.000    0.000    4.500 
#    0.000    1.250    0.000    4.500    0.000    0.000 
#    0.000    0.000    0.000    0.000    0.000    0.000 
#
# Total GULP energy -178412.622167 kJ/mol
# GULP energy per Si atom -5575.394443 kJ/mol
# Density = 1.972221 g / cm^3
# Si number density = 19.767201 Si / 1000 Ang^3
#
#
#
# Elastic Constant Matrix: (Units=GPa)
#
#
# Indices 1 2 3 4 5 6 
#
# 1 50.9492 12.4820 -4.7466 0.0000 0.0000 0.0000
# 2 12.4820 55.2561 -13.4957 0.0000 0.0000 0.0000
# 3 -4.7466 -13.4957 18.9372 0.0000 0.0000 0.0000
# 4 0.0000 0.0000 0.0000 19.1538 0.0000 0.0000
# 5 0.0000 0.0000 0.0000 0.0000 30.2343 0.0000
# 6 0.0000 0.0000 0.0000 0.0000 0.0000 31.8782
#
#
#
# Elastic Compliance Matrix: (Units=1/GPa)
#
#
# Indices 1 2 3 4 5 6 
#
# 1 0.020857 -0.004158 0.002264 0.000000 0.000000 0.000000
# 2 -0.004158 0.022740 0.015164 0.000000 0.000000 0.000000
# 3 0.002264 0.015164 0.064180 0.000000 0.000000 0.000000
# 4 0.000000 0.000000 0.000000 0.052209 0.000000 0.000000
# 5 0.000000 0.000000 0.000000 0.000000 0.033075 0.000000
# 6 0.000000 0.000000 0.000000 0.000000 0.000000 0.031369
#
#
# Mechanical properties :
#
#
# Convention : Reuss Voigt Hill
#
# Bulk Modulus (GPa) = 7.44506 12.62466 10.03486
# Shear Modulus (GPa) = 20.60460 24.98012 22.79236
#
# Velocity S-wave (km/s) = 3.23207 3.55873 3.39933
# Velocity P-wave (km/s) = 4.20748 4.82562 4.52712
#
# Compressibility (1/GPa) = 0.13431729
#
# Stress axis : x y z
#
# Youngs Moduli (GPa) = 47.94527 43.97443 15.58110
#
# Poissons Ratio (x) = 0.18287 -0.03528
# Poissons Ratio (y) = 0.19938 -0.23627
# Poissons Ratio (z) = -0.10856 -0.66682
#
# Static dielectric constant tensor:
#      x y z
#    x 1.664910 0.000000 0.000000 
#    y 0.000000 1.749030 0.000000 
#    z 0.000000 0.000000 1.689990 
# 
# From -- ./inp_files/4352.got.cif
#   From: 2010.05.17/outbox.cif.g08.bks.cpg/sg26_3_cif.got.tgz:4352.got - 2010.06.04 01:07:29.
