data_PCOD9338076
_publ_section_title
;
Structure prediction by ZEFSAII (Michael W. Deem and Ramdas Pophale) SiO2 
 PCOD9338076
Probable space group: P M C 21
;
_chemical_formula_sum "Si O2"
_cell_formula_units_Z 32
_cell_length_a 7.850586
_cell_length_b 12.651159
_cell_length_c 14.485682
_cell_angle_alpha 90.000000
_cell_angle_beta 90.000000
_cell_angle_gamma 90.000000
_cell_volume 1438.703620
_symmetry_space_group_name_H-M "P M C 21"
_symmetry_group_IT_number 26
_symmetry_cell_setting 'orthorhombic'
loop_
_space_group_symop_operation_xyz
x,y,z
-x,-y,1/2+z
-x,y,z
x,-y,1/2+z
loop_
_atom_site_type_symbol
_atom_site_label
_atom_site_fract_x
_atom_site_fract_y
_atom_site_fract_z
Si Si1 0.700914 0.673085 0.691540
Si Si2 0.293820 0.382158 0.995583
Si Si3 0.301909 0.071513 0.445587
Si Si4 0.199272 0.415455 0.389662
Si Si5 0.201753 0.092135 0.235591
Si Si6 0.294583 0.157541 0.918565
Si Si7 0.807471 0.270320 0.548775
Si Si8 0.796837 0.137214 0.705829
O O1 0.500000 0.685583 0.679495
O O2 0.761467 0.605870 0.602630
O O3 0.731167 0.617340 0.789959
O O4 0.770943 0.793046 0.691708
O O5 0.500000 0.390726 0.990047
O O6 0.221028 0.464738 0.922320
O O7 0.241317 0.263782 0.968309
O O8 0.500000 0.081909 0.473458
O O9 0.290304 0.091774 0.335756
O O10 0.191438 0.159140 0.495046
O O11 0.236837 0.952919 0.462224
O O12 0.276977 0.349336 0.475761
O O13 0.000000 0.387343 0.384634
O O14 0.000000 0.079150 0.251484
O O15 0.262515 0.983609 0.185897
O O16 0.500000 0.153476 0.919578
O O17 0.237255 0.157292 0.812771
O O18 0.723834 0.232687 0.644193
O O19 0.000000 0.310271 0.566500
O O20 0.000000 0.139365 0.689543
#
# Coordination Sequence:
#
# PCOD9338076 Si02
#       8
#     4   4   4   4   4   4   4   4
#     4  11  23  40  64  90 120 159 201 250 304 362
#     4  10  24  44  64  88 121 160 204 254 308 362
#     4  10  19  32  56  86 117 155 197 243 300 358
#     4  11  24  42  64  89 122 160 206 259 304 358
#     4  10  19  34  56  85 122 159 200 247 299 360
#     4   9  20  39  58  84 120 155 196 250 302 356
#     4  10  21  37  56  84 122 159 197 247 301 354
#     4   9  20  36  56  86 124 165 201 244 304 362
#
# _framework density 22.242246000000002
#
# number of rings (size 3 to 8) (size 9 to 14) (size 15 to 20)
#    0.000    2.000    1.250    1.500    1.750    4.500 
#    0.000    2.500    0.000    0.000    0.000    0.000 
#    0.000    0.000    0.000    0.000    0.000    0.000 
#
# Total GULP energy -178618.409615 kJ/mol
# GULP energy per Si atom -5581.825300 kJ/mol
# Density = 2.219162 g / cm^3
# Si number density = 22.242246 Si / 1000 Ang^3
#
#
#
# Elastic Constant Matrix: (Units=GPa)
#
#
# Indices 1 2 3 4 5 6 
#
# 1 41.5105 -3.3621 -5.7892 0.0000 0.0000 0.0000
# 2 -3.3621 67.1349 13.9987 0.0000 0.0000 0.0000
# 3 -5.7892 13.9987 68.7686 0.0000 0.0000 0.0000
# 4 0.0000 0.0000 0.0000 27.4938 0.0000 0.0000
# 5 0.0000 0.0000 0.0000 0.0000 20.7977 0.0000
# 6 0.0000 0.0000 0.0000 0.0000 0.0000 -1.9875
#
#
#
# Elastic Compliance Matrix: (Units=1/GPa)
#
#
# Indices 1 2 3 4 5 6 
#
# 1 0.024421 0.000829 0.001887 0.000000 0.000000 0.000000
# 2 0.000829 0.015584 -0.003102 0.000000 0.000000 0.000000
# 3 0.001887 -0.003102 0.015332 0.000000 0.000000 0.000000
# 4 0.000000 0.000000 0.000000 0.036372 0.000000 0.000000
# 5 0.000000 0.000000 0.000000 0.000000 0.048082 0.000000
# 6 0.000000 0.000000 0.000000 0.000000 0.000000 -0.503139
#
#
# Mechanical properties :
#
#
# Convention : Reuss Voigt Hill
#
# Bulk Modulus (GPa) = 18.32695 20.78987 19.55841
# Shear Modulus (GPa) = -14.51848 20.76522 3.12337
#
# Velocity S-wave (km/s) = -2.55766 3.05879 1.18630
# Velocity P-wave (km/s) = 0.68158 4.67357 3.26938
#
# Compressibility (1/GPa) = 0.05456446
#
# Stress axis : x y z
#
# Youngs Moduli (GPa) = 40.94893 64.16905 65.22338
#
# Poissons Ratio (x) = -0.05323 -0.12308
# Poissons Ratio (y) = -0.03397 0.20235
# Poissons Ratio (z) = -0.07727 0.19908
#
# Static dielectric constant tensor:
#      x y z
#    x 1.801680 0.000000 0.000000 
#    y 0.000000 1.829550 0.000000 
#    z 0.000000 0.000000 1.850080 
# 
# From -- ./inp_files/4315.got.cif
#   From: 2010.05.17/outbox.cif.g08.bks.cpg/sg26_3_cif.got.tgz:4315.got - 2010.06.04 01:07:29.
