data_PCOD9338453
_publ_section_title
;
Structure prediction by ZEFSAII (Michael W. Deem and Ramdas Pophale) SiO2 
 PCOD9338453
Probable space group: P M C 21
;
_chemical_formula_sum "Si O2"
_cell_formula_units_Z 32
_cell_length_a 24.392696
_cell_length_b 4.920867
_cell_length_c 13.398027
_cell_angle_alpha 90.000000
_cell_angle_beta 90.000000
_cell_angle_gamma 90.000000
_cell_volume 1608.208226
_symmetry_space_group_name_H-M "P M C 21"
_symmetry_group_IT_number 26
_symmetry_cell_setting 'orthorhombic'
loop_
_space_group_symop_operation_xyz
x,y,z
-x,-y,1/2+z
-x,y,z
x,-y,1/2+z
loop_
_atom_site_type_symbol
_atom_site_label
_atom_site_fract_x
_atom_site_fract_y
_atom_site_fract_z
Si Si1 0.380163 0.197079 0.664820
Si Si2 0.197693 0.796793 0.485822
Si Si3 0.641554 0.293984 0.894949
Si Si4 0.063054 0.680814 0.074062
Si Si5 0.697692 0.203209 0.485827
Si Si6 0.858445 0.706013 0.894942
Si Si7 0.563054 0.319189 0.074069
Si Si8 0.880164 0.197083 0.164814
O O1 0.368073 0.279444 0.777755
O O2 0.326158 0.247851 0.596811
O O3 0.427961 0.392141 0.625571
O O4 0.400485 0.893964 0.638205
O O5 0.189287 0.505717 0.430469
O O6 0.173841 0.752144 0.596804
O O7 0.250000 0.000001 0.490771
O O8 0.156267 0.988610 0.425978
O O9 0.689286 0.505714 0.930477
O O10 0.656265 0.988606 0.925985
O O11 0.588926 0.354938 0.963760
O O12 0.072038 0.392146 0.125565
O O13 0.000000 0.762590 0.070639
O O14 0.099515 0.893969 0.138198
O O15 0.088927 0.645061 0.963753
O O16 0.868073 0.720553 0.777748
O O17 0.500000 0.237414 0.070649
#
# Coordination Sequence:
#
# PCOD9338453 Si02
#       8
#     4   4   4   4   4   4   4   4
#     4  10  21  38  58  83 117 152 191 241 290 345
#     4  10  21  38  59  85 115 148 191 238 288 346
#     4  10  21  38  58  84 117 150 190 240 288 342
#     4  10  21  36  56  84 116 152 195 239 286 345
#     4  10  21  38  59  85 115 148 191 238 288 346
#     4  10  21  38  58  84 117 150 190 240 288 342
#     4  10  21  36  56  84 116 152 195 239 286 345
#     4  10  21  38  58  83 117 152 191 241 290 345
#
# _framework density 19.897922000000001
#
# number of rings (size 3 to 8) (size 9 to 14) (size 15 to 20)
#    0.000    2.000    0.000    3.000    0.000    3.000 
#    0.000    7.500    0.000    0.000    0.000    0.000 
#    0.000    0.000    0.000    0.000    0.000    0.000 
#
# Total GULP energy -178175.501293 kJ/mol
# GULP energy per Si atom -5567.984415 kJ/mol
# Density = 1.985263 g / cm^3
# Si number density = 19.897922 Si / 1000 Ang^3
#
#
#
# Elastic Constant Matrix: (Units=GPa)
#
#
# Indices 1 2 3 4 5 6 
#
# 1 69.2944 -0.8449 44.9247 0.0000 0.0000 0.0000
# 2 -0.8449 101.7458 25.0500 0.0000 0.0000 0.0000
# 3 44.9247 25.0500 180.8955 0.0000 0.0000 0.0000
# 4 0.0000 0.0000 0.0000 15.5883 0.0000 0.0000
# 5 0.0000 0.0000 0.0000 0.0000 1.8647 0.0000
# 6 0.0000 0.0000 0.0000 0.0000 0.0000 25.2813
#
#
#
# Elastic Compliance Matrix: (Units=1/GPa)
#
#
# Indices 1 2 3 4 5 6 
#
# 1 0.017352 0.001248 -0.004482 0.000000 0.000000 0.000000
# 2 0.001248 0.010265 -0.001731 0.000000 0.000000 0.000000
# 3 -0.004482 -0.001731 0.006881 0.000000 0.000000 0.000000
# 4 0.000000 0.000000 0.000000 0.064151 0.000000 0.000000
# 5 0.000000 0.000000 0.000000 0.000000 0.536267 0.000000
# 6 0.000000 0.000000 0.000000 0.000000 0.000000 0.039555
#
#
# Mechanical properties :
#
#
# Convention : Reuss Voigt Hill
#
# Bulk Modulus (GPa) = 40.70584 54.46614 47.58599
# Shear Modulus (GPa) = 7.21927 27.40060 17.30994
#
# Velocity S-wave (km/s) = 1.90684 3.71490 2.95267
# Velocity P-wave (km/s) = 5.03486 6.77000 5.96585
#
# Compressibility (1/GPa) = 0.02456650
#
# Stress axis : x y z
#
# Youngs Moduli (GPa) = 57.62953 97.41817 145.32938
#
# Poissons Ratio (x) = -0.12154 0.65138
# Poissons Ratio (y) = -0.07190 0.25161
# Poissons Ratio (z) = 0.25830 0.16866
#
# Static dielectric constant tensor:
#      x y z
#    x 1.734420 0.000000 0.000000 
#    y 0.000000 1.694190 0.000000 
#    z 0.000000 0.000000 1.697160 
# 
# From -- ./inp_files/3731.got.cif
#   From: 2010.05.17/outbox.cif.g08.bks.cpg/sg26_2_cif.got.tgz:3731.got - 2010.06.04 01:07:29.
