data_PCOD9338583
_publ_section_title
;
Structure prediction by ZEFSAII (Michael W. Deem and Ramdas Pophale) SiO2 
 PCOD9338583
Probable space group: P M C 21
;
_chemical_formula_sum "Si O2"
_cell_formula_units_Z 24
_cell_length_a 8.684485
_cell_length_b 12.153189
_cell_length_c 12.147260
_cell_angle_alpha 90.000000
_cell_angle_beta 90.000000
_cell_angle_gamma 90.000000
_cell_volume 1282.072688
_symmetry_space_group_name_H-M "P M C 21"
_symmetry_group_IT_number 26
_symmetry_cell_setting 'orthorhombic'
loop_
_space_group_symop_operation_xyz
x,y,z
-x,-y,1/2+z
-x,y,z
x,-y,1/2+z
loop_
_atom_site_type_symbol
_atom_site_label
_atom_site_fract_x
_atom_site_fract_y
_atom_site_fract_z
Si Si1 0.684665 0.718397 0.912780
Si Si2 0.684007 0.219130 0.077616
Si Si3 0.315321 0.340764 0.664244
Si Si4 0.184723 0.833098 0.337777
Si Si5 0.184125 0.580905 0.714643
Si Si6 0.815381 0.083858 0.277039
O O1 0.500000 0.720340 0.899746
O O2 0.753513 0.626738 0.830988
O O3 0.752897 0.833950 0.870789
O O4 0.722306 0.693038 0.038921
O O5 0.500000 0.224192 0.079319
O O6 0.751719 0.333540 0.124134
O O7 0.742092 0.126716 0.163446
O O8 0.744775 0.194101 0.956421
O O9 0.500000 0.346222 0.674406
O O10 0.249642 0.251122 0.748137
O O11 0.244821 0.459418 0.691206
O O12 0.000000 0.823685 0.343410
O O13 0.223076 0.958154 0.303593
O O14 0.000000 0.583866 0.714395
O O15 0.000000 0.095241 0.269924
#
# Coordination Sequence:
#
# PCOD9338583 Si02
#       6
#     4   4   4   4   4   4
#     4  10  22  41  65  92 124 162 206 254 309 368
#     4  11  23  41  66  92 125 164 207 256 308 369
#     4  11  25  42  63  93 127 163 206 256 309 366
#     4  11  25  42  63  93 127 164 207 256 309 365
#     4  11  23  41  66  92 124 164 208 254 308 370
#     4  10  22  41  65  92 125 163 206 254 307 368
#
# _framework density 18.719688000000001
#
# number of rings (size 3 to 8) (size 9 to 14) (size 15 to 20)
#    0.000    1.333    0.000    7.000    4.667    5.333 
#    0.000    0.000    0.000    0.000    0.000    0.000 
#    0.000    0.000    0.000    0.000    0.000    0.000 
#
# Total GULP energy -134249.294795 kJ/mol
# GULP energy per Si atom -5593.720616 kJ/mol
# Density = 1.867708 g / cm^3
# Si number density = 18.719688 Si / 1000 Ang^3
#
#
#
# Elastic Constant Matrix: (Units=GPa)
#
#
# Indices 1 2 3 4 5 6 
#
# 1 119.2227 91.2404 91.9878 0.0000 0.0000 0.0000
# 2 91.2404 188.6031 139.4609 0.0000 0.0000 0.0000
# 3 91.9878 139.4609 185.9869 0.0000 0.0000 0.0000
# 4 0.0000 0.0000 0.0000 7.2850 0.0000 0.0000
# 5 0.0000 0.0000 0.0000 0.0000 -26.9269 0.0000
# 6 0.0000 0.0000 0.0000 0.0000 0.0000 54.5907
#
#
#
# Elastic Compliance Matrix: (Units=1/GPa)
#
#
# Indices 1 2 3 4 5 6 
#
# 1 0.014743 -0.003906 -0.004363 0.000000 0.000000 0.000000
# 2 -0.003906 0.012936 -0.007768 0.000000 0.000000 0.000000
# 3 -0.004363 -0.007768 0.013359 0.000000 0.000000 0.000000
# 4 0.000000 0.000000 0.000000 0.137269 0.000000 0.000000
# 5 0.000000 0.000000 0.000000 0.000000 -0.037138 0.000000
# 6 0.000000 0.000000 0.000000 0.000000 0.000000 0.018318
#
#
# Mechanical properties :
#
#
# Convention : Reuss Voigt Hill
#
# Bulk Modulus (GPa) = 111.55188 126.57676 119.06432
# Shear Modulus (GPa) = 25.70039 18.39797 22.04918
#
# Velocity S-wave (km/s) = 3.70930 3.13839 3.43572
# Velocity P-wave (km/s) = 8.83545 8.99424 8.91520
#
# Compressibility (1/GPa) = 0.00896444
#
# Stress axis : x y z
#
# Youngs Moduli (GPa) = 67.82721 77.30598 74.85565
#
# Poissons Ratio (x) = 0.30198 0.32658
# Poissons Ratio (y) = 0.26496 0.58145
# Poissons Ratio (z) = 0.29592 0.60048
#
# Static dielectric constant tensor:
#      x y z
#    x 1.627810 0.000000 0.000000 
#    y 0.000000 1.617280 0.000000 
#    z 0.000000 0.000000 1.617390 
# 
# From -- ./inp_files/2800.got.cif
#   From: 2010.05.17/outbox.cif.g08.bks.cpg/sg26_2_cif.got.tgz:2800.got - 2010.06.04 01:07:29.
