data_PCOD9338485
_publ_section_title
;
Structure prediction by ZEFSAII (Michael W. Deem and Ramdas Pophale) SiO2 
 PCOD9338485
Probable space group: P M C 21
;
_chemical_formula_sum "Si O2"
_cell_formula_units_Z 24
_cell_length_a 12.616538
_cell_length_b 6.791845
_cell_length_c 11.982841
_cell_angle_alpha 90.000000
_cell_angle_beta 90.000000
_cell_angle_gamma 90.000000
_cell_volume 1026.804499
_symmetry_space_group_name_H-M "P M C 21"
_symmetry_group_IT_number 26
_symmetry_cell_setting 'orthorhombic'
loop_
_space_group_symop_operation_xyz
x,y,z
-x,-y,1/2+z
-x,y,z
x,-y,1/2+z
loop_
_atom_site_type_symbol
_atom_site_label
_atom_site_fract_x
_atom_site_fract_y
_atom_site_fract_z
Si Si1 0.618731 0.972975 0.169390
Si Si2 0.881269 0.972975 0.038612
Si Si3 0.792604 0.261037 0.748098
Si Si4 0.878334 0.603164 0.478570
Si Si5 0.292604 0.261037 0.459904
Si Si6 0.621666 0.396836 0.229432
O O1 0.500000 0.946272 0.207804
O O2 0.699247 0.898324 0.262745
O O3 0.641526 0.839353 0.060511
O O4 0.633297 0.205704 0.150414
O O5 0.858474 0.839353 0.147491
O O6 0.800753 0.898324 0.945258
O O7 0.000000 0.946272 0.000199
O O8 0.866703 0.205705 0.057588
O O9 0.719130 0.451842 0.719441
O O10 0.864531 0.314802 0.852404
O O11 0.780870 0.451842 0.488561
O O12 0.000000 0.527444 0.493069
O O13 0.364530 0.314802 0.355598
O O14 0.500000 0.472556 0.214932
#
# Coordination Sequence:
#
# PCOD9338485 Si02
#       6
#     4   4   4   4   4   4
#     4  10  21  37  59  88 121 156 199 252 305 360
#     4  10  21  37  59  88 121 156 199 252 305 360
#     4  10  21  37  61  90 120 159 206 250 298 361
#     4  10  21  39  62  88 122 163 204 250 305 362
#     4  10  21  37  61  90 120 159 206 250 298 361
#     4  10  21  39  62  88 122 163 204 250 305 362
#
# _framework density 23.373486
#
# number of rings (size 3 to 8) (size 9 to 14) (size 15 to 20)
#    0.000    2.000    0.000    3.000    0.000    5.333 
#    0.000    0.000    0.000   44.000    0.000    0.000 
#    0.000    0.000    0.000    0.000    0.000    0.000 
#
# Total GULP energy -133814.339693 kJ/mol
# GULP energy per Si atom -5575.597487 kJ/mol
# Density = 2.332029 g / cm^3
# Si number density = 23.373486 Si / 1000 Ang^3
#
#
#
# Elastic Constant Matrix: (Units=GPa)
#
#
# Indices 1 2 3 4 5 6 
#
# 1 99.2080 9.1215 24.1327 0.0000 0.0000 0.0000
# 2 9.1215 105.7533 21.4468 0.0000 0.0000 0.0000
# 3 24.1327 21.4468 84.4104 0.0000 0.0000 0.0000
# 4 0.0000 0.0000 0.0000 34.3638 0.0000 0.0000
# 5 0.0000 0.0000 0.0000 0.0000 16.4254 0.0000
# 6 0.0000 0.0000 0.0000 0.0000 0.0000 33.3080
#
#
#
# Elastic Compliance Matrix: (Units=1/GPa)
#
#
# Indices 1 2 3 4 5 6 
#
# 1 0.010844 -0.000323 -0.003018 0.000000 0.000000 0.000000
# 2 -0.000323 0.009979 -0.002443 0.000000 0.000000 0.000000
# 3 -0.003018 -0.002443 0.013330 0.000000 0.000000 0.000000
# 4 0.000000 0.000000 0.000000 0.029100 0.000000 0.000000
# 5 0.000000 0.000000 0.000000 0.000000 0.060881 0.000000
# 6 0.000000 0.000000 0.000000 0.000000 0.000000 0.030023
#
#
# Mechanical properties :
#
#
# Convention : Reuss Voigt Hill
#
# Bulk Modulus (GPa) = 44.27780 44.30820 44.29300
# Shear Modulus (GPa) = 28.85920 32.46416 30.66168
#
# Velocity S-wave (km/s) = 3.51764 3.73088 3.62583
# Velocity P-wave (km/s) = 5.95677 6.12838 6.04318
#
# Compressibility (1/GPa) = 0.02258468
#
# Stress axis : x y z
#
# Youngs Moduli (GPa) = 92.21942 100.20727 75.01608
#
# Poissons Ratio (x) = 0.03239 0.22640
# Poissons Ratio (y) = 0.02981 0.18327
# Poissons Ratio (z) = 0.27832 0.24482
#
# Static dielectric constant tensor:
#      x y z
#    x 1.806910 0.000000 0.000000 
#    y 0.000000 1.980700 0.000000 
#    z 0.000000 0.000000 1.921520 
# 
# From -- ./inp_files/4630.got.cif
#   From: 2010.05.17/outbox.cif.g08.bks.cpg/sg26_3_cif.got.tgz:4630.got - 2010.06.04 01:07:29.
