data_PCOD9338649
_publ_section_title
;
Structure prediction by ZEFSAII (Michael W. Deem and Ramdas Pophale) SiO2 
 PCOD9338649
Probable space group: P M C 21
;
_chemical_formula_sum "Si O2"
_cell_formula_units_Z 22
_cell_length_a 15.823370
_cell_length_b 7.413369
_cell_length_c 7.271097
_cell_angle_alpha 90.000000
_cell_angle_beta 90.000000
_cell_angle_gamma 90.000000
_cell_volume 852.932257
_symmetry_space_group_name_H-M "P M C 21"
_symmetry_group_IT_number 26
_symmetry_cell_setting 'orthorhombic'
loop_
_space_group_symop_operation_xyz
x,y,z
-x,-y,1/2+z
-x,y,z
x,-y,1/2+z
loop_
_atom_site_type_symbol
_atom_site_label
_atom_site_fract_x
_atom_site_fract_y
_atom_site_fract_z
Si Si1 0.631536 0.795833 0.807060
Si Si2 0.181351 0.284959 0.307261
Si Si3 0.500000 0.349906 0.589281
Si Si4 0.631536 0.204166 0.871502
Si Si5 0.818649 0.284957 0.871300
Si Si6 0.000000 0.282787 0.869977
Si Si7 0.000000 0.282788 0.308585
O O1 0.729177 0.789193 0.871710
O O2 0.625956 0.753114 0.589281
O O3 0.601140 0.999999 0.839282
O O4 0.573514 0.672038 0.930063
O O5 0.183992 0.500001 0.339280
O O6 0.090767 0.217294 0.381491
O O7 0.180042 0.252770 0.089281
O O8 0.573514 0.327960 0.748499
O O9 0.729177 0.210805 0.806852
O O10 0.909233 0.217292 0.797071
O O11 0.000000 0.499999 0.839281
O O12 0.000000 0.253840 0.089281
#
# Coordination Sequence:
#
# PCOD9338649 Si02
#       7
#     4   4   2   4   4   2   2
#     4  11  23  38  60  86 110 147 192 235 281 334
#     4   9  19  34  58  84 117 146 184 227 278 334
#     4  12  24  40  64  78 112 146 198 232 292 328
#     4  11  23  38  60  86 110 147 192 235 281 334
#     4   9  19  34  58  84 117 146 184 227 278 334
#     4   8  14  30  53  82 110 149 181 217 267 333
#     4   8  14  30  53  82 110 149 181 217 267 333
#
# _framework density 25.793372000000002
#
# number of rings (size 3 to 8) (size 9 to 14) (size 15 to 20)
#    0.000    2.182    1.818    1.091    2.545    0.000 
#    0.000    1.818    0.000    0.000    0.000    0.000 
#    0.000    0.000    0.000    0.000    0.000    0.000 
#
# Total GULP energy -122573.049556 kJ/mol
# GULP energy per Si atom -5571.502253 kJ/mol
# Density = 2.573466 g / cm^3
# Si number density = 25.793372 Si / 1000 Ang^3
#
#
#
# Elastic Constant Matrix: (Units=GPa)
#
#
# Indices 1 2 3 4 5 6 
#
# 1 276.4997 21.9495 70.7458 0.0000 0.0000 0.0000
# 2 21.9495 87.9285 10.6599 0.0000 0.0000 0.0000
# 3 70.7458 10.6599 185.1404 0.0000 0.0000 0.0000
# 4 0.0000 0.0000 0.0000 11.5443 0.0000 0.0000
# 5 0.0000 0.0000 0.0000 0.0000 42.8437 0.0000
# 6 0.0000 0.0000 0.0000 0.0000 0.0000 -66.2560
#
#
#
# Elastic Compliance Matrix: (Units=1/GPa)
#
#
# Indices 1 2 3 4 5 6 
#
# 1 0.004068 -0.000833 -0.001507 0.000000 0.000000 0.000000
# 2 -0.000833 0.011623 -0.000351 0.000000 0.000000 0.000000
# 3 -0.001507 -0.000351 0.005997 0.000000 0.000000 0.000000
# 4 0.000000 0.000000 0.000000 0.086623 0.000000 0.000000
# 5 0.000000 0.000000 0.000000 0.000000 0.023341 0.000000
# 6 0.000000 0.000000 0.000000 0.000000 0.000000 -0.015093
#
#
# Mechanical properties :
#
#
# Convention : Reuss Voigt Hill
#
# Bulk Modulus (GPa) = 61.32014 84.03100 72.67557
# Shear Modulus (GPa) = 39.25378 27.37396 33.31387
#
# Velocity S-wave (km/s) = 3.90533 3.26126 3.59774
# Velocity P-wave (km/s) = 6.64535 6.84327 6.74504
#
# Compressibility (1/GPa) = 0.01630786
#
# Stress axis : x y z
#
# Youngs Moduli (GPa) = 245.80653 86.03374 166.74408
#
# Poissons Ratio (x) = 0.07166 0.25122
# Poissons Ratio (y) = 0.20473 0.05852
# Poissons Ratio (z) = 0.37033 0.03020
#
# Static dielectric constant tensor:
#      x y z
#    x 2.049610 0.000000 0.000000 
#    y 0.000000 2.024100 0.000000 
#    z 0.000000 0.000000 1.953140 
# 
# From -- ./inp_files/2092.got.cif
#   From: 2010.05.17/outbox.cif.g08.bks.cpg/sg26_2_cif.got.tgz:2092.got - 2010.06.04 01:07:29.
