data_PCOD9338736
_publ_section_title
;
Structure prediction by ZEFSAII (Michael W. Deem and Ramdas Pophale) SiO2 
 PCOD9338736
Probable space group: P C C 2
;
_chemical_formula_sum "Si O2"
_cell_formula_units_Z 32
_cell_length_a 6.862166
_cell_length_b 38.151346
_cell_length_c 5.256826
_cell_angle_alpha 90.000000
_cell_angle_beta 90.000000
_cell_angle_gamma 90.000000
_cell_volume 1376.241617
_symmetry_space_group_name_H-M "P C C 2"
_symmetry_group_IT_number 27
_symmetry_cell_setting 'orthorhombic'
loop_
_space_group_symop_operation_xyz
x,y,z
-x,-y,z
-x,y,1/2+z
x,-y,1/2+z
loop_
_atom_site_type_symbol
_atom_site_label
_atom_site_fract_x
_atom_site_fract_y
_atom_site_fract_z
Si Si1 0.368780 0.913308 0.701030
Si Si2 0.369800 0.837224 0.786394
Si Si3 0.869887 0.413591 0.215621
Si Si4 0.132640 0.336014 0.781666
Si Si5 0.737436 0.237072 0.630143
Si Si6 0.282602 0.514331 0.367973
Si Si7 0.294922 0.265251 0.631492
Si Si8 0.782334 0.014274 0.852126
O O1 0.465093 0.915023 0.421872
O O2 0.273223 0.875072 0.740932
O O3 0.231300 0.946350 0.751715
O O4 0.540378 0.835975 0.569739
O O5 0.249032 0.802374 0.730234
O O6 0.779687 0.374960 0.251654
O O7 0.729749 0.446216 0.268634
O O8 0.035933 0.415756 0.435659
O O9 0.283661 0.304578 0.735646
O O10 0.971002 0.333317 0.556111
O O11 0.509429 0.248881 0.593265
O O12 0.809840 0.241602 0.344295
O O13 0.801199 0.262878 0.854595
O O14 0.500000 0.500000 0.409777
O O15 0.194081 0.489695 0.148413
O O16 0.694051 0.989528 0.632961
O O17 0.000000 0.000000 0.893897
#
# Coordination Sequence:
#
# PCOD9338736 Si02
#       8
#     4   4   4   4   4   4   4   4
#     4  10  21  32  53  85 110 134 180 233 277 315
#     4  10  16  30  48  77 112 135 168 219 276 314
#     4  10  21  37  58  79 106 144 192 234 272 327
#     4  10  21  37  53  77 107 146 186 225 265 308
#     4  10  17  30  50  81 104 134 171 214 273 320
#     4  10  21  37  55  82 114 144 180 224 290 334
#     4  10  18  30  52  78 105 134 176 218 263 320
#     4  10  21  37  55  77 106 147 183 214 276 335
#
# _framework density 23.251732000000001
#
# number of rings (size 3 to 8) (size 9 to 14) (size 15 to 20)
#    0.000    2.000    2.500    2.250    0.000    3.000 
#    0.000    5.000    0.000    0.000   19.500    0.000 
#    0.000    0.000    0.000    0.000    0.000    0.000 
#
# Total GULP energy -178592.561516 kJ/mol
# GULP energy per Si atom -5581.017547 kJ/mol
# Density = 2.319881 g / cm^3
# Si number density = 23.251732 Si / 1000 Ang^3
#
#
#
# Elastic Constant Matrix: (Units=GPa)
#
#
# Indices 1 2 3 4 5 6 
#
# 1 56.1296 1.3709 -25.4390 0.0000 0.0000 0.0000
# 2 1.3709 172.1305 -15.2072 0.0000 0.0000 0.0000
# 3 -25.4390 -15.2072 147.3048 0.0000 0.0000 0.0000
# 4 0.0000 0.0000 0.0000 38.4796 0.0000 0.0000
# 5 0.0000 0.0000 0.0000 0.0000 0.7940 0.0000
# 6 0.0000 0.0000 0.0000 0.0000 0.0000 28.5285
#
#
#
# Elastic Compliance Matrix: (Units=1/GPa)
#
#
# Indices 1 2 3 4 5 6 
#
# 1 0.019332 0.000142 0.003353 0.000000 0.000000 0.000000
# 2 0.000142 0.005864 0.000630 0.000000 0.000000 0.000000
# 3 0.003353 0.000630 0.007433 0.000000 0.000000 0.000000
# 4 0.000000 0.000000 0.000000 0.025988 0.000000 0.000000
# 5 0.000000 0.000000 0.000000 0.000000 1.259411 0.000000
# 6 0.000000 0.000000 0.000000 0.000000 0.000000 0.035053
#
#
# Mechanical properties :
#
#
# Convention : Reuss Voigt Hill
#
# Bulk Modulus (GPa) = 24.46179 33.00161 28.73170
# Shear Modulus (GPa) = 3.68065 41.21642 22.44853
#
# Velocity S-wave (km/s) = 1.25952 4.21481 3.11055
# Velocity P-wave (km/s) = 3.55787 6.15713 5.02835
#
# Compressibility (1/GPa) = 0.04088009
#
# Stress axis : x y z
#
# Youngs Moduli (GPa) = 51.72717 170.53011 134.53916
#
# Poissons Ratio (x) = -0.02426 -0.45115
# Poissons Ratio (y) = -0.00736 -0.08475
# Poissons Ratio (z) = -0.17346 -0.10743
#
# Static dielectric constant tensor:
#      x y z
#    x 2.000210 0.000000 0.000000 
#    y 0.000000 1.881490 0.000000 
#    z 0.000000 0.000000 1.963860 
# 
# From -- ./inp_files/248.got.cif
#   From: 2010.05.17/outbox.cif.g08.bks.cpg/sg27_1_cif.got.tgz:248.got - 2010.06.04 01:11:05.
