data_PCOD9338566
_publ_section_title
;
Structure prediction by ZEFSAII (Michael W. Deem and Ramdas Pophale) SiO2 
 PCOD9338566
Probable space group: P M C 21
;
_chemical_formula_sum "Si O2"
_cell_formula_units_Z 24
_cell_length_a 16.933665
_cell_length_b 5.123675
_cell_length_c 9.462122
_cell_angle_alpha 90.000000
_cell_angle_beta 90.000000
_cell_angle_gamma 90.000000
_cell_volume 820.958269
_symmetry_space_group_name_H-M "P M C 21"
_symmetry_group_IT_number 26
_symmetry_cell_setting 'orthorhombic'
loop_
_space_group_symop_operation_xyz
x,y,z
-x,-y,1/2+z
-x,y,z
x,-y,1/2+z
loop_
_atom_site_type_symbol
_atom_site_label
_atom_site_fract_x
_atom_site_fract_y
_atom_site_fract_z
Si Si1 0.172816 0.418813 0.841410
Si Si2 0.337870 0.571232 0.964433
Si Si3 0.500000 0.052133 0.662994
Si Si4 0.500000 0.446538 0.967764
Si Si5 0.831468 0.183844 0.122166
Si Si6 0.000000 0.371163 0.853236
Si Si7 0.665248 0.934514 0.649829
Si Si8 0.000000 0.964842 0.102993
O O1 0.256904 0.541826 0.883167
O O2 0.170716 0.516464 0.678182
O O3 0.083077 0.509980 0.886813
O O4 0.176747 0.175983 0.952362
O O5 0.419026 0.498601 0.886471
O O6 0.336999 0.357952 0.090030
O O7 0.342485 0.859258 0.023800
O O8 0.500000 0.837261 0.536993
O O9 0.585051 0.996559 0.735347
O O10 0.500000 0.337424 0.593068
O O11 0.915518 0.065988 0.160690
O O12 0.757306 0.030283 0.191838
O O13 0.000000 0.314979 0.683984
O O14 0.000000 0.100486 0.946277
#
# Coordination Sequence:
#
# PCOD9338566 Si02
#       8
#     4   4   2   2   4   2   4   2
#     4  10  22  40  61  89 128 172 220 272 331 395
#     4   9  18  34  57  88 123 164 210 260 316 377
#     4   8  14  28  53  82 118 160 206 256 312 372
#     4   8  14  28  53  82 118 160 206 256 310 372
#     4  10  22  39  60  92 126 170 219 271 329 393
#     4  10  23  42  64  94 131 172 222 276 334 398
#     4   9  18  34  57  88 123 164 210 261 316 378
#     4  10  23  40  62  94 127 168 220 272 332 396
#
# _framework density 29.23413
#
# number of rings (size 3 to 8) (size 9 to 14) (size 15 to 20)
#    0.000    2.667    0.000    0.500    0.000    8.000 
#    0.000    1.667    0.000    0.000    0.000   31.500 
#    0.000    0.000    0.000    0.000    0.000    0.000 
#
# Total GULP energy -133772.321947 kJ/mol
# GULP energy per Si atom -5573.846748 kJ/mol
# Density = 2.916759 g / cm^3
# Si number density = 29.234130 Si / 1000 Ang^3
#
#
#
# Elastic Constant Matrix: (Units=GPa)
#
#
# Indices 1 2 3 4 5 6 
#
# 1 325.2778 29.6757 59.3822 0.0000 0.0000 0.0000
# 2 29.6757 116.5852 44.6961 0.0000 0.0000 0.0000
# 3 59.3822 44.6961 121.6168 0.0000 0.0000 0.0000
# 4 0.0000 0.0000 0.0000 51.7748 0.0000 0.0000
# 5 0.0000 0.0000 0.0000 0.0000 -64.5917 0.0000
# 6 0.0000 0.0000 0.0000 0.0000 0.0000 41.0936
#
#
#
# Elastic Compliance Matrix: (Units=1/GPa)
#
#
# Indices 1 2 3 4 5 6 
#
# 1 0.003382 -0.000265 -0.001554 0.000000 0.000000 0.000000
# 2 -0.000265 0.010005 -0.003548 0.000000 0.000000 0.000000
# 3 -0.001554 -0.003548 0.010285 0.000000 0.000000 0.000000
# 4 0.000000 0.000000 0.000000 0.019314 0.000000 0.000000
# 5 0.000000 0.000000 0.000000 0.000000 -0.015482 0.000000
# 6 0.000000 0.000000 0.000000 0.000000 0.000000 0.024335
#
#
# Mechanical properties :
#
#
# Convention : Reuss Voigt Hill
#
# Bulk Modulus (GPa) = 77.28614 92.33198 84.80906
# Shear Modulus (GPa) = 74.75441 34.30373 54.52907
#
# Velocity S-wave (km/s) = 5.06226 3.42923 4.32354
# Velocity P-wave (km/s) = 7.78864 6.87980 7.34829
#
# Compressibility (1/GPa) = 0.01293893
#
# Stress axis : x y z
#
# Youngs Moduli (GPa) = 295.66751 99.95063 97.22817
#
# Poissons Ratio (x) = 0.02650 0.15109
# Poissons Ratio (y) = 0.07839 0.34492
# Poissons Ratio (z) = 0.45946 0.35458
#
# Static dielectric constant tensor:
#      x y z
#    x 2.313340 0.000000 0.000000 
#    y 0.000000 2.295080 0.000000 
#    z 0.000000 0.000000 2.226400 
# 
# From -- ./inp_files/3674.got.cif
#   From: 2010.05.17/outbox.cif.g08.bks.cpg/sg26_2_cif.got.tgz:3674.got - 2010.06.04 01:07:29.
