data_PCOD9338643
_publ_section_title
;
Structure prediction by ZEFSAII (Michael W. Deem and Ramdas Pophale) SiO2 
 PCOD9338643
Probable space group: P M C 21
;
_chemical_formula_sum "Si O2"
_cell_formula_units_Z 16
_cell_length_a 13.416254
_cell_length_b 5.049516
_cell_length_c 10.363056
_cell_angle_alpha 90.000000
_cell_angle_beta 90.000000
_cell_angle_gamma 90.000000
_cell_volume 702.051335
_symmetry_space_group_name_H-M "P M C 21"
_symmetry_group_IT_number 26
_symmetry_cell_setting 'orthorhombic'
loop_
_space_group_symop_operation_xyz
x,y,z
-x,-y,1/2+z
-x,y,z
x,-y,1/2+z
loop_
_atom_site_type_symbol
_atom_site_label
_atom_site_fract_x
_atom_site_fract_y
_atom_site_fract_z
Si Si1 0.383400 0.621691 0.466460
Si Si2 0.116089 0.493425 0.522671
Si Si3 0.717899 0.616678 0.205348
Si Si4 0.782050 0.983627 0.401323
O O1 0.500000 0.667063 0.456009
O O2 0.355856 0.438994 0.587204
O O3 0.338267 0.505825 0.332451
O O4 0.318736 0.892280 0.476644
O O5 0.178621 0.507769 0.655514
O O6 0.138784 0.757245 0.442595
O O7 0.000000 0.450837 0.542800
O O8 0.167734 0.252250 0.445350
O O9 0.749689 0.911037 0.254729
#
# Coordination Sequence:
#
# PCOD9338643 Si02
#       4
#     4   4   4   4
#     4   9  18  40  70 100 140 182 224 287 355 413
#     4  11  22  42  67  96 137 183 226 286 350 405
#     4   9  21  40  68 102 142 171 242 284 342 428
#     4   9  23  40  65  98 137 172 232 283 331 424
#
# _framework density 22.790357
#
# number of rings (size 3 to 8) (size 9 to 14) (size 15 to 20)
#    1.500    1.000    0.000    1.500    0.000    6.000 
#    0.000    6.250    0.000    0.000    0.000    0.000 
#    0.000    0.000    0.000    0.000    0.000    0.000 
#
# Total GULP energy -89135.411336 kJ/mol
# GULP energy per Si atom -5570.963208 kJ/mol
# Density = 2.273848 g / cm^3
# Si number density = 22.790357 Si / 1000 Ang^3
#
#
#
# Elastic Constant Matrix: (Units=GPa)
#
#
# Indices 1 2 3 4 5 6 
#
# 1 221.3876 22.2046 48.0735 0.0000 0.0000 0.0000
# 2 22.2046 96.9338 33.8921 0.0000 0.0000 0.0000
# 3 48.0735 33.8921 158.6802 0.0000 0.0000 0.0000
# 4 0.0000 0.0000 0.0000 29.6874 0.0000 0.0000
# 5 0.0000 0.0000 0.0000 0.0000 22.5752 0.0000
# 6 0.0000 0.0000 0.0000 0.0000 0.0000 17.3434
#
#
#
# Elastic Compliance Matrix: (Units=1/GPa)
#
#
# Indices 1 2 3 4 5 6 
#
# 1 0.004872 -0.000648 -0.001338 0.000000 0.000000 0.000000
# 2 -0.000648 0.011235 -0.002203 0.000000 0.000000 0.000000
# 3 -0.001338 -0.002203 0.007178 0.000000 0.000000 0.000000
# 4 0.000000 0.000000 0.000000 0.033684 0.000000 0.000000
# 5 0.000000 0.000000 0.000000 0.000000 0.044296 0.000000
# 6 0.000000 0.000000 0.000000 0.000000 0.000000 0.057659
#
#
# Mechanical properties :
#
#
# Convention : Reuss Voigt Hill
#
# Bulk Modulus (GPa) = 67.08344 76.14913 71.61628
# Shear Modulus (GPa) = 29.02378 38.77663 33.90020
#
# Velocity S-wave (km/s) = 3.57250 4.12934 3.86097
# Velocity P-wave (km/s) = 6.82026 7.49804 7.16717
#
# Compressibility (1/GPa) = 0.01490681
#
# Stress axis : x y z
#
# Youngs Moduli (GPa) = 205.23475 89.00599 139.31796
#
# Poissons Ratio (x) = 0.05771 0.18636
# Poissons Ratio (y) = 0.13308 0.30695
# Poissons Ratio (z) = 0.27453 0.19610
#
# Static dielectric constant tensor:
#      x y z
#    x 1.792310 0.000000 0.000000 
#    y 0.000000 1.945620 0.000000 
#    z 0.000000 0.000000 1.952770 
# 
# From -- ./inp_files/3395.got.cif
#   From: 2010.05.17/outbox.cif.g08.bks.cpg/sg26_2_cif.got.tgz:3395.got - 2010.06.04 01:07:29.
