data_PCOD9338561
_publ_section_title
;
Structure prediction by ZEFSAII (Michael W. Deem and Ramdas Pophale) SiO2 
 PCOD9338561
Probable space group: P M C 21
;
_chemical_formula_sum "Si O2"
_cell_formula_units_Z 20
_cell_length_a 7.880215
_cell_length_b 13.570633
_cell_length_c 8.019348
_cell_angle_alpha 90.000000
_cell_angle_beta 90.000000
_cell_angle_gamma 90.000000
_cell_volume 857.585111
_symmetry_space_group_name_H-M "P M C 21"
_symmetry_group_IT_number 26
_symmetry_cell_setting 'orthorhombic'
loop_
_space_group_symop_operation_xyz
x,y,z
-x,-y,1/2+z
-x,y,z
x,-y,1/2+z
loop_
_atom_site_type_symbol
_atom_site_label
_atom_site_fract_x
_atom_site_fract_y
_atom_site_fract_z
Si Si1 0.815560 0.845283 0.328130
Si Si2 0.302066 0.274844 0.136058
Si Si3 0.500000 0.958795 0.199390
Si Si4 0.500000 0.842453 0.854098
Si Si5 0.701779 0.469810 0.984900
Si Si6 0.298529 0.654952 0.146077
O O1 0.795352 0.795534 0.509717
O O2 0.666267 0.921098 0.294467
O O3 0.792580 0.755113 0.197716
O O4 0.000000 0.890857 0.310347
O O5 0.500000 0.279558 0.071015
O O6 0.336526 0.226772 0.316523
O O7 0.237703 0.385944 0.115106
O O8 0.500000 0.076359 0.205684
O O9 0.500000 0.905024 0.020834
O O10 0.500000 0.484792 0.014536
O O11 0.770160 0.580021 0.006407
O O12 0.718603 0.416463 0.808482
O O13 0.500000 0.679463 0.125713
#
# Coordination Sequence:
#
# PCOD9338561 Si02
#       6
#     4   4   2   2   4   4
#     4  11  21  37  61  86 121 159 197 241 289 346
#     4   8  16  37  59  89 110 149 197 234 294 345
#     4  12  22  42  61  92 115 150 191 240 300 354
#     4  10  22  38  71  84 119 148 185 248 298 356
#     4   8  14  25  49  76 112 143 189 232 273 336
#     4   9  16  30  49  80 115 153 195 237 282 339
#
# _framework density 23.321299
#
# number of rings (size 3 to 8) (size 9 to 14) (size 15 to 20)
#    0.600    2.000    2.000    2.400    0.000    1.600 
#    0.000    9.000    0.000    0.000    0.000    0.000 
#    0.000    0.000    0.000    0.000    0.000    0.000 
#
# Total GULP energy -111573.483668 kJ/mol
# GULP energy per Si atom -5578.674183 kJ/mol
# Density = 2.326822 g / cm^3
# Si number density = 23.321299 Si / 1000 Ang^3
#
#
#
# Elastic Constant Matrix: (Units=GPa)
#
#
# Indices 1 2 3 4 5 6 
#
# 1 91.4439 12.8874 3.9297 0.0000 0.0000 0.0000
# 2 12.8874 93.7268 -3.4314 0.0000 0.0000 0.0000
# 3 3.9297 -3.4314 69.6657 0.0000 0.0000 0.0000
# 4 0.0000 0.0000 0.0000 39.7494 0.0000 0.0000
# 5 0.0000 0.0000 0.0000 0.0000 0.8290 0.0000
# 6 0.0000 0.0000 0.0000 0.0000 0.0000 -13.1178
#
#
#
# Elastic Compliance Matrix: (Units=1/GPa)
#
#
# Indices 1 2 3 4 5 6 
#
# 1 0.011187 -0.001564 -0.000708 0.000000 0.000000 0.000000
# 2 -0.001564 0.010907 0.000625 0.000000 0.000000 0.000000
# 3 -0.000708 0.000625 0.014425 0.000000 0.000000 0.000000
# 4 0.000000 0.000000 0.000000 0.025158 0.000000 0.000000
# 5 0.000000 0.000000 0.000000 0.000000 1.206284 0.000000
# 6 0.000000 0.000000 0.000000 0.000000 0.000000 -0.076232
#
#
# Mechanical properties :
#
#
# Convention : Reuss Voigt Hill
#
# Bulk Modulus (GPa) = 30.09733 31.28973 30.69353
# Shear Modulus (GPa) = 4.14560 21.58883 12.86722
#
# Velocity S-wave (km/s) = 1.33471 3.04585 2.35146
# Velocity P-wave (km/s) = 3.91265 5.08090 4.53455
#
# Compressibility (1/GPa) = 0.03322554
#
# Stress axis : x y z
#
# Youngs Moduli (GPa) = 89.39335 91.68198 69.32402
#
# Poissons Ratio (x) = 0.14340 0.04908
# Poissons Ratio (y) = 0.13982 -0.04336
# Poissons Ratio (z) = 0.06329 -0.05734
#
# Static dielectric constant tensor:
#      x y z
#    x 1.862020 0.000000 0.000000 
#    y 0.000000 1.874030 0.000000 
#    z 0.000000 0.000000 1.998920 
# 
# From -- ./inp_files/1376.got.cif
#   From: 2010.05.17/outbox.cif.g08.bks.cpg/sg26_1_cif.got.tgz:1376.got - 2010.06.04 01:07:29.
