data_PCOD9338610
_publ_section_title
;
Structure prediction by ZEFSAII (Michael W. Deem and Ramdas Pophale) SiO2 
 PCOD9338610
Probable space group: P M C 21
;
_chemical_formula_sum "Si O2"
_cell_formula_units_Z 20
_cell_length_a 15.200988
_cell_length_b 5.315308
_cell_length_c 9.800611
_cell_angle_alpha 90.000000
_cell_angle_beta 90.000000
_cell_angle_gamma 90.000000
_cell_volume 791.869112
_symmetry_space_group_name_H-M "P M C 21"
_symmetry_group_IT_number 26
_symmetry_cell_setting 'orthorhombic'
loop_
_space_group_symop_operation_xyz
x,y,z
-x,-y,1/2+z
-x,y,z
x,-y,1/2+z
loop_
_atom_site_type_symbol
_atom_site_label
_atom_site_fract_x
_atom_site_fract_y
_atom_site_fract_z
Si Si1 0.600509 0.471523 0.814050
Si Si2 0.598612 0.026021 0.498193
Si Si3 0.843702 0.986497 0.429979
Si Si4 0.000000 0.317505 0.537750
Si Si5 0.000000 0.287774 0.812874
Si Si6 0.735556 0.203325 0.178429
O O1 0.500000 0.462669 0.756736
O O2 0.614643 0.215194 0.898953
O O3 0.677487 0.547452 0.707868
O O4 0.602123 0.712172 0.917095
O O5 0.500000 0.993949 0.551991
O O6 0.665346 0.000497 0.622970
O O7 0.778724 0.129489 0.324618
O O8 0.911656 0.159946 0.513915
O O9 0.800680 0.804139 0.545562
O O10 0.910471 0.861671 0.323004
O O11 0.000000 0.537502 0.436884
O O12 0.000000 0.451592 0.680964
#
# Coordination Sequence:
#
# PCOD9338610 Si02
#       6
#     4   4   4   2   2   4
#     4  10  23  45  72 105 150 204 253 302 368 443
#     4  10  23  45  72 105 150 204 253 302 368 443
#     4  11  26  48  73 104 148 188 247 314 386 465
#     4  11  26  48  75 103 141 191 244 306 386 473
#     4  11  26  48  75 103 141 191 244 306 386 473
#     4  12  23  47  72 110 148 196 246 323 377 444
#
# _framework density 25.256699999999999
#
# number of rings (size 3 to 8) (size 9 to 14) (size 15 to 20)
#    0.000    1.200    4.000    0.600    2.800    3.200 
#    7.200    6.000    0.000    0.000    0.000    0.000 
#    0.000    0.000    0.000    0.000    0.000    0.000 
#
# Total GULP energy -111763.915972 kJ/mol
# GULP energy per Si atom -5588.195799 kJ/mol
# Density = 2.519921 g / cm^3
# Si number density = 25.256700 Si / 1000 Ang^3
#
#
#
# Elastic Constant Matrix: (Units=GPa)
#
#
# Indices 1 2 3 4 5 6 
#
# 1 154.7179 25.4676 54.8139 0.0000 0.0000 0.0000
# 2 25.4676 123.3093 53.2667 0.0000 0.0000 0.0000
# 3 54.8139 53.2667 195.1855 0.0000 0.0000 0.0000
# 4 0.0000 0.0000 0.0000 45.2928 0.0000 0.0000
# 5 0.0000 0.0000 0.0000 0.0000 46.8135 0.0000
# 6 0.0000 0.0000 0.0000 0.0000 0.0000 -2.3250
#
#
#
# Elastic Compliance Matrix: (Units=1/GPa)
#
#
# Indices 1 2 3 4 5 6 
#
# 1 0.007230 -0.000699 -0.001840 0.000000 0.000000 0.000000
# 2 -0.000699 0.009261 -0.002331 0.000000 0.000000 0.000000
# 3 -0.001840 -0.002331 0.006276 0.000000 0.000000 0.000000
# 4 0.000000 0.000000 0.000000 0.022079 0.000000 0.000000
# 5 0.000000 0.000000 0.000000 0.000000 0.021361 0.000000
# 6 0.000000 0.000000 0.000000 0.000000 0.000000 -0.430102
#
#
# Mechanical properties :
#
#
# Convention : Reuss Voigt Hill
#
# Bulk Modulus (GPa) = 76.75601 82.25658 79.50629
# Shear Modulus (GPa) = -14.29336 40.60055 13.15360
#
# Velocity S-wave (km/s) = -2.38150 4.01373 2.28457
# Velocity P-wave (km/s) = 4.78480 7.35656 6.20537
#
# Compressibility (1/GPa) = 0.01302830
#
# Stress axis : x y z
#
# Youngs Moduli (GPa) = 138.30922 107.97996 159.33215
#
# Poissons Ratio (x) = 0.07543 0.29314
# Poissons Ratio (y) = 0.09661 0.37143
# Poissons Ratio (z) = 0.25446 0.25172
#
# Static dielectric constant tensor:
#      x y z
#    x 3.554260 0.000000 0.000000 
#    y 0.000000 1.994280 0.000000 
#    z 0.000000 0.000000 1.997770 
# 
# From -- ./inp_files/3433.got.cif
#   From: 2010.05.17/outbox.cif.g08.bks.cpg/sg26_2_cif.got.tgz:3433.got - 2010.06.04 01:07:29.
