data_PCOD9338293
_publ_section_title
;
Structure prediction by ZEFSAII (Michael W. Deem and Ramdas Pophale) SiO2 
 PCOD9338293
Probable space group: P M C 21
;
_chemical_formula_sum "Si O2"
_cell_formula_units_Z 24
_cell_length_a 12.949669
_cell_length_b 10.913204
_cell_length_c 9.228372
_cell_angle_alpha 90.000000
_cell_angle_beta 90.000000
_cell_angle_gamma 90.000000
_cell_volume 1304.175490
_symmetry_space_group_name_H-M "P M C 21"
_symmetry_group_IT_number 26
_symmetry_cell_setting 'orthorhombic'
loop_
_space_group_symop_operation_xyz
x,y,z
-x,-y,1/2+z
-x,y,z
x,-y,1/2+z
loop_
_atom_site_type_symbol
_atom_site_label
_atom_site_fract_x
_atom_site_fract_y
_atom_site_fract_z
Si Si1 0.378944 0.155104 0.276410
Si Si2 0.717726 0.958772 0.493362
Si Si3 0.120172 0.464771 0.058498
Si Si4 0.113609 0.847923 0.050459
Si Si5 0.797530 0.341511 0.350846
Si Si6 0.115166 0.776373 0.363569
O O1 0.500000 0.179778 0.286324
O O2 0.347657 0.110126 0.115649
O O3 0.310595 0.274601 0.317083
O O4 0.348108 0.043767 0.384949
O O5 0.791871 0.863160 0.411893
O O6 0.798339 0.051823 0.567748
O O7 0.158167 0.412563 0.212139
O O8 0.000000 0.507694 0.067566
O O9 0.194631 0.564659 0.984891
O O10 0.121385 0.349691 0.949214
O O11 0.120498 0.761221 0.190866
O O12 0.000000 0.903406 0.050169
O O13 0.131540 0.772082 0.903821
O O14 0.000000 0.829028 0.393703
#
# Coordination Sequence:
#
# PCOD9338293 Si02
#       6
#     4   4   4   4   4   4
#     4  11  24  42  65  87 116 161 213 260 303 345
#     4  11  20  39  60  88 120 156 201 253 304 360
#     4  11  21  36  59  88 122 162 196 234 298 369
#     4  10  20  34  55  87 126 160 193 238 300 370
#     4  11  23  39  61  87 124 159 205 249 293 355
#     4  10  20  34  56  89 126 160 194 234 296 373
#
# _framework density 18.402432000000001
#
# number of rings (size 3 to 8) (size 9 to 14) (size 15 to 20)
#    0.000    1.333    3.333    3.500    0.000    1.333 
#    0.000    0.833    0.000    0.000    0.000    0.000 
#    0.000    0.000    0.000    0.000    0.000    0.000 
#
# Total GULP energy -133930.978755 kJ/mol
# GULP energy per Si atom -5580.457448 kJ/mol
# Density = 1.836055 g / cm^3
# Si number density = 18.402432 Si / 1000 Ang^3
#
#
#
# Elastic Constant Matrix: (Units=GPa)
#
#
# Indices 1 2 3 4 5 6 
#
# 1 128.3008 43.0629 59.4979 0.0000 0.0000 0.0000
# 2 43.0629 73.3736 43.3918 0.0000 0.0000 0.0000
# 3 59.4979 43.3918 93.2015 0.0000 0.0000 0.0000
# 4 0.0000 0.0000 0.0000 42.5723 0.0000 0.0000
# 5 0.0000 0.0000 0.0000 0.0000 18.9097 0.0000
# 6 0.0000 0.0000 0.0000 0.0000 0.0000 19.3161
#
#
#
# Elastic Compliance Matrix: (Units=1/GPa)
#
#
# Indices 1 2 3 4 5 6 
#
# 1 0.011644 -0.003364 -0.005867 0.000000 0.000000 0.000000
# 2 -0.003364 0.019779 -0.007061 0.000000 0.000000 0.000000
# 3 -0.005867 -0.007061 0.017762 0.000000 0.000000 0.000000
# 4 0.000000 0.000000 0.000000 0.023489 0.000000 0.000000
# 5 0.000000 0.000000 0.000000 0.000000 0.052883 0.000000
# 6 0.000000 0.000000 0.000000 0.000000 0.000000 0.051770
#
#
# Mechanical properties :
#
#
# Convention : Reuss Voigt Hill
#
# Bulk Modulus (GPa) = 60.23739 65.19788 62.71764
# Shear Modulus (GPa) = 23.20765 26.08783 24.64774
#
# Velocity S-wave (km/s) = 3.55508 3.76923 3.66372
# Velocity P-wave (km/s) = 7.04669 7.37893 7.21472
#
# Compressibility (1/GPa) = 0.01660098
#
# Stress axis : x y z
#
# Youngs Moduli (GPa) = 85.88000 50.55868 56.29942
#
# Poissons Ratio (x) = 0.17009 0.33031
# Poissons Ratio (y) = 0.28892 0.39752
# Poissons Ratio (z) = 0.50387 0.35699
#
# Static dielectric constant tensor:
#      x y z
#    x 1.598720 0.000000 0.000000 
#    y 0.000000 1.652590 0.000000 
#    z 0.000000 0.000000 1.653320 
# 
# From -- ./inp_files/1802.got.cif
#   From: 2010.05.17/outbox.cif.g08.bks.cpg/sg26_1_cif.got.tgz:1802.got - 2010.06.04 01:07:29.
