data_PCOD9338907
_publ_section_title
;
Structure prediction by ZEFSAII (Michael W. Deem and Ramdas Pophale) SiO2 
 PCOD9338907
Probable space group: P C C 2
;
_chemical_formula_sum "Si O2"
_cell_formula_units_Z 32
_cell_length_a 38.156723
_cell_length_b 6.974174
_cell_length_c 5.296242
_cell_angle_alpha 90.000000
_cell_angle_beta 90.000000
_cell_angle_gamma 90.000000
_cell_volume 1409.391568
_symmetry_space_group_name_H-M "P C C 2"
_symmetry_group_IT_number 27
_symmetry_cell_setting 'orthorhombic'
loop_
_space_group_symop_operation_xyz
x,y,z
-x,-y,z
-x,y,1/2+z
x,-y,1/2+z
loop_
_atom_site_type_symbol
_atom_site_label
_atom_site_fract_x
_atom_site_fract_y
_atom_site_fract_z
Si Si1 0.485692 0.785465 0.220820
Si Si2 0.121467 0.293733 0.710166
Si Si3 0.093501 0.271902 0.209151
Si Si4 0.336069 0.376302 0.876946
Si Si5 0.268980 0.120100 0.768803
Si Si6 0.013747 0.781600 0.702780
Si Si7 0.192240 0.130028 0.850478
Si Si8 0.413833 0.370249 0.852549
O O1 0.509427 0.697706 0.443325
O O2 0.445898 0.774027 0.313358
O O3 0.500000 0.000000 0.182933
O O4 0.098784 0.193273 0.928019
O O5 0.105062 0.505295 0.675799
O O6 0.161096 0.280878 0.807335
O O7 0.118261 0.202485 0.434322
O O8 0.053664 0.238404 0.287592
O O9 0.334514 0.539176 0.659516
O O10 0.303037 0.243477 0.826101
O O11 0.374654 0.283509 0.843248
O O12 0.231185 0.216895 0.819851
O O13 0.269550 0.048936 0.479445
O O14 0.989771 0.696969 0.923291
O O15 0.000000 0.000000 0.667924
O O16 0.189405 0.973205 0.622892
O O17 0.416690 0.520071 0.619536
#
# Coordination Sequence:
#
# PCOD9338907 Si02
#       8
#     4   4   4   4   4   4   4   4
#     4  10  21  37  53  80 117 148 200 262 311 373
#     4  10  21  40  58  89 116 156 192 236 297 341
#     4  10  21  40  62  85 123 147 195 244 285 356
#     4  10  21  40  61  94 128 165 212 262 317 376
#     4  10  21  40  64  93 129 166 210 255 310 376
#     4  10  21  40  59  86 116 150 192 239 289 348
#     4  10  21  40  61  90 125 160 199 244 293 357
#     4  10  21  37  59  83 118 160 203 252 313 379
#
# _framework density 22.704834999999999
#
# number of rings (size 3 to 8) (size 9 to 14) (size 15 to 20)
#    0.000    2.000    0.000    3.000    0.000    1.500 
#   22.500    7.500    0.000    0.000    0.000    0.000 
#    0.000    0.000    0.000    0.000    0.000    0.000 
#
# Total GULP energy -178611.804169 kJ/mol
# GULP energy per Si atom -5581.618880 kJ/mol
# Density = 2.265316 g / cm^3
# Si number density = 22.704835 Si / 1000 Ang^3
#
#
#
# Elastic Constant Matrix: (Units=GPa)
#
#
# Indices 1 2 3 4 5 6 
#
# 1 163.7471 16.1321 -20.1209 0.0000 0.0000 0.0000
# 2 16.1321 65.0496 -23.9697 0.0000 0.0000 0.0000
# 3 -20.1209 -23.9697 143.5436 0.0000 0.0000 0.0000
# 4 0.0000 0.0000 0.0000 2.1149 0.0000 0.0000
# 5 0.0000 0.0000 0.0000 0.0000 37.5267 0.0000
# 6 0.0000 0.0000 0.0000 0.0000 0.0000 46.9995
#
#
#
# Elastic Compliance Matrix: (Units=1/GPa)
#
#
# Indices 1 2 3 4 5 6 
#
# 1 0.006319 -0.001322 0.000665 0.000000 0.000000 0.000000
# 2 -0.001322 0.016657 0.002596 0.000000 0.000000 0.000000
# 3 0.000665 0.002596 0.007493 0.000000 0.000000 0.000000
# 4 0.000000 0.000000 0.000000 0.472844 0.000000 0.000000
# 5 0.000000 0.000000 0.000000 0.000000 0.026648 0.000000
# 6 0.000000 0.000000 0.000000 0.000000 0.000000 0.021277
#
#
# Mechanical properties :
#
#
# Convention : Reuss Voigt Hill
#
# Bulk Modulus (GPa) = 29.11382 35.15815 32.13599
# Shear Modulus (GPa) = 8.94759 44.01478 26.48119
#
# Velocity S-wave (km/s) = 1.98731 4.40769 3.41885
# Velocity P-wave (km/s) = 4.25634 6.43600 5.45612
#
# Compressibility (1/GPa) = 0.03434795
#
# Stress axis : x y z
#
# Youngs Moduli (GPa) = 158.25449 60.03336 133.45310
#
# Poissons Ratio (x) = 0.07937 -0.08874
# Poissons Ratio (y) = 0.20922 -0.34647
# Poissons Ratio (z) = -0.10524 -0.15586
#
# Static dielectric constant tensor:
#      x y z
#    x 1.843280 0.000000 0.000000 
#    y 0.000000 1.431060 0.000000 
#    z 0.000000 0.000000 1.922670 
# 
# From -- ./inp_files/739.got.cif
#   From: 2010.05.17/outbox.cif.g08.bks.cpg/sg27_1_cif.got.tgz:739.got - 2010.06.04 01:11:05.
