data_PCOD9338843
_publ_section_title
;
Structure prediction by ZEFSAII (Michael W. Deem and Ramdas Pophale) SiO2 
 PCOD9338843
Probable space group: P C C 2
;
_chemical_formula_sum "Si O2"
_cell_formula_units_Z 26
_cell_length_a 8.647678
_cell_length_b 9.144216
_cell_length_c 16.108386
_cell_angle_alpha 90.000000
_cell_angle_beta 90.000000
_cell_angle_gamma 90.000000
_cell_volume 1273.790525
_symmetry_space_group_name_H-M "P C C 2"
_symmetry_group_IT_number 27
_symmetry_cell_setting 'orthorhombic'
loop_
_space_group_symop_operation_xyz
x,y,z
-x,-y,z
-x,y,1/2+z
x,-y,1/2+z
loop_
_atom_site_type_symbol
_atom_site_label
_atom_site_fract_x
_atom_site_fract_y
_atom_site_fract_z
Si Si1 0.319951 0.167442 0.725480
Si Si2 0.343430 0.566325 0.037937
Si Si3 0.176172 0.484661 0.690302
Si Si4 0.634256 0.260932 0.775620
Si Si5 0.184061 0.017988 0.373560
Si Si6 0.337303 0.916250 0.046806
Si Si7 0.500000 0.500000 0.886121
O O1 0.252314 0.331486 0.717833
O O2 0.507438 0.171198 0.723868
O O3 0.269728 0.081047 0.641178
O O4 0.262066 0.100319 0.811893
O O5 0.250551 0.834583 0.830873
O O6 0.353830 0.494601 0.947682
O O7 0.197840 0.521527 0.091171
O O8 0.358301 0.741091 0.031605
O O9 0.270194 0.622695 0.723342
O O10 0.000000 0.500000 0.715779
O O11 0.500000 0.500000 0.580265
O O12 0.523311 0.356696 0.834053
O O13 0.238387 0.020592 0.469661
O O14 0.000000 0.000000 0.369119
O O15 0.500000 0.000000 0.044256
#
# Coordination Sequence:
#
# PCOD9338843 Si02
#       7
#     4   4   4   4   4   4   2
#     4  11  24  43  67  95 125 173 227 269 318 390
#     4   9  20  39  60  89 120 159 216 265 314 382
#     4  11  22  39  64  94 129 166 205 270 336 389
#     4  12  21  41  68  95 124 169 227 269 318 391
#     4  12  26  42  63  96 136 171 209 273 342 396
#     4  11  22  40  64  91 123 166 221 267 317 392
#     4  10  20  36  68  94 120 164 220 284 304 384
#
# _framework density 20.411519999999999
#
# number of rings (size 3 to 8) (size 9 to 14) (size 15 to 20)
#    0.462    0.615    3.077    5.077    0.000    0.615 
#    0.000   10.000    0.000    0.000    0.000    0.000 
#    0.000    0.000    0.000    0.000    0.000    0.000 
#
# Total GULP energy -145002.145115 kJ/mol
# GULP energy per Si atom -5577.005581 kJ/mol
# Density = 2.036506 g / cm^3
# Si number density = 20.411520 Si / 1000 Ang^3
#
#
#
# Elastic Constant Matrix: (Units=GPa)
#
#
# Indices 1 2 3 4 5 6 
#
# 1 121.6868 48.0598 52.0766 0.0000 0.0000 0.0000
# 2 48.0598 75.3931 39.6469 0.0000 0.0000 0.0000
# 3 52.0766 39.6469 116.2925 0.0000 0.0000 0.0000
# 4 0.0000 0.0000 0.0000 44.9659 0.0000 0.0000
# 5 0.0000 0.0000 0.0000 0.0000 13.5829 0.0000
# 6 0.0000 0.0000 0.0000 0.0000 0.0000 23.7964
#
#
#
# Elastic Compliance Matrix: (Units=1/GPa)
#
#
# Indices 1 2 3 4 5 6 
#
# 1 0.011973 -0.005864 -0.003362 0.000000 0.000000 0.000000
# 2 -0.005864 0.019033 -0.003863 0.000000 0.000000 0.000000
# 3 -0.003362 -0.003863 0.011422 0.000000 0.000000 0.000000
# 4 0.000000 0.000000 0.000000 0.022239 0.000000 0.000000
# 5 0.000000 0.000000 0.000000 0.000000 0.073622 0.000000
# 6 0.000000 0.000000 0.000000 0.000000 0.000000 0.042023
#
#
# Mechanical properties :
#
#
# Convention : Reuss Voigt Hill
#
# Bulk Modulus (GPa) = 61.54165 65.88211 63.71188
# Shear Modulus (GPa) = 23.59533 28.04167 25.81850
#
# Velocity S-wave (km/s) = 3.40366 3.71052 3.56040
# Velocity P-wave (km/s) = 6.75740 7.12070 6.94142
#
# Compressibility (1/GPa) = 0.01624916
#
# Stress axis : x y z
#
# Youngs Moduli (GPa) = 83.52354 52.53964 87.55305
#
# Poissons Ratio (x) = 0.30809 0.29438
# Poissons Ratio (y) = 0.48978 0.33822
# Poissons Ratio (z) = 0.28083 0.20296
#
# Static dielectric constant tensor:
#      x y z
#    x 1.672840 0.000000 0.000000 
#    y 0.000000 1.744810 0.000000 
#    z 0.000000 0.000000 1.784900 
# 
# From -- ./inp_files/4332.got.cif
#   From: 2010.05.17/outbox.cif.g08.bks.cpg/sg27_3_cif.got.tgz:4332.got - 2010.06.04 01:11:05.
