data_PCOD9338683
_publ_section_title
;
Structure prediction by ZEFSAII (Michael W. Deem and Ramdas Pophale) SiO2 
 PCOD9338683
Probable space group: P M C 21
;
_chemical_formula_sum "Si O2"
_cell_formula_units_Z 32
_cell_length_a 9.000000
_cell_length_b 12.000000
_cell_length_c 15.000000
_cell_angle_alpha 90.000000
_cell_angle_beta 90.000000
_cell_angle_gamma 90.000000
_cell_volume 1620.000000
_symmetry_space_group_name_H-M "P M C 21"
_symmetry_group_IT_number 26
_symmetry_cell_setting 'orthorhombic'
loop_
_space_group_symop_operation_xyz
x,y,z
-x,-y,1/2+z
-x,y,z
x,-y,1/2+z
loop_
_atom_site_type_symbol
_atom_site_label
_atom_site_fract_x
_atom_site_fract_y
_atom_site_fract_z
Si Si1 0.672401 0.033536 0.877530
Si Si2 0.180435 0.674135 0.036851
Si Si3 0.172910 0.733509 0.612554
Si Si4 0.819149 0.503057 0.677318
Si Si5 0.819473 0.506879 0.879589
Si Si6 0.177815 0.944491 0.712350
Si Si7 0.171660 0.252332 0.906150
Si Si8 0.325086 0.910964 0.062687
O O1 0.500000 0.020525 0.854767
O O2 0.725555 0.159987 0.863058
O O3 0.772739 0.960201 0.812986
O O4 0.693095 0.994713 0.979186
O O5 0.226326 0.609153 0.127314
O O6 0.253340 0.794142 0.035341
O O7 0.000000 0.683664 0.035039
O O8 0.227305 0.596144 0.953404
O O9 0.233039 0.609398 0.620961
O O10 0.239094 0.827467 0.674949
O O11 0.172923 0.771681 0.511315
O O12 0.000000 0.723441 0.639890
O O13 0.772698 0.526769 0.778153
O O14 0.000000 0.497063 0.676949
O O15 0.777140 0.379179 0.897640
O O16 0.000000 0.508426 0.883351
O O17 0.000000 0.947473 0.704481
O O18 0.245248 0.039380 0.649217
O O19 0.000000 0.243779 0.873922
O O20 0.500000 0.898395 0.079696
#
# Coordination Sequence:
#
# PCOD9338683 Si02
#       8
#     4   4   4   4   4   4   4   4
#     4  11  25  42  59  84 121 163 197 240 301 361
#     4  10  20  35  58  86 115 150 197 243 287 346
#     4   9  17  32  56  85 116 145 187 248 297 337
#     4   9  17  31  52  85 120 146 180 236 301 348
#     4   9  18  31  54  86 118 148 184 240 300 343
#     4  11  23  39  64  93 116 149 201 255 296 346
#     4  10  18  35  60  86 114 149 199 250 288 340
#     4  11  25  43  59  81 124 168 199 238 296 361
#
# _framework density 19.753086
#
# number of rings (size 3 to 8) (size 9 to 14) (size 15 to 20)
#    0.000    2.000    2.500    1.125    3.500    1.500 
#    0.000    0.625    0.000    2.250    0.000    0.000 
#    0.000    0.000    0.000    0.000    0.000    0.000 
#
# Total GULP energy -178403.824637 kJ/mol
# GULP energy per Si atom -5575.119520 kJ/mol
# Density = 1.970813 g / cm^3
# Si number density = 19.753086 Si / 1000 Ang^3
#
#
#
# Elastic Constant Matrix: (Units=GPa)
#
#
# Indices 1 2 3 4 5 6 
#
# 1 25.4217 19.7521 13.4821 0.0000 0.0000 0.0000
# 2 19.7521 74.8269 -14.8953 0.0000 0.0000 0.0000
# 3 13.4821 -14.8953 29.7330 0.0000 0.0000 0.0000
# 4 0.0000 0.0000 0.0000 22.7660 0.0000 0.0000
# 5 0.0000 0.0000 0.0000 0.0000 16.6406 0.0000
# 6 0.0000 0.0000 0.0000 0.0000 0.0000 -1.6739
#
#
#
# Elastic Compliance Matrix: (Units=1/GPa)
#
#
# Indices 1 2 3 4 5 6 
#
# 1 0.112627 -0.044315 -0.073270 0.000000 0.000000 0.000000
# 2 -0.044315 0.032281 0.036266 0.000000 0.000000 0.000000
# 3 -0.073270 0.036266 0.085024 0.000000 0.000000 0.000000
# 4 0.000000 0.000000 0.000000 0.043925 0.000000 0.000000
# 5 0.000000 0.000000 0.000000 0.000000 0.060094 0.000000
# 6 0.000000 0.000000 0.000000 0.000000 0.000000 -0.597424
#
#
# Mechanical properties :
#
#
# Convention : Reuss Voigt Hill
#
# Bulk Modulus (GPa) = 14.86009 18.51771 16.68890
# Shear Modulus (GPa) = -63.77317 14.98938 -24.39190
#
# Velocity S-wave (km/s) = -5.68817 2.75769 -3.51784
# Velocity P-wave (km/s) = 5.96667 4.41981 2.83429
#
# Compressibility (1/GPa) = 0.06729436
#
# Stress axis : x y z
#
# Youngs Moduli (GPa) = 8.87890 30.97753 11.76132
#
# Poissons Ratio (x) = 1.37278 0.86175
# Poissons Ratio (y) = 0.39347 -0.42654
# Poissons Ratio (z) = 0.65056 -1.12344
#
# Static dielectric constant tensor:
#      x y z
#    x 1.669550 0.000000 0.000000 
#    y 0.000000 1.706600 0.000000 
#    z 0.000000 0.000000 1.709020 
# 
# From -- ./inp_files/4273.got.cif
#   From: 2010.05.17/outbox.ucp.g08.bks.cvg/sg26_3_cif.got.tgz:4273.got - 2010.06.11 15:23:25.
