data_PCOD9338819
_publ_section_title
;
Structure prediction by ZEFSAII (Michael W. Deem and Ramdas Pophale) SiO2 
 PCOD9338819
Probable space group: P C C 2
;
_chemical_formula_sum "Si O2"
_cell_formula_units_Z 22
_cell_length_a 9.329676
_cell_length_b 12.698582
_cell_length_c 9.320044
_cell_angle_alpha 90.000000
_cell_angle_beta 90.000000
_cell_angle_gamma 90.000000
_cell_volume 1104.179684
_symmetry_space_group_name_H-M "P C C 2"
_symmetry_group_IT_number 27
_symmetry_cell_setting 'orthorhombic'
loop_
_space_group_symop_operation_xyz
x,y,z
-x,-y,z
-x,y,1/2+z
x,-y,1/2+z
loop_
_atom_site_type_symbol
_atom_site_label
_atom_site_fract_x
_atom_site_fract_y
_atom_site_fract_z
Si Si1 0.739471 0.829592 0.671270
Si Si2 0.000000 0.000000 0.950061
Si Si3 0.408280 0.641904 0.308149
Si Si4 0.920815 0.865254 0.198262
Si Si5 0.500000 0.500000 0.056971
Si Si6 0.670548 0.208141 0.846551
Si Si7 0.500000 0.000000 0.753501
O O1 0.695968 0.740778 0.786623
O O2 0.719091 0.785884 0.510912
O O3 0.631784 0.930965 0.682495
O O4 0.909066 0.845986 0.692953
O O5 0.903669 0.066409 0.842956
O O6 0.099408 0.070046 0.052540
O O7 0.406835 0.570800 0.165588
O O8 0.402894 0.570916 0.450394
O O9 0.562467 0.697819 0.315376
O O10 0.798832 0.781969 0.230064
O O11 0.585012 0.096857 0.827924
#
# Coordination Sequence:
#
# PCOD9338819 Si02
#       7
#     4   2   4   4   2   4   2
#     4  11  22  39  57  95 122 168 203 258 298 372
#     4  10  20  34  48  84 104 184 208 240 268 358
#     4  10  22  40  70  92 122 146 210 252 322 364
#     4  11  22  36  58  77 132 162 220 243 308 347
#     4  10  20  42  68  98 112 158 188 268 316 384
#     4  11  22  39  57  95 122 168 203 258 298 372
#     4  10  22  36  60  84 132 162 212 256 296 346
#
# _framework density 19.924294
#
# number of rings (size 3 to 8) (size 9 to 14) (size 15 to 20)
#    0.000    1.455    3.636    2.727    0.000    1.455 
#    3.273    0.000    0.000    6.545    0.000    0.000 
#    0.000    0.000    0.000    0.000    0.000    0.000 
#
# Total GULP energy -122513.324072 kJ/mol
# GULP energy per Si atom -5568.787458 kJ/mol
# Density = 1.987895 g / cm^3
# Si number density = 19.924294 Si / 1000 Ang^3
#
#
#
# Elastic Constant Matrix: (Units=GPa)
#
#
# Indices 1 2 3 4 5 6 
#
# 1 120.5586 24.1669 24.7976 0.0000 0.0000 0.0000
# 2 24.1669 76.7320 25.8122 0.0000 0.0000 0.0000
# 3 24.7976 25.8122 99.0881 0.0000 0.0000 0.0000
# 4 0.0000 0.0000 0.0000 30.9393 0.0000 0.0000
# 5 0.0000 0.0000 0.0000 0.0000 12.9723 0.0000
# 6 0.0000 0.0000 0.0000 0.0000 0.0000 12.9228
#
#
#
# Elastic Compliance Matrix: (Units=1/GPa)
#
#
# Indices 1 2 3 4 5 6 
#
# 1 0.009101 -0.002302 -0.001678 0.000000 0.000000 0.000000
# 2 -0.002302 0.014866 -0.003297 0.000000 0.000000 0.000000
# 3 -0.001678 -0.003297 0.011371 0.000000 0.000000 0.000000
# 4 0.000000 0.000000 0.000000 0.032321 0.000000 0.000000
# 5 0.000000 0.000000 0.000000 0.000000 0.077087 0.000000
# 6 0.000000 0.000000 0.000000 0.000000 0.000000 0.077382
#
#
# Mechanical properties :
#
#
# Convention : Reuss Voigt Hill
#
# Bulk Modulus (GPa) = 48.11108 49.54802 48.82955
# Shear Modulus (GPa) = 20.52452 26.14035 23.33243
#
# Velocity S-wave (km/s) = 3.21304 3.62606 3.42578
# Velocity P-wave (km/s) = 6.16151 6.51561 6.34103
#
# Compressibility (1/GPa) = 0.02078523
#
# Stress axis : x y z
#
# Youngs Moduli (GPa) = 109.87413 67.26601 87.94523
#
# Poissons Ratio (x) = 0.15485 0.14757
# Poissons Ratio (y) = 0.25293 0.28992
# Poissons Ratio (z) = 0.18437 0.22175
#
# Static dielectric constant tensor:
#      x y z
#    x 1.747940 0.000000 0.000000 
#    y 0.000000 1.788970 0.000000 
#    z 0.000000 0.000000 1.739140 
# 
# From -- ./inp_files/1136.got.cif
#   From: 2010.05.17/outbox.cif.g08.bks.cpg/sg27_1_cif.got.tgz:1136.got - 2010.06.04 01:11:05.
