data_PCOD9338296
_publ_section_title
;
Structure prediction by ZEFSAII (Michael W. Deem and Ramdas Pophale) SiO2 
 PCOD9338296
Probable space group: P M C 21
;
_chemical_formula_sum "Si O2"
_cell_formula_units_Z 32
_cell_length_a 9.074942
_cell_length_b 11.606161
_cell_length_c 15.914076
_cell_angle_alpha 90.000000
_cell_angle_beta 90.000000
_cell_angle_gamma 90.000000
_cell_volume 1676.153841
_symmetry_space_group_name_H-M "P M C 21"
_symmetry_group_IT_number 26
_symmetry_cell_setting 'orthorhombic'
loop_
_space_group_symop_operation_xyz
x,y,z
-x,-y,1/2+z
-x,y,z
x,-y,1/2+z
loop_
_atom_site_type_symbol
_atom_site_label
_atom_site_fract_x
_atom_site_fract_y
_atom_site_fract_z
Si Si1 0.175865 0.475061 0.625000
Si Si2 0.166606 0.829920 0.441734
Si Si3 0.177554 0.566898 0.436693
Si Si4 0.322967 0.584220 0.788449
Si Si5 0.324674 0.227565 0.627015
Si Si6 0.330152 0.854691 0.800505
Si Si7 0.330191 0.047990 0.490033
Si Si8 0.833907 0.929045 0.252949
O O1 0.206204 0.521518 0.530973
O O2 0.254582 0.544218 0.699936
O O3 0.237872 0.346144 0.629506
O O4 0.000000 0.477455 0.638094
O O5 0.227203 0.700608 0.434510
O O6 0.161397 0.884357 0.348660
O O7 0.000000 0.819200 0.474252
O O8 0.251552 0.925251 0.495201
O O9 0.254755 0.490460 0.364881
O O10 0.000000 0.563785 0.421866
O O11 0.500000 0.569175 0.788049
O O12 0.291365 0.720252 0.799832
O O13 0.500000 0.248630 0.620730
O O14 0.271947 0.147945 0.549985
O O15 0.282711 0.151845 0.707166
O O16 0.500000 0.866808 0.771031
O O17 0.222587 0.939744 0.750506
O O18 0.324940 0.902147 0.895812
O O19 0.500000 0.030173 0.513186
O O20 0.000000 0.917785 0.218506
#
# Coordination Sequence:
#
# PCOD9338296 Si02
#       8
#     4   4   4   4   4   4   4   4
#     4  11  24  40  59  86 119 156 199 245 294 354
#     4   9  19  36  56  80 110 143 183 229 280 338
#     4  10  22  40  61  85 118 158 197 244 297 350
#     4  11  23  39  62  88 117 157 200 247 299 351
#     4  11  22  37  57  82 113 147 186 234 288 343
#     4   9  19  37  57  80 112 147 186 231 283 341
#     4   9  19  35  56  81 109 142 181 229 279 333
#     4  10  20  34  56  84 112 146 186 231 282 338
#
# _framework density 19.091325999999999
#
# number of rings (size 3 to 8) (size 9 to 14) (size 15 to 20)
#    0.000    2.000    0.000    3.000    0.000    7.000 
#    0.000    5.000    0.000    0.000    0.000    0.000 
#    0.000    0.000    0.000    0.000    0.000    0.000 
#
# Total GULP energy -178580.497480 kJ/mol
# GULP energy per Si atom -5580.640546 kJ/mol
# Density = 1.904787 g / cm^3
# Si number density = 19.091326 Si / 1000 Ang^3
#
#
#
# Elastic Constant Matrix: (Units=GPa)
#
#
# Indices 1 2 3 4 5 6 
#
# 1 53.4782 53.0893 32.9709 0.0000 0.0000 0.0000
# 2 53.0893 159.2375 30.0724 0.0000 0.0000 0.0000
# 3 32.9709 30.0724 51.3463 0.0000 0.0000 0.0000
# 4 0.0000 0.0000 0.0000 25.1446 0.0000 0.0000
# 5 0.0000 0.0000 0.0000 0.0000 21.3083 0.0000
# 6 0.0000 0.0000 0.0000 0.0000 0.0000 33.6096
#
#
#
# Elastic Compliance Matrix: (Units=1/GPa)
#
#
# Indices 1 2 3 4 5 6 
#
# 1 0.041237 -0.009835 -0.020719 0.000000 0.000000 0.000000
# 2 -0.009835 0.009407 0.000806 0.000000 0.000000 0.000000
# 3 -0.020719 0.000806 0.032308 0.000000 0.000000 0.000000
# 4 0.000000 0.000000 0.000000 0.039770 0.000000 0.000000
# 5 0.000000 0.000000 0.000000 0.000000 0.046930 0.000000
# 6 0.000000 0.000000 0.000000 0.000000 0.000000 0.029753
#
#
# Mechanical properties :
#
#
# Convention : Reuss Voigt Hill
#
# Bulk Modulus (GPa) = 42.63478 55.14745 48.89111
# Shear Modulus (GPa) = 18.74626 25.87447 22.31036
#
# Velocity S-wave (km/s) = 3.13697 3.68543 3.42221
# Velocity P-wave (km/s) = 5.95829 6.85994 6.42495
#
# Compressibility (1/GPa) = 0.02345503
#
# Stress axis : x y z
#
# Youngs Moduli (GPa) = 24.24999 106.30644 30.95238
#
# Poissons Ratio (x) = 1.04557 0.64131
# Poissons Ratio (y) = 0.23851 -0.02496
# Poissons Ratio (z) = 0.50244 -0.08572
#
# Static dielectric constant tensor:
#      x y z
#    x 1.661060 0.000000 0.000000 
#    y 0.000000 1.644680 0.000000 
#    z 0.000000 0.000000 1.671680 
# 
# From -- ./inp_files/4260.got.cif
#   From: 2010.05.17/outbox.cif.g08.bks.cpg/sg26_3_cif.got.tgz:4260.got - 2010.06.04 01:07:29.
