data_PCOD9338367
_publ_section_title
;
Structure prediction by ZEFSAII (Michael W. Deem and Ramdas Pophale) SiO2 
 PCOD9338367
Probable space group: P M C 21
;
_chemical_formula_sum "Si O2"
_cell_formula_units_Z 32
_cell_length_a 7.769233
_cell_length_b 16.229539
_cell_length_c 10.772892
_cell_angle_alpha 90.000000
_cell_angle_beta 90.000000
_cell_angle_gamma 90.000000
_cell_volume 1358.365479
_symmetry_space_group_name_H-M "P M C 21"
_symmetry_group_IT_number 26
_symmetry_cell_setting 'orthorhombic'
loop_
_space_group_symop_operation_xyz
x,y,z
-x,-y,1/2+z
-x,y,z
x,-y,1/2+z
loop_
_atom_site_type_symbol
_atom_site_label
_atom_site_fract_x
_atom_site_fract_y
_atom_site_fract_z
Si Si1 0.703176 0.158500 0.500000
Si Si2 0.196186 0.001902 0.354547
Si Si3 0.290822 0.746810 0.521861
Si Si4 0.697558 0.765610 0.251505
Si Si5 0.797125 0.671038 0.880012
Si Si6 0.194749 0.401119 0.645265
Si Si7 0.207152 0.918803 0.601091
Si Si8 0.307250 0.584377 0.639972
O O1 0.500000 0.137585 0.505790
O O2 0.802829 0.088001 0.428933
O O3 0.771122 0.181382 0.637767
O O4 0.726081 0.241811 0.422987
O O5 0.271164 0.025502 0.217996
O O6 0.000000 0.973363 0.333528
O O7 0.276402 0.944972 0.464030
O O8 0.500000 0.741356 0.520340
O O9 0.222400 0.771643 0.386431
O O10 0.244500 0.821295 0.614444
O O11 0.227278 0.654295 0.551201
O O12 0.500000 0.793092 0.261984
O O13 0.696630 0.669097 0.213368
O O14 0.693344 0.633607 0.768035
O O15 0.000000 0.677432 0.848221
O O16 0.780624 0.612405 0.999018
O O17 0.221456 0.497157 0.667241
O O18 0.000000 0.378098 0.676799
O O19 0.000000 0.928904 0.599465
O O20 0.500000 0.565209 0.595836
#
# Coordination Sequence:
#
# PCOD9338367 Si02
#       8
#     4   4   4   4   4   4   4   4
#     4  10  20  36  61  89 116 152 197 243 300 360
#     4  10  22  40  62  90 124 159 201 250 305 365
#     4  10  23  41  60  87 121 158 201 249 304 362
#     4   9  20  39  60  86 121 157 198 247 301 361
#     4  10  21  38  58  82 114 150 193 243 294 354
#     4  10  22  38  57  86 117 151 198 247 297 357
#     4  10  23  41  62  90 123 161 203 251 306 366
#     4  11  23  37  58  84 116 156 197 244 301 361
#
# _framework density 23.557725000000001
#
# number of rings (size 3 to 8) (size 9 to 14) (size 15 to 20)
#    0.000    2.000    0.000    2.250    3.500    6.500 
#    0.000    0.000    0.000    0.000    0.000    0.000 
#    0.000    0.000    0.000    0.000    0.000    0.000 
#
# Total GULP energy -178646.830523 kJ/mol
# GULP energy per Si atom -5582.713454 kJ/mol
# Density = 2.350411 g / cm^3
# Si number density = 23.557725 Si / 1000 Ang^3
#
#
#
# Elastic Constant Matrix: (Units=GPa)
#
#
# Indices 1 2 3 4 5 6 
#
# 1 32.2688 -20.2168 21.4768 0.0000 0.0000 0.0000
# 2 -20.2168 66.8129 23.0151 0.0000 0.0000 0.0000
# 3 21.4768 23.0151 77.4123 0.0000 0.0000 0.0000
# 4 0.0000 0.0000 0.0000 -35.3906 0.0000 0.0000
# 5 0.0000 0.0000 0.0000 0.0000 8.6585 0.0000
# 6 0.0000 0.0000 0.0000 0.0000 0.0000 12.7841
#
#
#
# Elastic Compliance Matrix: (Units=1/GPa)
#
#
# Indices 1 2 3 4 5 6 
#
# 1 0.068917 0.030571 -0.028209 0.000000 0.000000 0.000000
# 2 0.030571 0.030236 -0.017471 0.000000 0.000000 0.000000
# 3 -0.028209 -0.017471 0.025938 0.000000 0.000000 0.000000
# 4 0.000000 0.000000 0.000000 -0.028256 0.000000 0.000000
# 5 0.000000 0.000000 0.000000 0.000000 0.115493 0.000000
# 6 0.000000 0.000000 0.000000 0.000000 0.000000 0.078222
#
#
# Mechanical properties :
#
#
# Convention : Reuss Voigt Hill
#
# Bulk Modulus (GPa) = 10.54039 25.00493 17.77266
# Shear Modulus (GPa) = 14.18877 7.35834 10.77355
#
# Velocity S-wave (km/s) = 2.45684 1.76927 2.14084
# Velocity P-wave (km/s) = 3.54007 3.84852 3.69751
#
# Compressibility (1/GPa) = 0.09487313
#
# Stress axis : x y z
#
# Youngs Moduli (GPa) = 14.51021 33.07367 38.55350
#
# Poissons Ratio (x) = -1.01108 1.08754
# Poissons Ratio (y) = -0.44359 0.67355
# Poissons Ratio (z) = 0.40931 0.57781
#
# Static dielectric constant tensor:
#      x y z
#    x 1.922340 0.000000 0.000000 
#    y 0.000000 1.920090 0.000000 
#    z 0.000000 0.000000 1.927980 
# 
# From -- ./inp_files/3089.got.cif
#   From: 2010.05.17/outbox.cif.g08.bks.cpg/sg26_2_cif.got.tgz:3089.got - 2010.06.04 01:07:29.
