data_PCOD9338778
_publ_section_title
;
Structure prediction by ZEFSAII (Michael W. Deem and Ramdas Pophale) SiO2 
 PCOD9338778
Probable space group: P C C 2
;
_chemical_formula_sum "Si O2"
_cell_formula_units_Z 16
_cell_length_a 10.018775
_cell_length_b 5.579987
_cell_length_c 13.021606
_cell_angle_alpha 90.000000
_cell_angle_beta 90.000000
_cell_angle_gamma 90.000000
_cell_volume 727.968121
_symmetry_space_group_name_H-M "P C C 2"
_symmetry_group_IT_number 27
_symmetry_cell_setting 'orthorhombic'
loop_
_space_group_symop_operation_xyz
x,y,z
-x,-y,z
-x,y,1/2+z
x,-y,1/2+z
loop_
_atom_site_type_symbol
_atom_site_label
_atom_site_fract_x
_atom_site_fract_y
_atom_site_fract_z
Si Si1 0.080716 0.251201 0.777260
Si Si2 0.500000 0.500000 0.579214
Si Si3 0.697432 0.894934 0.629071
Si Si4 0.500000 0.000000 0.772322
Si Si5 0.316293 0.778121 0.435468
O O1 0.169395 0.215988 0.674155
O O2 0.182893 0.271752 0.872770
O O3 0.000000 0.500000 0.770799
O O4 0.000000 0.000000 0.788556
O O5 0.571427 0.715435 0.637912
O O6 0.375252 0.579554 0.510145
O O7 0.638124 0.082859 0.713036
O O8 0.704204 0.000809 0.515304
O O9 0.566229 0.816477 0.853591
#
# Coordination Sequence:
#
# PCOD9338778 Si02
#       5
#     4   2   4   2   4
#     4  11  30  52  72 104 149 204 252 292 354 443
#     4  12  22  42  74 110 138 176 242 304 386 420
#     4  11  24  43  72 106 146 187 238 308 367 434
#     4  10  18  42  64 102 144 164 230 294 372 426
#     4  11  24  43  72 106 146 187 238 308 367 434
#
# _framework density 21.978985999999999
#
# number of rings (size 3 to 8) (size 9 to 14) (size 15 to 20)
#    0.000    1.000    5.000    0.000    7.000    5.000 
#    0.000    0.000    0.000    0.000    0.000    0.000 
#    0.000    0.000    0.000    0.000    0.000    0.000 
#
# Total GULP energy -89099.767186 kJ/mol
# GULP energy per Si atom -5568.735449 kJ/mol
# Density = 2.192896 g / cm^3
# Si number density = 21.978986 Si / 1000 Ang^3
#
#
#
# Elastic Constant Matrix: (Units=GPa)
#
#
# Indices 1 2 3 4 5 6 
#
# 1 117.2423 60.6403 23.3466 0.0000 0.0000 0.0000
# 2 60.6403 79.5516 4.2672 0.0000 0.0000 0.0000
# 3 23.3466 4.2672 91.7040 0.0000 0.0000 0.0000
# 4 0.0000 0.0000 0.0000 11.7280 0.0000 0.0000
# 5 0.0000 0.0000 0.0000 0.0000 -68.2587 0.0000
# 6 0.0000 0.0000 0.0000 0.0000 0.0000 43.6128
#
#
#
# Elastic Compliance Matrix: (Units=1/GPa)
#
#
# Indices 1 2 3 4 5 6 
#
# 1 0.015014 -0.011268 -0.003298 0.000000 0.000000 0.000000
# 2 -0.011268 0.021058 0.001889 0.000000 0.000000 0.000000
# 3 -0.003298 0.001889 0.011656 0.000000 0.000000 0.000000
# 4 0.000000 0.000000 0.000000 0.085266 0.000000 0.000000
# 5 0.000000 0.000000 0.000000 0.000000 -0.014650 0.000000
# 6 0.000000 0.000000 0.000000 0.000000 0.000000 0.022929
#
#
# Mechanical properties :
#
#
# Convention : Reuss Voigt Hill
#
# Bulk Modulus (GPa) = 44.69388 51.66733 48.18060
# Shear Modulus (GPa) = 28.72131 10.76602 19.74366
#
# Velocity S-wave (km/s) = 3.61884 2.21562 3.00041
# Velocity P-wave (km/s) = 6.15145 5.48670 5.82856
#
# Compressibility (1/GPa) = 0.02237443
#
# Stress axis : x y z
#
# Youngs Moduli (GPa) = 66.60383 47.48679 85.78976
#
# Poissons Ratio (x) = 0.53508 0.28294
# Poissons Ratio (y) = 0.75049 -0.16204
# Poissons Ratio (z) = 0.21966 -0.08969
#
# Static dielectric constant tensor:
#      x y z
#    x 2.017010 0.000000 0.000000 
#    y 0.000000 1.947600 0.000000 
#    z 0.000000 0.000000 1.896750 
# 
# From -- ./inp_files/2490.got.cif
#   From: 2010.05.17/outbox.cif.g08.bks.cpg/sg27_2_cif.got.tgz:2490.got - 2010.06.04 01:11:05.
