data_PCOD9338632
_publ_section_title
;
Structure prediction by ZEFSAII (Michael W. Deem and Ramdas Pophale) SiO2 
 PCOD9338632
Probable space group: P M C 21
;
_chemical_formula_sum "Si O2"
_cell_formula_units_Z 18
_cell_length_a 11.088878
_cell_length_b 5.386470
_cell_length_c 14.136930
_cell_angle_alpha 90.000000
_cell_angle_beta 90.000000
_cell_angle_gamma 90.000000
_cell_volume 844.397538
_symmetry_space_group_name_H-M "P M C 21"
_symmetry_group_IT_number 26
_symmetry_cell_setting 'orthorhombic'
loop_
_space_group_symop_operation_xyz
x,y,z
-x,-y,1/2+z
-x,y,z
x,-y,1/2+z
loop_
_atom_site_type_symbol
_atom_site_label
_atom_site_fract_x
_atom_site_fract_y
_atom_site_fract_z
Si Si1 0.780255 0.724469 0.834520
Si Si2 0.000000 0.990947 0.928917
Si Si3 0.000000 0.003806 0.131361
Si Si4 0.000000 0.623578 0.303699
Si Si5 0.267583 0.160370 0.133166
Si Si6 0.643809 0.343328 0.528609
O O1 0.873000 0.516955 0.795649
O O2 0.706296 0.829615 0.745642
O O3 0.877918 0.916136 0.876304
O O4 0.699522 0.647006 0.923133
O O5 0.000000 0.284859 0.913505
O O6 0.000000 0.867987 0.030559
O O7 0.877862 0.158883 0.128494
O O8 0.000000 0.828133 0.221581
O O9 0.317987 0.405837 0.083182
O O10 0.310465 0.905921 0.082873
O O11 0.500000 0.331041 0.523570
#
# Coordination Sequence:
#
# PCOD9338632 Si02
#       6
#     4   2   2   2   4   4
#     4  11  25  43  71 105 147 187 239 298 366 431
#     4  11  21  39  67 105 140 182 226 286 375 429
#     4  12  21  42  74 107 148 178 225 301 371 436
#     4  11  22  43  67 118 148 184 235 293 382 459
#     4  12  26  47  77 108 145 190 238 305 369 437
#     4  12  29  50  73 104 144 200 256 295 351 425
#
# _framework density 21.316976
#
# number of rings (size 3 to 8) (size 9 to 14) (size 15 to 20)
#    0.000    0.444    4.444    4.000    0.000    3.556 
#    0.000    0.000    0.000    0.000    0.000    0.000 
#    0.000    0.000    0.000    0.000    0.000    0.000 
#
# Total GULP energy -100512.819256 kJ/mol
# GULP energy per Si atom -5584.045514 kJ/mol
# Density = 2.126846 g / cm^3
# Si number density = 21.316976 Si / 1000 Ang^3
#
#
#
# Elastic Constant Matrix: (Units=GPa)
#
#
# Indices 1 2 3 4 5 6 
#
# 1 146.6984 61.0284 61.6671 0.0000 0.0000 0.0000
# 2 61.0284 103.6192 59.6434 0.0000 0.0000 0.0000
# 3 61.6671 59.6434 179.1316 0.0000 0.0000 0.0000
# 4 0.0000 0.0000 0.0000 27.9914 0.0000 0.0000
# 5 0.0000 0.0000 0.0000 0.0000 13.2178 0.0000
# 6 0.0000 0.0000 0.0000 0.0000 0.0000 13.5499
#
#
#
# Elastic Compliance Matrix: (Units=1/GPa)
#
#
# Indices 1 2 3 4 5 6 
#
# 1 0.009444 -0.004566 -0.001731 0.000000 0.000000 0.000000
# 2 -0.004566 0.014146 -0.003138 0.000000 0.000000 0.000000
# 3 -0.001731 -0.003138 0.007223 0.000000 0.000000 0.000000
# 4 0.000000 0.000000 0.000000 0.035725 0.000000 0.000000
# 5 0.000000 0.000000 0.000000 0.000000 0.075655 0.000000
# 6 0.000000 0.000000 0.000000 0.000000 0.000000 0.073801
#
#
# Mechanical properties :
#
#
# Convention : Reuss Voigt Hill
#
# Bulk Modulus (GPa) = 83.72852 88.23634 85.98243
# Shear Modulus (GPa) = 20.93398 27.42584 24.17991
#
# Velocity S-wave (km/s) = 3.13714 3.59077 3.37160
# Velocity P-wave (km/s) = 7.24468 7.65989 7.45517
#
# Compressibility (1/GPa) = 0.01194336
#
# Stress axis : x y z
#
# Youngs Moduli (GPa) = 105.89062 70.69017 138.44137
#
# Poissons Ratio (x) = 0.32275 0.23962
# Poissons Ratio (y) = 0.48347 0.43447
# Poissons Ratio (z) = 0.18328 0.22185
#
# Static dielectric constant tensor:
#      x y z
#    x 1.726240 0.000000 0.000000 
#    y 0.000000 1.841310 0.000000 
#    z 0.000000 0.000000 1.861420 
# 
# From -- ./inp_files/3198.got.cif
#   From: 2010.05.17/outbox.cif.g08.bks.cpg/sg26_2_cif.got.tgz:3198.got - 2010.06.04 01:07:29.
