data_PCOD9338221
_publ_section_title
;
Structure prediction by ZEFSAII (Michael W. Deem and Ramdas Pophale) SiO2 
 PCOD9338221
Probable space group: P M C 21
;
_chemical_formula_sum "Si O2"
_cell_formula_units_Z 32
_cell_length_a 9.060339
_cell_length_b 16.160802
_cell_length_c 11.267056
_cell_angle_alpha 90.000000
_cell_angle_beta 90.000000
_cell_angle_gamma 90.000000
_cell_volume 1649.748757
_symmetry_space_group_name_H-M "P M C 21"
_symmetry_group_IT_number 26
_symmetry_cell_setting 'orthorhombic'
loop_
_space_group_symop_operation_xyz
x,y,z
-x,-y,1/2+z
-x,y,z
x,-y,1/2+z
loop_
_atom_site_type_symbol
_atom_site_label
_atom_site_fract_x
_atom_site_fract_y
_atom_site_fract_z
Si Si1 0.670243 0.242449 0.839420
Si Si2 0.670325 0.489504 0.447812
Si Si3 0.326647 0.659759 0.762057
Si Si4 0.668308 0.657477 0.105819
Si Si5 0.827586 0.646911 0.513632
Si Si6 0.825892 0.779758 0.935089
Si Si7 0.321693 0.058083 0.764608
Si Si8 0.679157 0.046100 0.496325
O O1 0.500000 0.234106 0.880803
O O2 0.673356 0.314366 0.740588
O O3 0.713268 0.155484 0.779546
O O4 0.775107 0.271917 0.943661
O O5 0.500000 0.518829 0.441607
O O6 0.692378 0.419922 0.347375
O O7 0.689789 0.437749 0.570676
O O8 0.780721 0.565188 0.441027
O O9 0.500000 0.678477 0.757865
O O10 0.264349 0.641007 0.633812
O O11 0.239014 0.736792 0.817688
O O12 0.500000 0.677786 0.062470
O O13 0.784662 0.713169 0.036261
O O14 0.000000 0.648198 0.536577
O O15 0.741126 0.863502 0.966362
O O16 0.000000 0.793121 0.927255
O O17 0.500000 0.051568 0.763424
O O18 0.273246 0.026542 0.633333
O O19 0.272573 0.011959 0.885628
O O20 0.500000 0.047252 0.496764
#
# Coordination Sequence:
#
# PCOD9338221 Si02
#       8
#     4   4   4   4   4   4   4   4
#     4  10  20  38  61  87 117 159 208 251 295 358
#     4   9  20  38  61  87 111 152 203 249 295 349
#     4  10  22  42  64  84 112 156 207 254 296 356
#     4   9  18  36  63  87 112 150 202 250 284 343
#     4  12  26  39  55  87 127 159 191 248 315 372
#     4  11  21  35  59  90 120 153 191 241 307 368
#     4   9  19  35  62  91 120 155 212 268 308 356
#     4  10  19  37  61  91 121 158 206 259 308 368
#
# _framework density 19.396892999999999
#
# number of rings (size 3 to 8) (size 9 to 14) (size 15 to 20)
#    0.000    2.000    1.250    3.375    1.750    4.000 
#    0.000    3.750    0.000    0.000    0.000    0.000 
#    0.000    0.000    0.000    0.000    0.000    0.000 
#
# Total GULP energy -178531.048916 kJ/mol
# GULP energy per Si atom -5579.095279 kJ/mol
# Density = 1.935275 g / cm^3
# Si number density = 19.396893 Si / 1000 Ang^3
#
#
#
# Elastic Constant Matrix: (Units=GPa)
#
#
# Indices 1 2 3 4 5 6 
#
# 1 34.3442 9.6732 25.1065 0.0000 0.0000 0.0000
# 2 9.6732 49.1986 36.1012 0.0000 0.0000 0.0000
# 3 25.1065 36.1012 97.9222 0.0000 0.0000 0.0000
# 4 0.0000 0.0000 0.0000 23.8349 0.0000 0.0000
# 5 0.0000 0.0000 0.0000 0.0000 15.9306 0.0000
# 6 0.0000 0.0000 0.0000 0.0000 0.0000 7.8506
#
#
#
# Elastic Compliance Matrix: (Units=1/GPa)
#
#
# Indices 1 2 3 4 5 6 
#
# 1 0.035839 -0.000417 -0.009035 0.000000 0.000000 0.000000
# 2 -0.000417 0.027868 -0.010168 0.000000 0.000000 0.000000
# 3 -0.009035 -0.010168 0.016277 0.000000 0.000000 0.000000
# 4 0.000000 0.000000 0.000000 0.041955 0.000000 0.000000
# 5 0.000000 0.000000 0.000000 0.000000 0.062772 0.000000
# 6 0.000000 0.000000 0.000000 0.000000 0.000000 0.127379
#
#
# Mechanical properties :
#
#
# Convention : Reuss Voigt Hill
#
# Bulk Modulus (GPa) = 24.54212 35.91407 30.22809
# Shear Modulus (GPa) = 13.70191 16.89550 15.29871
#
# Velocity S-wave (km/s) = 2.66070 2.95454 2.81146
# Velocity P-wave (km/s) = 4.70310 5.49497 5.11438
#
# Compressibility (1/GPa) = 0.04074627
#
# Stress axis : x y z
#
# Youngs Moduli (GPa) = 27.90226 35.88288 61.43541
#
# Poissons Ratio (x) = 0.01495 0.55509
# Poissons Ratio (y) = 0.01162 0.62465
# Poissons Ratio (z) = 0.25211 0.36484
#
# Static dielectric constant tensor:
#      x y z
#    x 1.639630 0.000000 0.000000 
#    y 0.000000 1.667400 0.000000 
#    z 0.000000 0.000000 1.730570 
# 
# From -- ./inp_files/3084.got.cif
#   From: 2010.05.17/outbox.cif.g08.bks.cpg/sg26_2_cif.got.tgz:3084.got - 2010.06.04 01:07:29.
