data_PCOD9338040
_publ_section_title
;
Structure prediction by ZEFSAII (Michael W. Deem and Ramdas Pophale) SiO2 
 PCOD9338040
Probable space group: P M C 21
;
_chemical_formula_sum "Si O2"
_cell_formula_units_Z 24
_cell_length_a 17.131952
_cell_length_b 7.358569
_cell_length_c 7.292514
_cell_angle_alpha 90.000000
_cell_angle_beta 90.000000
_cell_angle_gamma 90.000000
_cell_volume 919.342817
_symmetry_space_group_name_H-M "P M C 21"
_symmetry_group_IT_number 26
_symmetry_cell_setting 'orthorhombic'
loop_
_space_group_symop_operation_xyz
x,y,z
-x,-y,1/2+z
-x,y,z
x,-y,1/2+z
loop_
_atom_site_type_symbol
_atom_site_label
_atom_site_fract_x
_atom_site_fract_y
_atom_site_fract_z
Si Si1 0.083183 0.698349 0.695800
Si Si2 0.583929 0.379652 0.103003
Si Si3 0.249922 0.796503 0.191988
Si Si4 0.248052 0.412054 0.078426
Si Si5 0.085354 0.071824 0.568667
Si Si6 0.416994 0.209255 0.695559
O O1 0.164177 0.599539 0.674583
O O2 0.000000 0.596089 0.686028
O O3 0.082820 0.855119 0.542082
O O4 0.085331 0.808871 0.885757
O O5 0.500000 0.333230 0.193331
O O6 0.671532 0.350133 0.177996
O O7 0.582968 0.282356 0.905412
O O8 0.582502 0.599909 0.084986
O O9 0.246956 0.702917 0.391909
O O10 0.169536 0.899659 0.161486
O O11 0.334521 0.892179 0.169141
O O12 0.253479 0.628057 0.052166
O O13 0.000000 0.112553 0.657528
O O14 0.500000 0.113541 0.659688
#
# Coordination Sequence:
#
# PCOD9338040 Si02
#       6
#     4   4   4   4   4   4
#     4  10  21  37  55  73  95 126 163 202 246 297
#     4   8  14  25  42  66  96 128 160 194 234 280
#     4  10  19  31  50  76 104 132 163 202 244 285
#     4  10  19  31  50  76 104 132 163 202 244 285
#     4  10  21  37  55  73  95 126 163 202 246 297
#     4   8  14  25  42  66  96 128 160 194 234 280
#
# _framework density 26.105605000000001
#
# number of rings (size 3 to 8) (size 9 to 14) (size 15 to 20)
#    0.000    2.667    0.000    2.000    0.000    4.000 
#    0.000    0.000    0.000    1.000    0.000    0.000 
#    0.000    0.000    0.000    0.000    0.000    0.000 
#
# Total GULP energy -133806.384311 kJ/mol
# GULP energy per Si atom -5575.266013 kJ/mol
# Density = 2.604619 g / cm^3
# Si number density = 26.105605 Si / 1000 Ang^3
#
#
#
# Elastic Constant Matrix: (Units=GPa)
#
#
# Indices 1 2 3 4 5 6 
#
# 1 372.3152 31.0571 38.1195 0.0000 0.0000 0.0000
# 2 31.0571 33.9775 -7.9202 0.0000 0.0000 0.0000
# 3 38.1195 -7.9202 61.0520 0.0000 0.0000 0.0000
# 4 0.0000 0.0000 0.0000 17.0175 0.0000 0.0000
# 5 0.0000 0.0000 0.0000 0.0000 34.4410 0.0000
# 6 0.0000 0.0000 0.0000 0.0000 0.0000 -77.0891
#
#
#
# Elastic Compliance Matrix: (Units=1/GPa)
#
#
# Indices 1 2 3 4 5 6 
#
# 1 0.003234 -0.003534 -0.002478 0.000000 0.000000 0.000000
# 2 -0.003534 0.034210 0.006645 0.000000 0.000000 0.000000
# 3 -0.002478 0.006645 0.018789 0.000000 0.000000 0.000000
# 4 0.000000 0.000000 0.000000 0.058763 0.000000 0.000000
# 5 0.000000 0.000000 0.000000 0.000000 0.029035 0.000000
# 6 0.000000 0.000000 0.000000 0.000000 0.000000 -0.012972
#
#
# Mechanical properties :
#
#
# Convention : Reuss Voigt Hill
#
# Bulk Modulus (GPa) = 17.39170 65.53974 41.46572
# Shear Modulus (GPa) = 33.56595 21.94643 27.75619
#
# Velocity S-wave (km/s) = 3.58966 2.90259 3.26425
# Velocity P-wave (km/s) = 4.88440 6.03270 5.48867
#
# Compressibility (1/GPa) = 0.05749869
#
# Stress axis : x y z
#
# Youngs Moduli (GPa) = 309.17697 29.23094 53.22365
#
# Poissons Ratio (x) = 0.10330 0.13189
# Poissons Ratio (y) = 1.09263 -0.35365
# Poissons Ratio (z) = 0.76612 -0.19423
#
# Static dielectric constant tensor:
#      x y z
#    x 2.115200 0.000000 0.000000 
#    y 0.000000 1.989300 0.000000 
#    z 0.000000 0.000000 2.102910 
# 
# From -- ./inp_files/2130.got.cif
#   From: 2010.05.17/outbox.cif.g08.bks.cpg/sg26_2_cif.got.tgz:2130.got - 2010.06.04 01:07:29.
