data_PCOD9338940
_publ_section_title
;
Structure prediction by ZEFSAII (Michael W. Deem and Ramdas Pophale) SiO2 
 PCOD9338940
Probable space group: P C C 2
;
_chemical_formula_sum "Si O2"
_cell_formula_units_Z 28
_cell_length_a 12.752902
_cell_length_b 5.045584
_cell_length_c 22.755868
_cell_angle_alpha 90.000000
_cell_angle_beta 90.000000
_cell_angle_gamma 90.000000
_cell_volume 1464.245402
_symmetry_space_group_name_H-M "P C C 2"
_symmetry_group_IT_number 27
_symmetry_cell_setting 'orthorhombic'
loop_
_space_group_symop_operation_xyz
x,y,z
-x,-y,z
-x,y,1/2+z
x,-y,1/2+z
loop_
_atom_site_type_symbol
_atom_site_label
_atom_site_fract_x
_atom_site_fract_y
_atom_site_fract_z
Si Si1 0.118149 0.054776 0.308710
Si Si2 0.125983 0.489133 0.005608
Si Si3 0.569330 0.262753 0.345557
Si Si4 0.125220 0.008285 0.580959
Si Si5 0.194742 0.422583 0.876824
Si Si6 0.606680 0.383149 0.208234
Si Si7 0.742580 0.094964 0.695326
O O1 0.152862 0.342147 0.333981
O O2 0.198085 0.004417 0.254877
O O3 0.128913 0.838815 0.360482
O O4 0.000000 0.000000 0.286529
O O5 0.177925 0.524979 0.942531
O O6 0.000000 0.500000 0.997232
O O7 0.154043 0.705664 0.054915
O O8 0.153332 0.203212 0.031048
O O9 0.500000 0.500000 0.369894
O O10 0.686732 0.315719 0.368166
O O11 0.580239 0.299698 0.275201
O O12 0.500000 0.000000 0.356193
O O13 0.178426 0.921571 0.641236
O O14 0.000000 0.000000 0.589119
O O15 0.500000 0.500000 0.181846
O O16 0.692626 0.616827 0.206017
O O17 0.652120 0.116828 0.180969
#
# Coordination Sequence:
#
# PCOD9338940 Si02
#       7
#     4   4   4   4   4   4   4
#     4  12  23  36  56  91 127 156 186 244 317 373
#     4  10  21  39  60  84 116 161 209 243 284 356
#     4  11  21  37  59  86 120 158 200 247 299 366
#     4  10  22  39  61  86 116 161 206 242 288 358
#     4  12  23  39  60  89 122 159 199 251 306 364
#     4  11  22  37  60  87 121 154 200 242 297 367
#     4  12  21  39  59  89 122 154 195 248 304 361
#
# _framework density 19.122475000000001
#
# number of rings (size 3 to 8) (size 9 to 14) (size 15 to 20)
#    0.000    0.857    2.857    6.429    0.000    1.143 
#    0.000    4.286    0.000    8.571    0.000    0.000 
#    0.000    0.000    0.000    0.000    0.000    0.000 
#
# Total GULP energy -156244.116691 kJ/mol
# GULP energy per Si atom -5580.147025 kJ/mol
# Density = 1.907895 g / cm^3
# Si number density = 19.122475 Si / 1000 Ang^3
#
#
#
# Elastic Constant Matrix: (Units=GPa)
#
#
# Indices 1 2 3 4 5 6 
#
# 1 59.3432 27.7178 12.6680 0.0000 0.0000 0.0000
# 2 27.7178 113.4376 5.7256 0.0000 0.0000 0.0000
# 3 12.6680 5.7256 55.5397 0.0000 0.0000 0.0000
# 4 0.0000 0.0000 0.0000 -90.8723 0.0000 0.0000
# 5 0.0000 0.0000 0.0000 0.0000 17.0786 0.0000
# 6 0.0000 0.0000 0.0000 0.0000 0.0000 23.9669
#
#
#
# Elastic Compliance Matrix: (Units=1/GPa)
#
#
# Indices 1 2 3 4 5 6 
#
# 1 0.019892 -0.004656 -0.004057 0.000000 0.000000 0.000000
# 2 -0.004656 0.009951 0.000036 0.000000 0.000000 0.000000
# 3 -0.004057 0.000036 0.018927 0.000000 0.000000 0.000000
# 4 0.000000 0.000000 0.000000 -0.011004 0.000000 0.000000
# 5 0.000000 0.000000 0.000000 0.000000 0.058553 0.000000
# 6 0.000000 0.000000 0.000000 0.000000 0.000000 0.041724
#
#
# Mechanical properties :
#
#
# Convention : Reuss Voigt Hill
#
# Bulk Modulus (GPa) = 31.83069 35.61593 33.72331
# Shear Modulus (GPa) = 30.14447 2.18192 16.16319
#
# Velocity S-wave (km/s) = 3.97468 1.06935 2.91047
# Velocity P-wave (km/s) = 6.14378 4.49336 5.38220
#
# Compressibility (1/GPa) = 0.03141622
#
# Stress axis : x y z
#
# Youngs Moduli (GPa) = 50.27201 100.49055 52.83504
#
# Poissons Ratio (x) = 0.46785 0.21436
# Poissons Ratio (y) = 0.23405 -0.00190
# Poissons Ratio (z) = 0.20396 -0.00362
#
# Static dielectric constant tensor:
#      x y z
#    x 1.731660 0.000000 0.000000 
#    y 0.000000 1.737470 0.000000 
#    z 0.000000 0.000000 1.630770 
# 
# From -- ./inp_files/4830.got.cif
#   From: 2010.05.17/outbox.cif.g08.bks.cpg/sg27_3_cif.got.tgz:4830.got - 2010.06.04 01:11:05.
