data_PCOD9338835
_publ_section_title
;
Structure prediction by ZEFSAII (Michael W. Deem and Ramdas Pophale) SiO2 
 PCOD9338835
Probable space group: P C C 2
;
_chemical_formula_sum "Si O2"
_cell_formula_units_Z 30
_cell_length_a 7.808289
_cell_length_b 12.495940
_cell_length_c 15.389815
_cell_angle_alpha 90.000000
_cell_angle_beta 90.000000
_cell_angle_gamma 90.000000
_cell_volume 1501.613657
_symmetry_space_group_name_H-M "P C C 2"
_symmetry_group_IT_number 27
_symmetry_cell_setting 'orthorhombic'
loop_
_space_group_symop_operation_xyz
x,y,z
-x,-y,z
-x,y,1/2+z
x,-y,1/2+z
loop_
_atom_site_type_symbol
_atom_site_label
_atom_site_fract_x
_atom_site_fract_y
_atom_site_fract_z
Si Si1 0.647761 0.420702 0.645360
Si Si2 0.067086 0.721936 0.007678
Si Si3 0.533453 0.274292 0.015794
Si Si4 0.462019 0.879677 0.867402
Si Si5 0.950534 0.121111 0.858700
Si Si6 0.423372 0.189261 0.186139
Si Si7 0.046400 0.880462 0.659067
Si Si8 0.000000 0.500000 0.083364
O O1 0.500000 0.500000 0.675933
O O2 0.581598 0.372120 0.551727
O O3 0.645037 0.311641 0.701902
O O4 0.825916 0.483863 0.638939
O O5 0.269834 0.700051 0.997260
O O6 0.994656 0.605438 0.025030
O O7 0.026945 0.793227 0.092984
O O8 0.993110 0.789127 0.927064
O O9 0.536842 0.197387 0.100399
O O10 0.466766 0.207244 0.934339
O O11 0.255968 0.871244 0.861406
O O12 0.519260 0.857083 0.768976
O O13 0.500000 0.000000 0.895088
O O14 0.010084 0.137364 0.759375
O O15 0.000000 0.000000 0.884520
O O16 0.252315 0.126138 0.161981
O O17 0.000000 0.000000 0.631721
#
# Coordination Sequence:
#
# PCOD9338835 Si02
#       8
#     4   4   4   4   4   4   4   2
#     4  10  20  40  62  87 120 156 201 253 304 356
#     4  11  20  36  60  85 116 159 202 245 310 364
#     4   9  21  37  57  83 119 151 199 254 297 363
#     4  10  21  36  59  83 117 159 195 243 309 362
#     4   9  21  38  55  82 122 151 198 252 297 367
#     4   9  20  38  56  83 121 149 196 251 297 365
#     4  10  20  36  58  84 117 158 195 248 305 365
#     4  12  20  36  68  88 112 166 200 248 308 362
#
# _framework density 19.978508000000001
#
# number of rings (size 3 to 8) (size 9 to 14) (size 15 to 20)
#    0.800    1.333    2.667    0.400    0.000    8.000 
#    0.000    1.333    0.000    0.000    0.000    0.000 
#    0.000    0.000    0.000    0.000    0.000    0.000 
#
# Total GULP energy -167141.819210 kJ/mol
# GULP energy per Si atom -5571.393974 kJ/mol
# Density = 1.993304 g / cm^3
# Si number density = 19.978508 Si / 1000 Ang^3
#
#
#
# Elastic Constant Matrix: (Units=GPa)
#
#
# Indices 1 2 3 4 5 6 
#
# 1 26.9098 -11.8032 0.3438 0.0000 0.0000 0.0000
# 2 -11.8032 99.4126 21.8988 0.0000 0.0000 0.0000
# 3 0.3438 21.8988 44.0186 0.0000 0.0000 0.0000
# 4 0.0000 0.0000 0.0000 14.7757 0.0000 0.0000
# 5 0.0000 0.0000 0.0000 0.0000 116.7746 0.0000
# 6 0.0000 0.0000 0.0000 0.0000 0.0000 34.2263
#
#
#
# Elastic Compliance Matrix: (Units=1/GPa)
#
#
# Indices 1 2 3 4 5 6 
#
# 1 0.039546 0.005349 -0.002970 0.000000 0.000000 0.000000
# 2 0.005349 0.012021 -0.006022 0.000000 0.000000 0.000000
# 3 -0.002970 -0.006022 0.025737 0.000000 0.000000 0.000000
# 4 0.000000 0.000000 0.000000 0.067679 0.000000 0.000000
# 5 0.000000 0.000000 0.000000 0.000000 0.008564 0.000000
# 6 0.000000 0.000000 0.000000 0.000000 0.000000 0.029217
#
#
# Mechanical properties :
#
#
# Convention : Reuss Voigt Hill
#
# Bulk Modulus (GPa) = 14.28211 21.24666 17.76439
# Shear Modulus (GPa) = 23.43158 43.81543 33.62351
#
# Velocity S-wave (km/s) = 3.42839 4.68817 4.10687
# Velocity P-wave (km/s) = 4.77871 6.32163 5.60353
#
# Compressibility (1/GPa) = 0.07001767
#
# Stress axis : x y z
#
# Youngs Moduli (GPa) = 25.28732 83.18943 38.85496
#
# Poissons Ratio (x) = -0.44502 0.11540
# Poissons Ratio (y) = -0.13527 0.23398
# Poissons Ratio (z) = 0.07511 0.50097
#
# Static dielectric constant tensor:
#      x y z
#    x 1.542500 0.000000 0.000000 
#    y 0.000000 1.698610 0.000000 
#    z 0.000000 0.000000 1.732880 
# 
# From -- ./inp_files/3410.got.cif
#   From: 2010.05.17/outbox.cif.g08.bks.cpg/sg27_2_cif.got.tgz:3410.got - 2010.06.04 01:11:05.
