data_PCOD9338209
_publ_section_title
;
Structure prediction by ZEFSAII (Michael W. Deem and Ramdas Pophale) SiO2 
 PCOD9338209
Probable space group: P M C 21
;
_chemical_formula_sum "Si O2"
_cell_formula_units_Z 32
_cell_length_a 12.973282
_cell_length_b 7.776529
_cell_length_c 14.347195
_cell_angle_alpha 90.000000
_cell_angle_beta 90.000000
_cell_angle_gamma 90.000000
_cell_volume 1447.446950
_symmetry_space_group_name_H-M "P M C 21"
_symmetry_group_IT_number 26
_symmetry_cell_setting 'orthorhombic'
loop_
_space_group_symop_operation_xyz
x,y,z
-x,-y,1/2+z
-x,y,z
x,-y,1/2+z
loop_
_atom_site_type_symbol
_atom_site_label
_atom_site_fract_x
_atom_site_fract_y
_atom_site_fract_z
Si Si1 0.380044 0.738071 0.423890
Si Si2 0.882826 0.597070 0.523548
Si Si3 0.729999 0.128833 0.091712
Si Si4 0.317040 0.402190 0.541744
Si Si5 0.116831 0.622314 0.299175
Si Si6 0.617921 0.200303 0.372183
Si Si7 0.681244 0.553307 0.722588
Si Si8 0.737870 0.906230 0.265595
O O1 0.500000 0.754448 0.415126
O O2 0.333126 0.877786 0.495862
O O3 0.354208 0.565179 0.479990
O O4 0.329876 0.763414 0.322249
O O5 0.837681 0.777832 0.562998
O O6 0.805248 0.442367 0.550594
O O7 0.878034 0.605155 0.411178
O O8 0.000000 0.569946 0.552289
O O9 0.681092 0.276935 0.156955
O O10 0.729917 0.962181 0.157572
O O11 0.349920 0.247294 0.476833
O O12 0.358546 0.413963 0.647066
O O13 0.202395 0.496495 0.254150
O O14 0.150820 0.818342 0.276844
O O15 0.000000 0.585748 0.269789
O O16 0.500000 0.135169 0.366604
O O17 0.621413 0.378116 0.312114
O O18 0.701024 0.074464 0.323253
#
# Coordination Sequence:
#
# PCOD9338209 Si02
#       8
#     4   4   4   4   4   4   4   4
#     4  10  19  36  60  85 120 164 209 252 308 363
#     4   9  17  35  62  84 111 155 197 242 305 364
#     4   9  21  36  59  88 123 160 201 257 304 369
#     4  10  20  37  61  90 119 157 199 262 307 365
#     4  11  21  39  64  86 116 158 202 250 307 365
#     4  11  22  37  59  88 126 162 201 252 306 360
#     4   9  20  38  60  92 119 152 206 260 307 364
#     4  11  22  38  57  87 126 164 205 249 300 366
#
# _framework density 22.107892
#
# number of rings (size 3 to 8) (size 9 to 14) (size 15 to 20)
#    0.000    2.250    3.750    0.750    0.000    9.000 
#    0.000    3.125    0.000    3.000    0.000    0.000 
#    0.000    0.000    0.000    0.000    0.000    0.000 
#
# Total GULP energy -178294.777970 kJ/mol
# GULP energy per Si atom -5571.711812 kJ/mol
# Density = 2.205757 g / cm^3
# Si number density = 22.107892 Si / 1000 Ang^3
#
#
#
# Elastic Constant Matrix: (Units=GPa)
#
#
# Indices 1 2 3 4 5 6 
#
# 1 89.5185 -2.2585 7.6169 0.0000 0.0000 0.0000
# 2 -2.2585 63.2314 4.4399 0.0000 0.0000 0.0000
# 3 7.6169 4.4399 132.9220 0.0000 0.0000 0.0000
# 4 0.0000 0.0000 0.0000 44.7792 0.0000 0.0000
# 5 0.0000 0.0000 0.0000 0.0000 -6.1892 0.0000
# 6 0.0000 0.0000 0.0000 0.0000 0.0000 5.6663
#
#
#
# Elastic Compliance Matrix: (Units=1/GPa)
#
#
# Indices 1 2 3 4 5 6 
#
# 1 0.011238 0.000448 -0.000659 0.000000 0.000000 0.000000
# 2 0.000448 0.015870 -0.000556 0.000000 0.000000 0.000000
# 3 -0.000659 -0.000556 0.007580 0.000000 0.000000 0.000000
# 4 0.000000 0.000000 0.000000 0.022332 0.000000 0.000000
# 5 0.000000 0.000000 0.000000 0.000000 -0.161572 0.000000
# 6 0.000000 0.000000 0.000000 0.000000 0.000000 0.176483
#
#
# Mechanical properties :
#
#
# Convention : Reuss Voigt Hill
#
# Bulk Modulus (GPa) = 30.16255 33.91871 32.04063
# Shear Modulus (GPa) = 59.16031 27.24282 43.20157
#
# Velocity S-wave (km/s) = 5.17860 3.51417 4.42534
# Velocity P-wave (km/s) = 7.03066 5.64283 6.37463
#
# Compressibility (1/GPa) = 0.03315370
#
# Stress axis : x y z
#
# Youngs Moduli (GPa) = 88.98195 63.01220 131.93426
#
# Poissons Ratio (x) = -0.02821 0.08694
# Poissons Ratio (y) = -0.03984 0.07332
# Poissons Ratio (z) = 0.05863 0.03502
#
# Static dielectric constant tensor:
#      x y z
#    x 1.800800 0.000000 0.000000 
#    y 0.000000 1.957740 0.000000 
#    z 0.000000 0.000000 1.873800 
# 
# From -- ./inp_files/4664.got.cif
#   From: 2010.05.17/outbox.cif.g08.bks.cpg/sg26_3_cif.got.tgz:4664.got - 2010.06.04 01:07:29.
