data_PCOD9338360
_publ_section_title
;
Structure prediction by ZEFSAII (Michael W. Deem and Ramdas Pophale) SiO2 
 PCOD9338360
Probable space group: P M C 21
;
_chemical_formula_sum "Si O2"
_cell_formula_units_Z 32
_cell_length_a 8.520868
_cell_length_b 12.519359
_cell_length_c 14.462246
_cell_angle_alpha 90.000000
_cell_angle_beta 90.000000
_cell_angle_gamma 90.000000
_cell_volume 1542.771741
_symmetry_space_group_name_H-M "P M C 21"
_symmetry_group_IT_number 26
_symmetry_cell_setting 'orthorhombic'
loop_
_space_group_symop_operation_xyz
x,y,z
-x,-y,1/2+z
-x,y,z
x,-y,1/2+z
loop_
_atom_site_type_symbol
_atom_site_label
_atom_site_fract_x
_atom_site_fract_y
_atom_site_fract_z
Si Si1 0.685465 0.178678 0.684460
Si Si2 0.819619 0.750454 0.533323
Si Si3 0.685189 0.677713 0.906791
Si Si4 0.185762 0.590923 0.220430
Si Si5 0.684923 0.632281 0.695177
Si Si6 0.317906 0.434877 0.924511
Si Si7 0.183794 0.115858 0.495445
Si Si8 0.190031 0.916733 0.376676
O O1 0.500000 0.194740 0.687034
O O2 0.765430 0.296016 0.676539
O O3 0.731231 0.109954 0.594316
O O4 0.739904 0.122401 0.779689
O O5 0.725415 0.728019 0.626254
O O6 0.799775 0.639712 0.478827
O O7 0.762131 0.837752 0.460238
O O8 0.000000 0.773765 0.555552
O O9 0.500000 0.705675 0.913293
O O10 0.728565 0.666362 0.798969
O O11 0.703633 0.559050 0.946744
O O12 0.785065 0.766367 0.956973
O O13 0.228909 0.479224 0.170775
O O14 0.282343 0.582690 0.316410
O O15 0.000000 0.592836 0.238699
O O16 0.500000 0.609896 0.693729
O O17 0.500000 0.406249 0.944141
O O18 0.000000 0.096598 0.511551
O O19 0.235262 0.032862 0.415752
O O20 0.000000 0.910869 0.367575
#
# Coordination Sequence:
#
# PCOD9338360 Si02
#       8
#     4   4   4   4   4   4   4   4
#     4  12  25  42  67  95 126 165 211 264 318 380
#     4  11  22  37  61  92 126 168 216 262 314 380
#     4   9  21  41  61  88 128 168 210 262 317 376
#     4  11  21  37  61  91 127 165 212 261 315 384
#     4  10  22  39  60  90 132 173 211 262 323 383
#     4  10  20  36  59  89 126 165 206 259 320 375
#     4  11  25  44  68  95 127 168 214 266 320 376
#     4  10  24  46  67  92 128 168 214 268 319 374
#
# _framework density 20.741887999999999
#
# number of rings (size 3 to 8) (size 9 to 14) (size 15 to 20)
#    0.000    1.500    1.250    4.500    1.750    5.500 
#    0.000    3.750    0.000    0.000    0.000    0.000 
#    0.000    0.000    0.000    0.000    0.000    0.000 
#
# Total GULP energy -178800.214775 kJ/mol
# GULP energy per Si atom -5587.506712 kJ/mol
# Density = 2.069468 g / cm^3
# Si number density = 20.741888 Si / 1000 Ang^3
#
#
#
# Elastic Constant Matrix: (Units=GPa)
#
#
# Indices 1 2 3 4 5 6 
#
# 1 52.3491 25.0012 15.9096 0.0000 0.0000 0.0000
# 2 25.0012 57.8294 21.3997 0.0000 0.0000 0.0000
# 3 15.9096 21.3997 60.5071 0.0000 0.0000 0.0000
# 4 0.0000 0.0000 0.0000 22.3657 0.0000 0.0000
# 5 0.0000 0.0000 0.0000 0.0000 18.3660 0.0000
# 6 0.0000 0.0000 0.0000 0.0000 0.0000 27.1043
#
#
#
# Elastic Compliance Matrix: (Units=1/GPa)
#
#
# Indices 1 2 3 4 5 6 
#
# 1 0.024572 -0.009472 -0.003111 0.000000 0.000000 0.000000
# 2 -0.009472 0.023547 -0.005838 0.000000 0.000000 0.000000
# 3 -0.003111 -0.005838 0.019410 0.000000 0.000000 0.000000
# 4 0.000000 0.000000 0.000000 0.044711 0.000000 0.000000
# 5 0.000000 0.000000 0.000000 0.000000 0.054448 0.000000
# 6 0.000000 0.000000 0.000000 0.000000 0.000000 0.036895
#
#
# Mechanical properties :
#
#
# Convention : Reuss Voigt Hill
#
# Bulk Modulus (GPa) = 32.58603 32.81185 32.69894
# Shear Modulus (GPa) = 19.94794 20.79221 20.37007
#
# Velocity S-wave (km/s) = 3.10453 3.16955 3.13721
# Velocity P-wave (km/s) = 5.34744 5.40816 5.37789
#
# Compressibility (1/GPa) = 0.03068799
#
# Stress axis : x y z
#
# Youngs Moduli (GPa) = 40.69746 42.46767 51.52111
#
# Poissons Ratio (x) = 0.40224 0.16028
# Poissons Ratio (y) = 0.38548 0.30076
# Poissons Ratio (z) = 0.12660 0.24791
#
# Static dielectric constant tensor:
#      x y z
#    x 1.735660 0.000000 0.000000 
#    y 0.000000 1.742840 0.000000 
#    z 0.000000 0.000000 1.767840 
# 
# From -- ./inp_files/4154.got.cif
#   From: 2010.05.17/outbox.cif.g08.bks.cpg/sg26_3_cif.got.tgz:4154.got - 2010.06.04 01:07:29.
