data_PCOD9338893
_publ_section_title
;
Structure prediction by ZEFSAII (Michael W. Deem and Ramdas Pophale) SiO2 
 PCOD9338893
Probable space group: P C C 2
;
_chemical_formula_sum "Si O2"
_cell_formula_units_Z 28
_cell_length_a 13.724661
_cell_length_b 14.363836
_cell_length_c 7.924074
_cell_angle_alpha 90.000000
_cell_angle_beta 90.000000
_cell_angle_gamma 90.000000
_cell_volume 1562.142279
_symmetry_space_group_name_H-M "P C C 2"
_symmetry_group_IT_number 27
_symmetry_cell_setting 'orthorhombic'
loop_
_space_group_symop_operation_xyz
x,y,z
-x,-y,z
-x,y,1/2+z
x,-y,1/2+z
loop_
_atom_site_type_symbol
_atom_site_label
_atom_site_fract_x
_atom_site_fract_y
_atom_site_fract_z
Si Si1 0.912871 0.874815 0.570420
Si Si2 0.330796 0.120009 0.213404
Si Si3 0.570919 0.800587 0.903988
Si Si4 0.500000 0.000000 0.295211
Si Si5 0.412349 0.637489 0.950966
Si Si6 0.500000 0.500000 0.714430
Si Si7 0.712336 0.788138 0.574718
Si Si8 0.885480 0.915111 0.180125
O O1 0.824324 0.807912 0.624134
O O2 0.896955 0.891381 0.374402
O O3 0.028141 0.857307 0.591817
O O4 0.898511 0.974458 0.659388
O O5 0.314603 0.145804 0.411918
O O6 0.225139 0.105032 0.131301
O O7 0.398853 0.028127 0.203711
O O8 0.380187 0.196232 0.089990
O O9 0.521660 0.902420 0.886527
O O10 0.490696 0.718904 0.906052
O O11 0.642826 0.795081 0.740923
O O12 0.416978 0.554836 0.816567
O O13 0.451017 0.582213 0.111723
O O14 0.311850 0.687798 0.993831
#
# Coordination Sequence:
#
# PCOD9338893 Si02
#       8
#     4   4   4   2   4   2   4   4
#     4  10  21  35  54  75 110 153 210 262 299 342
#     4  11  25  35  52  82 116 163 209 238 296 349
#     4  12  24  36  58  77 127 160 200 239 289 370
#     4  12  24  36  52  84 122 172 196 236 288 358
#     4  11  20  41  57  90 115 160 198 252 306 377
#     4  10  22  36  66  80 120 158 200 254 316 374
#     4  11  23  38  56  84 115 154 203 256 300 362
#     4  10  21  35  53  75 108 156 212 255 290 348
#
# _framework density 17.924104
#
# number of rings (size 3 to 8) (size 9 to 14) (size 15 to 20)
#    0.000    1.143    2.857    4.714   10.000    0.000 
#    0.000    0.000    0.000    0.000    0.000    0.000 
#    0.000   38.857    0.000    0.000    0.000    0.000 
#
# Total GULP energy -155913.810167 kJ/mol
# GULP energy per Si atom -5568.350363 kJ/mol
# Density = 1.788331 g / cm^3
# Si number density = 17.924104 Si / 1000 Ang^3
#
#
#
# Elastic Constant Matrix: (Units=GPa)
#
#
# Indices 1 2 3 4 5 6 
#
# 1 140.1271 43.8868 25.2896 0.0000 0.0000 0.0000
# 2 43.8868 87.0861 20.6034 0.0000 0.0000 0.0000
# 3 25.2896 20.6034 59.7165 0.0000 0.0000 0.0000
# 4 0.0000 0.0000 0.0000 -31.4151 0.0000 0.0000
# 5 0.0000 0.0000 0.0000 0.0000 56.8723 0.0000
# 6 0.0000 0.0000 0.0000 0.0000 0.0000 23.4199
#
#
#
# Elastic Compliance Matrix: (Units=1/GPa)
#
#
# Indices 1 2 3 4 5 6 
#
# 1 0.008775 -0.003858 -0.002385 0.000000 0.000000 0.000000
# 2 -0.003858 0.014200 -0.003265 0.000000 0.000000 0.000000
# 3 -0.002385 -0.003265 0.018882 0.000000 0.000000 0.000000
# 4 0.000000 0.000000 0.000000 -0.031832 0.000000 0.000000
# 5 0.000000 0.000000 0.000000 0.000000 0.017583 0.000000
# 6 0.000000 0.000000 0.000000 0.000000 0.000000 0.042699
#
#
# Mechanical properties :
#
#
# Convention : Reuss Voigt Hill
#
# Bulk Modulus (GPa) = 43.78209 51.83215 47.80712
# Shear Modulus (GPa) = 51.57954 22.91875 37.24914
#
# Velocity S-wave (km/s) = 5.37021 3.57971 4.56363
# Velocity P-wave (km/s) = 7.93294 6.78720 7.38233
#
# Compressibility (1/GPa) = 0.02284039
#
# Stress axis : x y z
#
# Youngs Moduli (GPa) = 113.95872 70.42450 52.95909
#
# Poissons Ratio (x) = 0.27169 0.12632
# Poissons Ratio (y) = 0.43964 0.17293
# Poissons Ratio (z) = 0.27181 0.22996
#
# Static dielectric constant tensor:
#      x y z
#    x 1.677740 0.000000 0.000000 
#    y 0.000000 2.251580 0.000000 
#    z 0.000000 0.000000 1.719600 
# 
# From -- ./inp_files/1632.got.cif
#   From: 2010.05.17/outbox.cif.g08.bks.cpg/sg27_1_cif.got.tgz:1632.got - 2010.06.04 01:11:05.
