data_PCOD9338063
_publ_section_title
;
Structure prediction by ZEFSAII (Michael W. Deem and Ramdas Pophale) SiO2 
 PCOD9338063
Probable space group: P M C 21
;
_chemical_formula_sum "Si O2"
_cell_formula_units_Z 32
_cell_length_a 7.498422
_cell_length_b 11.765274
_cell_length_c 16.642267
_cell_angle_alpha 90.000000
_cell_angle_beta 90.000000
_cell_angle_gamma 90.000000
_cell_volume 1468.197261
_symmetry_space_group_name_H-M "P M C 21"
_symmetry_group_IT_number 26
_symmetry_cell_setting 'orthorhombic'
loop_
_space_group_symop_operation_xyz
x,y,z
-x,-y,1/2+z
-x,y,z
x,-y,1/2+z
loop_
_atom_site_type_symbol
_atom_site_label
_atom_site_fract_x
_atom_site_fract_y
_atom_site_fract_z
Si Si1 0.717106 0.173442 0.257210
Si Si2 0.286859 0.416235 0.637917
Si Si3 0.700238 0.770723 0.445672
Si Si4 0.205546 0.927504 0.583756
Si Si5 0.296075 0.050336 0.827896
Si Si6 0.212875 0.150328 0.657479
Si Si7 0.717599 0.431905 0.290442
Si Si8 0.281572 0.517323 0.467141
O O1 0.500000 0.170499 0.256090
O O2 0.781943 0.127896 0.171679
O O3 0.771918 0.302136 0.273050
O O4 0.778370 0.076751 0.320245
O O5 0.500000 0.432871 0.637854
O O6 0.252468 0.281723 0.643703
O O7 0.222194 0.484709 0.717571
O O8 0.220561 0.461458 0.551171
O O9 0.500000 0.745572 0.413781
O O10 0.691074 0.845285 0.525212
O O11 0.792287 0.854459 0.382781
O O12 0.778012 0.648399 0.464372
O O13 0.000000 0.928207 0.557645
O O14 0.269740 0.057931 0.590518
O O15 0.500000 0.036788 0.857172
O O16 0.297115 0.104935 0.739621
O O17 0.000000 0.136663 0.665571
O O18 0.500000 0.435587 0.290192
O O19 0.772963 0.465037 0.381066
O O20 0.500000 0.512291 0.469539
#
# Coordination Sequence:
#
# PCOD9338063 Si02
#       8
#     4   4   4   4   4   4   4   4
#     4   9  17  32  54  78 103 132 168 209 255 305
#     4  10  19  32  53  76 100 137 178 215 258 307
#     4  10  19  33  54  79 105 132 168 213 258 304
#     4  10  21  35  51  73 102 136 171 210 258 310
#     4   9  18  32  54  82 105 129 167 214 257 305
#     4  10  21  36  52  72 102 138 172 210 260 310
#     4   9  17  31  52  78 108 137 168 212 262 311
#     4   9  18  31  50  78 107 135 170 213 262 314
#
# _framework density 21.795435999999999
#
# number of rings (size 3 to 8) (size 9 to 14) (size 15 to 20)
#    0.000    2.500    0.000    2.250    0.000    7.000 
#    0.000    5.000    0.000    2.250    0.000    0.000 
#    0.000    0.000    0.000    0.000    0.000    0.000 
#
# Total GULP energy -178477.109415 kJ/mol
# GULP energy per Si atom -5577.409669 kJ/mol
# Density = 2.174583 g / cm^3
# Si number density = 21.795436 Si / 1000 Ang^3
#
#
#
# Elastic Constant Matrix: (Units=GPa)
#
#
# Indices 1 2 3 4 5 6 
#
# 1 61.7154 -1.3137 2.5330 0.0000 0.0000 0.0000
# 2 -1.3137 208.5046 75.8370 0.0000 0.0000 0.0000
# 3 2.5330 75.8370 101.4390 0.0000 0.0000 0.0000
# 4 0.0000 0.0000 0.0000 35.4596 0.0000 0.0000
# 5 0.0000 0.0000 0.0000 0.0000 11.0853 0.0000
# 6 0.0000 0.0000 0.0000 0.0000 0.0000 -5.9467
#
#
#
# Elastic Compliance Matrix: (Units=1/GPa)
#
#
# Indices 1 2 3 4 5 6 
#
# 1 0.016238 0.000343 -0.000662 0.000000 0.000000 0.000000
# 2 0.000343 0.006595 -0.004939 0.000000 0.000000 0.000000
# 3 -0.000662 -0.004939 0.013567 0.000000 0.000000 0.000000
# 4 0.000000 0.000000 0.000000 0.028201 0.000000 0.000000
# 5 0.000000 0.000000 0.000000 0.000000 0.090209 0.000000
# 6 0.000000 0.000000 0.000000 0.000000 0.000000 -0.168161
#
#
# Mechanical properties :
#
#
# Convention : Reuss Voigt Hill
#
# Bulk Modulus (GPa) = 38.63371 58.41906 48.52639
# Shear Modulus (GPa) = 863.31370 27.75984 445.53677
#
# Velocity S-wave (km/s) = 19.92381 3.57270 14.31297
# Velocity P-wave (km/s) = 23.38892 6.62423 17.18898
#
# Compressibility (1/GPa) = 0.02588413
#
# Stress axis : x y z
#
# Youngs Moduli (GPa) = 61.58434 151.64111 73.70882
#
# Poissons Ratio (x) = -0.05203 0.04879
# Poissons Ratio (y) = -0.02113 0.36403
# Poissons Ratio (z) = 0.04077 0.74891
#
# Static dielectric constant tensor:
#      x y z
#    x 1.844820 0.000000 0.000000 
#    y 0.000000 1.780630 0.000000 
#    z 0.000000 0.000000 1.792650 
# 
# From -- ./inp_files/4283.got.cif
#   From: 2010.05.17/outbox.cif.g08.bks.cpg/sg26_3_cif.got.tgz:4283.got - 2010.06.04 01:07:29.
