data_PCOD9338426
_publ_section_title
;
Structure prediction by ZEFSAII (Michael W. Deem and Ramdas Pophale) SiO2 
 PCOD9338426
Probable space group: P M C 21
;
_chemical_formula_sum "Si O2"
_cell_formula_units_Z 18
_cell_length_a 8.947911
_cell_length_b 16.650690
_cell_length_c 4.976212
_cell_angle_alpha 90.000000
_cell_angle_beta 90.000000
_cell_angle_gamma 90.000000
_cell_volume 741.400313
_symmetry_space_group_name_H-M "P M C 21"
_symmetry_group_IT_number 26
_symmetry_cell_setting 'orthorhombic'
loop_
_space_group_symop_operation_xyz
x,y,z
-x,-y,1/2+z
-x,y,z
x,-y,1/2+z
loop_
_atom_site_type_symbol
_atom_site_label
_atom_site_fract_x
_atom_site_fract_y
_atom_site_fract_z
Si Si1 0.500000 0.439499 0.611780
Si Si2 0.000000 0.360127 0.017260
Si Si3 0.500000 0.942860 0.214688
Si Si4 0.000000 0.743001 0.009380
Si Si5 0.329968 0.345949 0.986764
Si Si6 0.000000 0.943128 0.613827
Si Si7 0.762357 0.829967 0.346353
O O1 0.500000 0.494924 0.354583
O O2 0.360236 0.382122 0.686077
O O3 0.827378 0.389110 0.075676
O O4 0.000000 0.335944 0.703335
O O5 0.000000 0.280788 0.202767
O O6 0.640419 0.885246 0.211492
O O7 0.500000 0.991343 0.488723
O O8 0.861637 0.793986 0.108138
O O9 0.500000 0.354664 0.109453
O O10 0.302332 0.250729 0.982663
O O11 0.858991 0.887188 0.540147
O O12 0.000000 0.018937 0.408621
#
# Coordination Sequence:
#
# PCOD9338426 Si02
#       7
#     2   2   2   2   4   2   4
#     4  10  23  44  67 100 142 180 218 272 351 408
#     4  10  20  41  62 102 125 164 215 268 325 389
#     4  12  25  38  55  84 124 164 216 272 331 400
#     4   9  22  36  64  86 125 154 209 271 321 380
#     4   9  21  43  71  99 135 177 226 284 331 401
#     4  11  24  41  64  90 132 176 218 281 352 397
#     4  10  21  42  62  92 125 172 225 275 335 401
#
# _framework density 24.278379999999999
#
# number of rings (size 3 to 8) (size 9 to 14) (size 15 to 20)
#    0.667    1.333    1.111    2.000    0.000   14.222 
#    2.000    1.111    0.000    0.000    0.000    0.000 
#    0.000    0.000    0.000    0.000    0.000    0.000 
#
# Total GULP energy -100356.289098 kJ/mol
# GULP energy per Si atom -5575.349394 kJ/mol
# Density = 2.422312 g / cm^3
# Si number density = 24.278380 Si / 1000 Ang^3
#
#
#
# Elastic Constant Matrix: (Units=GPa)
#
#
# Indices 1 2 3 4 5 6 
#
# 1 181.9683 12.8990 1.1741 0.0000 0.0000 0.0000
# 2 12.8990 86.2352 1.4439 0.0000 0.0000 0.0000
# 3 1.1741 1.4439 55.2338 0.0000 0.0000 0.0000
# 4 0.0000 0.0000 0.0000 41.4153 0.0000 0.0000
# 5 0.0000 0.0000 0.0000 0.0000 -9.0164 0.0000
# 6 0.0000 0.0000 0.0000 0.0000 0.0000 -14.2699
#
#
#
# Elastic Compliance Matrix: (Units=1/GPa)
#
#
# Indices 1 2 3 4 5 6 
#
# 1 0.005555 -0.000829 -0.000096 0.000000 0.000000 0.000000
# 2 -0.000829 0.011725 -0.000289 0.000000 0.000000 0.000000
# 3 -0.000096 -0.000289 0.018114 0.000000 0.000000 0.000000
# 4 0.000000 0.000000 0.000000 0.024146 0.000000 0.000000
# 5 0.000000 0.000000 0.000000 0.000000 -0.110909 0.000000
# 6 0.000000 0.000000 0.000000 0.000000 0.000000 -0.070078
#
#
# Mechanical properties :
#
#
# Convention : Reuss Voigt Hill
#
# Bulk Modulus (GPa) = 30.33498 39.38571 34.86035
# Shear Modulus (GPa) = -46.28388 24.15382 -11.06503
#
# Velocity S-wave (km/s) = -4.37095 3.15758 -2.13716
# Velocity P-wave (km/s) = 3.59887 5.43613 2.88094
#
# Compressibility (1/GPa) = 0.03296524
#
# Stress axis : x y z
#
# Youngs Moduli (GPa) = 180.02223 85.28733 55.20456
#
# Poissons Ratio (x) = 0.07073 0.00532
# Poissons Ratio (y) = 0.14929 0.01595
# Poissons Ratio (z) = 0.01735 0.02464
#
# Static dielectric constant tensor:
#      x y z
#    x 2.033110 0.000000 0.000000 
#    y 0.000000 1.897370 0.000000 
#    z 0.000000 0.000000 1.979060 
# 
# From -- ./inp_files/165.got.cif
#   From: 2010.05.17/outbox.cif.g08.bks.cpg/sg26_1_cif.got.tgz:165.got - 2010.06.04 01:07:29.
