data_PCOD9338546
_publ_section_title
;
Structure prediction by ZEFSAII (Michael W. Deem and Ramdas Pophale) SiO2 
 PCOD9338546
Probable space group: P M C 21
;
_chemical_formula_sum "Si O2"
_cell_formula_units_Z 20
_cell_length_a 8.925118
_cell_length_b 17.438426
_cell_length_c 5.096256
_cell_angle_alpha 90.000000
_cell_angle_beta 90.000000
_cell_angle_gamma 90.000000
_cell_volume 793.181334
_symmetry_space_group_name_H-M "P M C 21"
_symmetry_group_IT_number 26
_symmetry_cell_setting 'orthorhombic'
loop_
_space_group_symop_operation_xyz
x,y,z
-x,-y,1/2+z
-x,y,z
x,-y,1/2+z
loop_
_atom_site_type_symbol
_atom_site_label
_atom_site_fract_x
_atom_site_fract_y
_atom_site_fract_z
Si Si1 0.177577 0.455599 0.297280
Si Si2 0.000000 0.954406 0.825192
Si Si3 0.500000 0.324659 0.745990
Si Si4 0.829409 0.676198 0.169771
Si Si5 0.747382 0.152044 0.556782
Si Si6 0.500000 0.946999 0.325891
Si Si7 0.500000 0.769852 0.735834
O O1 0.240520 0.506252 0.536675
O O2 0.184332 0.366906 0.386855
O O3 0.000000 0.469873 0.275120
O O4 0.139420 0.905441 0.922207
O O5 0.000000 0.971139 0.516014
O O6 0.328522 0.351999 0.799167
O O7 0.500000 0.251454 0.936076
O O8 0.500000 0.302827 0.437441
O O9 0.819200 0.768500 0.163208
O O10 0.000000 0.655482 0.266410
O O11 0.645776 0.104137 0.759094
O O12 0.641439 0.182728 0.326468
O O13 0.500000 0.015899 0.111969
#
# Coordination Sequence:
#
# PCOD9338546 Si02
#       7
#     4   2   2   4   4   2   2
#     4   9  19  37  61  93 134 178 223 271 334 405
#     4  12  26  42  60  92 134 166 212 278 340 408
#     4  10  22  41  62  98 133 168 219 276 327 397
#     4  10  21  42  71 100 138 180 229 285 341 399
#     4  10  22  42  66  95 128 172 226 276 337 407
#     4  11  24  43  68  90 126 176 220 271 350 407
#     4   9  22  40  64  88 127 162 213 271 323 384
#
# _framework density 25.214917
#
# number of rings (size 3 to 8) (size 9 to 14) (size 15 to 20)
#    0.000    2.000    1.000    1.800    0.000   12.800 
#    1.800    5.000    0.000    0.000    0.000    0.000 
#    0.000    0.000    0.000    0.000    0.000    0.000 
#
# Total GULP energy -111597.395458 kJ/mol
# GULP energy per Si atom -5579.869773 kJ/mol
# Density = 2.515753 g / cm^3
# Si number density = 25.214917 Si / 1000 Ang^3
#
#
#
# Elastic Constant Matrix: (Units=GPa)
#
#
# Indices 1 2 3 4 5 6 
#
# 1 170.6202 18.0439 4.6798 0.0000 0.0000 0.0000
# 2 18.0439 112.5606 1.9637 0.0000 0.0000 0.0000
# 3 4.6798 1.9637 60.4359 0.0000 0.0000 0.0000
# 4 0.0000 0.0000 0.0000 42.0984 0.0000 0.0000
# 5 0.0000 0.0000 0.0000 0.0000 -9.5708 0.0000
# 6 0.0000 0.0000 0.0000 0.0000 0.0000 32.9917
#
#
#
# Elastic Compliance Matrix: (Units=1/GPa)
#
#
# Indices 1 2 3 4 5 6 
#
# 1 0.005973 -0.000950 -0.000432 0.000000 0.000000 0.000000
# 2 -0.000950 0.009040 -0.000220 0.000000 0.000000 0.000000
# 3 -0.000432 -0.000220 0.016587 0.000000 0.000000 0.000000
# 4 0.000000 0.000000 0.000000 0.023754 0.000000 0.000000
# 5 0.000000 0.000000 0.000000 0.000000 -0.104484 0.000000
# 6 0.000000 0.000000 0.000000 0.000000 0.000000 0.030311
#
#
# Mechanical properties :
#
#
# Convention : Reuss Voigt Hill
#
# Bulk Modulus (GPa) = 35.21516 43.66572 39.44044
# Shear Modulus (GPa) = -813.03515 34.36580 -389.33468
#
# Velocity S-wave (km/s) = -17.97615 3.69577 -12.43952
# Velocity P-wave (km/s) = 20.41715 5.96378 13.80748
#
# Compressibility (1/GPa) = 0.02839686
#
# Stress axis : x y z
#
# Youngs Moduli (GPa) = 167.41229 110.61655 60.28802
#
# Poissons Ratio (x) = 0.10509 0.02602
# Poissons Ratio (y) = 0.15904 0.01327
# Poissons Ratio (z) = 0.07227 0.02436
#
# Static dielectric constant tensor:
#      x y z
#    x 2.057120 0.000000 0.000000 
#    y 0.000000 2.017510 0.000000 
#    z 0.000000 0.000000 1.977520 
# 
# From -- ./inp_files/162.got.cif
#   From: 2010.05.17/outbox.cif.g08.bks.cpg/sg26_1_cif.got.tgz:162.got - 2010.06.04 01:07:29.
