data_PCOD9338326
_publ_section_title
;
Structure prediction by ZEFSAII (Michael W. Deem and Ramdas Pophale) SiO2 
 PCOD9338326
Probable space group: P M C 21
;
_chemical_formula_sum "Si O2"
_cell_formula_units_Z 26
_cell_length_a 12.399804
_cell_length_b 8.684618
_cell_length_c 11.369042
_cell_angle_alpha 90.000000
_cell_angle_beta 90.000000
_cell_angle_gamma 90.000000
_cell_volume 1224.304404
_symmetry_space_group_name_H-M "P M C 21"
_symmetry_group_IT_number 26
_symmetry_cell_setting 'orthorhombic'
loop_
_space_group_symop_operation_xyz
x,y,z
-x,-y,1/2+z
-x,y,z
x,-y,1/2+z
loop_
_atom_site_type_symbol
_atom_site_label
_atom_site_fract_x
_atom_site_fract_y
_atom_site_fract_z
Si Si1 0.877366 0.349244 0.687020
Si Si2 0.123216 0.747070 0.921460
Si Si3 0.127019 0.030435 0.751596
Si Si4 0.500000 0.232032 0.981845
Si Si5 0.675097 0.083844 0.135279
Si Si6 0.500000 0.840780 0.212391
Si Si7 0.500000 0.482156 0.666268
Si Si8 0.714801 0.404363 0.260352
O O1 0.875532 0.266738 0.560734
O O2 0.846049 0.209970 0.775248
O O3 0.799063 0.493848 0.686240
O O4 0.000000 0.397553 0.711742
O O5 0.216212 0.632191 0.876046
O O6 0.000000 0.704424 0.884352
O O7 0.143717 0.913147 0.860619
O O8 0.000000 0.025269 0.722396
O O9 0.201997 0.971604 0.644747
O O10 0.607039 0.136960 0.022271
O O11 0.500000 0.392204 0.058666
O O12 0.500000 0.228743 0.842522
O O13 0.680611 0.238871 0.211371
O O14 0.603152 0.949196 0.192120
O O15 0.500000 0.694803 0.124556
O O16 0.395950 0.505280 0.748757
#
# Coordination Sequence:
#
# PCOD9338326 Si02
#       8
#     4   4   4   2   4   2   2   4
#     4  10  20  35  58  86 116 157 201 241 296 351
#     4   9  19  36  57  83 116 156 198 239 290 348
#     4   9  18  35  58  84 118 154 194 246 290 338
#     4   9  21  39  58  84 118 155 195 246 293 337
#     4   9  20  37  57  86 115 151 204 238 283 362
#     4  11  21  39  62  82 118 159 193 246 297 339
#     4  10  22  38  58  88 116 148 202 240 284 358
#     4  10  20  37  57  83 120 151 191 248 292 344
#
# _framework density 21.236549
#
# number of rings (size 3 to 8) (size 9 to 14) (size 15 to 20)
#    0.000    2.462    0.000    1.846    0.000    5.538 
#    0.000    9.231    0.000    9.231    0.000    0.000 
#    0.000    0.000    0.000    0.000    0.000    0.000 
#
# Total GULP energy -144769.958147 kJ/mol
# GULP energy per Si atom -5568.075313 kJ/mol
# Density = 2.118821 g / cm^3
# Si number density = 21.236549 Si / 1000 Ang^3
#
#
#
# Elastic Constant Matrix: (Units=GPa)
#
#
# Indices 1 2 3 4 5 6 
#
# 1 76.7888 45.1446 2.4440 0.0000 0.0000 0.0000
# 2 45.1446 130.3935 33.7549 0.0000 0.0000 0.0000
# 3 2.4440 33.7549 51.5893 0.0000 0.0000 0.0000
# 4 0.0000 0.0000 0.0000 18.9909 0.0000 0.0000
# 5 0.0000 0.0000 0.0000 0.0000 -1.6721 0.0000
# 6 0.0000 0.0000 0.0000 0.0000 0.0000 39.0221
#
#
#
# Elastic Compliance Matrix: (Units=1/GPa)
#
#
# Indices 1 2 3 4 5 6 
#
# 1 0.016902 -0.006795 0.003646 0.000000 0.000000 0.000000
# 2 -0.006795 0.011965 -0.007507 0.000000 0.000000 0.000000
# 3 0.003646 -0.007507 0.024123 0.000000 0.000000 0.000000
# 4 0.000000 0.000000 0.000000 0.052657 0.000000 0.000000
# 5 0.000000 0.000000 0.000000 0.000000 -0.598045 0.000000
# 6 0.000000 0.000000 0.000000 0.000000 0.000000 0.025627
#
#
# Mechanical properties :
#
#
# Convention : Reuss Voigt Hill
#
# Bulk Modulus (GPa) = 31.56934 46.82874 39.19904
# Shear Modulus (GPa) = -11.49691 23.09672 5.79991
#
# Velocity S-wave (km/s) = -2.32927 3.30145 1.65440
# Velocity P-wave (km/s) = 2.76837 6.05240 4.70614
#
# Compressibility (1/GPa) = 0.03167630
#
# Stress axis : x y z
#
# Youngs Moduli (GPa) = 59.16535 83.57655 41.45446
#
# Poissons Ratio (x) = 0.56794 -0.15112
# Poissons Ratio (y) = 0.40205 0.31119
# Poissons Ratio (z) = -0.21569 0.62739
#
# Static dielectric constant tensor:
#      x y z
#    x 1.793760 0.000000 0.000000 
#    y 0.000000 1.836280 0.000000 
#    z 0.000000 0.000000 1.737430 
# 
# From -- ./inp_files/3289.got.cif
#   From: 2010.05.17/outbox.cif.g08.bks.cpg/sg26_2_cif.got.tgz:3289.got - 2010.06.04 01:07:29.
