data_PCOD9338055
_publ_section_title
;
Structure prediction by ZEFSAII (Michael W. Deem and Ramdas Pophale) SiO2 
 PCOD9338055
Probable space group: P M C 21
;
_chemical_formula_sum "Si O2"
_cell_formula_units_Z 32
_cell_length_a 13.765297
_cell_length_b 18.705732
_cell_length_c 7.388257
_cell_angle_alpha 90.000000
_cell_angle_beta 90.000000
_cell_angle_gamma 90.000000
_cell_volume 1902.401974
_symmetry_space_group_name_H-M "P M C 21"
_symmetry_group_IT_number 26
_symmetry_cell_setting 'orthorhombic'
loop_
_space_group_symop_operation_xyz
x,y,z
-x,-y,1/2+z
-x,y,z
x,-y,1/2+z
loop_
_atom_site_type_symbol
_atom_site_label
_atom_site_fract_x
_atom_site_fract_y
_atom_site_fract_z
Si Si1 0.389969 0.440160 0.631280
Si Si2 0.802318 0.089947 0.885597
Si Si3 0.886340 0.937502 0.004787
Si Si4 0.889358 0.817617 0.695436
Si Si5 0.616884 0.287102 0.678270
Si Si6 0.389268 0.405817 0.206620
Si Si7 0.613143 0.835068 0.477164
Si Si8 0.698011 0.741608 0.781234
O O1 0.500000 0.451563 0.702857
O O2 0.350187 0.368538 0.725871
O O3 0.395145 0.417908 0.422535
O O4 0.345758 0.519342 0.636883
O O5 0.858067 0.149909 0.002482
O O6 0.838933 0.012716 0.951422
O O7 0.830342 0.094669 0.676048
O O8 0.688933 0.103134 0.925627
O O9 0.000000 0.949171 0.052827
O O10 0.882251 0.883363 0.837029
O O11 0.810703 0.759729 0.756494
O O12 0.000000 0.792286 0.692958
O O13 0.500000 0.291861 0.647372
O O14 0.632212 0.229424 0.834689
O O15 0.666382 0.263101 0.490609
O O16 0.500000 0.395027 0.136702
O O17 0.330347 0.333215 0.187059
O O18 0.500000 0.854590 0.467446
O O19 0.639958 0.803535 0.674137
#
# Coordination Sequence:
#
# PCOD9338055 Si02
#       8
#     4   4   4   4   4   4   4   4
#     4   8  15  24  39  65  95 124 157 199 237 272
#     4  11  21  34  54  78 102 124 160 198 241 298
#     4  11  20  34  57  78  98 122 153 204 262 295
#     4  10  21  35  53  77  99 121 156 206 256 293
#     4   9  17  31  48  70 102 134 164 198 236 279
#     4   9  16  26  42  67  96 125 158 196 238 279
#     4  10  21  34  50  70 100 139 168 191 231 288
#     4  10  19  32  50  71  98 129 165 200 240 292
#
# _framework density 16.820841000000001
#
# number of rings (size 3 to 8) (size 9 to 14) (size 15 to 20)
#    0.000    2.250    1.250    3.750    1.750    0.000 
#    0.000    0.625    0.000    0.000    0.000    3.500 
#    0.000    0.000    0.000    0.000    0.000    0.000 
#
# Total GULP energy -178417.830396 kJ/mol
# GULP energy per Si atom -5575.557200 kJ/mol
# Density = 1.678256 g / cm^3
# Si number density = 16.820841 Si / 1000 Ang^3
#
#
#
# Elastic Constant Matrix: (Units=GPa)
#
#
# Indices 1 2 3 4 5 6 
#
# 1 100.3678 38.3403 7.6945 0.0000 0.0000 0.0000
# 2 38.3403 56.8722 -8.0055 0.0000 0.0000 0.0000
# 3 7.6945 -8.0055 33.6009 0.0000 0.0000 0.0000
# 4 0.0000 0.0000 0.0000 22.7810 0.0000 0.0000
# 5 0.0000 0.0000 0.0000 0.0000 15.2909 0.0000
# 6 0.0000 0.0000 0.0000 0.0000 0.0000 19.8161
#
#
#
# Elastic Compliance Matrix: (Units=1/GPa)
#
#
# Indices 1 2 3 4 5 6 
#
# 1 0.014442 -0.010555 -0.005822 0.000000 0.000000 0.000000
# 2 -0.010555 0.025908 0.008590 0.000000 0.000000 0.000000
# 3 -0.005822 0.008590 0.033141 0.000000 0.000000 0.000000
# 4 0.000000 0.000000 0.000000 0.043896 0.000000 0.000000
# 5 0.000000 0.000000 0.000000 0.000000 0.065398 0.000000
# 6 0.000000 0.000000 0.000000 0.000000 0.000000 0.050464
#
#
# Mechanical properties :
#
#
# Convention : Reuss Voigt Hill
#
# Bulk Modulus (GPa) = 17.26639 29.65549 23.46094
# Shear Modulus (GPa) = 18.64765 21.76504 20.20635
#
# Velocity S-wave (km/s) = 3.33318 3.60103 3.46969
# Velocity P-wave (km/s) = 5.01005 5.91256 5.47992
#
# Compressibility (1/GPa) = 0.05791598
#
# Stress axis : x y z
#
# Youngs Moduli (GPa) = 69.24312 38.59753 30.17422
#
# Poissons Ratio (x) = 0.40742 0.17567
# Poissons Ratio (y) = 0.73089 -0.25919
# Poissons Ratio (z) = 0.40313 -0.33155
#
# Static dielectric constant tensor:
#      x y z
#    x 1.550010 0.000000 0.000000 
#    y 0.000000 1.600640 0.000000 
#    z 0.000000 0.000000 1.602480 
# 
# From -- ./inp_files/2015.got.cif
#   From: 2010.05.17/outbox.cif.g08.bks.cpg/sg26_2_cif.got.tgz:2015.got - 2010.06.04 01:07:29.
