data_PCOD9338572
_publ_section_title
;
Structure prediction by ZEFSAII (Michael W. Deem and Ramdas Pophale) SiO2 
 PCOD9338572
Probable space group: P M C 21
;
_chemical_formula_sum "Si O2"
_cell_formula_units_Z 32
_cell_length_a 8.570305
_cell_length_b 12.157693
_cell_length_c 15.820149
_cell_angle_alpha 90.000000
_cell_angle_beta 90.000000
_cell_angle_gamma 90.000000
_cell_volume 1648.382594
_symmetry_space_group_name_H-M "P M C 21"
_symmetry_group_IT_number 26
_symmetry_cell_setting 'orthorhombic'
loop_
_space_group_symop_operation_xyz
x,y,z
-x,-y,1/2+z
-x,y,z
x,-y,1/2+z
loop_
_atom_site_type_symbol
_atom_site_label
_atom_site_fract_x
_atom_site_fract_y
_atom_site_fract_z
Si Si1 0.186496 0.219760 0.959400
Si Si2 0.686460 0.998779 0.024820
Si Si3 0.813176 0.404103 0.621134
Si Si4 0.688009 0.250212 0.474489
Si Si5 0.812736 0.996894 0.212840
Si Si6 0.311459 0.785338 0.786157
Si Si7 0.189868 0.753092 0.272002
Si Si8 0.686651 0.349575 0.120935
O O1 0.235396 0.092495 0.968200
O O2 0.240467 0.264946 0.868427
O O3 0.000000 0.227170 0.963254
O O4 0.255762 0.285114 0.038365
O O5 0.500000 0.008856 0.018059
O O6 0.731384 0.874697 0.000092
O O7 0.738657 0.018670 0.121177
O O8 0.763470 0.335557 0.538701
O O9 0.756993 0.335806 0.703442
O O10 0.745753 0.526045 0.619887
O O11 0.000000 0.410027 0.624146
O O12 0.500000 0.259152 0.481363
O O13 0.732781 0.265121 0.376571
O O14 0.763673 0.875641 0.243092
O O15 0.000000 0.999072 0.205720
O O16 0.756773 0.092858 0.274792
O O17 0.500000 0.793706 0.784609
O O18 0.259723 0.713008 0.706078
O O19 0.000000 0.751612 0.271581
O O20 0.500000 0.348501 0.121216
#
# Coordination Sequence:
#
# PCOD9338572 Si02
#       8
#     4   4   4   4   4   4   4   4
#     4  11  22  39  63  90 121 158 199 246 296 356
#     4  11  21  35  58  90 126 160 194 241 297 356
#     4  11  23  42  64  86 117 156 202 252 300 354
#     4  10  22  40  62  90 123 159 198 243 299 357
#     4  11  20  35  61  90 122 159 195 240 296 356
#     4  10  22  40  61  87 123 158 196 246 295 354
#     4   9  21  39  60  90 123 153 194 246 299 350
#     4  11  24  42  61  85 119 157 202 250 300 357
#
# _framework density 19.412969
#
# number of rings (size 3 to 8) (size 9 to 14) (size 15 to 20)
#    0.000    1.500    2.500    2.625    0.000    2.500 
#    0.000    6.875    0.000    0.000    0.000    0.000 
#    0.000    0.000    0.000    0.000    0.000    0.000 
#
# Total GULP energy -178874.468598 kJ/mol
# GULP energy per Si atom -5589.827144 kJ/mol
# Density = 1.936878 g / cm^3
# Si number density = 19.412969 Si / 1000 Ang^3
#
#
#
# Elastic Constant Matrix: (Units=GPa)
#
#
# Indices 1 2 3 4 5 6 
#
# 1 29.3035 24.9132 19.0427 0.0000 0.0000 0.0000
# 2 24.9132 120.4392 38.8028 0.0000 0.0000 0.0000
# 3 19.0427 38.8028 113.5523 0.0000 0.0000 0.0000
# 4 0.0000 0.0000 0.0000 5.8311 0.0000 0.0000
# 5 0.0000 0.0000 0.0000 0.0000 24.3056 0.0000
# 6 0.0000 0.0000 0.0000 0.0000 0.0000 30.7877
#
#
#
# Elastic Compliance Matrix: (Units=1/GPa)
#
#
# Indices 1 2 3 4 5 6 
#
# 1 0.043575 -0.007483 -0.004750 0.000000 0.000000 0.000000
# 2 -0.007483 0.010615 -0.002372 0.000000 0.000000 0.000000
# 3 -0.004750 -0.002372 0.010414 0.000000 0.000000 0.000000
# 4 0.000000 0.000000 0.000000 0.171495 0.000000 0.000000
# 5 0.000000 0.000000 0.000000 0.000000 0.041143 0.000000
# 6 0.000000 0.000000 0.000000 0.000000 0.000000 0.032481
#
#
# Mechanical properties :
#
#
# Convention : Reuss Voigt Hill
#
# Bulk Modulus (GPa) = 28.25515 47.64582 37.95049
# Shear Modulus (GPa) = 14.25594 24.22063 19.23828
#
# Velocity S-wave (km/s) = 2.71283 3.53604 3.15143
# Velocity P-wave (km/s) = 4.93953 6.42402 5.73005
#
# Compressibility (1/GPa) = 0.03539178
#
# Stress axis : x y z
#
# Youngs Moduli (GPa) = 22.94920 94.20443 96.02587
#
# Poissons Ratio (x) = 0.70494 0.45615
# Poissons Ratio (y) = 0.17173 0.22782
# Poissons Ratio (z) = 0.10902 0.22350
#
# Static dielectric constant tensor:
#      x y z
#    x 1.661760 0.000000 0.000000 
#    y 0.000000 1.644010 0.000000 
#    z 0.000000 0.000000 1.687490 
# 
# From -- ./inp_files/4171.got.cif
#   From: 2010.05.17/outbox.cif.g08.bks.cpg/sg26_3_cif.got.tgz:4171.got - 2010.06.04 01:07:29.
