data_PCOD9338410
_publ_section_title
;
Structure prediction by ZEFSAII (Michael W. Deem and Ramdas Pophale) SiO2 
 PCOD9338410
Probable space group: P M C 21
;
_chemical_formula_sum "Si O2"
_cell_formula_units_Z 20
_cell_length_a 10.266390
_cell_length_b 5.250111
_cell_length_c 18.084886
_cell_angle_alpha 90.000000
_cell_angle_beta 90.000000
_cell_angle_gamma 90.000000
_cell_volume 974.769696
_symmetry_space_group_name_H-M "P M C 21"
_symmetry_group_IT_number 26
_symmetry_cell_setting 'orthorhombic'
loop_
_space_group_symop_operation_xyz
x,y,z
-x,-y,1/2+z
-x,y,z
x,-y,1/2+z
loop_
_atom_site_type_symbol
_atom_site_label
_atom_site_fract_x
_atom_site_fract_y
_atom_site_fract_z
Si Si1 0.852139 0.016988 0.270600
Si Si2 0.363348 0.408237 0.277140
Si Si3 0.269665 0.752051 0.395694
Si Si4 0.649539 0.216989 0.654945
Si Si5 0.654665 0.265991 0.481972
O O1 0.766887 0.258732 0.295112
O O2 0.000000 0.069535 0.248938
O O3 0.849543 0.834223 0.342649
O O4 0.763300 0.916193 0.202489
O O5 0.500000 0.267943 0.290184
O O6 0.364558 0.653012 0.330431
O O7 0.356796 0.505454 0.193378
O O8 0.266758 0.508446 0.449799
O O9 0.314818 0.001954 0.439894
O O10 0.500000 0.114090 0.662320
O O11 0.680434 0.229527 0.568820
O O12 0.500000 0.323070 0.473567
#
# Coordination Sequence:
#
# PCOD9338410 Si02
#       5
#     4   4   4   4   4
#     4  11  24  43  66  93 131 179 222 265 318 386
#     4  10  20  38  66  96 126 167 219 272 318 381
#     4  11  23  40  64  97 130 169 213 265 325 386
#     4   9  22  40  65  98 130 166 216 271 328 387
#     4  11  22  39  67 102 135 165 206 273 337 386
#
# _framework density 20.517668
#
# number of rings (size 3 to 8) (size 9 to 14) (size 15 to 20)
#    0.000    1.600    2.000    2.400    2.800    6.400 
#    0.000    2.000    0.000    0.000    0.000    0.000 
#    0.000    0.000    0.000    0.000    0.000    0.000 
#
# Total GULP energy -111376.020809 kJ/mol
# GULP energy per Si atom -5568.801040 kJ/mol
# Density = 2.047097 g / cm^3
# Si number density = 20.517668 Si / 1000 Ang^3
#
#
#
# Elastic Constant Matrix: (Units=GPa)
#
#
# Indices 1 2 3 4 5 6 
#
# 1 154.0878 45.0186 47.5561 0.0000 0.0000 0.0000
# 2 45.0186 113.8033 58.9813 0.0000 0.0000 0.0000
# 3 47.5561 58.9813 173.8568 0.0000 0.0000 0.0000
# 4 0.0000 0.0000 0.0000 31.2465 0.0000 0.0000
# 5 0.0000 0.0000 0.0000 0.0000 17.4656 0.0000
# 6 0.0000 0.0000 0.0000 0.0000 0.0000 77.9369
#
#
#
# Elastic Compliance Matrix: (Units=1/GPa)
#
#
# Indices 1 2 3 4 5 6 
#
# 1 0.007565 -0.002330 -0.001279 0.000000 0.000000 0.000000
# 2 -0.002330 0.011379 -0.003223 0.000000 0.000000 0.000000
# 3 -0.001279 -0.003223 0.007195 0.000000 0.000000 0.000000
# 4 0.000000 0.000000 0.000000 0.032004 0.000000 0.000000
# 5 0.000000 0.000000 0.000000 0.000000 0.057255 0.000000
# 6 0.000000 0.000000 0.000000 0.000000 0.000000 0.012831
#
#
# Mechanical properties :
#
#
# Convention : Reuss Voigt Hill
#
# Bulk Modulus (GPa) = 80.15547 82.76219 81.45883
# Shear Modulus (GPa) = 34.23445 44.67592 39.45519
#
# Velocity S-wave (km/s) = 4.08920 4.67136 4.38994
# Velocity P-wave (km/s) = 7.83880 8.33787 8.09219
#
# Compressibility (1/GPa) = 0.01247575
#
# Stress axis : x y z
#
# Youngs Moduli (GPa) = 132.18400 87.87971 138.98234
#
# Poissons Ratio (x) = 0.20474 0.17775
# Poissons Ratio (y) = 0.30796 0.44796
# Poissons Ratio (z) = 0.16906 0.28325
#
# Static dielectric constant tensor:
#      x y z
#    x 1.675980 0.000000 0.000000 
#    y 0.000000 1.834630 0.000000 
#    z 0.000000 0.000000 1.746290 
# 
# From -- ./inp_files/5099.got.cif
#   From: 2010.05.17/outbox.cif.g08.bks.cpg/sg26_3_cif.got.tgz:5099.got - 2010.06.04 01:07:29.
