data_PCOD9338125
_publ_section_title
;
Structure prediction by ZEFSAII (Michael W. Deem and Ramdas Pophale) SiO2 
 PCOD9338125
Probable space group: P M C 21
;
_chemical_formula_sum "Si O2"
_cell_formula_units_Z 28
_cell_length_a 13.554218
_cell_length_b 20.314763
_cell_length_c 5.251655
_cell_angle_alpha 90.000000
_cell_angle_beta 90.000000
_cell_angle_gamma 90.000000
_cell_volume 1446.047019
_symmetry_space_group_name_H-M "P M C 21"
_symmetry_group_IT_number 26
_symmetry_cell_setting 'orthorhombic'
loop_
_space_group_symop_operation_xyz
x,y,z
-x,-y,1/2+z
-x,y,z
x,-y,1/2+z
loop_
_atom_site_type_symbol
_atom_site_label
_atom_site_fract_x
_atom_site_fract_y
_atom_site_fract_z
Si Si1 0.387223 0.732361 0.653250
Si Si2 0.611492 0.408658 0.879671
Si Si3 0.219050 0.462915 0.160296
Si Si4 0.114223 0.956162 0.694304
Si Si5 0.116117 0.757353 0.098799
Si Si6 0.748157 0.351063 0.490094
Si Si7 0.204259 0.820344 0.587348
O O1 0.500000 0.752784 0.696627
O O2 0.389491 0.667818 0.472318
O O3 0.333707 0.701158 0.899080
O O4 0.314616 0.790496 0.565447
O O5 0.500000 0.427852 0.821492
O O6 0.687588 0.405331 0.646313
O O7 0.662967 0.452553 0.097632
O O8 0.182743 0.507898 0.393830
O O9 0.198654 0.388341 0.255833
O O10 0.189509 0.896463 0.655354
O O11 0.000000 0.931010 0.681534
O O12 0.125754 0.991956 0.964785
O O13 0.150566 0.806311 0.320615
O O14 0.000000 0.750603 0.100975
O O15 0.171748 0.688521 0.148484
O O16 0.152040 0.781611 0.820968
#
# Coordination Sequence:
#
# PCOD9338125 Si02
#       7
#     4   4   4   4   4   4   4
#     4   9  19  34  55  83 113 148 188 232 282 339
#     4  10  19  34  53  77 110 144 179 224 277 336
#     4  11  22  37  52  75 104 143 184 228 274 334
#     4  10  20  34  54  80 114 154 191 229 279 335
#     4  11  22  36  59  89 117 144 184 239 294 340
#     4  10  20  36  58  81 112 148 183 231 291 338
#     4  11  21  37  58  87 118 151 190 233 284 338
#
# _framework density 19.363132
#
# number of rings (size 3 to 8) (size 9 to 14) (size 15 to 20)
#    0.000    1.714    2.857    2.571    0.000    2.286 
#    0.000    0.000    0.000    1.714    0.000    0.000 
#    0.000    0.000    0.000    0.000    0.000    0.000 
#
# Total GULP energy -156069.165916 kJ/mol
# GULP energy per Si atom -5573.898783 kJ/mol
# Density = 1.931906 g / cm^3
# Si number density = 19.363132 Si / 1000 Ang^3
#
#
#
# Elastic Constant Matrix: (Units=GPa)
#
#
# Indices 1 2 3 4 5 6 
#
# 1 83.8456 22.6564 9.7707 0.0000 0.0000 0.0000
# 2 22.6564 58.5457 -9.3295 0.0000 0.0000 0.0000
# 3 9.7707 -9.3295 66.4835 0.0000 0.0000 0.0000
# 4 0.0000 0.0000 0.0000 27.6546 0.0000 0.0000
# 5 0.0000 0.0000 0.0000 0.0000 16.7240 0.0000
# 6 0.0000 0.0000 0.0000 0.0000 0.0000 13.8617
#
#
#
# Elastic Compliance Matrix: (Units=1/GPa)
#
#
# Indices 1 2 3 4 5 6 
#
# 1 0.013827 -0.005804 -0.002847 0.000000 0.000000 0.000000
# 2 -0.005804 0.019908 0.003647 0.000000 0.000000 0.000000
# 3 -0.002847 0.003647 0.015971 0.000000 0.000000 0.000000
# 4 0.000000 0.000000 0.000000 0.036160 0.000000 0.000000
# 5 0.000000 0.000000 0.000000 0.000000 0.059794 0.000000
# 6 0.000000 0.000000 0.000000 0.000000 0.000000 0.072141
#
#
# Mechanical properties :
#
#
# Convention : Reuss Voigt Hill
#
# Bulk Modulus (GPa) = 25.19037 28.34109 26.76573
# Shear Modulus (GPa) = 20.74317 24.03322 22.38819
#
# Velocity S-wave (km/s) = 3.27658 3.52687 3.40402
# Velocity P-wave (km/s) = 5.22994 5.59048 5.41321
#
# Compressibility (1/GPa) = 0.03969771
#
# Stress axis : x y z
#
# Youngs Moduli (GPa) = 72.32310 50.23104 62.61190
#
# Poissons Ratio (x) = 0.29156 0.17823
# Poissons Ratio (y) = 0.41979 -0.22833
# Poissons Ratio (z) = 0.20587 -0.18318
#
# Static dielectric constant tensor:
#      x y z
#    x 1.661590 0.000000 0.000000 
#    y 0.000000 1.720170 0.000000 
#    z 0.000000 0.000000 1.758340 
# 
# From -- ./inp_files/433.got.cif
#   From: 2010.05.17/outbox.cif.g08.bks.cpg/sg26_1_cif.got.tgz:433.got - 2010.06.04 01:07:29.
