data_PCOD9338343
_publ_section_title
;
Structure prediction by ZEFSAII (Michael W. Deem and Ramdas Pophale) SiO2 
 PCOD9338343
Probable space group: P M C 21
;
_chemical_formula_sum "Si O2"
_cell_formula_units_Z 28
_cell_length_a 10.581236
_cell_length_b 5.231490
_cell_length_c 24.061271
_cell_angle_alpha 90.000000
_cell_angle_beta 90.000000
_cell_angle_gamma 90.000000
_cell_volume 1331.926823
_symmetry_space_group_name_H-M "P M C 21"
_symmetry_group_IT_number 26
_symmetry_cell_setting 'orthorhombic'
loop_
_space_group_symop_operation_xyz
x,y,z
-x,-y,1/2+z
-x,y,z
x,-y,1/2+z
loop_
_atom_site_type_symbol
_atom_site_label
_atom_site_fract_x
_atom_site_fract_y
_atom_site_fract_z
Si Si1 0.361364 0.146177 0.086050
Si Si2 0.231613 0.654374 0.120676
Si Si3 0.151520 0.282829 0.303896
Si Si4 0.647566 0.660974 0.464377
Si Si5 0.133418 0.701274 0.004815
Si Si6 0.848223 0.218027 0.744599
Si Si7 0.141752 0.932998 0.406946
O O1 0.500000 0.239974 0.101700
O O2 0.266436 0.358835 0.110088
O O3 0.340747 0.862812 0.108995
O O4 0.355951 0.153749 0.018772
O O5 0.183986 0.700218 0.182419
O O6 0.138039 0.732155 0.070690
O O7 0.198762 0.561971 0.286945
O O8 0.169258 0.167943 0.365277
O O9 0.000000 0.298352 0.296952
O O10 0.200133 0.060674 0.262597
O O11 0.500000 0.601208 0.451702
O O12 0.737073 0.434746 0.487102
O O13 0.732394 0.764241 0.413256
O O14 0.128071 0.955703 0.968740
O O15 0.000000 0.561244 0.990747
O O16 0.000000 0.204012 0.748761
O O17 0.000000 0.829997 0.390312
#
# Coordination Sequence:
#
# PCOD9338343 Si02
#       7
#     4   4   4   4   4   4   4
#     4  10  21  36  56  83 116 152 197 238 289 360
#     4  11  20  36  58  86 116 154 189 243 302 354
#     4   9  20  35  56  82 114 152 194 239 294 353
#     4  10  21  36  56  84 119 160 197 240 294 367
#     4  10  21  35  55  90 123 153 191 247 311 359
#     4  10  20  36  56  85 115 150 193 238 292 353
#     4  10  20  36  59  86 116 153 195 251 301 352
#
# _framework density 21.022175000000001
#
# number of rings (size 3 to 8) (size 9 to 14) (size 15 to 20)
#    0.000    2.000    1.429    2.143    2.000    1.143 
#    0.000    1.429    0.000    5.143    0.000    0.000 
#    0.000    0.000    0.000    0.000    0.000    0.000 
#
# Total GULP energy -155949.627992 kJ/mol
# GULP energy per Si atom -5569.629571 kJ/mol
# Density = 2.097433 g / cm^3
# Si number density = 21.022175 Si / 1000 Ang^3
#
#
#
# Elastic Constant Matrix: (Units=GPa)
#
#
# Indices 1 2 3 4 5 6 
#
# 1 111.7548 14.2595 23.6185 0.0000 0.0000 0.0000
# 2 14.2595 52.8746 4.9721 0.0000 0.0000 0.0000
# 3 23.6185 4.9721 67.3190 0.0000 0.0000 0.0000
# 4 0.0000 0.0000 0.0000 34.5879 0.0000 0.0000
# 5 0.0000 0.0000 0.0000 0.0000 3.3853 0.0000
# 6 0.0000 0.0000 0.0000 0.0000 0.0000 15.9642
#
#
#
# Elastic Compliance Matrix: (Units=1/GPa)
#
#
# Indices 1 2 3 4 5 6 
#
# 1 0.009952 -0.002372 -0.003316 0.000000 0.000000 0.000000
# 2 -0.002372 0.019610 -0.000616 0.000000 0.000000 0.000000
# 3 -0.003316 -0.000616 0.016064 0.000000 0.000000 0.000000
# 4 0.000000 0.000000 0.000000 0.028912 0.000000 0.000000
# 5 0.000000 0.000000 0.000000 0.000000 0.295394 0.000000
# 6 0.000000 0.000000 0.000000 0.000000 0.000000 0.062640
#
#
# Mechanical properties :
#
#
# Convention : Reuss Voigt Hill
#
# Bulk Modulus (GPa) = 30.28771 35.29429 32.79100
# Shear Modulus (GPa) = 10.96042 23.39403 17.17723
#
# Velocity S-wave (km/s) = 2.28584 3.33952 2.86160
# Velocity P-wave (km/s) = 4.62661 5.62987 5.15272
#
# Compressibility (1/GPa) = 0.03301670
#
# Stress axis : x y z
#
# Youngs Moduli (GPa) = 100.48539 50.99356 62.25227
#
# Poissons Ratio (x) = 0.12096 0.20645
# Poissons Ratio (y) = 0.23835 0.03836
# Poissons Ratio (z) = 0.33324 0.03142
#
# Static dielectric constant tensor:
#      x y z
#    x 1.799670 0.000000 0.000000 
#    y 0.000000 1.805150 0.000000 
#    z 0.000000 0.000000 1.766490 
# 
# From -- ./inp_files/5411.got.cif
#   From: 2010.05.17/outbox.cif.g08.bks.cpg/sg26_3_cif.got.tgz:5411.got - 2010.06.04 01:07:29.
