data_PCOD9338281
_publ_section_title
;
Structure prediction by ZEFSAII (Michael W. Deem and Ramdas Pophale) SiO2 
 PCOD9338281
Probable space group: P M C 21
;
_chemical_formula_sum "Si O2"
_cell_formula_units_Z 32
_cell_length_a 7.446932
_cell_length_b 19.781804
_cell_length_c 8.533025
_cell_angle_alpha 90.000000
_cell_angle_beta 90.000000
_cell_angle_gamma 90.000000
_cell_volume 1257.031905
_symmetry_space_group_name_H-M "P M C 21"
_symmetry_group_IT_number 26
_symmetry_cell_setting 'orthorhombic'
loop_
_space_group_symop_operation_xyz
x,y,z
-x,-y,1/2+z
-x,y,z
x,-y,1/2+z
loop_
_atom_site_type_symbol
_atom_site_label
_atom_site_fract_x
_atom_site_fract_y
_atom_site_fract_z
Si Si1 0.718035 0.403597 0.229780
Si Si2 0.295463 0.652771 0.205955
Si Si3 0.705972 0.026021 0.413514
Si Si4 0.717926 0.727249 0.898386
Si Si5 0.792504 0.773506 0.408827
Si Si6 0.280958 0.902125 0.224372
Si Si7 0.794034 0.853662 0.707342
Si Si8 0.720045 0.467945 0.904962
O O1 0.500000 0.402733 0.226589
O O2 0.772203 0.327440 0.266595
O O3 0.771747 0.455575 0.367024
O O4 0.779952 0.436202 0.068041
O O5 0.500000 0.637082 0.157743
O O6 0.296863 0.704523 0.352369
O O7 0.218510 0.582527 0.267049
O O8 0.217218 0.694164 0.060617
O O9 0.500000 0.012263 0.454878
O O10 0.783817 0.066003 0.561001
O O11 0.708894 0.076994 0.265808
O O12 0.781558 0.954543 0.358607
O O13 0.500000 0.732964 0.905014
O O14 0.785066 0.800352 0.849944
O O15 0.780204 0.827615 0.267985
O O16 0.714752 0.813265 0.558983
O O17 0.000000 0.757826 0.441558
O O18 0.500000 0.899737 0.221140
O O19 0.000000 0.869054 0.669910
O O20 0.500000 0.466417 0.906109
#
# Coordination Sequence:
#
# PCOD9338281 Si02
#       8
#     4   4   4   4   4   4   4   4
#     4   9  16  27  46  74 107 140 175 219 269 318
#     4  10  20  34  54  80 108 140 180 224 270 321
#     4  10  21  38  61  87 112 140 176 218 265 317
#     4  10  20  34  54  80 108 140 180 224 270 321
#     4  11  24  39  55  78 109 145 183 222 266 317
#     4  10  21  38  61  87 112 140 176 218 265 317
#     4  11  24  39  55  78 109 145 183 222 266 317
#     4   9  16  27  46  74 107 140 175 219 269 318
#
# _framework density 25.456793000000001
#
# number of rings (size 3 to 8) (size 9 to 14) (size 15 to 20)
#    0.000    2.000    0.000    3.750    0.000   11.500 
#    0.000    0.000    0.000    0.750    0.000    0.000 
#    0.000    0.000    0.000    0.000    0.000    0.000 
#
# Total GULP energy -179086.273697 kJ/mol
# GULP energy per Si atom -5596.446053 kJ/mol
# Density = 2.539885 g / cm^3
# Si number density = 25.456793 Si / 1000 Ang^3
#
#
#
# Elastic Constant Matrix: (Units=GPa)
#
#
# Indices 1 2 3 4 5 6 
#
# 1 83.9475 -6.4504 -1.6650 0.0000 0.0000 0.0000
# 2 -6.4504 115.7050 -8.9829 0.0000 0.0000 0.0000
# 3 -1.6650 -8.9829 69.1459 0.0000 0.0000 0.0000
# 4 0.0000 0.0000 0.0000 45.3319 0.0000 0.0000
# 5 0.0000 0.0000 0.0000 0.0000 -134.8278 0.0000
# 6 0.0000 0.0000 0.0000 0.0000 0.0000 15.3248
#
#
#
# Elastic Compliance Matrix: (Units=1/GPa)
#
#
# Indices 1 2 3 4 5 6 
#
# 1 0.011973 0.000697 0.000379 0.000000 0.000000 0.000000
# 2 0.000697 0.008771 0.001156 0.000000 0.000000 0.000000
# 3 0.000379 0.001156 0.014622 0.000000 0.000000 0.000000
# 4 0.000000 0.000000 0.000000 0.022059 0.000000 0.000000
# 5 0.000000 0.000000 0.000000 0.000000 -0.007417 0.000000
# 6 0.000000 0.000000 0.000000 0.000000 0.000000 0.065254
#
#
# Mechanical properties :
#
#
# Convention : Reuss Voigt Hill
#
# Bulk Modulus (GPa) = 25.10663 26.06688 25.58675
# Shear Modulus (GPa) = 40.29816 4.22557 22.26187
#
# Velocity S-wave (km/s) = 3.98301 1.28977 2.96040
# Velocity P-wave (km/s) = 5.57103 3.53269 4.66456
#
# Compressibility (1/GPa) = 0.03983012
#
# Stress axis : x y z
#
# Youngs Moduli (GPa) = 83.51937 114.00834 68.39239
#
# Poissons Ratio (x) = -0.07945 -0.02591
# Poissons Ratio (y) = -0.05820 -0.07908
# Poissons Ratio (z) = -0.03164 -0.13183
#
# Static dielectric constant tensor:
#      x y z
#    x 2.001780 0.000000 0.000000 
#    y 0.000000 1.902960 0.000000 
#    z 0.000000 0.000000 2.059730 
# 
# From -- ./inp_files/1598.got.cif
#   From: 2010.05.17/outbox.cif.g08.bks.cpg/sg26_1_cif.got.tgz:1598.got - 2010.06.04 01:07:29.
