data_PCOD9338247
_publ_section_title
;
Structure prediction by ZEFSAII (Michael W. Deem and Ramdas Pophale) SiO2 
 PCOD9338247
Probable space group: P M C 21
;
_chemical_formula_sum "Si O2"
_cell_formula_units_Z 32
_cell_length_a 9.178891
_cell_length_b 11.636546
_cell_length_c 17.597808
_cell_angle_alpha 90.000000
_cell_angle_beta 90.000000
_cell_angle_gamma 90.000000
_cell_volume 1879.632209
_symmetry_space_group_name_H-M "P M C 21"
_symmetry_group_IT_number 26
_symmetry_cell_setting 'orthorhombic'
loop_
_space_group_symop_operation_xyz
x,y,z
-x,-y,1/2+z
-x,y,z
x,-y,1/2+z
loop_
_atom_site_type_symbol
_atom_site_label
_atom_site_fract_x
_atom_site_fract_y
_atom_site_fract_z
Si Si1 0.667481 0.162746 0.494720
Si Si2 0.167115 0.047240 0.934332
Si Si3 0.171871 0.265000 0.725179
Si Si4 0.826848 0.378589 0.560858
Si Si5 0.332885 0.952760 0.162955
Si Si6 0.326848 0.621411 0.536430
Si Si7 0.328129 0.735000 0.372108
Si Si8 0.167481 0.837254 0.602568
O O1 0.500000 0.181376 0.471516
O O2 0.753020 0.280937 0.508542
O O3 0.663777 0.099983 0.577330
O O4 0.752089 0.074524 0.440337
O O5 0.256218 0.140631 0.886866
O O6 0.000000 0.036584 0.908645
O O7 0.163777 0.099983 0.019957
O O8 0.194026 0.337228 0.648100
O O9 0.243782 0.140631 0.710421
O O10 0.250000 0.317105 0.798644
O O11 0.000000 0.253600 0.738039
O O12 0.750000 0.500000 0.548644
O O13 0.000000 0.384700 0.546729
O O14 0.500000 0.963416 0.188643
O O15 0.252089 0.074524 0.156951
O O16 0.500000 0.615300 0.550558
O O17 0.305974 0.662772 0.449188
O O18 0.253020 0.719063 0.588746
O O19 0.500000 0.746400 0.359249
O O20 0.000000 0.818624 0.625772
#
# Coordination Sequence:
#
# PCOD9338247 Si02
#       8
#     4   4   4   4   4   4   4   4
#     4   9  16  27  45  69  96 124 155 194 239 286
#     4   9  16  27  45  69  96 124 154 191 238 289
#     4  10  20  33  50  73 100 130 165 206 253 305
#     4  10  20  33  50  73 100 132 172 213 253 300
#     4   9  16  27  45  69  96 124 154 191 238 289
#     4  10  20  33  50  73 100 132 172 213 253 300
#     4  10  20  33  50  73 100 130 165 206 253 305
#     4   9  16  27  45  69  96 124 155 194 239 286
#
# _framework density 17.024607
#
# number of rings (size 3 to 8) (size 9 to 14) (size 15 to 20)
#    0.000    2.500    0.000    3.000    0.000    9.000 
#    0.000    0.000    0.000    1.500    0.000    7.000 
#    0.000    0.000    0.000    0.000    0.000    0.000 
#
# Total GULP energy -178438.053323 kJ/mol
# GULP energy per Si atom -5576.189166 kJ/mol
# Density = 1.698586 g / cm^3
# Si number density = 17.024607 Si / 1000 Ang^3
#
#
#
# Elastic Constant Matrix: (Units=GPa)
#
#
# Indices 1 2 3 4 5 6 
#
# 1 169.1374 93.2586 46.2580 0.0000 0.0000 0.0000
# 2 93.2586 140.2291 23.6578 0.0000 0.0000 0.0000
# 3 46.2580 23.6578 35.9589 0.0000 0.0000 0.0000
# 4 0.0000 0.0000 0.0000 7.4863 0.0000 0.0000
# 5 0.0000 0.0000 0.0000 0.0000 22.5834 0.0000
# 6 0.0000 0.0000 0.0000 0.0000 0.0000 32.7489
#
#
#
# Elastic Compliance Matrix: (Units=1/GPa)
#
#
# Indices 1 2 3 4 5 6 
#
# 1 0.012825 -0.006463 -0.012247 0.000000 0.000000 0.000000
# 2 -0.006463 0.011279 0.000894 0.000000 0.000000 0.000000
# 3 -0.012247 0.000894 0.042975 0.000000 0.000000 0.000000
# 4 0.000000 0.000000 0.000000 0.133577 0.000000 0.000000
# 5 0.000000 0.000000 0.000000 0.000000 0.044280 0.000000
# 6 0.000000 0.000000 0.000000 0.000000 0.000000 0.030535
#
#
# Mechanical properties :
#
#
# Convention : Reuss Voigt Hill
#
# Bulk Modulus (GPa) = 31.79847 74.63046 53.21447
# Shear Modulus (GPa) = 15.54794 24.70713 20.12753
#
# Velocity S-wave (km/s) = 3.02530 3.81367 3.44213
# Velocity P-wave (km/s) = 5.56073 7.95765 6.86462
#
# Compressibility (1/GPa) = 0.03144806
#
# Stress axis : x y z
#
# Youngs Moduli (GPa) = 77.96969 88.66192 23.26921
#
# Poissons Ratio (x) = 0.57306 0.28497
# Poissons Ratio (y) = 0.50395 -0.02081
# Poissons Ratio (z) = 0.95486 -0.07928
#
# Static dielectric constant tensor:
#      x y z
#    x 1.571140 0.000000 0.000000 
#    y 0.000000 1.548830 0.000000 
#    z 0.000000 0.000000 1.596240 
# 
# From -- ./inp_files/5005.got.cif
#   From: 2010.05.17/outbox.cif.g08.bks.cpg/sg26_3_cif.got.tgz:5005.got - 2010.06.04 01:07:29.
