data_PCOD9338824
_publ_section_title
;
Structure prediction by ZEFSAII (Michael W. Deem and Ramdas Pophale) SiO2 
 PCOD9338824
Probable space group: P C C 2
;
_chemical_formula_sum "Si O2"
_cell_formula_units_Z 16
_cell_length_a 9.149673
_cell_length_b 8.226775
_cell_length_c 8.784530
_cell_angle_alpha 90.000000
_cell_angle_beta 90.000000
_cell_angle_gamma 90.000000
_cell_volume 661.231787
_symmetry_space_group_name_H-M "P C C 2"
_symmetry_group_IT_number 27
_symmetry_cell_setting 'orthorhombic'
loop_
_space_group_symop_operation_xyz
x,y,z
-x,-y,z
-x,y,1/2+z
x,-y,1/2+z
loop_
_atom_site_type_symbol
_atom_site_label
_atom_site_fract_x
_atom_site_fract_y
_atom_site_fract_z
Si Si1 0.470214 0.320879 0.883520
Si Si2 0.825806 0.376385 0.522662
Si Si3 0.364580 0.875173 0.095581
Si Si4 0.094425 0.279828 0.676145
O O1 0.500000 0.500000 0.825683
O O2 0.345726 0.336378 0.013977
O O3 0.409347 0.212365 0.750722
O O4 0.613044 0.240492 0.951182
O O5 0.851189 0.561784 0.577723
O O6 0.881023 0.333634 0.351475
O O7 0.923729 0.270104 0.636679
O O8 0.189697 0.877159 0.124253
O O9 0.500000 0.000000 0.071579
#
# Coordination Sequence:
#
# PCOD9338824 Si02
#       4
#     4   4   4   4
#     4  11  22  39  64  93 123 171 224 277 322 390
#     4  10  20  34  60  94 123 160 216 267 324 373
#     4  11  24  40  61  92 133 173 215 273 339 393
#     4  10  20  36  59  94 129 163 207 274 325 388
#
# _framework density 24.197261000000001
#
# number of rings (size 3 to 8) (size 9 to 14) (size 15 to 20)
#    0.000    1.500    2.500    4.500    3.500    2.000 
#    0.000    1.250    0.000    6.000    0.000    0.000 
#    0.000    0.000    0.000    0.000    0.000    0.000 
#
# Total GULP energy -89213.179089 kJ/mol
# GULP energy per Si atom -5575.823693 kJ/mol
# Density = 2.414219 g / cm^3
# Si number density = 24.197261 Si / 1000 Ang^3
#
#
#
# Elastic Constant Matrix: (Units=GPa)
#
#
# Indices 1 2 3 4 5 6 
#
# 1 69.7714 9.8112 -5.4529 0.0000 0.0000 0.0000
# 2 9.8112 62.4636 -6.8560 0.0000 0.0000 0.0000
# 3 -5.4529 -6.8560 69.7221 0.0000 0.0000 0.0000
# 4 0.0000 0.0000 0.0000 17.9756 0.0000 0.0000
# 5 0.0000 0.0000 0.0000 0.0000 41.0052 0.0000
# 6 0.0000 0.0000 0.0000 0.0000 0.0000 34.0809
#
#
#
# Elastic Compliance Matrix: (Units=1/GPa)
#
#
# Indices 1 2 3 4 5 6 
#
# 1 0.014716 -0.002209 0.000934 0.000000 0.000000 0.000000
# 2 -0.002209 0.016516 0.001451 0.000000 0.000000 0.000000
# 3 0.000934 0.001451 0.014558 0.000000 0.000000 0.000000
# 4 0.000000 0.000000 0.000000 0.055631 0.000000 0.000000
# 5 0.000000 0.000000 0.000000 0.000000 0.024387 0.000000
# 6 0.000000 0.000000 0.000000 0.000000 0.000000 0.029342
#
#
# Mechanical properties :
#
#
# Convention : Reuss Voigt Hill
#
# Bulk Modulus (GPa) = 21.67219 21.88464 21.77842
# Shear Modulus (GPa) = 29.38086 32.24265 30.81175
#
# Velocity S-wave (km/s) = 3.48835 3.65429 3.57228
# Velocity P-wave (km/s) = 5.02003 5.18353 5.10244
#
# Compressibility (1/GPa) = 0.04614208
#
# Stress axis : x y z
#
# Youngs Moduli (GPa) = 67.95267 60.54891 68.68893
#
# Poissons Ratio (x) = 0.13375 -0.06414
# Poissons Ratio (y) = 0.15011 -0.09969
# Poissons Ratio (z) = -0.06345 -0.08787
#
# Static dielectric constant tensor:
#      x y z
#    x 2.120730 0.000000 0.000000 
#    y 0.000000 2.006470 0.000000 
#    z 0.000000 0.000000 1.891480 
# 
# From -- ./inp_files/945.got.cif
#   From: 2010.05.17/outbox.cif.g08.bks.cpg/sg27_1_cif.got.tgz:945.got - 2010.06.04 01:11:05.
