data_PCOD9338130
_publ_section_title
;
Structure prediction by ZEFSAII (Michael W. Deem and Ramdas Pophale) SiO2 
 PCOD9338130
Probable space group: P M C 21
;
_chemical_formula_sum "Si O2"
_cell_formula_units_Z 24
_cell_length_a 7.419299
_cell_length_b 14.658856
_cell_length_c 8.224445
_cell_angle_alpha 90.000000
_cell_angle_beta 90.000000
_cell_angle_gamma 90.000000
_cell_volume 894.477772
_symmetry_space_group_name_H-M "P M C 21"
_symmetry_group_IT_number 26
_symmetry_cell_setting 'orthorhombic'
loop_
_space_group_symop_operation_xyz
x,y,z
-x,-y,1/2+z
-x,y,z
x,-y,1/2+z
loop_
_atom_site_type_symbol
_atom_site_label
_atom_site_fract_x
_atom_site_fract_y
_atom_site_fract_z
Si Si1 0.222535 0.137944 0.128380
Si Si2 0.216478 0.359563 0.434343
Si Si3 0.706535 0.804643 0.150805
Si Si4 0.780161 0.525665 0.253651
Si Si5 0.204434 0.689191 0.461489
Si Si6 0.209067 0.031187 0.440290
O O1 0.286439 0.088757 0.291740
O O2 0.000000 0.141865 0.130829
O O3 0.283147 0.240635 0.092562
O O4 0.280658 0.067702 0.987273
O O5 0.282587 0.261705 0.492630
O O6 0.264070 0.426216 0.585354
O O7 0.276867 0.421531 0.282734
O O8 0.000000 0.349694 0.424741
O O9 0.500000 0.813080 0.197815
O O10 0.803431 0.752326 0.297576
O O11 0.779425 0.902323 0.096501
O O12 0.714765 0.595645 0.393697
O O13 0.000000 0.526095 0.262752
O O14 0.000000 0.667418 0.514013
O O15 0.000000 0.017374 0.401798
#
# Coordination Sequence:
#
# PCOD9338130 Si02
#       6
#     4   4   4   4   4   4
#     4   9  18  32  57  85 105 128 166 211 261 313
#     4   9  17  32  52  75 101 132 168 213 259 303
#     4  11  22  35  50  73 104 143 181 213 251 301
#     4   8  15  27  49  76 100 126 162 204 251 299
#     4   9  17  34  57  81 105 132 167 213 261 310
#     4  10  19  34  55  80 105 133 168 212 259 308
#
# _framework density 26.831299000000001
#
# number of rings (size 3 to 8) (size 9 to 14) (size 15 to 20)
#    0.000    2.667    0.000    3.500    0.000    4.000 
#    0.000   12.500    0.000    0.000    0.000    0.000 
#    0.000    0.000    0.000    0.000    0.000    0.000 
#
# Total GULP energy -134237.913127 kJ/mol
# GULP energy per Si atom -5593.246380 kJ/mol
# Density = 2.677023 g / cm^3
# Si number density = 26.831299 Si / 1000 Ang^3
#
#
#
# Elastic Constant Matrix: (Units=GPa)
#
#
# Indices 1 2 3 4 5 6 
#
# 1 97.4351 0.6731 0.7413 0.0000 0.0000 0.0000
# 2 0.6731 175.9948 19.2217 0.0000 0.0000 0.0000
# 3 0.7413 19.2217 76.7940 0.0000 0.0000 0.0000
# 4 0.0000 0.0000 0.0000 57.6464 0.0000 0.0000
# 5 0.0000 0.0000 0.0000 0.0000 -19.0188 0.0000
# 6 0.0000 0.0000 0.0000 0.0000 0.0000 108.3150
#
#
#
# Elastic Compliance Matrix: (Units=1/GPa)
#
#
# Indices 1 2 3 4 5 6 
#
# 1 0.010264 -0.000029 -0.000092 0.000000 0.000000 0.000000
# 2 -0.000029 0.005842 -0.001462 0.000000 0.000000 0.000000
# 3 -0.000092 -0.001462 0.013389 0.000000 0.000000 0.000000
# 4 0.000000 0.000000 0.000000 0.017347 0.000000 0.000000
# 5 0.000000 0.000000 0.000000 0.000000 -0.052579 0.000000
# 6 0.000000 0.000000 0.000000 0.000000 0.000000 0.009232
#
#
# Mechanical properties :
#
#
# Convention : Reuss Voigt Hill
#
# Bulk Modulus (GPa) = 37.98133 43.49957 40.74045
# Shear Modulus (GPa) = 323.90335 51.36103 187.63219
#
# Velocity S-wave (km/s) = 10.99912 4.37993 8.37151
# Velocity P-wave (km/s) = 13.24740 6.46729 10.42400
#
# Compressibility (1/GPa) = 0.02632873
#
# Stress axis : x y z
#
# Youngs Moduli (GPa) = 97.42654 171.18111 74.69003
#
# Poissons Ratio (x) = 0.00500 0.00685
# Poissons Ratio (y) = 0.00285 0.10919
# Poissons Ratio (z) = 0.00894 0.25025
#
# Static dielectric constant tensor:
#      x y z
#    x 2.056800 0.000000 0.000000 
#    y 0.000000 2.031940 0.000000 
#    z 0.000000 0.000000 2.190490 
# 
# From -- ./inp_files/1443.got.cif
#   From: 2010.05.17/outbox.cif.g08.bks.cpg/sg26_1_cif.got.tgz:1443.got - 2010.06.04 01:07:29.
