data_PCOD9338010
_publ_section_title
;
Structure prediction by ZEFSAII (Michael W. Deem and Ramdas Pophale) SiO2 
 PCOD9338010
Probable space group: P M C 21
;
_chemical_formula_sum "Si O2"
_cell_formula_units_Z 32
_cell_length_a 8.667133
_cell_length_b 12.173136
_cell_length_c 15.895467
_cell_angle_alpha 90.000000
_cell_angle_beta 90.000000
_cell_angle_gamma 90.000000
_cell_volume 1677.070141
_symmetry_space_group_name_H-M "P M C 21"
_symmetry_group_IT_number 26
_symmetry_cell_setting 'orthorhombic'
loop_
_space_group_symop_operation_xyz
x,y,z
-x,-y,1/2+z
-x,y,z
x,-y,1/2+z
loop_
_atom_site_type_symbol
_atom_site_label
_atom_site_fract_x
_atom_site_fract_y
_atom_site_fract_z
Si Si1 0.184916 0.733334 0.458560
Si Si2 0.187618 0.741956 0.955527
Si Si3 0.813514 0.734009 0.647748
Si Si4 0.813315 0.106616 0.300687
Si Si5 0.683075 0.861849 0.299535
Si Si6 0.185881 0.497196 0.388930
Si Si7 0.184882 0.726505 0.142649
Si Si8 0.683170 0.499234 0.701733
O O1 0.229458 0.767094 0.552886
O O2 0.262362 0.801827 0.384610
O O3 0.219578 0.604111 0.444784
O O4 0.000000 0.746337 0.450187
O O5 0.238009 0.826684 0.883784
O O6 0.233336 0.618068 0.930184
O O7 0.000000 0.742981 0.955060
O O8 0.236471 0.767531 0.050567
O O9 0.770178 0.822278 0.718594
O O10 0.740239 0.616943 0.669501
O O11 0.000000 0.721422 0.650477
O O12 0.000000 0.099752 0.302358
O O13 0.746134 0.985393 0.298181
O O14 0.500000 0.861712 0.296014
O O15 0.747137 0.795236 0.219544
O O16 0.266047 0.510361 0.299024
O O17 0.000000 0.493478 0.375608
O O18 0.235979 0.600378 0.152919
O O19 0.000000 0.732331 0.147157
O O20 0.500000 0.489383 0.694276
#
# Coordination Sequence:
#
# PCOD9338010 Si02
#       8
#     4   4   4   4   4   4   4   4
#     4  10  21  38  65  94 118 155 203 249 298 355
#     4   9  19  37  65  95 117 147 200 252 297 346
#     4  10  21  40  67  93 119 156 205 252 295 352
#     4  10  21  41  66  89 116 154 204 255 297 352
#     4  12  26  42  59  85 123 162 200 249 307 365
#     4  10  18  35  62  90 121 156 194 244 300 358
#     4  11  22  40  65  90 118 158 206 255 295 350
#     4  12  23  35  57  92 130 164 194 238 305 368
#
# _framework density 19.080895999999999
#
# number of rings (size 3 to 8) (size 9 to 14) (size 15 to 20)
#    0.000    1.500    2.500    3.375    0.000    4.000 
#    0.000    8.750    0.000    0.000    0.000    0.000 
#    0.000    0.000    0.000    0.000    0.000    0.000 
#
# Total GULP energy -178851.966892 kJ/mol
# GULP energy per Si atom -5589.123965 kJ/mol
# Density = 1.903747 g / cm^3
# Si number density = 19.080896 Si / 1000 Ang^3
#
#
#
# Elastic Constant Matrix: (Units=GPa)
#
#
# Indices 1 2 3 4 5 6 
#
# 1 36.6336 33.9986 31.7795 0.0000 0.0000 0.0000
# 2 33.9986 113.1415 26.9742 0.0000 0.0000 0.0000
# 3 31.7795 26.9742 100.0245 0.0000 0.0000 0.0000
# 4 0.0000 0.0000 0.0000 0.4672 0.0000 0.0000
# 5 0.0000 0.0000 0.0000 0.0000 -7.6125 0.0000
# 6 0.0000 0.0000 0.0000 0.0000 0.0000 -17.6970
#
#
#
# Elastic Compliance Matrix: (Units=1/GPa)
#
#
# Indices 1 2 3 4 5 6 
#
# 1 0.048950 -0.011757 -0.012382 0.000000 0.000000 0.000000
# 2 -0.011757 0.012270 0.000427 0.000000 0.000000 0.000000
# 3 -0.012382 0.000427 0.013816 0.000000 0.000000 0.000000
# 4 0.000000 0.000000 0.000000 2.140447 0.000000 0.000000
# 5 0.000000 0.000000 0.000000 0.000000 -0.131363 0.000000
# 6 0.000000 0.000000 0.000000 0.000000 0.000000 -0.056507
#
#
# Mechanical properties :
#
#
# Convention : Reuss Voigt Hill
#
# Bulk Modulus (GPa) = 36.21672 48.36713 42.29193
# Shear Modulus (GPa) = 2.39895 5.50136 3.95016
#
# Velocity S-wave (km/s) = 1.12249 1.69983 1.44039
# Velocity P-wave (km/s) = 4.54992 5.40889 4.99789
#
# Compressibility (1/GPa) = 0.02761155
#
# Stress axis : x y z
#
# Youngs Moduli (GPa) = 20.42897 81.50073 72.37812
#
# Poissons Ratio (x) = 0.95824 0.89616
# Poissons Ratio (y) = 0.24019 -0.03088
# Poissons Ratio (z) = 0.25294 -0.03477
#
# Static dielectric constant tensor:
#      x y z
#    x 1.639120 0.000000 0.000000 
#    y 0.000000 1.630800 0.000000 
#    z 0.000000 0.000000 1.665380 
# 
# From -- ./inp_files/4209.got.cif
#   From: 2010.05.17/outbox.cif.g08.bks.cpg/sg26_3_cif.got.tgz:4209.got - 2010.06.04 01:07:29.
