data_PCOD9338108
_publ_section_title
;
Structure prediction by ZEFSAII (Michael W. Deem and Ramdas Pophale) SiO2 
 PCOD9338108
Probable space group: P M C 21
;
_chemical_formula_sum "Si O2"
_cell_formula_units_Z 32
_cell_length_a 8.602614
_cell_length_b 8.571392
_cell_length_c 20.721101
_cell_angle_alpha 90.000000
_cell_angle_beta 90.000000
_cell_angle_gamma 90.000000
_cell_volume 1527.898911
_symmetry_space_group_name_H-M "P M C 21"
_symmetry_group_IT_number 26
_symmetry_cell_setting 'orthorhombic'
loop_
_space_group_symop_operation_xyz
x,y,z
-x,-y,1/2+z
-x,y,z
x,-y,1/2+z
loop_
_atom_site_type_symbol
_atom_site_label
_atom_site_fract_x
_atom_site_fract_y
_atom_site_fract_z
Si Si1 0.179024 0.134221 0.641290
Si Si2 0.821545 0.669455 0.479872
Si Si3 0.687751 0.656706 0.947332
Si Si4 0.823249 0.689914 0.805454
Si Si5 0.318037 0.987404 0.013467
Si Si6 0.324688 0.989511 0.764797
Si Si7 0.175861 0.380099 0.732396
Si Si8 0.325129 0.245685 0.853917
O O1 0.287273 0.063626 0.587010
O O2 0.210048 0.048251 0.709331
O O3 0.210401 0.314389 0.661568
O O4 0.000000 0.117342 0.620830
O O5 0.740869 0.498046 0.488255
O O6 0.754415 0.838194 0.504092
O O7 0.801308 0.695458 0.403032
O O8 0.000000 0.656986 0.499841
O O9 0.500000 0.654585 0.943584
O O10 0.761693 0.639011 0.875806
O O11 0.735709 0.829323 0.974620
O O12 0.830200 0.558647 0.750515
O O13 0.000000 0.751147 0.813468
O O14 0.703415 0.811604 0.777403
O O15 0.500000 0.004641 0.998917
O O16 0.500000 0.026284 0.744400
O O17 0.303031 0.065948 0.835659
O O18 0.300103 0.317737 0.783578
O O19 0.000000 0.319637 0.747156
O O20 0.500000 0.275831 0.877988
#
# Coordination Sequence:
#
# PCOD9338108 Si02
#       8
#     4   4   4   4   4   4   4   4
#     4  10  21  41  64  86 116 158 208 257 308 369
#     4  12  24  39  63  93 126 166 209 258 318 378
#     4  11  24  42  65  95 131 169 211 264 321 383
#     4  11  21  35  58  92 128 159 200 256 314 376
#     4  11  25  45  66  90 124 167 216 265 316 376
#     4  10  21  36  57  87 121 161 203 248 306 371
#     4   9  19  35  57  85 118 154 193 245 305 364
#     4  10  19  33  56  84 116 154 196 243 300 365
#
# _framework density 20.943794
#
# number of rings (size 3 to 8) (size 9 to 14) (size 15 to 20)
#    0.000    1.500    1.250    4.125    0.000    7.500 
#    2.250    0.000    0.000    0.000    0.000    0.000 
#    0.000    0.000    0.000    0.000    0.000    0.000 
#
# Total GULP energy -178183.594989 kJ/mol
# GULP energy per Si atom -5568.237343 kJ/mol
# Density = 2.089612 g / cm^3
# Si number density = 20.943794 Si / 1000 Ang^3
#
#
#
# Elastic Constant Matrix: (Units=GPa)
#
#
# Indices 1 2 3 4 5 6 
#
# 1 54.5317 16.9873 -11.9988 0.0000 0.0000 0.0000
# 2 16.9873 90.3056 4.0341 0.0000 0.0000 0.0000
# 3 -11.9988 4.0341 19.4721 0.0000 0.0000 0.0000
# 4 0.0000 0.0000 0.0000 19.7885 0.0000 0.0000
# 5 0.0000 0.0000 0.0000 0.0000 20.6743 0.0000
# 6 0.0000 0.0000 0.0000 0.0000 0.0000 32.3854
#
#
#
# Elastic Compliance Matrix: (Units=1/GPa)
#
#
# Indices 1 2 3 4 5 6 
#
# 1 0.023310 -0.005073 0.015415 0.000000 0.000000 0.000000
# 2 -0.005073 0.012281 -0.005671 0.000000 0.000000 0.000000
# 3 0.015415 -0.005671 0.062029 0.000000 0.000000 0.000000
# 4 0.000000 0.000000 0.000000 0.050534 0.000000 0.000000
# 5 0.000000 0.000000 0.000000 0.000000 0.048369 0.000000
# 6 0.000000 0.000000 0.000000 0.000000 0.000000 0.030878
#
#
# Mechanical properties :
#
#
# Convention : Reuss Voigt Hill
#
# Bulk Modulus (GPa) = 9.34910 20.26162 14.80536
# Shear Modulus (GPa) = 19.70720 24.92210 22.31465
#
# Velocity S-wave (km/s) = 3.07083 3.45331 3.26767
# Velocity P-wave (km/s) = 4.12879 5.05922 4.61750
#
# Compressibility (1/GPa) = 0.10696211
#
# Stress axis : x y z
#
# Youngs Moduli (GPa) = 42.89971 81.42542 16.12149
#
# Poissons Ratio (x) = 0.41311 -0.24851
# Poissons Ratio (y) = 0.21765 0.09142
# Poissons Ratio (z) = -0.66130 0.46173
#
# Static dielectric constant tensor:
#      x y z
#    x 1.736580 0.000000 0.000000 
#    y 0.000000 1.887130 0.000000 
#    z 0.000000 0.000000 1.740880 
# 
# From -- ./inp_files/5568.got.cif
#   From: 2010.05.17/outbox.cif.g08.bks.cpg/sg26_3_cif.got.tgz:5568.got - 2010.06.04 01:07:29.
