data_PCOD9338659
_publ_section_title
;
Structure prediction by ZEFSAII (Michael W. Deem and Ramdas Pophale) SiO2 
 PCOD9338659
Probable space group: P M C 21
;
_chemical_formula_sum "Si O2"
_cell_formula_units_Z 20
_cell_length_a 16.235941
_cell_length_b 4.811544
_cell_length_c 9.230052
_cell_angle_alpha 90.000000
_cell_angle_beta 90.000000
_cell_angle_gamma 90.000000
_cell_volume 721.051150
_symmetry_space_group_name_H-M "P M C 21"
_symmetry_group_IT_number 26
_symmetry_cell_setting 'orthorhombic'
loop_
_space_group_symop_operation_xyz
x,y,z
-x,-y,1/2+z
-x,y,z
x,-y,1/2+z
loop_
_atom_site_type_symbol
_atom_site_label
_atom_site_fract_x
_atom_site_fract_y
_atom_site_fract_z
Si Si1 0.644151 0.724469 0.372270
Si Si2 0.244272 0.219513 0.364649
Si Si3 0.500000 0.539480 0.694363
Si Si4 0.000000 0.834795 0.170203
Si Si5 0.500000 0.977332 0.042455
Si Si6 0.000000 0.518077 0.433380
Si Si7 0.145671 0.839315 0.594817
O O1 0.706397 0.484786 0.427395
O O2 0.583553 0.567345 0.264213
O O3 0.582703 0.884482 0.481015
O O4 0.696607 0.974128 0.306153
O O5 0.194127 0.054689 0.490392
O O6 0.198263 0.317509 0.217909
O O7 0.500000 0.872528 0.700070
O O8 0.500000 0.353052 0.545695
O O9 0.000000 0.557932 0.263717
O O10 0.915978 0.987435 0.197906
O O11 0.000000 0.787332 0.997587
O O12 0.915885 0.650187 0.498685
#
# Coordination Sequence:
#
# PCOD9338659 Si02
#       7
#     4   4   2   2   2   2   4
#     4  11  28  46  72 109 148 196 251 306 386 444
#     4  12  28  46  76 112 156 198 245 319 380 452
#     4  11  24  47  76 103 143 197 250 308 365 458
#     4  11  26  48  75 105 145 203 254 313 378 471
#     4  11  24  47  76 103 143 197 250 308 365 458
#     4  11  26  48  75 105 145 203 254 313 378 471
#     4  11  28  46  72 109 154 196 256 309 390 454
#
# _framework density 27.737280999999999
#
# number of rings (size 3 to 8) (size 9 to 14) (size 15 to 20)
#    0.000    0.800    2.000    2.400   16.800    3.200 
#    0.000    0.000    0.000    0.000    0.000    0.000 
#    0.000    0.000    0.000    0.000    0.000    0.000 
#
# Total GULP energy -111998.621173 kJ/mol
# GULP energy per Si atom -5599.931059 kJ/mol
# Density = 2.767415 g / cm^3
# Si number density = 27.737281 Si / 1000 Ang^3
#
#
#
# Elastic Constant Matrix: (Units=GPa)
#
#
# Indices 1 2 3 4 5 6 
#
# 1 121.0008 32.5127 40.5237 0.0000 0.0000 0.0000
# 2 32.5127 117.6981 10.0643 0.0000 0.0000 0.0000
# 3 40.5237 10.0643 96.9855 0.0000 0.0000 0.0000
# 4 0.0000 0.0000 0.0000 48.0833 0.0000 0.0000
# 5 0.0000 0.0000 0.0000 0.0000 24.2178 0.0000
# 6 0.0000 0.0000 0.0000 0.0000 0.0000 42.9884
#
#
#
# Elastic Compliance Matrix: (Units=1/GPa)
#
#
# Indices 1 2 3 4 5 6 
#
# 1 0.010288 -0.002497 -0.004040 0.000000 0.000000 0.000000
# 2 -0.002497 0.009178 0.000091 0.000000 0.000000 0.000000
# 3 -0.004040 0.000091 0.011989 0.000000 0.000000 0.000000
# 4 0.000000 0.000000 0.000000 0.020797 0.000000 0.000000
# 5 0.000000 0.000000 0.000000 0.000000 0.041292 0.000000
# 6 0.000000 0.000000 0.000000 0.000000 0.000000 0.023262
#
#
# Mechanical properties :
#
#
# Convention : Reuss Voigt Hill
#
# Bulk Modulus (GPa) = 53.86580 55.76510 54.81545
# Shear Modulus (GPa) = 36.79554 39.89681 38.34617
#
# Velocity S-wave (km/s) = 3.64617 3.79672 3.72220
# Velocity P-wave (km/s) = 6.09821 6.27443 6.18695
#
# Compressibility (1/GPa) = 0.01856466
#
# Stress axis : x y z
#
# Youngs Moduli (GPa) = 97.19948 108.95388 83.40768
#
# Poissons Ratio (x) = 0.27201 0.33694
# Poissons Ratio (y) = 0.24266 -0.00757
# Poissons Ratio (z) = 0.39265 -0.00988
#
# Static dielectric constant tensor:
#      x y z
#    x 2.184710 0.000000 0.000000 
#    y 0.000000 2.101160 0.000000 
#    z 0.000000 0.000000 2.242230 
# 
# From -- ./inp_files/3499.got.cif
#   From: 2010.05.17/outbox.cif.g08.bks.cpg/sg26_2_cif.got.tgz:3499.got - 2010.06.04 01:07:29.
