data_PCOD9338399
_publ_section_title
;
Structure prediction by ZEFSAII (Michael W. Deem and Ramdas Pophale) SiO2 
 PCOD9338399
Probable space group: P M C 21
;
_chemical_formula_sum "Si O2"
_cell_formula_units_Z 32
_cell_length_a 12.895140
_cell_length_b 6.649319
_cell_length_c 19.261430
_cell_angle_alpha 90.000000
_cell_angle_beta 90.000000
_cell_angle_gamma 90.000000
_cell_volume 1651.550116
_symmetry_space_group_name_H-M "P M C 21"
_symmetry_group_IT_number 26
_symmetry_cell_setting 'orthorhombic'
loop_
_space_group_symop_operation_xyz
x,y,z
-x,-y,1/2+z
-x,y,z
x,-y,1/2+z
loop_
_atom_site_type_symbol
_atom_site_label
_atom_site_fract_x
_atom_site_fract_y
_atom_site_fract_z
Si Si1 0.884338 0.417602 0.443420
Si Si2 0.213143 0.242602 0.577991
Si Si3 0.879574 0.780470 0.229443
Si Si4 0.305069 0.506716 0.780702
Si Si5 0.384348 0.084205 0.045511
Si Si6 0.386581 0.535989 0.631485
Si Si7 0.298264 0.731049 0.410988
Si Si8 0.199042 0.892696 0.833872
O O1 0.862789 0.312553 0.517211
O O2 0.799334 0.591468 0.432471
O O3 0.000000 0.500994 0.439841
O O4 0.868659 0.248528 0.384212
O O5 0.155060 0.187831 0.649536
O O6 0.291787 0.423471 0.595637
O O7 0.289394 0.068307 0.551160
O O8 0.802292 0.611266 0.261112
O O9 0.861012 0.980393 0.275351
O O10 0.000000 0.721152 0.233098
O O11 0.374947 0.497924 0.712970
O O12 0.349369 0.392620 0.847821
O O13 0.277814 0.735676 0.798687
O O14 0.500000 0.993688 0.042384
O O15 0.367321 0.221576 0.977536
O O16 0.379540 0.230490 0.111838
O O17 0.500000 0.465804 0.607444
O O18 0.257909 0.941800 0.380175
#
# Coordination Sequence:
#
# PCOD9338399 Si02
#       8
#     4   4   4   4   4   4   4   4
#     4  11  22  36  59  86 120 161 198 237 292 349
#     4  11  21  39  59  85 121 154 199 246 291 341
#     4  10  21  36  57  85 117 154 197 240 291 348
#     4   9  21  37  59  84 116 152 192 247 290 346
#     4  11  22  38  61  87 115 157 200 244 297 349
#     4  10  21  39  62  86 114 154 195 243 298 348
#     4  10  21  39  57  87 122 153 197 248 286 345
#     4  10  20  38  59  82 121 155 195 239 296 336
#
# _framework density 19.375736
#
# number of rings (size 3 to 8) (size 9 to 14) (size 15 to 20)
#    0.000    1.750    2.500    1.875    0.000    6.000 
#    0.000    0.625    0.000    0.000    0.000    0.000 
#    0.000    0.000    0.000    0.000    0.000    0.000 
#
# Total GULP energy -178602.388719 kJ/mol
# GULP energy per Si atom -5581.324647 kJ/mol
# Density = 1.933164 g / cm^3
# Si number density = 19.375736 Si / 1000 Ang^3
#
#
#
# Elastic Constant Matrix: (Units=GPa)
#
#
# Indices 1 2 3 4 5 6 
#
# 1 43.4404 9.0792 -5.2956 0.0000 0.0000 0.0000
# 2 9.0792 75.7865 14.1957 0.0000 0.0000 0.0000
# 3 -5.2956 14.1957 74.6555 0.0000 0.0000 0.0000
# 4 0.0000 0.0000 0.0000 26.3964 0.0000 0.0000
# 5 0.0000 0.0000 0.0000 0.0000 -26.7652 0.0000
# 6 0.0000 0.0000 0.0000 0.0000 0.0000 8.4833
#
#
#
# Elastic Compliance Matrix: (Units=1/GPa)
#
#
# Indices 1 2 3 4 5 6 
#
# 1 0.023996 -0.003312 0.002332 0.000000 0.000000 0.000000
# 2 -0.003312 0.014139 -0.002923 0.000000 0.000000 0.000000
# 3 0.002332 -0.002923 0.014116 0.000000 0.000000 0.000000
# 4 0.000000 0.000000 0.000000 0.037884 0.000000 0.000000
# 5 0.000000 0.000000 0.000000 0.000000 -0.037362 0.000000
# 6 0.000000 0.000000 0.000000 0.000000 0.000000 0.117878
#
#
# Mechanical properties :
#
#
# Convention : Reuss Voigt Hill
#
# Bulk Modulus (GPa) = 22.49947 25.53791 24.01869
# Shear Modulus (GPa) = 25.87009 13.34978 19.60994
#
# Velocity S-wave (km/s) = 3.65798 2.62772 3.18478
# Velocity P-wave (km/s) = 5.42940 4.73450 5.09382
#
# Compressibility (1/GPa) = 0.04444550
#
# Stress axis : x y z
#
# Youngs Moduli (GPa) = 41.67288 70.72496 70.84079
#
# Poissons Ratio (x) = 0.23421 -0.16519
# Poissons Ratio (y) = 0.13800 0.20710
# Poissons Ratio (z) = -0.09717 0.20676
#
# Static dielectric constant tensor:
#      x y z
#    x 1.746900 0.000000 0.000000 
#    y 0.000000 1.661490 0.000000 
#    z 0.000000 0.000000 1.689160 
# 
# From -- ./inp_files/5247.got.cif
#   From: 2010.05.17/outbox.cif.g08.bks.cpg/sg26_3_cif.got.tgz:5247.got - 2010.06.04 01:07:29.
