data_PCOD9338165
_publ_section_title
;
Structure prediction by ZEFSAII (Michael W. Deem and Ramdas Pophale) SiO2 
 PCOD9338165
Probable space group: P M C 21
;
_chemical_formula_sum "Si O2"
_cell_formula_units_Z 32
_cell_length_a 8.773493
_cell_length_b 14.970204
_cell_length_c 12.479663
_cell_angle_alpha 90.000000
_cell_angle_beta 90.000000
_cell_angle_gamma 90.000000
_cell_volume 1639.091169
_symmetry_space_group_name_H-M "P M C 21"
_symmetry_group_IT_number 26
_symmetry_cell_setting 'orthorhombic'
loop_
_space_group_symop_operation_xyz
x,y,z
-x,-y,1/2+z
-x,y,z
x,-y,1/2+z
loop_
_atom_site_type_symbol
_atom_site_label
_atom_site_fract_x
_atom_site_fract_y
_atom_site_fract_z
Si Si1 0.328073 0.332897 0.125000
Si Si2 0.676937 0.357795 0.374744
Si Si3 0.177424 0.170507 0.025550
Si Si4 0.682626 0.863669 0.136679
Si Si5 0.318858 0.943138 0.707712
Si Si6 0.684604 0.264400 0.819904
Si Si7 0.680616 0.448178 0.920353
Si Si8 0.819466 0.165154 0.408086
O O1 0.500000 0.295408 0.104070
O O2 0.323941 0.362910 0.246137
O O3 0.205384 0.257495 0.100195
O O4 0.306459 0.411866 0.040800
O O5 0.500000 0.348355 0.411702
O O6 0.744371 0.452385 0.412140
O O7 0.764194 0.267904 0.404007
O O8 0.257005 0.093494 0.094244
O O9 0.000000 0.151882 0.010575
O O10 0.253792 0.199880 0.913925
O O11 0.500000 0.860211 0.119517
O O12 0.728613 0.776771 0.205633
O O13 0.714599 0.951430 0.207933
O O14 0.761796 0.870904 0.022217
O O15 0.500000 0.930001 0.711151
O O16 0.249185 0.889370 0.807537
O O17 0.500000 0.264169 0.825987
O O18 0.737387 0.365664 0.846709
O O19 0.500000 0.457417 0.894652
O O20 0.000000 0.160161 0.401108
#
# Coordination Sequence:
#
# PCOD9338165 Si02
#       8
#     4   4   4   4   4   4   4   4
#     4   9  17  32  54  81 114 155 202 254 302 353
#     4  10  19  34  59  86 117 161 206 253 301 358
#     4  11  21  34  57  87 118 154 195 248 308 360
#     4  10  24  43  66  91 120 161 204 251 306 365
#     4  11  23  41  64  89 117 156 207 254 297 357
#     4   9  19  39  63  89 120 156 203 256 303 358
#     4   8  16  31  56  89 118 151 206 259 303 351
#     4  12  26  42  61  90 128 162 199 251 310 368
#
# _framework density 19.523014
#
# number of rings (size 3 to 8) (size 9 to 14) (size 15 to 20)
#    0.000    2.000    1.250    3.375    1.750    2.500 
#    0.000    6.250    0.000    1.500    0.000    0.000 
#    0.000    0.000    0.000    0.000    0.000    0.000 
#
# Total GULP energy -178556.572068 kJ/mol
# GULP energy per Si atom -5579.892877 kJ/mol
# Density = 1.947858 g / cm^3
# Si number density = 19.523014 Si / 1000 Ang^3
#
#
#
# Elastic Constant Matrix: (Units=GPa)
#
#
# Indices 1 2 3 4 5 6 
#
# 1 52.1592 38.0920 23.5780 0.0000 0.0000 0.0000
# 2 38.0920 108.8370 36.7655 0.0000 0.0000 0.0000
# 3 23.5780 36.7655 59.7920 0.0000 0.0000 0.0000
# 4 0.0000 0.0000 0.0000 12.5297 0.0000 0.0000
# 5 0.0000 0.0000 0.0000 0.0000 6.6005 0.0000
# 6 0.0000 0.0000 0.0000 0.0000 0.0000 -17.3292
#
#
#
# Elastic Compliance Matrix: (Units=1/GPa)
#
#
# Indices 1 2 3 4 5 6 
#
# 1 0.027468 -0.007516 -0.006210 0.000000 0.000000 0.000000
# 2 -0.007516 0.013653 -0.005432 0.000000 0.000000 0.000000
# 3 -0.006210 -0.005432 0.022513 0.000000 0.000000 0.000000
# 4 0.000000 0.000000 0.000000 0.079810 0.000000 0.000000
# 5 0.000000 0.000000 0.000000 0.000000 0.151503 0.000000
# 6 0.000000 0.000000 0.000000 0.000000 0.000000 -0.057706
#
#
# Mechanical properties :
#
#
# Convention : Reuss Voigt Hill
#
# Bulk Modulus (GPa) = 39.49496 46.40657 42.95077
# Shear Modulus (GPa) = 17.60581 8.51705 13.06143
#
# Velocity S-wave (km/s) = 3.00625 2.09094 2.58936
# Velocity P-wave (km/s) = 5.68541 5.44529 5.56665
#
# Compressibility (1/GPa) = 0.02531968
#
# Stress axis : x y z
#
# Youngs Moduli (GPa) = 36.40581 73.24222 44.41804
#
# Poissons Ratio (x) = 0.55047 0.27585
# Poissons Ratio (y) = 0.27362 0.24126
# Poissons Ratio (z) = 0.22609 0.39782
#
# Static dielectric constant tensor:
#      x y z
#    x 1.672030 0.000000 0.000000 
#    y 0.000000 1.714160 0.000000 
#    z 0.000000 0.000000 1.675510 
# 
# From -- ./inp_files/3092.got.cif
#   From: 2010.05.17/outbox.cif.g08.bks.cpg/sg26_2_cif.got.tgz:3092.got - 2010.06.04 01:07:29.
