data_PCOD9338579
_publ_section_title
;
Structure prediction by ZEFSAII (Michael W. Deem and Ramdas Pophale) SiO2 
 PCOD9338579
Probable space group: P M C 21
;
_chemical_formula_sum "Si O2"
_cell_formula_units_Z 20
_cell_length_a 10.165272
_cell_length_b 6.127071
_cell_length_c 12.987005
_cell_angle_alpha 90.000000
_cell_angle_beta 90.000000
_cell_angle_gamma 90.000000
_cell_volume 808.874091
_symmetry_space_group_name_H-M "P M C 21"
_symmetry_group_IT_number 26
_symmetry_cell_setting 'orthorhombic'
loop_
_space_group_symop_operation_xyz
x,y,z
-x,-y,1/2+z
-x,y,z
x,-y,1/2+z
loop_
_atom_site_type_symbol
_atom_site_label
_atom_site_fract_x
_atom_site_fract_y
_atom_site_fract_z
Si Si1 0.000000 0.077217 0.623981
Si Si2 0.500000 0.751570 0.003020
Si Si3 0.769799 0.737680 0.668485
Si Si4 0.500000 0.138535 0.852904
Si Si5 0.500000 0.916629 0.644872
Si Si6 0.000000 0.494453 0.706379
Si Si7 0.000000 0.593052 0.928538
Si Si8 0.284635 0.498112 0.382334
O O1 0.000000 0.240007 0.722183
O O2 0.000000 0.213888 0.514632
O O3 0.867715 0.936294 0.639182
O O4 0.627299 0.625177 0.966138
O O5 0.500000 0.996855 0.956845
O O6 0.500000 0.823099 0.119898
O O7 0.731351 0.667326 0.785565
O O8 0.867647 0.538866 0.643938
O O9 0.631773 0.787541 0.616587
O O10 0.500000 0.949249 0.768269
O O11 0.629594 0.292049 0.849066
O O12 0.000000 0.654456 0.804736
O O13 0.862066 0.460507 0.925254
#
# Coordination Sequence:
#
# PCOD9338579 Si02
#       8
#     2   2   4   2   2   2   2   4
#     4  11  23  43  67 100 130 179 226 262 353 399
#     4  11  23  43  65  97 131 173 231 271 335 404
#     4  10  22  42  64  92 130 170 222 275 328 400
#     4  11  24  43  66  96 136 178 225 274 350 389
#     4  12  23  40  69  95 129 183 222 283 329 399
#     4   9  23  41  63  90 132 174 214 282 333 399
#     4  10  22  40  66  94 134 171 216 284 322 396
#     4  10  22  45  63  96 136 172 222 280 332 400
#
# _framework density 24.725729000000001
#
# number of rings (size 3 to 8) (size 9 to 14) (size 15 to 20)
#    0.000    1.600    2.000    2.400    5.600    1.600 
#    7.200    9.000    0.000    0.000    0.000    0.000 
#    0.000    0.000    0.000    0.000    0.000    0.000 
#
# Total GULP energy -111413.363236 kJ/mol
# GULP energy per Si atom -5570.668162 kJ/mol
# Density = 2.466945 g / cm^3
# Si number density = 24.725729 Si / 1000 Ang^3
#
#
#
# Elastic Constant Matrix: (Units=GPa)
#
#
# Indices 1 2 3 4 5 6 
#
# 1 253.1658 53.2259 4.5588 0.0000 0.0000 0.0000
# 2 53.2259 74.5304 10.4963 0.0000 0.0000 0.0000
# 3 4.5588 10.4963 76.3293 0.0000 0.0000 0.0000
# 4 0.0000 0.0000 0.0000 41.9423 0.0000 0.0000
# 5 0.0000 0.0000 0.0000 0.0000 14.3325 0.0000
# 6 0.0000 0.0000 0.0000 0.0000 0.0000 -56.7729
#
#
#
# Elastic Compliance Matrix: (Units=1/GPa)
#
#
# Indices 1 2 3 4 5 6 
#
# 1 0.004650 -0.003347 0.000182 0.000000 0.000000 0.000000
# 2 -0.003347 0.016091 -0.002013 0.000000 0.000000 0.000000
# 3 0.000182 -0.002013 0.013367 0.000000 0.000000 0.000000
# 4 0.000000 0.000000 0.000000 0.023842 0.000000 0.000000
# 5 0.000000 0.000000 0.000000 0.000000 0.069771 0.000000
# 6 0.000000 0.000000 0.000000 0.000000 0.000000 -0.017614
#
#
# Mechanical properties :
#
#
# Convention : Reuss Voigt Hill
#
# Bulk Modulus (GPa) = 42.09804 60.06528 51.08166
# Shear Modulus (GPa) = 38.94687 22.28336 30.61511
#
# Velocity S-wave (km/s) = 3.97313 3.00529 3.52261
# Velocity P-wave (km/s) = 6.17338 6.03222 6.10321
#
# Compressibility (1/GPa) = 0.02375408
#
# Stress axis : x y z
#
# Youngs Moduli (GPa) = 215.03916 62.14697 74.81096
#
# Poissons Ratio (x) = 0.20799 -0.01365
# Poissons Ratio (y) = 0.71968 0.15058
# Poissons Ratio (z) = -0.03924 0.12509
#
# Static dielectric constant tensor:
#      x y z
#    x 2.063990 0.000000 0.000000 
#    y 0.000000 1.934490 0.000000 
#    z 0.000000 0.000000 2.057320 
# 
# From -- ./inp_files/4402.got.cif
#   From: 2010.05.17/outbox.cif.g08.bks.cpg/sg26_3_cif.got.tgz:4402.got - 2010.06.04 01:07:29.
