data_PCOD9338030
_publ_section_title
;
Structure prediction by ZEFSAII (Michael W. Deem and Ramdas Pophale) SiO2 
 PCOD9338030
Probable space group: P M C 21
;
_chemical_formula_sum "Si O2"
_cell_formula_units_Z 16
_cell_length_a 13.007230
_cell_length_b 12.850808
_cell_length_c 5.020071
_cell_angle_alpha 90.000000
_cell_angle_beta 90.000000
_cell_angle_gamma 90.000000
_cell_volume 839.122013
_symmetry_space_group_name_H-M "P M C 21"
_symmetry_group_IT_number 26
_symmetry_cell_setting 'orthorhombic'
loop_
_space_group_symop_operation_xyz
x,y,z
-x,-y,1/2+z
-x,y,z
x,-y,1/2+z
loop_
_atom_site_type_symbol
_atom_site_label
_atom_site_fract_x
_atom_site_fract_y
_atom_site_fract_z
Si Si1 0.375110 0.438996 0.695500
Si Si2 0.383538 0.222373 0.940105
Si Si3 0.500000 0.928946 0.100324
Si Si4 0.000000 0.069640 0.101589
Si Si5 0.776070 0.923985 0.701584
O O1 0.500000 0.434348 0.692180
O O2 0.343727 0.469635 0.399031
O O3 0.342419 0.329070 0.817223
O O4 0.500000 0.242008 0.055231
O O5 0.406494 0.142941 0.696638
O O6 0.307561 0.163612 0.137070
O O7 0.500000 0.973266 0.805218
O O8 0.891450 0.121675 0.169169
O O9 0.000000 0.032125 0.795873
O O10 0.766903 0.985766 0.976856
#
# Coordination Sequence:
#
# PCOD9338030 Si02
#       5
#     4   4   2   2   4
#     4   9  18  32  46  62  85 115 154 194 223 260
#     4   9  20  32  46  71  91 127 152 184 231 276
#     4  10  20  30  40  62  94 120 142 172 212 266
#     4   8  16  30  46  64  88 122 156 186 214 254
#     4  10  19  31  47  68  96 124 153 184 220 270
#
# _framework density 19.067550000000001
#
# number of rings (size 3 to 8) (size 9 to 14) (size 15 to 20)
#    0.750    2.000    0.000    1.500    0.000    4.000 
#    0.000    0.000    0.000    0.000    0.000    1.750 
#    0.000    0.000    0.000    0.000    0.000    0.000 
#
# Total GULP energy -89222.048106 kJ/mol
# GULP energy per Si atom -5576.378007 kJ/mol
# Density = 1.902415 g / cm^3
# Si number density = 19.067550 Si / 1000 Ang^3
#
#
#
# Elastic Constant Matrix: (Units=GPa)
#
#
# Indices 1 2 3 4 5 6 
#
# 1 77.8848 3.2945 -0.6010 0.0000 0.0000 0.0000
# 2 3.2945 46.2454 -5.9394 0.0000 0.0000 0.0000
# 3 -0.6010 -5.9394 73.6049 0.0000 0.0000 0.0000
# 4 0.0000 0.0000 0.0000 9.8402 0.0000 0.0000
# 5 0.0000 0.0000 0.0000 0.0000 18.0798 0.0000
# 6 0.0000 0.0000 0.0000 0.0000 0.0000 9.4314
#
#
#
# Elastic Compliance Matrix: (Units=1/GPa)
#
#
# Indices 1 2 3 4 5 6 
#
# 1 0.012878 -0.000913 0.000031 0.000000 0.000000 0.000000
# 2 -0.000913 0.021915 0.001761 0.000000 0.000000 0.000000
# 3 0.000031 0.001761 0.013728 0.000000 0.000000 0.000000
# 4 0.000000 0.000000 0.000000 0.101624 0.000000 0.000000
# 5 0.000000 0.000000 0.000000 0.000000 0.055310 0.000000
# 6 0.000000 0.000000 0.000000 0.000000 0.000000 0.106028
#
#
# Mechanical properties :
#
#
# Convention : Reuss Voigt Hill
#
# Bulk Modulus (GPa) = 19.88875 21.24926 20.56900
# Shear Modulus (GPa) = 15.31460 20.86904 18.09182
#
# Velocity S-wave (km/s) = 2.83711 3.31188 3.08365
# Velocity P-wave (km/s) = 4.60278 5.07869 4.84658
#
# Compressibility (1/GPa) = 0.05027969
#
# Stress axis : x y z
#
# Youngs Moduli (GPa) = 77.64967 45.63085 72.84168
#
# Poissons Ratio (x) = 0.04168 -0.00229
# Poissons Ratio (y) = 0.07093 -0.12827
# Poissons Ratio (z) = -0.00244 -0.08035
#
# Static dielectric constant tensor:
#      x y z
#    x 1.741820 0.000000 0.000000 
#    y 0.000000 1.668320 0.000000 
#    z 0.000000 0.000000 1.697060 
# 
# From -- ./inp_files/543.got.cif
#   From: 2010.05.17/outbox.cif.g08.bks.cpg/sg26_1_cif.got.tgz:543.got - 2010.06.04 01:07:29.
