data_PCOD9338345
_publ_section_title
;
Structure prediction by ZEFSAII (Michael W. Deem and Ramdas Pophale) SiO2 
 PCOD9338345
Probable space group: P M C 21
;
_chemical_formula_sum "Si O2"
_cell_formula_units_Z 32
_cell_length_a 9.248577
_cell_length_b 10.987703
_cell_length_c 14.156372
_cell_angle_alpha 90.000000
_cell_angle_beta 90.000000
_cell_angle_gamma 90.000000
_cell_volume 1438.579261
_symmetry_space_group_name_H-M "P M C 21"
_symmetry_group_IT_number 26
_symmetry_cell_setting 'orthorhombic'
loop_
_space_group_symop_operation_xyz
x,y,z
-x,-y,1/2+z
-x,y,z
x,-y,1/2+z
loop_
_atom_site_type_symbol
_atom_site_label
_atom_site_fract_x
_atom_site_fract_y
_atom_site_fract_z
Si Si1 0.328175 0.677143 0.186030
Si Si2 0.836407 0.176370 0.831516
Si Si3 0.164878 0.704240 0.526798
Si Si4 0.168517 0.059034 0.467130
Si Si5 0.170795 0.183976 0.288136
Si Si6 0.827917 0.458381 0.294015
Si Si7 0.329588 0.923135 0.621353
Si Si8 0.830550 0.424895 0.514391
O O1 0.500000 0.676645 0.181606
O O2 0.271368 0.790934 0.247754
O O3 0.266493 0.559765 0.243122
O O4 0.259672 0.662602 0.082106
O O5 0.000000 0.175049 0.793490
O O6 0.816449 0.055336 0.894259
O O7 0.827811 0.280203 0.913046
O O8 0.278251 0.798373 0.569458
O O9 0.183012 0.563897 0.552532
O O10 0.000000 0.743188 0.553203
O O11 0.207949 0.169844 0.398703
O O12 0.000000 0.066466 0.494528
O O13 0.263706 0.029796 0.557332
O O14 0.193291 0.321827 0.254551
O O15 0.258303 0.091730 0.223427
O O16 0.000000 0.157167 0.281431
O O17 0.792033 0.440768 0.404664
O O18 0.000000 0.488143 0.285821
O O19 0.500000 0.932214 0.626735
O O20 0.000000 0.390431 0.518776
#
# Coordination Sequence:
#
# PCOD9338345 Si02
#       8
#     4   4   4   4   4   4   4   4
#     4  12  24  35  53  85 122 156 188 230 289 355
#     4   9  17  35  59  80 105 141 190 241 286 328
#     4   9  17  33  58  82 108 145 194 243 277 325
#     4   9  20  40  64  87 111 146 199 253 288 329
#     4  10  21  40  65  89 114 149 199 249 289 339
#     4  10  21  40  63  87 115 152 196 243 291 339
#     4  11  22  35  57  89 122 156 191 233 294 356
#     4  10  20  36  57  81 113 153 195 236 284 341
#
# _framework density 22.244168999999999
#
# number of rings (size 3 to 8) (size 9 to 14) (size 15 to 20)
#    0.000    2.000    1.250    3.750    0.000    7.000 
#    2.250    0.000    0.000    0.000    0.000    0.000 
#    0.000    0.000    0.000    0.000    0.000    0.000 
#
# Total GULP energy -178944.711504 kJ/mol
# GULP energy per Si atom -5592.022235 kJ/mol
# Density = 2.219354 g / cm^3
# Si number density = 22.244169 Si / 1000 Ang^3
#
#
#
# Elastic Constant Matrix: (Units=GPa)
#
#
# Indices 1 2 3 4 5 6 
#
# 1 86.6989 9.1990 55.0792 0.0000 0.0000 0.0000
# 2 9.1990 60.0154 6.3442 0.0000 0.0000 0.0000
# 3 55.0792 6.3442 110.8975 0.0000 0.0000 0.0000
# 4 0.0000 0.0000 0.0000 41.3634 0.0000 0.0000
# 5 0.0000 0.0000 0.0000 0.0000 -138.4873 0.0000
# 6 0.0000 0.0000 0.0000 0.0000 0.0000 4.6607
#
#
#
# Elastic Compliance Matrix: (Units=1/GPa)
#
#
# Indices 1 2 3 4 5 6 
#
# 1 0.017027 -0.001726 -0.008358 0.000000 0.000000 0.000000
# 2 -0.001726 0.016939 -0.000112 0.000000 0.000000 0.000000
# 3 -0.008358 -0.000112 0.013175 0.000000 0.000000 0.000000
# 4 0.000000 0.000000 0.000000 0.024176 0.000000 0.000000
# 5 0.000000 0.000000 0.000000 0.000000 -0.007221 0.000000
# 6 0.000000 0.000000 0.000000 0.000000 0.000000 0.214561
#
#
# Mechanical properties :
#
#
# Convention : Reuss Voigt Hill
#
# Bulk Modulus (GPa) = 37.38486 44.31739 40.85113
# Shear Modulus (GPa) = 16.23559 -6.02670 5.10445
#
# Velocity S-wave (km/s) = 2.70456 -1.64779 1.51648
# Velocity P-wave (km/s) = 5.15713 4.04303 4.63368
#
# Compressibility (1/GPa) = 0.02674880
#
# Stress axis : x y z
#
# Youngs Moduli (GPa) = 58.72964 59.03606 75.90186
#
# Poissons Ratio (x) = 0.10192 0.63439
# Poissons Ratio (y) = 0.10139 0.00847
# Poissons Ratio (z) = 0.49087 0.00659
#
# Static dielectric constant tensor:
#      x y z
#    x 1.726230 0.000000 0.000000 
#    y 0.000000 1.899760 0.000000 
#    z 0.000000 0.000000 1.854180 
# 
# From -- ./inp_files/4277.got.cif
#   From: 2010.05.17/outbox.cif.g08.bks.cpg/sg26_3_cif.got.tgz:4277.got - 2010.06.04 01:07:29.
