data_PCOD9338129
_publ_section_title
;
Structure prediction by ZEFSAII (Michael W. Deem and Ramdas Pophale) SiO2 
 PCOD9338129
Probable space group: P M C 21
;
_chemical_formula_sum "Si O2"
_cell_formula_units_Z 20
_cell_length_a 26.784317
_cell_length_b 7.051378
_cell_length_c 4.951044
_cell_angle_alpha 90.000000
_cell_angle_beta 90.000000
_cell_angle_gamma 90.000000
_cell_volume 935.085577
_symmetry_space_group_name_H-M "P M C 21"
_symmetry_group_IT_number 26
_symmetry_cell_setting 'orthorhombic'
loop_
_space_group_symop_operation_xyz
x,y,z
-x,-y,1/2+z
-x,y,z
x,-y,1/2+z
loop_
_atom_site_type_symbol
_atom_site_label
_atom_site_fract_x
_atom_site_fract_y
_atom_site_fract_z
Si Si1 0.943017 0.370794 0.698750
Si Si2 0.659887 0.133322 0.571116
Si Si3 0.849501 0.878476 0.047935
Si Si4 0.553945 0.134748 0.694790
Si Si5 0.243816 0.621988 0.213278
O O1 0.936768 0.551873 0.501254
O O2 0.901771 0.220120 0.617550
O O3 0.000000 0.301886 0.663812
O O4 0.606381 0.233126 0.628694
O O5 0.706492 0.263496 0.638888
O O6 0.661786 0.048578 0.271224
O O7 0.804516 0.742381 0.133294
O O8 0.845824 0.063919 0.236575
O O9 0.500000 0.231354 0.651921
O O10 0.554807 0.952068 0.494433
O O11 0.243198 0.564481 0.525533
#
# Coordination Sequence:
#
# PCOD9338129 Si02
#       5
#     4   4   4   4   4
#     4  10  21  39  61  85 116 151 182 215 265 325
#     4  10  19  34  55  79 106 136 178 225 265 312
#     4  12  24  39  60  85 112 142 184 231 270 311
#     4   8  14  25  45  73 101 130 167 213 261 309
#     4  12  24  39  57  78 109 145 181 220 273 331
#
# _framework density 21.388414999999998
#
# number of rings (size 3 to 8) (size 9 to 14) (size 15 to 20)
#    0.000    1.600    0.000    6.000    0.000    0.800 
#    0.000    0.000    0.000    1.200    0.000    0.000 
#    0.000    0.000    0.000    0.000    0.000    0.000 
#
# Total GULP energy -111755.703524 kJ/mol
# GULP energy per Si atom -5587.785176 kJ/mol
# Density = 2.133973 g / cm^3
# Si number density = 21.388415 Si / 1000 Ang^3
#
#
#
# Elastic Constant Matrix: (Units=GPa)
#
#
# Indices 1 2 3 4 5 6 
#
# 1 154.0366 38.1675 -4.1517 0.0000 0.0000 0.0000
# 2 38.1675 22.6268 -7.2562 0.0000 0.0000 0.0000
# 3 -4.1517 -7.2562 65.3698 0.0000 0.0000 0.0000
# 4 0.0000 0.0000 0.0000 33.2540 0.0000 0.0000
# 5 0.0000 0.0000 0.0000 0.0000 26.6841 0.0000
# 6 0.0000 0.0000 0.0000 0.0000 0.0000 108.3695
#
#
#
# Elastic Compliance Matrix: (Units=1/GPa)
#
#
# Indices 1 2 3 4 5 6 
#
# 1 0.011285 -0.019499 -0.001448 0.000000 0.000000 0.000000
# 2 -0.019499 0.079521 0.007589 0.000000 0.000000 0.000000
# 3 -0.001448 0.007589 0.016048 0.000000 0.000000 0.000000
# 4 0.000000 0.000000 0.000000 0.030072 0.000000 0.000000
# 5 0.000000 0.000000 0.000000 0.000000 0.037476 0.000000
# 6 0.000000 0.000000 0.000000 0.000000 0.000000 0.009228
#
#
# Mechanical properties :
#
#
# Convention : Reuss Voigt Hill
#
# Bulk Modulus (GPa) = 12.47869 32.83914 22.65891
# Shear Modulus (GPa) = 21.09191 48.01311 34.55251
#
# Velocity S-wave (km/s) = 3.14369 4.74309 4.02366
# Velocity P-wave (km/s) = 4.36165 6.73668 5.67481
#
# Compressibility (1/GPa) = 0.08013664
#
# Stress axis : x y z
#
# Youngs Moduli (GPa) = 88.61688 12.57527 62.31312
#
# Poissons Ratio (x) = 0.24521 0.09022
# Poissons Ratio (y) = 1.72797 -0.47287
# Poissons Ratio (z) = 0.12830 -0.09543
#
# Static dielectric constant tensor:
#      x y z
#    x 1.797900 0.000000 0.000000 
#    y 0.000000 1.751620 0.000000 
#    z 0.000000 0.000000 1.734420 
# 
# From -- ./inp_files/991.got.cif
#   From: 2010.05.17/outbox.cif.g08.bks.cpg/sg26_1_cif.got.tgz:991.got - 2010.06.04 01:07:29.
