data_PCOD9338590
_publ_section_title
;
Structure prediction by ZEFSAII (Michael W. Deem and Ramdas Pophale) SiO2 
 PCOD9338590
Probable space group: P M C 21
;
_chemical_formula_sum "Si O2"
_cell_formula_units_Z 32
_cell_length_a 8.472114
_cell_length_b 12.195334
_cell_length_c 15.863978
_cell_angle_alpha 90.000000
_cell_angle_beta 90.000000
_cell_angle_gamma 90.000000
_cell_volume 1639.070330
_symmetry_space_group_name_H-M "P M C 21"
_symmetry_group_IT_number 26
_symmetry_cell_setting 'orthorhombic'
loop_
_space_group_symop_operation_xyz
x,y,z
-x,-y,1/2+z
-x,y,z
x,-y,1/2+z
loop_
_atom_site_type_symbol
_atom_site_label
_atom_site_fract_x
_atom_site_fract_y
_atom_site_fract_z
Si Si1 0.308865 0.873189 0.885900
Si Si2 0.812383 0.740474 0.224538
Si Si3 0.687594 0.491722 0.785444
Si Si4 0.813930 0.497716 0.973492
Si Si5 0.310744 0.267865 0.038830
Si Si6 0.188971 0.120335 0.886828
Si Si7 0.687764 0.278971 0.543386
Si Si8 0.308097 0.730437 0.726411
O O1 0.500000 0.879370 0.884257
O O2 0.254456 0.807107 0.802870
O O3 0.241326 0.994793 0.887166
O O4 0.264597 0.803958 0.968903
O O5 0.772167 0.615930 0.250739
O O6 0.758384 0.818402 0.301069
O O7 0.731349 0.764442 0.135513
O O8 0.000000 0.752126 0.215051
O O9 0.500000 0.478877 0.772041
O O10 0.722656 0.503486 0.884636
O O11 0.741031 0.604690 0.742034
O O12 0.000000 0.494511 0.956363
O O13 0.761997 0.386439 0.018958
O O14 0.770659 0.604535 0.027369
O O15 0.500000 0.278064 0.037244
O O16 0.261646 0.232698 0.133008
O O17 0.258226 0.184338 0.966811
O O18 0.000000 0.128369 0.890468
O O19 0.500000 0.296064 0.537492
O O20 0.500000 0.730137 0.730046
#
# Coordination Sequence:
#
# PCOD9338590 Si02
#       8
#     4   4   4   4   4   4   4   4
#     4  10  22  43  66  88 118 158 210 263 306 362
#     4  11  24  41  61  91 130 164 202 256 314 374
#     4  11  20  37  65  93 125 164 204 250 304 373
#     4  12  23  37  60  93 132 166 199 251 314 373
#     4  11  22  39  66  94 122 163 208 253 304 366
#     4  11  25  43  61  87 125 164 205 256 314 371
#     4  11  23  41  66  93 122 162 212 259 306 371
#     4   9  20  39  63  93 122 151 200 256 302 356
#
# _framework density 19.523264000000001
#
# number of rings (size 3 to 8) (size 9 to 14) (size 15 to 20)
#    0.000    1.250    2.500    3.750    0.000    4.500 
#    0.000    6.875    0.000    0.000    0.000    0.000 
#    0.000    0.000    0.000    0.000    0.000    0.000 
#
# Total GULP energy -178949.416924 kJ/mol
# GULP energy per Si atom -5592.169279 kJ/mol
# Density = 1.947883 g / cm^3
# Si number density = 19.523264 Si / 1000 Ang^3
#
#
#
# Elastic Constant Matrix: (Units=GPa)
#
#
# Indices 1 2 3 4 5 6 
#
# 1 23.2299 13.6947 4.9357 0.0000 0.0000 0.0000
# 2 13.6947 139.3454 71.3296 0.0000 0.0000 0.0000
# 3 4.9357 71.3296 173.3946 0.0000 0.0000 0.0000
# 4 0.0000 0.0000 0.0000 -0.9573 0.0000 0.0000
# 5 0.0000 0.0000 0.0000 0.0000 13.4480 0.0000
# 6 0.0000 0.0000 0.0000 0.0000 0.0000 49.8192
#
#
#
# Elastic Compliance Matrix: (Units=1/GPa)
#
#
# Indices 1 2 3 4 5 6 
#
# 1 0.045761 -0.004852 0.000694 0.000000 0.000000 0.000000
# 2 -0.004852 0.009605 -0.003813 0.000000 0.000000 0.000000
# 3 0.000694 -0.003813 0.007316 0.000000 0.000000 0.000000
# 4 0.000000 0.000000 0.000000 -1.044624 0.000000 0.000000
# 5 0.000000 0.000000 0.000000 0.000000 0.074361 0.000000
# 6 0.000000 0.000000 0.000000 0.000000 0.000000 0.020073
#
#
# Mechanical properties :
#
#
# Convention : Reuss Voigt Hill
#
# Bulk Modulus (GPa) = 21.39566 57.32109 39.35838
# Shear Modulus (GPa) = -5.84123 28.86264 11.51070
#
# Velocity S-wave (km/s) = -1.73160 3.84913 2.43078
# Velocity P-wave (km/s) = 2.64291 7.01274 5.29922
#
# Compressibility (1/GPa) = 0.04673845
#
# Stress axis : x y z
#
# Youngs Moduli (GPa) = 21.85259 104.10984 136.68496
#
# Poissons Ratio (x) = 0.50518 -0.09480
# Poissons Ratio (y) = 0.10604 0.52121
# Poissons Ratio (z) = -0.01516 0.39699
#
# Static dielectric constant tensor:
#      x y z
#    x 1.664180 0.000000 0.000000 
#    y 0.000000 1.643990 0.000000 
#    z 0.000000 0.000000 1.684050 
# 
# From -- ./inp_files/4274.got.cif
#   From: 2010.05.17/outbox.cif.g08.bks.cpg/sg26_3_cif.got.tgz:4274.got - 2010.06.04 01:07:29.
