data_PCOD9338137
_publ_section_title
;
Structure prediction by ZEFSAII (Michael W. Deem and Ramdas Pophale) SiO2 
 PCOD9338137
Probable space group: P M C 21
;
_chemical_formula_sum "Si O2"
_cell_formula_units_Z 32
_cell_length_a 7.552633
_cell_length_b 16.025749
_cell_length_c 11.539754
_cell_angle_alpha 90.000000
_cell_angle_beta 90.000000
_cell_angle_gamma 90.000000
_cell_volume 1396.732598
_symmetry_space_group_name_H-M "P M C 21"
_symmetry_group_IT_number 26
_symmetry_cell_setting 'orthorhombic'
loop_
_space_group_symop_operation_xyz
x,y,z
-x,-y,1/2+z
-x,y,z
x,-y,1/2+z
loop_
_atom_site_type_symbol
_atom_site_label
_atom_site_fract_x
_atom_site_fract_y
_atom_site_fract_z
Si Si1 0.217101 0.972953 0.588230
Si Si2 0.710524 0.521346 0.644728
Si Si3 0.788246 0.212670 0.150877
Si Si4 0.281807 0.658463 0.088854
Si Si5 0.797301 0.047592 0.831088
Si Si6 0.702504 0.225802 0.774639
Si Si7 0.211599 0.348493 0.964426
Si Si8 0.710500 0.656520 0.827782
O O1 0.274019 0.879110 0.621560
O O2 0.277786 0.986670 0.454057
O O3 0.000000 0.976998 0.582763
O O4 0.274529 0.025841 0.701922
O O5 0.500000 0.516879 0.661520
O O6 0.779110 0.427602 0.648140
O O7 0.739177 0.562560 0.517915
O O8 0.784079 0.585827 0.740281
O O9 0.740924 0.252448 0.273475
O O10 0.000000 0.210787 0.142261
O O11 0.723130 0.281073 0.059278
O O12 0.500000 0.660000 0.091648
O O13 0.223560 0.743000 0.152257
O O14 0.221364 0.653093 0.957102
O O15 0.796735 0.148671 0.836267
O O16 0.000000 0.017360 0.827993
O O17 0.500000 0.199024 0.763630
O O18 0.709623 0.311301 0.848098
O O19 0.000000 0.344857 0.954952
O O20 0.500000 0.643066 0.833257
#
# Coordination Sequence:
#
# PCOD9338137 Si02
#       8
#     4   4   4   4   4   4   4   4
#     4   9  18  34  58  83 109 143 185 229 280 343
#     4   9  18  33  56  80 102 139 186 226 270 328
#     4   9  17  33  55  78 104 136 176 222 272 327
#     4   9  20  35  53  78 110 145 184 229 274 329
#     4  10  20  38  60  84 112 147 191 238 288 344
#     4  11  22  36  56  82 112 150 190 229 275 333
#     4  10  19  34  56  80 109 140 177 227 274 322
#     4   9  18  33  52  77 106 138 179 226 275 328
#
# _framework density 22.910613000000001
#
# number of rings (size 3 to 8) (size 9 to 14) (size 15 to 20)
#    0.000    2.500    1.250    0.750    1.750    1.500 
#    0.000    5.625    0.000    0.000    0.000    0.000 
#    0.000    0.000    0.000    0.000    0.000    0.000 
#
# Total GULP energy -178464.871710 kJ/mol
# GULP energy per Si atom -5577.027241 kJ/mol
# Density = 2.285847 g / cm^3
# Si number density = 22.910613 Si / 1000 Ang^3
#
#
#
# Elastic Constant Matrix: (Units=GPa)
#
#
# Indices 1 2 3 4 5 6 
#
# 1 56.4937 -1.9173 -1.9485 0.0000 0.0000 0.0000
# 2 -1.9173 50.6898 37.5294 0.0000 0.0000 0.0000
# 3 -1.9485 37.5294 146.6349 0.0000 0.0000 0.0000
# 4 0.0000 0.0000 0.0000 29.0070 0.0000 0.0000
# 5 0.0000 0.0000 0.0000 0.0000 6.1483 0.0000
# 6 0.0000 0.0000 0.0000 0.0000 0.0000 15.9859
#
#
#
# Elastic Compliance Matrix: (Units=1/GPa)
#
#
# Indices 1 2 3 4 5 6 
#
# 1 0.017725 0.000612 0.000079 0.000000 0.000000 0.000000
# 2 0.000612 0.024361 -0.006227 0.000000 0.000000 0.000000
# 3 0.000079 -0.006227 0.008414 0.000000 0.000000 0.000000
# 4 0.000000 0.000000 0.000000 0.034474 0.000000 0.000000
# 5 0.000000 0.000000 0.000000 0.000000 0.162646 0.000000
# 6 0.000000 0.000000 0.000000 0.000000 0.000000 0.062555
#
#
# Mechanical properties :
#
#
# Convention : Reuss Voigt Hill
#
# Bulk Modulus (GPa) = 25.36250 35.68285 30.52267
# Shear Modulus (GPa) = 14.95260 24.90524 19.92892
#
# Velocity S-wave (km/s) = 2.55747 3.30064 2.95253
# Velocity P-wave (km/s) = 4.45142 5.48947 4.99747
#
# Compressibility (1/GPa) = 0.03942829
#
# Stress axis : x y z
#
# Youngs Moduli (GPa) = 56.41878 41.04903 118.84421
#
# Poissons Ratio (x) = -0.02512 -0.00938
# Poissons Ratio (y) = -0.03453 0.74002
# Poissons Ratio (z) = -0.00445 0.25560
#
# Static dielectric constant tensor:
#      x y z
#    x 1.871800 0.000000 0.000000 
#    y 0.000000 1.828460 0.000000 
#    z 0.000000 0.000000 1.921560 
# 
# From -- ./inp_files/3062.got.cif
#   From: 2010.05.17/outbox.cif.g08.bks.cpg/sg26_2_cif.got.tgz:3062.got - 2010.06.04 01:07:29.
