data_PCOD9338370
_publ_section_title
;
Structure prediction by ZEFSAII (Michael W. Deem and Ramdas Pophale) SiO2 
 PCOD9338370
Probable space group: P M C 21
;
_chemical_formula_sum "Si O2"
_cell_formula_units_Z 32
_cell_length_a 8.564504
_cell_length_b 11.554347
_cell_length_c 16.643706
_cell_angle_alpha 90.000000
_cell_angle_beta 90.000000
_cell_angle_gamma 90.000000
_cell_volume 1647.015394
_symmetry_space_group_name_H-M "P M C 21"
_symmetry_group_IT_number 26
_symmetry_cell_setting 'orthorhombic'
loop_
_space_group_symop_operation_xyz
x,y,z
-x,-y,1/2+z
-x,y,z
x,-y,1/2+z
loop_
_atom_site_type_symbol
_atom_site_label
_atom_site_fract_x
_atom_site_fract_y
_atom_site_fract_z
Si Si1 0.815762 0.570874 0.408260
Si Si2 0.687089 0.230122 0.284449
Si Si3 0.318227 0.284488 0.041339
Si Si4 0.188994 0.305409 0.449524
Si Si5 0.685056 0.940999 0.639433
Si Si6 0.677957 0.361431 0.741798
Si Si7 0.815560 0.192132 0.619823
Si Si8 0.178502 0.569265 0.676897
O O1 0.720611 0.671567 0.453290
O O2 0.765974 0.440797 0.435327
O O3 0.783036 0.594240 0.315011
O O4 0.000000 0.580589 0.424506
O O5 0.500000 0.246526 0.279563
O O6 0.739864 0.229085 0.376856
O O7 0.725316 0.123506 0.224107
O O8 0.773336 0.341146 0.246367
O O9 0.500000 0.307568 0.061174
O O10 0.290277 0.153152 0.068714
O O11 0.205118 0.361182 0.095779
O O12 0.235049 0.254221 0.536427
O O13 0.000000 0.300842 0.443967
O O14 0.500000 0.967492 0.642588
O O15 0.778382 0.056457 0.620839
O O16 0.500000 0.354640 0.768025
O O17 0.732185 0.246749 0.697239
O O18 0.704730 0.462484 0.677076
O O19 0.000000 0.212667 0.627216
O O20 0.000000 0.531417 0.684367
#
# Coordination Sequence:
#
# PCOD9338370 Si02
#       8
#     4   4   4   4   4   4   4   4
#     4  11  22  38  61  92 127 159 197 252 312 369
#     4  10  20  36  62  91 119 157 204 251 303 367
#     4  10  21  38  61  89 120 159 204 249 300 361
#     4  10  22  39  61  91 125 157 199 255 312 371
#     4   9  21  42  62  86 120 160 208 254 301 359
#     4  12  24  39  60  87 123 161 201 250 307 370
#     4  11  24  42  63  90 122 163 210 255 310 369
#     4  11  20  34  58  88 122 156 195 246 305 362
#
# _framework density 19.429082000000001
#
# number of rings (size 3 to 8) (size 9 to 14) (size 15 to 20)
#    0.000    1.500    1.250    5.250    0.000    5.500 
#    2.250    0.000    0.000    0.000    0.000    0.000 
#    0.000    0.000    0.000    0.000    0.000    0.000 
#
# Total GULP energy -178630.272470 kJ/mol
# GULP energy per Si atom -5582.196015 kJ/mol
# Density = 1.938486 g / cm^3
# Si number density = 19.429082 Si / 1000 Ang^3
#
#
#
# Elastic Constant Matrix: (Units=GPa)
#
#
# Indices 1 2 3 4 5 6 
#
# 1 51.7881 23.2675 19.6482 0.0000 0.0000 0.0000
# 2 23.2675 84.4939 39.2685 0.0000 0.0000 0.0000
# 3 19.6482 39.2685 63.7848 0.0000 0.0000 0.0000
# 4 0.0000 0.0000 0.0000 23.1737 0.0000 0.0000
# 5 0.0000 0.0000 0.0000 0.0000 31.5695 0.0000
# 6 0.0000 0.0000 0.0000 0.0000 0.0000 27.3539
#
#
#
# Elastic Compliance Matrix: (Units=1/GPa)
#
#
# Indices 1 2 3 4 5 6 
#
# 1 0.022901 -0.004241 -0.004443 0.000000 0.000000 0.000000
# 2 -0.004241 0.017364 -0.009384 0.000000 0.000000 0.000000
# 3 -0.004443 -0.009384 0.022823 0.000000 0.000000 0.000000
# 4 0.000000 0.000000 0.000000 0.043152 0.000000 0.000000
# 5 0.000000 0.000000 0.000000 0.000000 0.031676 0.000000
# 6 0.000000 0.000000 0.000000 0.000000 0.000000 0.036558
#
#
# Mechanical properties :
#
#
# Convention : Reuss Voigt Hill
#
# Bulk Modulus (GPa) = 37.10301 40.49282 38.79791
# Shear Modulus (GPa) = 22.76922 24.27827 23.52375
#
# Velocity S-wave (km/s) = 3.42704 3.53878 3.48336
# Velocity P-wave (km/s) = 5.89894 6.13057 6.01587
#
# Compressibility (1/GPa) = 0.02695199
#
# Stress axis : x y z
#
# Youngs Moduli (GPa) = 43.66675 57.58988 43.81481
#
# Poissons Ratio (x) = 0.24426 0.19468
# Poissons Ratio (y) = 0.18520 0.41114
# Poissons Ratio (z) = 0.19402 0.54040
#
# Static dielectric constant tensor:
#      x y z
#    x 1.649030 0.000000 0.000000 
#    y 0.000000 1.684920 0.000000 
#    z 0.000000 0.000000 1.755820 
# 
# From -- ./inp_files/5058.got.cif
#   From: 2010.05.17/outbox.cif.g08.bks.cpg/sg26_3_cif.got.tgz:5058.got - 2010.06.04 01:07:29.
