data_PCOD9338596
_publ_section_title
;
Structure prediction by ZEFSAII (Michael W. Deem and Ramdas Pophale) SiO2 
 PCOD9338596
Probable space group: P M C 21
;
_chemical_formula_sum "Si O2"
_cell_formula_units_Z 24
_cell_length_a 8.841667
_cell_length_b 12.091389
_cell_length_c 12.094236
_cell_angle_alpha 90.000000
_cell_angle_beta 90.000000
_cell_angle_gamma 90.000000
_cell_volume 1292.971007
_symmetry_space_group_name_H-M "P M C 21"
_symmetry_group_IT_number 26
_symmetry_cell_setting 'orthorhombic'
loop_
_space_group_symop_operation_xyz
x,y,z
-x,-y,1/2+z
-x,y,z
x,-y,1/2+z
loop_
_atom_site_type_symbol
_atom_site_label
_atom_site_fract_x
_atom_site_fract_y
_atom_site_fract_z
Si Si1 0.680559 0.222589 0.337600
Si Si2 0.820217 0.835290 0.074294
Si Si3 0.679279 0.068876 0.128332
Si Si4 0.681121 0.659601 0.243539
Si Si5 0.180302 0.580081 0.698065
Si Si6 0.680492 0.289295 0.998642
O O1 0.500000 0.237524 0.346609
O O2 0.750423 0.191494 0.454585
O O3 0.707377 0.126182 0.246950
O O4 0.753422 0.333414 0.287328
O O5 0.751578 0.749860 0.162269
O O6 0.000000 0.824387 0.070475
O O7 0.772609 0.958879 0.108526
O O8 0.500000 0.043019 0.120914
O O9 0.713852 0.164493 0.038666
O O10 0.500000 0.657327 0.229784
O O11 0.749142 0.539881 0.217161
O O12 0.713993 0.690785 0.370838
O O13 0.231170 0.628231 0.579306
O O14 0.000000 0.576029 0.705674
O O15 0.500000 0.305884 0.017074
#
# Coordination Sequence:
#
# PCOD9338596 Si02
#       6
#     4   4   4   4   4   4
#     4  10  22  43  68  90 120 167 215 251 297 371
#     4  12  26  40  60  95 131 161 201 258 320 364
#     4   9  20  41  66  91 119 160 211 255 301 365
#     4  11  24  42  65  91 123 166 214 254 298 367
#     4  11  23  40  64  94 129 161 199 257 319 366
#     4   9  21  42  67  91 118 163 214 253 299 367
#
# _framework density 18.561900999999999
#
# number of rings (size 3 to 8) (size 9 to 14) (size 15 to 20)
#    0.000    1.667    0.000    5.000    4.667    4.667 
#    0.000    0.000    0.000    0.000    0.000    0.000 
#    0.000    0.000    0.000    0.000    0.000    0.000 
#
# Total GULP energy -134192.345085 kJ/mol
# GULP energy per Si atom -5591.347712 kJ/mol
# Density = 1.851965 g / cm^3
# Si number density = 18.561901 Si / 1000 Ang^3
#
#
#
# Elastic Constant Matrix: (Units=GPa)
#
#
# Indices 1 2 3 4 5 6 
#
# 1 128.3616 96.8202 106.7186 0.0000 0.0000 0.0000
# 2 96.8202 157.6429 108.6289 0.0000 0.0000 0.0000
# 3 106.7186 108.6289 151.3798 0.0000 0.0000 0.0000
# 4 0.0000 0.0000 0.0000 8.6165 0.0000 0.0000
# 5 0.0000 0.0000 0.0000 0.0000 22.5395 0.0000
# 6 0.0000 0.0000 0.0000 0.0000 0.0000 119.7513
#
#
#
# Elastic Compliance Matrix: (Units=1/GPa)
#
#
# Indices 1 2 3 4 5 6 
#
# 1 0.020839 -0.005293 -0.010893 0.000000 0.000000 0.000000
# 2 -0.005293 0.013893 -0.006238 0.000000 0.000000 0.000000
# 3 -0.010893 -0.006238 0.018761 0.000000 0.000000 0.000000
# 4 0.000000 0.000000 0.000000 0.116056 0.000000 0.000000
# 5 0.000000 0.000000 0.000000 0.000000 0.044367 0.000000
# 6 0.000000 0.000000 0.000000 0.000000 0.000000 0.008351
#
#
# Mechanical properties :
#
#
# Convention : Reuss Voigt Hill
#
# Bulk Modulus (GPa) = 115.66320 117.96885 116.81603
# Shear Modulus (GPa) = 18.51888 38.52925 28.52406
#
# Velocity S-wave (km/s) = 3.16204 4.56095 3.92433
# Velocity P-wave (km/s) = 8.70510 9.56183 9.14350
#
# Compressibility (1/GPa) = 0.00864579
#
# Stress axis : x y z
#
# Youngs Moduli (GPa) = 47.98752 71.98109 53.30078
#
# Poissons Ratio (x) = 0.38096 0.58060
# Poissons Ratio (y) = 0.25398 0.33249
# Poissons Ratio (z) = 0.52272 0.44902
#
# Static dielectric constant tensor:
#      x y z
#    x 1.615570 0.000000 0.000000 
#    y 0.000000 1.606220 0.000000 
#    z 0.000000 0.000000 1.618840 
# 
# From -- ./inp_files/2808.got.cif
#   From: 2010.05.17/outbox.cif.g08.bks.cpg/sg26_2_cif.got.tgz:2808.got - 2010.06.04 01:07:29.
