data_PCOD9338915
_publ_section_title
;
Structure prediction by ZEFSAII (Michael W. Deem and Ramdas Pophale) SiO2 
 PCOD9338915
Probable space group: P C C 2
;
_chemical_formula_sum "Si O2"
_cell_formula_units_Z 26
_cell_length_a 5.573973
_cell_length_b 8.066944
_cell_length_c 22.545846
_cell_angle_alpha 90.000000
_cell_angle_beta 90.000000
_cell_angle_gamma 90.000000
_cell_volume 1013.772343
_symmetry_space_group_name_H-M "P C C 2"
_symmetry_group_IT_number 27
_symmetry_cell_setting 'orthorhombic'
loop_
_space_group_symop_operation_xyz
x,y,z
-x,-y,z
-x,y,1/2+z
x,-y,1/2+z
loop_
_atom_site_type_symbol
_atom_site_label
_atom_site_fract_x
_atom_site_fract_y
_atom_site_fract_z
Si Si1 0.249184 0.434043 0.431460
Si Si2 0.248286 0.044346 0.397197
Si Si3 0.799023 0.269969 0.634589
Si Si4 0.000000 0.500000 0.318823
Si Si5 0.500000 0.500000 0.202351
Si Si6 0.752445 0.910119 0.025514
Si Si7 0.500000 0.000000 0.704591
Si Si8 0.848156 0.765288 0.736357
O O1 0.500000 0.500000 0.457013
O O2 0.248115 0.234164 0.421918
O O3 0.000000 0.500000 0.460833
O O4 0.217764 0.512312 0.365387
O O5 0.242408 0.918981 0.454453
O O6 0.500000 0.000000 0.367470
O O7 0.000000 0.000000 0.365144
O O8 0.712187 0.443081 0.659594
O O9 0.041063 0.228453 0.670061
O O10 0.776320 0.254159 0.564464
O O11 0.605712 0.141250 0.662009
O O12 0.025746 0.334333 0.279409
O O13 0.381364 0.642699 0.240547
O O14 0.500000 0.000000 0.039894
O O15 0.000000 0.000000 0.044659
O O16 0.725447 0.941677 0.743454
#
# Coordination Sequence:
#
# PCOD9338915 Si02
#       8
#     4   4   4   2   2   4   2   4
#     4  10  23  42  73  99 133 175 220 284 352 407
#     4  10  21  42  73  99 130 174 217 283 351 404
#     4  11  20  37  59  91 128 175 218 271 324 392
#     4  10  24  40  66  88 138 172 234 266 352 392
#     4  10  22  34  62  82 128 178 226 254 336 382
#     4  10  21  37  65  91 127 166 220 267 336 396
#     4  10  22  32  64  84 130 166 224 256 330 372
#     4  11  21  40  59  92 124 185 212 282 316 405
#
# _framework density 25.646782999999999
#
# number of rings (size 3 to 8) (size 9 to 14) (size 15 to 20)
#    0.462    1.231    2.308    2.308    3.231    0.000 
#    0.000    3.077   22.000    0.000    0.000    0.000 
#    0.000    0.000    0.000    0.000    0.000    0.000 
#
# Total GULP energy -144999.454572 kJ/mol
# GULP energy per Si atom -5576.902099 kJ/mol
# Density = 2.558841 g / cm^3
# Si number density = 25.646783 Si / 1000 Ang^3
#
#
#
# Elastic Constant Matrix: (Units=GPa)
#
#
# Indices 1 2 3 4 5 6 
#
# 1 197.5649 23.6752 5.7230 0.0000 0.0000 0.0000
# 2 23.6752 59.4280 1.0392 0.0000 0.0000 0.0000
# 3 5.7230 1.0392 93.9107 0.0000 0.0000 0.0000
# 4 0.0000 0.0000 0.0000 29.2270 0.0000 0.0000
# 5 0.0000 0.0000 0.0000 0.0000 205.5340 0.0000
# 6 0.0000 0.0000 0.0000 0.0000 0.0000 49.4064
#
#
#
# Elastic Compliance Matrix: (Units=1/GPa)
#
#
# Indices 1 2 3 4 5 6 
#
# 1 0.005324 -0.002116 -0.000301 0.000000 0.000000 0.000000
# 2 -0.002116 0.017671 -0.000067 0.000000 0.000000 0.000000
# 3 -0.000301 -0.000067 0.010667 0.000000 0.000000 0.000000
# 4 0.000000 0.000000 0.000000 0.034215 0.000000 0.000000
# 5 0.000000 0.000000 0.000000 0.000000 0.004865 0.000000
# 6 0.000000 0.000000 0.000000 0.000000 0.000000 0.020240
#
#
# Mechanical properties :
#
#
# Convention : Reuss Voigt Hill
#
# Bulk Modulus (GPa) = 34.84825 45.75313 40.30069
# Shear Modulus (GPa) = 46.50512 78.19789 62.35150
#
# Velocity S-wave (km/s) = 4.26290 5.52780 4.93603
# Velocity P-wave (km/s) = 6.15199 7.65640 6.94505
#
# Compressibility (1/GPa) = 0.02869584
#
# Stress axis : x y z
#
# Youngs Moduli (GPa) = 187.83295 56.58955 93.74271
#
# Poissons Ratio (x) = 0.11973 0.02822
# Poissons Ratio (y) = 0.39740 0.00624
# Poissons Ratio (z) = 0.05654 0.00377
#
# Static dielectric constant tensor:
#      x y z
#    x 1.965630 0.000000 0.000000 
#    y 0.000000 2.183880 0.000000 
#    z 0.000000 0.000000 2.009970 
# 
# From -- ./inp_files/5228.got.cif
#   From: 2010.05.17/outbox.cif.g08.bks.cpg/sg27_3_cif.got.tgz:5228.got - 2010.06.04 01:11:05.
