data_PCOD9338235
_publ_section_title
;
Structure prediction by ZEFSAII (Michael W. Deem and Ramdas Pophale) SiO2 
 PCOD9338235
Probable space group: P M C 21
;
_chemical_formula_sum "Si O2"
_cell_formula_units_Z 32
_cell_length_a 13.454744
_cell_length_b 9.265365
_cell_length_c 13.383709
_cell_angle_alpha 90.000000
_cell_angle_beta 90.000000
_cell_angle_gamma 90.000000
_cell_volume 1668.454843
_symmetry_space_group_name_H-M "P M C 21"
_symmetry_group_IT_number 26
_symmetry_cell_setting 'orthorhombic'
loop_
_space_group_symop_operation_xyz
x,y,z
-x,-y,1/2+z
-x,y,z
x,-y,1/2+z
loop_
_atom_site_type_symbol
_atom_site_label
_atom_site_fract_x
_atom_site_fract_y
_atom_site_fract_z
Si Si1 0.110969 0.695281 0.878740
Si Si2 0.615268 0.066179 0.300654
Si Si3 0.887625 0.868044 0.670265
Si Si4 0.312225 0.235055 0.491404
Si Si5 0.301047 0.702476 0.641895
Si Si6 0.387178 0.553280 0.455055
Si Si7 0.761823 0.142149 0.698855
Si Si8 0.226058 0.447776 0.783333
O O1 0.115984 0.801550 0.782690
O O2 0.199354 0.736426 0.953122
O O3 0.137670 0.537208 0.835398
O O4 0.000000 0.700977 0.920713
O O5 0.500000 0.027246 0.290751
O O6 0.636560 0.134672 0.408792
O O7 0.644487 0.189194 0.218712
O O8 0.690116 0.935187 0.278991
O O9 0.802883 0.779090 0.612096
O O10 0.000000 0.852949 0.633125
O O11 0.850374 0.031552 0.675380
O O12 0.366808 0.389234 0.491586
O O13 0.303960 0.165847 0.599728
O O14 0.364565 0.659786 0.546508
O O15 0.271968 0.557692 0.701915
O O16 0.500000 0.566929 0.420731
O O17 0.310202 0.578593 0.366137
O O18 0.800482 0.296405 0.734692
#
# Coordination Sequence:
#
# PCOD9338235 Si02
#       8
#     4   4   4   4   4   4   4   4
#     4   9  18  39  66  85 113 158 199 240 299 363
#     4  11  23  41  60  83 120 166 204 246 303 362
#     4   9  19  39  64  84 115 160 193 235 300 360
#     4  11  21  39  61  87 121 158 201 251 304 362
#     4  10  19  40  61  86 116 156 202 247 292 355
#     4  11  22  36  62  90 118 160 205 247 299 356
#     4  11  23  38  60  91 125 154 197 252 304 360
#     4  10  21  38  58  90 124 150 193 260 297 342
#
# _framework density 19.179421000000001
#
# number of rings (size 3 to 8) (size 9 to 14) (size 15 to 20)
#    0.000    1.750    6.250    0.750    0.000    5.000 
#    0.000    2.500    0.000    0.000    0.000    0.000 
#    0.000    0.000    0.000    0.000    0.000    0.000 
#
# Total GULP energy -178666.281208 kJ/mol
# GULP energy per Si atom -5583.321288 kJ/mol
# Density = 1.913577 g / cm^3
# Si number density = 19.179421 Si / 1000 Ang^3
#
#
#
# Elastic Constant Matrix: (Units=GPa)
#
#
# Indices 1 2 3 4 5 6 
#
# 1 51.3096 -20.1262 -7.7733 0.0000 0.0000 0.0000
# 2 -20.1262 69.7557 8.4722 0.0000 0.0000 0.0000
# 3 -7.7733 8.4722 28.2595 0.0000 0.0000 0.0000
# 4 0.0000 0.0000 0.0000 23.1529 0.0000 0.0000
# 5 0.0000 0.0000 0.0000 0.0000 14.1912 0.0000
# 6 0.0000 0.0000 0.0000 0.0000 0.0000 9.6551
#
#
#
# Elastic Compliance Matrix: (Units=1/GPa)
#
#
# Indices 1 2 3 4 5 6 
#
# 1 0.022492 0.005955 0.004402 0.000000 0.000000 0.000000
# 2 0.005955 0.016454 -0.003295 0.000000 0.000000 0.000000
# 3 0.004402 -0.003295 0.037585 0.000000 0.000000 0.000000
# 4 0.000000 0.000000 0.000000 0.043191 0.000000 0.000000
# 5 0.000000 0.000000 0.000000 0.000000 0.070466 0.000000
# 6 0.000000 0.000000 0.000000 0.000000 0.000000 0.103572
#
#
# Mechanical properties :
#
#
# Convention : Reuss Voigt Hill
#
# Bulk Modulus (GPa) = 11.03089 12.27446 11.65268
# Shear Modulus (GPa) = 16.13655 20.64998 18.39327
#
# Velocity S-wave (km/s) = 2.90375 3.28483 3.10015
# Velocity P-wave (km/s) = 4.12386 4.56076 4.34780
#
# Compressibility (1/GPa) = 0.09065448
#
# Stress axis : x y z
#
# Youngs Moduli (GPa) = 44.45988 60.77525 26.60644
#
# Poissons Ratio (x) = -0.36191 -0.11711
# Poissons Ratio (y) = -0.26476 0.08767
# Poissons Ratio (z) = -0.19570 0.20025
#
# Static dielectric constant tensor:
#      x y z
#    x 1.653560 0.000000 0.000000 
#    y 0.000000 1.671490 0.000000 
#    z 0.000000 0.000000 1.662460 
# 
# From -- ./inp_files/3606.got.cif
#   From: 2010.05.17/outbox.cif.g08.bks.cpg/sg26_2_cif.got.tgz:3606.got - 2010.06.04 01:07:29.
