data_PCOD9338743
_publ_section_title
;
Structure prediction by ZEFSAII (Michael W. Deem and Ramdas Pophale) SiO2 
 PCOD9338743
Probable space group: P C C 2
;
_chemical_formula_sum "Si O2"
_cell_formula_units_Z 20
_cell_length_a 7.728868
_cell_length_b 18.907126
_cell_length_c 5.504546
_cell_angle_alpha 90.000000
_cell_angle_beta 90.000000
_cell_angle_gamma 90.000000
_cell_volume 804.383056
_symmetry_space_group_name_H-M "P C C 2"
_symmetry_group_IT_number 27
_symmetry_cell_setting 'orthorhombic'
loop_
_space_group_symop_operation_xyz
x,y,z
-x,-y,z
-x,y,1/2+z
x,-y,1/2+z
loop_
_atom_site_type_symbol
_atom_site_label
_atom_site_fract_x
_atom_site_fract_y
_atom_site_fract_z
Si Si1 0.196945 0.971126 0.671220
Si Si2 0.102534 0.805780 0.631532
Si Si3 0.803526 0.470927 0.120864
Si Si4 0.472903 0.192226 0.118641
Si Si5 0.398448 0.658890 0.118478
O O1 0.169072 0.887541 0.637741
O O2 0.275621 0.006306 0.429871
O O3 0.000000 0.000000 0.687583
O O4 0.288010 0.768345 0.623014
O O5 0.998502 0.793696 0.382767
O O6 0.724670 0.499694 0.371275
O O7 0.776881 0.386614 0.119129
O O8 0.000000 0.500000 0.121387
O O9 0.503212 0.151889 0.367987
O O10 0.611769 0.255919 0.118453
O O11 0.500089 0.641175 0.368442
#
# Coordination Sequence:
#
# PCOD9338743 Si02
#       5
#     4   4   4   4   4
#     4  10  16  30  51  90 121 160 197 264 320 366
#     4  12  21  35  66  97 121 160 223 274 303 372
#     4  10  21  37  62  97 125 151 203 256 296 360
#     4  10  23  43  64  86 127 176 210 253 324 389
#     4  10  21  39  66  85 119 173 198 237 312 383
#
# _framework density 24.863776999999999
#
# number of rings (size 3 to 8) (size 9 to 14) (size 15 to 20)
#    0.000    1.600    4.000    2.400    0.000    2.400 
#    0.000    0.000  105.600    3.600    0.000    0.000 
#    0.000    0.000    0.000    0.000    0.000    0.000 
#
# Total GULP energy -111620.230452 kJ/mol
# GULP energy per Si atom -5581.011523 kJ/mol
# Density = 2.480719 g / cm^3
# Si number density = 24.863777 Si / 1000 Ang^3
#
#
#
# Elastic Constant Matrix: (Units=GPa)
#
#
# Indices 1 2 3 4 5 6 
#
# 1 79.0952 -0.7143 40.8981 0.0000 0.0000 0.0000
# 2 -0.7143 49.4786 -15.8150 0.0000 0.0000 0.0000
# 3 40.8981 -15.8150 301.8426 0.0000 0.0000 0.0000
# 4 0.0000 0.0000 0.0000 13.5904 0.0000 0.0000
# 5 0.0000 0.0000 0.0000 0.0000 19.8589 0.0000
# 6 0.0000 0.0000 0.0000 0.0000 0.0000 34.5615
#
#
#
# Elastic Compliance Matrix: (Units=1/GPa)
#
#
# Indices 1 2 3 4 5 6 
#
# 1 0.013603 -0.000399 -0.001864 0.000000 0.000000 0.000000
# 2 -0.000399 0.020567 0.001132 0.000000 0.000000 0.000000
# 3 -0.001864 0.001132 0.003625 0.000000 0.000000 0.000000
# 4 0.000000 0.000000 0.000000 0.073582 0.000000 0.000000
# 5 0.000000 0.000000 0.000000 0.000000 0.050355 0.000000
# 6 0.000000 0.000000 0.000000 0.000000 0.000000 0.028934
#
#
# Mechanical properties :
#
#
# Convention : Reuss Voigt Hill
#
# Bulk Modulus (GPa) = 28.14433 53.23935 40.69184
# Shear Modulus (GPa) = 24.41727 40.67198 32.54463
#
# Velocity S-wave (km/s) = 3.13715 4.04888 3.62182
# Velocity P-wave (km/s) = 4.94634 6.58155 5.82165
#
# Compressibility (1/GPa) = 0.03553114
#
# Stress axis : x y z
#
# Youngs Moduli (GPa) = 73.51177 48.62228 275.87297
#
# Poissons Ratio (x) = 0.01942 0.51425
# Poissons Ratio (y) = 0.02936 -0.31221
# Poissons Ratio (z) = 0.13703 -0.05503
#
# Static dielectric constant tensor:
#      x y z
#    x 1.716710 0.000000 0.000000 
#    y 0.000000 2.035730 0.000000 
#    z 0.000000 0.000000 2.073610 
# 
# From -- ./inp_files/140.got.cif
#   From: 2010.05.17/outbox.cif.g08.bks.cpg/sg27_1_cif.got.tgz:140.got - 2010.06.04 01:11:05.
