data_PCOD9338945
_publ_section_title
;
Structure prediction by ZEFSAII (Michael W. Deem and Ramdas Pophale) SiO2 
 PCOD9338945
Probable space group: P C C 2
;
_chemical_formula_sum "Si O2"
_cell_formula_units_Z 30
_cell_length_a 5.827264
_cell_length_b 19.698083
_cell_length_c 10.984098
_cell_angle_alpha 90.000000
_cell_angle_beta 90.000000
_cell_angle_gamma 90.000000
_cell_volume 1260.819903
_symmetry_space_group_name_H-M "P C C 2"
_symmetry_group_IT_number 27
_symmetry_cell_setting 'orthorhombic'
loop_
_space_group_symop_operation_xyz
x,y,z
-x,-y,z
-x,y,1/2+z
x,-y,1/2+z
loop_
_atom_site_type_symbol
_atom_site_label
_atom_site_fract_x
_atom_site_fract_y
_atom_site_fract_z
Si Si1 0.500000 0.500000 0.209870
Si Si2 0.445903 0.833117 0.856289
Si Si3 0.278208 0.722380 0.469772
Si Si4 0.166609 0.607580 0.309521
Si Si5 0.583893 0.934714 0.520027
Si Si6 0.147450 0.410295 0.075870
Si Si7 0.805120 0.163759 0.625182
Si Si8 0.153268 0.064696 0.756276
O O1 0.392428 0.561117 0.289720
O O2 0.302521 0.471049 0.122978
O O3 0.508682 0.769731 0.939901
O O4 0.280279 0.883757 0.932082
O O5 0.343974 0.803903 0.733411
O O6 0.658595 0.885206 0.822666
O O7 0.205965 0.686296 0.344317
O O8 0.301793 0.657648 0.557052
O O9 0.113880 0.777545 0.533992
O O10 0.052924 0.581157 0.437470
O O11 0.027708 0.602209 0.185216
O O12 0.372051 0.889244 0.565158
O O13 0.715127 0.963287 0.636527
O O14 0.500000 0.000000 0.446899
O O15 0.990596 0.119961 0.693544
O O16 0.000000 0.000000 0.806548
#
# Coordination Sequence:
#
# PCOD9338945 Si02
#       8
#     2   4   4   4   4   4   4   4
#     4  12  24  44  76 110 138 188 238 286 358 426
#     4  10  24  40  65  93 134 172 232 290 343 421
#     4   9  24  45  66 102 133 185 224 280 360 407
#     4  10  25  46  72 106 147 183 234 292 349 428
#     4  10  21  40  57  87 129 165 217 290 344 407
#     4  10  25  46  73 104 148 184 236 291 351 426
#     4  10  22  42  63  92 132 170 229 285 339 425
#     4  11  23  40  64  91 127 177 226 283 358 410
#
# _framework density 23.794039999999999
#
# number of rings (size 3 to 8) (size 9 to 14) (size 15 to 20)
#    0.800    1.067    1.333    0.800    5.600    5.333 
#    0.000    2.667    0.000    0.000    0.000    0.000 
#    0.000    0.000    0.000    0.000    0.000    0.000 
#
# Total GULP energy -167028.549053 kJ/mol
# GULP energy per Si atom -5567.618302 kJ/mol
# Density = 2.373988 g / cm^3
# Si number density = 23.794040 Si / 1000 Ang^3
#
#
#
# Elastic Constant Matrix: (Units=GPa)
#
#
# Indices 1 2 3 4 5 6 
#
# 1 23.9505 11.4673 12.8331 0.0000 0.0000 0.0000
# 2 11.4673 123.2358 18.2763 0.0000 0.0000 0.0000
# 3 12.8331 18.2763 109.1483 0.0000 0.0000 0.0000
# 4 0.0000 0.0000 0.0000 77.2393 0.0000 0.0000
# 5 0.0000 0.0000 0.0000 0.0000 9.2883 0.0000
# 6 0.0000 0.0000 0.0000 0.0000 0.0000 30.9925
#
#
#
# Elastic Compliance Matrix: (Units=1/GPa)
#
#
# Indices 1 2 3 4 5 6 
#
# 1 0.046042 -0.003570 -0.004816 0.000000 0.000000 0.000000
# 2 -0.003570 0.008598 -0.001020 0.000000 0.000000 0.000000
# 3 -0.004816 -0.001020 0.009899 0.000000 0.000000 0.000000
# 4 0.000000 0.000000 0.000000 0.012947 0.000000 0.000000
# 5 0.000000 0.000000 0.000000 0.000000 0.107662 0.000000
# 6 0.000000 0.000000 0.000000 0.000000 0.000000 0.032266
#
#
# Mechanical properties :
#
#
# Convention : Reuss Voigt Hill
#
# Bulk Modulus (GPa) = 21.86855 37.94313 29.90584
# Shear Modulus (GPa) = 19.88324 37.75455 28.81890
#
# Velocity S-wave (km/s) = 2.89388 3.98769 3.48398
# Velocity P-wave (km/s) = 4.51406 6.09781 5.36470
#
# Compressibility (1/GPa) = 0.04572776
#
# Stress axis : x y z
#
# Youngs Moduli (GPa) = 21.71912 116.30623 101.02213
#
# Poissons Ratio (x) = 0.41523 0.48648
# Poissons Ratio (y) = 0.07754 0.10303
# Poissons Ratio (z) = 0.10459 0.11862
#
# Static dielectric constant tensor:
#      x y z
#    x 2.012500 0.000000 0.000000 
#    y 0.000000 1.896700 0.000000 
#    z 0.000000 0.000000 2.042700 
# 
# From -- ./inp_files/2113.got.cif
#   From: 2010.05.17/outbox.cif.g08.bks.cpg/sg27_2_cif.got.tgz:2113.got - 2010.06.04 01:11:05.
