data_PCOD9338603
_publ_section_title
;
Structure prediction by ZEFSAII (Michael W. Deem and Ramdas Pophale) SiO2 
 PCOD9338603
Probable space group: P M C 21
;
_chemical_formula_sum "Si O2"
_cell_formula_units_Z 24
_cell_length_a 13.858521
_cell_length_b 5.278985
_cell_length_c 13.982380
_cell_angle_alpha 90.000000
_cell_angle_beta 90.000000
_cell_angle_gamma 90.000000
_cell_volume 1022.935882
_symmetry_space_group_name_H-M "P M C 21"
_symmetry_group_IT_number 26
_symmetry_cell_setting 'orthorhombic'
loop_
_space_group_symop_operation_xyz
x,y,z
-x,-y,1/2+z
-x,y,z
x,-y,1/2+z
loop_
_atom_site_type_symbol
_atom_site_label
_atom_site_fract_x
_atom_site_fract_y
_atom_site_fract_z
Si Si1 0.107875 0.038115 0.898110
Si Si2 0.204880 0.218911 0.565464
Si Si3 0.108515 0.719418 0.597867
Si Si4 0.695007 0.852552 0.311312
Si Si5 0.613617 0.641137 0.713132
Si Si6 0.388481 0.924939 0.517885
O O1 0.190750 0.123280 0.827183
O O2 0.000000 0.990778 0.861448
O O3 0.150372 0.805796 0.962072
O O4 0.101673 0.245860 0.982845
O O5 0.161114 0.980197 0.623921
O O6 0.315422 0.151912 0.544762
O O7 0.172759 0.475672 0.614292
O O8 0.000000 0.697000 0.635864
O O9 0.663736 0.616187 0.247169
O O10 0.648294 0.819704 0.416809
O O11 0.654651 0.115686 0.269614
O O12 0.500000 0.615316 0.734650
O O13 0.621458 0.717978 0.601707
O O14 0.500000 0.004215 0.513135
#
# Coordination Sequence:
#
# PCOD9338603 Si02
#       6
#     4   4   4   4   4   4
#     4   8  18  33  59  88 119 161 205 252 315 375
#     4   9  18  31  54  86 117 152 206 248 297 373
#     4   9  16  30  52  84 117 151 201 250 301 368
#     4  11  24  42  68  95 128 168 217 264 320 389
#     4  11  25  44  64  95 132 167 214 271 322 380
#     4  10  23  42  67  94 129 173 215 265 325 383
#
# _framework density 23.461880000000001
#
# number of rings (size 3 to 8) (size 9 to 14) (size 15 to 20)
#    1.000    1.333    0.000    2.500    4.667    2.667 
#    0.000    4.167    0.000   14.000    0.000    0.000 
#    0.000    0.000    0.000    0.000    0.000    0.000 
#
# Total GULP energy -134119.834737 kJ/mol
# GULP energy per Si atom -5588.326447 kJ/mol
# Density = 2.340848 g / cm^3
# Si number density = 23.461880 Si / 1000 Ang^3
#
#
#
# Elastic Constant Matrix: (Units=GPa)
#
#
# Indices 1 2 3 4 5 6 
#
# 1 197.5338 18.8072 45.3515 0.0000 0.0000 0.0000
# 2 18.8072 97.0337 26.8335 0.0000 0.0000 0.0000
# 3 45.3515 26.8335 112.3199 0.0000 0.0000 0.0000
# 4 0.0000 0.0000 0.0000 16.3958 0.0000 0.0000
# 5 0.0000 0.0000 0.0000 0.0000 23.0144 0.0000
# 6 0.0000 0.0000 0.0000 0.0000 0.0000 3.8230
#
#
#
# Elastic Compliance Matrix: (Units=1/GPa)
#
#
# Indices 1 2 3 4 5 6 
#
# 1 0.005602 -0.000493 -0.002144 0.000000 0.000000 0.000000
# 2 -0.000493 0.011078 -0.002448 0.000000 0.000000 0.000000
# 3 -0.002144 -0.002448 0.010354 0.000000 0.000000 0.000000
# 4 0.000000 0.000000 0.000000 0.060991 0.000000 0.000000
# 5 0.000000 0.000000 0.000000 0.000000 0.043451 0.000000
# 6 0.000000 0.000000 0.000000 0.000000 0.000000 0.261576
#
#
# Mechanical properties :
#
#
# Convention : Reuss Voigt Hill
#
# Bulk Modulus (GPa) = 59.29658 65.43019 62.36338
# Shear Modulus (GPa) = 12.22968 29.70633 20.96801
#
# Velocity S-wave (km/s) = 2.28558 3.56216 2.99273
# Velocity P-wave (km/s) = 5.68275 6.69829 6.21131
#
# Compressibility (1/GPa) = 0.01686438
#
# Stress axis : x y z
#
# Youngs Moduli (GPa) = 178.52076 90.26848 96.58505
#
# Poissons Ratio (x) = 0.04448 0.20708
# Poissons Ratio (y) = 0.08798 0.23640
# Poissons Ratio (z) = 0.38275 0.22094
#
# Static dielectric constant tensor:
#      x y z
#    x 1.897980 0.000000 0.000000 
#    y 0.000000 1.861470 0.000000 
#    z 0.000000 0.000000 1.923160 
# 
# From -- ./inp_files/4631.got.cif
#   From: 2010.05.17/outbox.cif.g08.bks.cpg/sg26_3_cif.got.tgz:4631.got - 2010.06.04 01:07:29.
