data_PCOD9338644
_publ_section_title
;
Structure prediction by ZEFSAII (Michael W. Deem and Ramdas Pophale) SiO2 
 PCOD9338644
Probable space group: P M C 21
;
_chemical_formula_sum "Si O2"
_cell_formula_units_Z 16
_cell_length_a 13.140606
_cell_length_b 5.101416
_cell_length_c 9.642354
_cell_angle_alpha 90.000000
_cell_angle_beta 90.000000
_cell_angle_gamma 90.000000
_cell_volume 646.381928
_symmetry_space_group_name_H-M "P M C 21"
_symmetry_group_IT_number 26
_symmetry_cell_setting 'orthorhombic'
loop_
_space_group_symop_operation_xyz
x,y,z
-x,-y,1/2+z
-x,y,z
x,-y,1/2+z
loop_
_atom_site_type_symbol
_atom_site_label
_atom_site_fract_x
_atom_site_fract_y
_atom_site_fract_z
Si Si1 0.215440 0.202005 0.682140
Si Si2 0.115426 0.299474 0.079031
Si Si3 0.613886 0.183732 0.230703
Si Si4 0.689090 0.456512 0.962618
O O1 0.155666 0.480826 0.687193
O O2 0.283790 0.278063 0.546590
O O3 0.131462 0.984002 0.645562
O O4 0.301111 0.033531 0.763796
O O5 0.198027 0.324577 0.954791
O O6 0.000000 0.345317 0.037762
O O7 0.500000 0.090251 0.256131
O O8 0.626919 0.281867 0.071837
O O9 0.637269 0.440441 0.324342
#
# Coordination Sequence:
#
# PCOD9338644 Si02
#       4
#     4   4   4   4
#     4   9  21  39  64  94 135 162 229 267 327 405
#     4   9  18  40  68  95 132 174 217 276 341 394
#     4  11  22  42  69  99 140 186 227 285 345 403
#     4   9  23  41  67 100 139 174 233 282 333 414
#
# _framework density 24.753167000000001
#
# number of rings (size 3 to 8) (size 9 to 14) (size 15 to 20)
#    1.500    1.000    0.000    1.500    0.000    6.000 
#    0.000    6.250    0.000    0.000    0.000    0.000 
#    0.000    0.000    0.000    0.000    0.000    0.000 
#
# Total GULP energy -89106.258827 kJ/mol
# GULP energy per Si atom -5569.141177 kJ/mol
# Density = 2.469683 g / cm^3
# Si number density = 24.753167 Si / 1000 Ang^3
#
#
#
# Elastic Constant Matrix: (Units=GPa)
#
#
# Indices 1 2 3 4 5 6 
#
# 1 174.3998 14.1974 17.7486 0.0000 0.0000 0.0000
# 2 14.1974 145.0684 -1.7703 0.0000 0.0000 0.0000
# 3 17.7486 -1.7703 35.7712 0.0000 0.0000 0.0000
# 4 0.0000 0.0000 0.0000 27.0948 0.0000 0.0000
# 5 0.0000 0.0000 0.0000 0.0000 17.4738 0.0000
# 6 0.0000 0.0000 0.0000 0.0000 0.0000 16.1349
#
#
#
# Elastic Compliance Matrix: (Units=1/GPa)
#
#
# Indices 1 2 3 4 5 6 
#
# 1 0.006097 -0.000634 -0.003056 0.000000 0.000000 0.000000
# 2 -0.000634 0.006963 0.000659 0.000000 0.000000 0.000000
# 3 -0.003056 0.000659 0.029505 0.000000 0.000000 0.000000
# 4 0.000000 0.000000 0.000000 0.036907 0.000000 0.000000
# 5 0.000000 0.000000 0.000000 0.000000 0.057229 0.000000
# 6 0.000000 0.000000 0.000000 0.000000 0.000000 0.061978
#
#
# Mechanical properties :
#
#
# Convention : Reuss Voigt Hill
#
# Bulk Modulus (GPa) = 27.39551 46.17673 36.78612
# Shear Modulus (GPa) = 23.05127 33.81161 28.43144
#
# Velocity S-wave (km/s) = 3.05494 3.69989 3.39277
# Velocity P-wave (km/s) = 4.85129 6.07845 5.49921
#
# Compressibility (1/GPa) = 0.03650233
#
# Stress axis : x y z
#
# Youngs Moduli (GPa) = 164.02585 143.60825 33.89307
#
# Poissons Ratio (x) = 0.09104 0.10359
# Poissons Ratio (y) = 0.10398 -0.02234
# Poissons Ratio (z) = 0.50132 -0.09466
#
# Static dielectric constant tensor:
#      x y z
#    x 1.940160 0.000000 0.000000 
#    y 0.000000 1.970170 0.000000 
#    z 0.000000 0.000000 2.249740 
# 
# From -- ./inp_files/3155.got.cif
#   From: 2010.05.17/outbox.cif.g08.bks.cpg/sg26_2_cif.got.tgz:3155.got - 2010.06.04 01:07:29.
