data_PCOD9338550
_publ_section_title
;
Structure prediction by ZEFSAII (Michael W. Deem and Ramdas Pophale) SiO2 
 PCOD9338550
Probable space group: P M C 21
;
_chemical_formula_sum "Si O2"
_cell_formula_units_Z 20
_cell_length_a 14.525506
_cell_length_b 4.966791
_cell_length_c 9.660638
_cell_angle_alpha 90.000000
_cell_angle_beta 90.000000
_cell_angle_gamma 90.000000
_cell_volume 696.968201
_symmetry_space_group_name_H-M "P M C 21"
_symmetry_group_IT_number 26
_symmetry_cell_setting 'orthorhombic'
loop_
_space_group_symop_operation_xyz
x,y,z
-x,-y,1/2+z
-x,y,z
x,-y,1/2+z
loop_
_atom_site_type_symbol
_atom_site_label
_atom_site_fract_x
_atom_site_fract_y
_atom_site_fract_z
Si Si1 0.000000 0.449272 0.609661
Si Si2 0.500000 0.606027 0.355423
Si Si3 0.000000 0.053277 0.289286
Si Si4 0.701053 0.548610 0.761369
Si Si5 0.702031 0.149168 0.530023
Si Si6 0.500000 0.901336 0.024002
Si Si7 0.843676 0.237042 0.954566
O O1 0.000000 0.140477 0.654348
O O2 0.909921 0.548161 0.528587
O O3 0.000000 0.637115 0.746603
O O4 0.405136 0.533722 0.284823
O O5 0.500000 0.416409 0.491821
O O6 0.500000 0.920709 0.385454
O O7 0.088953 0.967692 0.374851
O O8 0.714380 0.435855 0.604956
O O9 0.777798 0.374416 0.842425
O O10 0.703169 0.811812 0.862763
O O11 0.602448 0.033556 0.578399
O O12 0.782978 0.941228 0.560952
#
# Coordination Sequence:
#
# PCOD9338550 Si02
#       7
#     2   2   2   4   4   2   4
#     4  11  28  49  74 105 148 194 248 317 391 459
#     4  10  21  46  68 109 153 206 254 326 377 459
#     4  11  28  49  76 103 152 190 252 315 395 461
#     4  11  25  44  76 111 157 207 264 320 392 464
#     4  11  25  46  74 115 157 212 262 327 386 472
#     4  10  21  46  68 107 155 204 262 312 389 445
#     4  11  26  45  75 108 149 199 258 320 390 472
#
# _framework density 28.695713000000001
#
# number of rings (size 3 to 8) (size 9 to 14) (size 15 to 20)
#    0.000    1.200    2.000    1.800    8.400    3.200 
#    0.000    2.000    0.000    0.000    0.000    0.000 
#    0.000    0.000    0.000    0.000    0.000    0.000 
#
# Total GULP energy -112028.898450 kJ/mol
# GULP energy per Si atom -5601.444923 kJ/mol
# Density = 2.863040 g / cm^3
# Si number density = 28.695713 Si / 1000 Ang^3
#
#
#
# Elastic Constant Matrix: (Units=GPa)
#
#
# Indices 1 2 3 4 5 6 
#
# 1 211.7546 29.7594 30.5582 0.0000 0.0000 0.0000
# 2 29.7594 92.0584 7.9599 0.0000 0.0000 0.0000
# 3 30.5582 7.9599 88.8229 0.0000 0.0000 0.0000
# 4 0.0000 0.0000 0.0000 38.8643 0.0000 0.0000
# 5 0.0000 0.0000 0.0000 0.0000 17.5316 0.0000
# 6 0.0000 0.0000 0.0000 0.0000 0.0000 40.0206
#
#
#
# Elastic Compliance Matrix: (Units=1/GPa)
#
#
# Indices 1 2 3 4 5 6 
#
# 1 0.005175 -0.001531 -0.001643 0.000000 0.000000 0.000000
# 2 -0.001531 0.011400 -0.000495 0.000000 0.000000 0.000000
# 3 -0.001643 -0.000495 0.011868 0.000000 0.000000 0.000000
# 4 0.000000 0.000000 0.000000 0.025731 0.000000 0.000000
# 5 0.000000 0.000000 0.000000 0.000000 0.057040 0.000000
# 6 0.000000 0.000000 0.000000 0.000000 0.000000 0.024987
#
#
# Mechanical properties :
#
#
# Convention : Reuss Voigt Hill
#
# Bulk Modulus (GPa) = 47.38147 58.79900 53.09023
# Shear Modulus (GPa) = 33.20641 40.90721 37.05681
#
# Velocity S-wave (km/s) = 3.40544 3.77974 3.59746
# Velocity P-wave (km/s) = 5.65776 6.29155 5.98305
#
# Compressibility (1/GPa) = 0.02110530
#
# Stress axis : x y z
#
# Youngs Moduli (GPa) = 193.24847 87.71698 84.26015
#
# Poissons Ratio (x) = 0.13427 0.13845
# Poissons Ratio (y) = 0.29581 0.04171
# Poissons Ratio (z) = 0.31753 0.04342
#
# Static dielectric constant tensor:
#      x y z
#    x 2.158180 0.000000 0.000000 
#    y 0.000000 2.188430 0.000000 
#    z 0.000000 0.000000 2.386070 
# 
# From -- ./inp_files/3456.got.cif
#   From: 2010.05.17/outbox.cif.g08.bks.cpg/sg26_2_cif.got.tgz:3456.got - 2010.06.04 01:07:29.
