data_PCOD9338339
_publ_section_title
;
Structure prediction by ZEFSAII (Michael W. Deem and Ramdas Pophale) SiO2 
 PCOD9338339
Probable space group: P M C 21
;
_chemical_formula_sum "Si O2"
_cell_formula_units_Z 24
_cell_length_a 7.537098
_cell_length_b 14.637885
_cell_length_c 8.366829
_cell_angle_alpha 90.000000
_cell_angle_beta 90.000000
_cell_angle_gamma 90.000000
_cell_volume 923.088597
_symmetry_space_group_name_H-M "P M C 21"
_symmetry_group_IT_number 26
_symmetry_cell_setting 'orthorhombic'
loop_
_space_group_symop_operation_xyz
x,y,z
-x,-y,1/2+z
-x,y,z
x,-y,1/2+z
loop_
_atom_site_type_symbol
_atom_site_label
_atom_site_fract_x
_atom_site_fract_y
_atom_site_fract_z
Si Si1 0.701487 0.805035 0.270890
Si Si2 0.717486 0.965636 0.065364
Si Si3 0.716176 0.863228 0.748204
Si Si4 0.283539 0.306703 0.078446
Si Si5 0.800187 0.641710 0.070081
Si Si6 0.710803 0.471947 0.881709
O O1 0.500000 0.826415 0.318979
O O2 0.779002 0.898973 0.208002
O O3 0.775265 0.750170 0.420611
O O4 0.697485 0.732358 0.124088
O O5 0.500000 0.963665 0.063798
O O6 0.766769 0.069382 0.102347
O O7 0.777051 0.916104 0.905009
O O8 0.500000 0.860988 0.753566
O O9 0.776133 0.759279 0.721162
O O10 0.500000 0.310274 0.086613
O O11 0.229386 0.409091 0.032734
O O12 0.742187 0.577358 0.923827
O O13 0.789804 0.574283 0.224575
O O14 0.000000 0.670894 0.045762
O O15 0.500000 0.460738 0.861979
#
# Coordination Sequence:
#
# PCOD9338339 Si02
#       6
#     4   4   4   4   4   4
#     4   9  17  31  48  69  97 134 173 210 254 310
#     4   9  16  24  40  66  99 132 164 205 257 310
#     4   9  15  24  39  67 101 130 160 205 260 310
#     4   8  15  27  44  65  94 128 166 209 255 304
#     4  11  22  36  54  79 108 140 176 222 273 321
#     4  10  20  36  56  78 105 142 181 221 267 323
#
# _framework density 25.999670999999999
#
# number of rings (size 3 to 8) (size 9 to 14) (size 15 to 20)
#    0.000    2.667    0.000    4.000    0.000    5.333 
#    0.000    3.333    0.000    0.000    0.000   11.667 
#    0.000    0.000    0.000    0.000    0.000    0.000 
#
# Total GULP energy -134103.974268 kJ/mol
# GULP energy per Si atom -5587.665594 kJ/mol
# Density = 2.594049 g / cm^3
# Si number density = 25.999671 Si / 1000 Ang^3
#
#
#
# Elastic Constant Matrix: (Units=GPa)
#
#
# Indices 1 2 3 4 5 6 
#
# 1 76.0529 -6.0989 -2.4544 0.0000 0.0000 0.0000
# 2 -6.0989 150.5049 12.3414 0.0000 0.0000 0.0000
# 3 -2.4544 12.3414 52.6993 0.0000 0.0000 0.0000
# 4 0.0000 0.0000 0.0000 52.4729 0.0000 0.0000
# 5 0.0000 0.0000 0.0000 0.0000 9.6464 0.0000
# 6 0.0000 0.0000 0.0000 0.0000 0.0000 -28.2543
#
#
#
# Elastic Compliance Matrix: (Units=1/GPa)
#
#
# Indices 1 2 3 4 5 6 
#
# 1 0.013204 0.000494 0.000499 0.000000 0.000000 0.000000
# 2 0.000494 0.006793 -0.001568 0.000000 0.000000 0.000000
# 3 0.000499 -0.001568 0.019366 0.000000 0.000000 0.000000
# 4 0.000000 0.000000 0.000000 0.019057 0.000000 0.000000
# 5 0.000000 0.000000 0.000000 0.000000 0.103666 0.000000
# 6 0.000000 0.000000 0.000000 0.000000 0.000000 -0.035393
#
#
# Mechanical properties :
#
#
# Convention : Reuss Voigt Hill
#
# Bulk Modulus (GPa) = 26.16800 31.87036 29.01918
# Shear Modulus (GPa) = 35.56678 25.13761 30.35219
#
# Velocity S-wave (km/s) = 3.70262 3.11278 3.42044
# Velocity P-wave (km/s) = 5.32595 5.02034 5.17540
#
# Compressibility (1/GPa) = 0.03821462
#
# Stress axis : x y z
#
# Youngs Moduli (GPa) = 75.73187 147.21286 51.63690
#
# Poissons Ratio (x) = -0.07274 -0.02578
# Poissons Ratio (y) = -0.03742 0.08096
# Poissons Ratio (z) = -0.03781 0.23080
#
# Static dielectric constant tensor:
#      x y z
#    x 1.988120 0.000000 0.000000 
#    y 0.000000 1.996650 0.000000 
#    z 0.000000 0.000000 2.127010 
# 
# From -- ./inp_files/1432.got.cif
#   From: 2010.05.17/outbox.cif.g08.bks.cpg/sg26_1_cif.got.tgz:1432.got - 2010.06.04 01:07:29.
