data_PCOD9338995
_publ_section_title
;
Structure prediction by ZEFSAII (Michael W. Deem and Ramdas Pophale) SiO2 
 PCOD9338995
Probable space group: P C C 2
;
_chemical_formula_sum "Si O2"
_cell_formula_units_Z 22
_cell_length_a 11.660424
_cell_length_b 5.043754
_cell_length_c 14.438083
_cell_angle_alpha 90.000000
_cell_angle_beta 90.000000
_cell_angle_gamma 90.000000
_cell_volume 849.137016
_symmetry_space_group_name_H-M "P C C 2"
_symmetry_group_IT_number 27
_symmetry_cell_setting 'orthorhombic'
loop_
_space_group_symop_operation_xyz
x,y,z
-x,-y,z
-x,y,1/2+z
x,-y,1/2+z
loop_
_atom_site_type_symbol
_atom_site_label
_atom_site_fract_x
_atom_site_fract_y
_atom_site_fract_z
Si Si1 0.789391 0.155055 0.029840
Si Si2 0.378427 0.883609 0.652080
Si Si3 0.809696 0.819786 0.867593
Si Si4 0.622481 0.596479 0.953233
Si Si5 0.163630 0.683735 0.752688
Si Si6 0.000000 0.000000 0.615921
O O1 0.715912 0.360657 0.968999
O O2 0.917133 0.206421 0.062272
O O3 0.708614 0.115991 0.119174
O O4 0.815357 0.871217 0.978367
O O5 0.399286 0.736497 0.552915
O O6 0.296048 0.707822 0.717252
O O7 0.500000 0.000000 0.684321
O O8 0.861068 0.594193 0.802574
O O9 0.851980 0.096503 0.831324
O O10 0.673074 0.774356 0.870088
O O11 0.500000 0.500000 0.922663
O O12 0.082357 0.804003 0.674078
#
# Coordination Sequence:
#
# PCOD9338995 Si02
#       6
#     4   4   4   4   4   2
#     4  10  22  48  72 108 139 198 256 303 378 455
#     4  10  22  39  70 104 142 190 246 307 368 457
#     4  11  25  47  68 105 147 189 248 304 386 458
#     4  11  22  42  77 104 146 192 252 308 372 461
#     4  11  26  47  69 107 148 194 244 316 391 447
#     4  10  26  50  76 106 148 202 260 324 374 474
#
# _framework density 25.908657000000002
#
# number of rings (size 3 to 8) (size 9 to 14) (size 15 to 20)
#    0.000    1.455    3.636    0.000    5.091    2.909 
#    9.818    0.000    0.000    0.000    0.000    0.000 
#    0.000    0.000    0.000    0.000    0.000    0.000 
#
# Total GULP energy -122665.167543 kJ/mol
# GULP energy per Si atom -5575.689434 kJ/mol
# Density = 2.584969 g / cm^3
# Si number density = 25.908657 Si / 1000 Ang^3
#
#
#
# Elastic Constant Matrix: (Units=GPa)
#
#
# Indices 1 2 3 4 5 6 
#
# 1 165.9915 19.6164 20.0453 0.0000 0.0000 0.0000
# 2 19.6164 113.6149 19.3956 0.0000 0.0000 0.0000
# 3 20.0453 19.3956 46.7091 0.0000 0.0000 0.0000
# 4 0.0000 0.0000 0.0000 33.8892 0.0000 0.0000
# 5 0.0000 0.0000 0.0000 0.0000 31.7399 0.0000
# 6 0.0000 0.0000 0.0000 0.0000 0.0000 20.3738
#
#
#
# Elastic Compliance Matrix: (Units=1/GPa)
#
#
# Indices 1 2 3 4 5 6 
#
# 1 0.006403 -0.000685 -0.002463 0.000000 0.000000 0.000000
# 2 -0.000685 0.009546 -0.003670 0.000000 0.000000 0.000000
# 3 -0.002463 -0.003670 0.023990 0.000000 0.000000 0.000000
# 4 0.000000 0.000000 0.000000 0.029508 0.000000 0.000000
# 5 0.000000 0.000000 0.000000 0.000000 0.031506 0.000000
# 6 0.000000 0.000000 0.000000 0.000000 0.000000 0.049083
#
#
# Mechanical properties :
#
#
# Convention : Reuss Voigt Hill
#
# Bulk Modulus (GPa) = 38.01902 49.38111 43.70007
# Shear Modulus (GPa) = 28.99548 35.01781 32.00665
#
# Velocity S-wave (km/s) = 3.34899 3.68038 3.51859
# Velocity P-wave (km/s) = 5.44614 6.09601 5.78021
#
# Compressibility (1/GPa) = 0.02630262
#
# Stress axis : x y z
#
# Youngs Moduli (GPa) = 156.18098 104.75075 41.68359
#
# Poissons Ratio (x) = 0.07175 0.10268
# Poissons Ratio (y) = 0.10698 0.15298
# Poissons Ratio (z) = 0.38473 0.38445
#
# Static dielectric constant tensor:
#      x y z
#    x 2.166580 0.000000 0.000000 
#    y 0.000000 2.263310 0.000000 
#    z 0.000000 0.000000 2.119670 
# 
# From -- ./inp_files/3549.got.cif
#   From: 2010.05.17/outbox.cif.g08.bks.cpg/sg27_2_cif.got.tgz:3549.got - 2010.06.04 01:11:05.
