data_PCOD9338724
_publ_section_title
;
Structure prediction by ZEFSAII (Michael W. Deem and Ramdas Pophale) SiO2 
 PCOD9338724
Probable space group: P C C 2
;
_chemical_formula_sum "Si O2"
_cell_formula_units_Z 32
_cell_length_a 27.204056
_cell_length_b 13.077456
_cell_length_c 5.485332
_cell_angle_alpha 90.000000
_cell_angle_beta 90.000000
_cell_angle_gamma 90.000000
_cell_volume 1951.460864
_symmetry_space_group_name_H-M "P C C 2"
_symmetry_group_IT_number 27
_symmetry_cell_setting 'orthorhombic'
loop_
_space_group_symop_operation_xyz
x,y,z
-x,-y,z
-x,y,1/2+z
x,-y,1/2+z
loop_
_atom_site_type_symbol
_atom_site_label
_atom_site_fract_x
_atom_site_fract_y
_atom_site_fract_z
Si Si1 0.679956 0.781150 0.044680
Si Si2 0.019895 0.118145 0.021770
Si Si3 0.288642 0.879830 0.043276
Si Si4 0.176169 0.892533 0.091662
Si Si5 0.520203 0.382787 0.561298
Si Si6 0.136231 0.121157 0.091536
Si Si7 0.365672 0.435824 0.063622
Si Si8 0.615843 0.031357 0.546160
O O1 0.707469 0.819262 0.288493
O O2 0.669361 0.662059 0.058716
O O3 0.630283 0.850148 0.050250
O O4 0.703280 0.811944 0.785277
O O5 0.077853 0.126596 0.064165
O O6 0.993739 0.163708 0.259679
O O7 0.000000 0.000000 0.007662
O O8 0.233447 0.920296 0.064722
O O9 0.332075 0.965298 0.042644
O O10 0.163538 0.839135 0.348321
O O11 0.148120 0.000269 0.104519
O O12 0.156850 0.836933 0.848005
O O13 0.500000 0.500000 0.560912
O O14 0.500126 0.335034 0.311055
O O15 0.578561 0.393244 0.562233
O O16 0.359492 0.498695 0.315420
O O17 0.590525 0.001431 0.295096
#
# Coordination Sequence:
#
# PCOD9338724 Si02
#       8
#     4   4   4   4   4   4   4   4
#     4  10  21  31  43  68  88 116 157 171 214 290
#     4  10  16  25  35  43  70 102 129 183 239 262
#     4  10  19  31  46  61  88 119 146 189 239 265
#     4  10  18  25  39  54  78 100 135 187 233 269
#     4  10  16  30  49  73  89 119 137 168 214 280
#     4  10  19  24  35  60  71  97 154 179 232 290
#     4  12  21  33  51  69 100 125 143 181 221 249
#     4   8  16  27  44  58  83 109 146 175 217 261
#
# _framework density 16.397971999999999
#
# number of rings (size 3 to 8) (size 9 to 14) (size 15 to 20)
#    0.000    2.000    2.500    5.250   10.500    0.000 
#    0.000    0.000    0.000    0.000    0.000    0.000 
#    0.000   27.000    0.000    0.000    0.000    0.000 
#
# Total GULP energy -178195.051455 kJ/mol
# GULP energy per Si atom -5568.595358 kJ/mol
# Density = 1.636065 g / cm^3
# Si number density = 16.397972 Si / 1000 Ang^3
#
#
#
# Elastic Constant Matrix: (Units=GPa)
#
#
# Indices 1 2 3 4 5 6 
#
# 1 15.7219 4.9575 -12.0677 0.0000 0.0000 0.0000
# 2 4.9575 37.6427 13.2186 0.0000 0.0000 0.0000
# 3 -12.0677 13.2186 141.6738 0.0000 0.0000 0.0000
# 4 0.0000 0.0000 0.0000 7.0174 0.0000 0.0000
# 5 0.0000 0.0000 0.0000 0.0000 18.9192 0.0000
# 6 0.0000 0.0000 0.0000 0.0000 0.0000 229.8700
#
#
#
# Elastic Compliance Matrix: (Units=1/GPa)
#
#
# Indices 1 2 3 4 5 6 
#
# 1 0.073112 -0.012216 0.007367 0.000000 0.000000 0.000000
# 2 -0.012216 0.029507 -0.003794 0.000000 0.000000 0.000000
# 3 0.007367 -0.003794 0.008040 0.000000 0.000000 0.000000
# 4 0.000000 0.000000 0.000000 0.142503 0.000000 0.000000
# 5 0.000000 0.000000 0.000000 0.000000 0.052856 0.000000
# 6 0.000000 0.000000 0.000000 0.000000 0.000000 0.004350
#
#
# Mechanical properties :
#
#
# Convention : Reuss Voigt Hill
#
# Bulk Modulus (GPa) = 10.70954 23.02836 16.86895
# Shear Modulus (GPa) = 13.93621 63.75665 38.84643
#
# Velocity S-wave (km/s) = 2.91842 6.24221 4.87249
# Velocity P-wave (km/s) = 4.23101 8.12573 6.47800
#
# Compressibility (1/GPa) = 0.09337473
#
# Stress axis : x y z
#
# Youngs Moduli (GPa) = 13.67756 33.89076 124.37838
#
# Poissons Ratio (x) = 0.41401 -0.91636
# Poissons Ratio (y) = 0.16709 0.47184
# Poissons Ratio (z) = -0.10077 0.12857
#
# Static dielectric constant tensor:
#      x y z
#    x 1.553720 0.000000 0.000000 
#    y 0.000000 1.556780 0.000000 
#    z 0.000000 0.000000 1.728470 
# 
# From -- ./inp_files/391.got.cif
#   From: 2010.05.17/outbox.cif.g08.bks.cpg/sg27_1_cif.got.tgz:391.got - 2010.06.04 01:11:05.
