data_PCOD9338691
_publ_section_title
;
Structure prediction by ZEFSAII (Michael W. Deem and Ramdas Pophale) SiO2 
 PCOD9338691
Probable space group: P M C 21
;
_chemical_formula_sum "Si O2"
_cell_formula_units_Z 32
_cell_length_a 9.000000
_cell_length_b 21.000000
_cell_length_c 9.000000
_cell_angle_alpha 90.000000
_cell_angle_beta 90.000000
_cell_angle_gamma 90.000000
_cell_volume 1701.000000
_symmetry_space_group_name_H-M "P M C 21"
_symmetry_group_IT_number 26
_symmetry_cell_setting 'orthorhombic'
loop_
_space_group_symop_operation_xyz
x,y,z
-x,-y,1/2+z
-x,y,z
x,-y,1/2+z
loop_
_atom_site_type_symbol
_atom_site_label
_atom_site_fract_x
_atom_site_fract_y
_atom_site_fract_z
Si Si1 0.681639 0.452008 0.229780
Si Si2 0.319552 0.708137 0.232836
Si Si3 0.679744 0.076438 0.397925
Si Si4 0.680168 0.673939 0.896555
Si Si5 0.821927 0.826543 0.396291
Si Si6 0.319335 0.946486 0.238127
Si Si7 0.680544 0.799009 0.715529
Si Si8 0.680782 0.421331 0.894981
O O1 0.500000 0.452518 0.229866
O O2 0.730187 0.394762 0.337828
O O3 0.729322 0.521044 0.288116
O O4 0.728987 0.436226 0.062488
O O5 0.500000 0.716530 0.239427
O O6 0.240703 0.771689 0.287865
O O7 0.277403 0.648163 0.336209
O O8 0.277389 0.690409 0.064461
O O9 0.500000 0.076736 0.400932
O O10 0.727062 0.065476 0.567671
O O11 0.723506 0.143761 0.327140
O O12 0.723014 0.016747 0.295181
O O13 0.500000 0.672043 0.896319
O O14 0.722289 0.731190 0.786515
O O15 0.754504 0.893333 0.341105
O O16 0.757756 0.810662 0.558795
O O17 0.000000 0.827899 0.396269
O O18 0.500000 0.941091 0.247225
O O19 0.500000 0.800143 0.696983
O O20 0.500000 0.421852 0.894481
#
# Coordination Sequence:
#
# PCOD9338691 Si02
#       8
#     4   4   4   4   4   4   4   4
#     4   9  15  24  39  71 112 141 166 209 262 312
#     4  10  19  34  55  78 102 137 179 221 265 314
#     4   9  18  33  60  90 111 135 174 217 258 304
#     4   9  17  29  51  80 108 135 172 218 266 314
#     4  12  25  38  52  76 107 142 179 220 266 314
#     4  10  19  36  60  85 110 139 174 215 259 310
#     4  10  19  35  57  81 107 139 176 217 260 310
#     4   9  16  25  43  71 107 142 172 209 260 312
#
# _framework density 18.812463000000001
#
# number of rings (size 3 to 8) (size 9 to 14) (size 15 to 20)
#    0.000    2.250    0.000    4.125    0.000    9.000 
#    0.000    5.000    0.000    0.000    0.000    7.875 
#    0.000    0.000    0.000    0.000    0.000    0.000 
#
# Total GULP energy -178646.398133 kJ/mol
# GULP energy per Si atom -5582.699942 kJ/mol
# Density = 1.876965 g / cm^3
# Si number density = 18.812463 Si / 1000 Ang^3
#
#
#
# Elastic Constant Matrix: (Units=GPa)
#
#
# Indices 1 2 3 4 5 6 
#
# 1 22.4266 3.1696 0.9159 0.0000 0.0000 0.0000
# 2 3.1696 49.5785 -38.7265 0.0000 0.0000 0.0000
# 3 0.9159 -38.7265 37.0073 0.0000 0.0000 0.0000
# 4 0.0000 0.0000 0.0000 41.2860 0.0000 0.0000
# 5 0.0000 0.0000 0.0000 0.0000 3.3625 0.0000
# 6 0.0000 0.0000 0.0000 0.0000 0.0000 3.2863
#
#
#
# Elastic Compliance Matrix: (Units=1/GPa)
#
#
# Indices 1 2 3 4 5 6 
#
# 1 0.048730 -0.022221 -0.024459 0.000000 0.000000 0.000000
# 2 -0.022221 0.120595 0.126747 0.000000 0.000000 0.000000
# 3 -0.024459 0.126747 0.160263 0.000000 0.000000 0.000000
# 4 0.000000 0.000000 0.000000 0.024221 0.000000 0.000000
# 5 0.000000 0.000000 0.000000 0.000000 0.297397 0.000000
# 6 0.000000 0.000000 0.000000 0.000000 0.000000 0.304294
#
#
# Mechanical properties :
#
#
# Convention : Reuss Voigt Hill
#
# Bulk Modulus (GPa) = 2.04198 4.41450 3.22824
# Shear Modulus (GPa) = 5.21591 19.16384 12.18988
#
# Velocity S-wave (km/s) = 1.66691 3.19514 2.54828
# Velocity P-wave (km/s) = 2.18920 3.99544 3.22150
#
# Compressibility (1/GPa) = 0.48972142
#
# Stress axis : x y z
#
# Youngs Moduli (GPa) = 20.52145 8.29224 6.23976
#
# Poissons Ratio (x) = 0.18426 0.15262
# Poissons Ratio (y) = 0.45600 -0.79087
# Poissons Ratio (z) = 0.50194 -1.05102
#
# Static dielectric constant tensor:
#      x y z
#    x 1.625730 0.000000 0.000000 
#    y 0.000000 1.635740 0.000000 
#    z 0.000000 0.000000 1.649950 
# 
# From -- ./inp_files/1597.got.cif
#   From: 2010.05.17/outbox.ucp.g08.bks.cvg/sg26_1_cif.got.tgz:1597.got - 2010.06.11 15:23:25.
