data_PCOD9338673
_publ_section_title
;
Structure prediction by ZEFSAII (Michael W. Deem and Ramdas Pophale) SiO2 
 PCOD9338673
Probable space group: P M C 21
;
_chemical_formula_sum "Si O2"
_cell_formula_units_Z 32
_cell_length_a 7.351581
_cell_length_b 7.847067
_cell_length_c 19.397704
_cell_angle_alpha 90.000000
_cell_angle_beta 90.000000
_cell_angle_gamma 90.000000
_cell_volume 1119.021512
_symmetry_space_group_name_H-M "P M C 21"
_symmetry_group_IT_number 26
_symmetry_cell_setting 'orthorhombic'
loop_
_space_group_symop_operation_xyz
x,y,z
-x,-y,1/2+z
-x,y,z
x,-y,1/2+z
loop_
_atom_site_type_symbol
_atom_site_label
_atom_site_fract_x
_atom_site_fract_y
_atom_site_fract_z
Si Si1 0.711648 0.824217 0.177790
Si Si2 0.277799 0.231595 0.929195
Si Si3 0.215539 0.507457 0.584753
Si Si4 0.290224 0.919451 0.836018
Si Si5 0.277722 0.400923 0.798508
Si Si6 0.282052 0.276799 0.211534
Si Si7 0.783025 0.698562 0.959978
Si Si8 0.283870 0.965141 0.554661
O O1 0.500000 0.869121 0.186502
O O2 0.716079 0.650485 0.131874
O O3 0.780330 0.760131 0.251485
O O4 0.791546 0.970793 0.128194
O O5 0.500000 0.231634 0.932723
O O6 0.214576 0.068317 0.883590
O O7 0.219982 0.382192 0.877761
O O8 0.210058 0.186123 0.005660
O O9 0.252350 0.673851 0.631830
O O10 0.284914 0.460791 0.507410
O O11 0.000000 0.491090 0.581206
O O12 0.500000 0.968083 0.827004
O O13 0.215374 0.876381 0.760434
O O14 0.289340 0.750694 0.884820
O O15 0.500000 0.402707 0.797890
O O16 0.213270 0.561696 0.755486
O O17 0.500000 0.271177 0.217565
O O18 0.736052 0.864683 0.007115
O O19 0.000000 0.689113 0.954020
O O20 0.500000 0.936479 0.563158
#
# Coordination Sequence:
#
# PCOD9338673 Si02
#       8
#     4   4   4   4   4   4   4   4
#     4   8  13  22  37  56  76  99 128 161 196 233
#     4   8  13  22  38  58  78 100 126 158 194 230
#     4   9  16  25  39  60  82 103 131 168 204 235
#     4   9  17  28  42  60  82 108 135 163 198 239
#     4   8  13  22  38  58  78 100 126 158 194 230
#     4   9  17  28  42  60  82 108 135 163 198 239
#     4   9  16  25  39  60  82 103 131 168 204 235
#     4   8  13  22  37  56  76  99 128 161 196 233
#
# _framework density 28.596412000000001
#
# number of rings (size 3 to 8) (size 9 to 14) (size 15 to 20)
#    0.000    3.500    0.000    2.250    0.000    2.000 
#    0.000    0.000    0.000   13.500    0.000    7.000 
#    0.000   16.000    0.000    0.000    0.000    0.000 
#
# Total GULP energy -178875.930105 kJ/mol
# GULP energy per Si atom -5589.872816 kJ/mol
# Density = 2.853132 g / cm^3
# Si number density = 28.596412 Si / 1000 Ang^3
#
#
#
# Elastic Constant Matrix: (Units=GPa)
#
#
# Indices 1 2 3 4 5 6 
#
# 1 136.8969 0.8645 6.0519 0.0000 0.0000 0.0000
# 2 0.8645 103.1132 17.1494 0.0000 0.0000 0.0000
# 3 6.0519 17.1494 271.3488 0.0000 0.0000 0.0000
# 4 0.0000 0.0000 0.0000 63.2602 0.0000 0.0000
# 5 0.0000 0.0000 0.0000 0.0000 64.7980 0.0000
# 6 0.0000 0.0000 0.0000 0.0000 0.0000 88.0859
#
#
#
# Elastic Compliance Matrix: (Units=1/GPa)
#
#
# Indices 1 2 3 4 5 6 
#
# 1 0.007312 -0.000035 -0.000161 0.000000 0.000000 0.000000
# 2 -0.000035 0.009801 -0.000619 0.000000 0.000000 0.000000
# 3 -0.000161 -0.000619 0.003728 0.000000 0.000000 0.000000
# 4 0.000000 0.000000 0.000000 0.015808 0.000000 0.000000
# 5 0.000000 0.000000 0.000000 0.000000 0.015433 0.000000
# 6 0.000000 0.000000 0.000000 0.000000 0.000000 0.011353
#
#
# Mechanical properties :
#
#
# Convention : Reuss Voigt Hill
#
# Bulk Modulus (GPa) = 52.04778 62.16559 57.10669
# Shear Modulus (GPa) = 69.96254 75.71502 72.83878
#
# Velocity S-wave (km/s) = 4.95163 5.15117 5.05239
# Velocity P-wave (km/s) = 7.13665 7.56079 7.35178
#
# Compressibility (1/GPa) = 0.01921311
#
# Stress axis : x y z
#
# Youngs Moduli (GPa) = 136.75961 102.02763 268.24156
#
# Poissons Ratio (x) = 0.00352 0.04316
# Poissons Ratio (y) = 0.00472 0.16595
# Poissons Ratio (z) = 0.02200 0.06312
#
# Static dielectric constant tensor:
#      x y z
#    x 2.031840 0.000000 0.000000 
#    y 0.000000 2.379020 0.000000 
#    z 0.000000 0.000000 2.227740 
# 
# From -- ./inp_files/5354.got.cif
#   From: 2010.05.17/outbox.cif.g08.bks.cpg/sg26_3_cif.got.tgz:5354.got - 2010.06.04 01:07:29.
