data_PCOD9338463
_publ_section_title
;
Structure prediction by ZEFSAII (Michael W. Deem and Ramdas Pophale) SiO2 
 PCOD9338463
Probable space group: P M C 21
;
_chemical_formula_sum "Si O2"
_cell_formula_units_Z 32
_cell_length_a 8.896736
_cell_length_b 11.037812
_cell_length_c 14.244357
_cell_angle_alpha 90.000000
_cell_angle_beta 90.000000
_cell_angle_gamma 90.000000
_cell_volume 1398.802971
_symmetry_space_group_name_H-M "P M C 21"
_symmetry_group_IT_number 26
_symmetry_cell_setting 'orthorhombic'
loop_
_space_group_symop_operation_xyz
x,y,z
-x,-y,1/2+z
-x,y,z
x,-y,1/2+z
loop_
_atom_site_type_symbol
_atom_site_label
_atom_site_fract_x
_atom_site_fract_y
_atom_site_fract_z
Si Si1 0.679228 0.061562 0.877090
Si Si2 0.823812 0.837312 0.766381
Si Si3 0.176827 0.462850 0.721414
Si Si4 0.668582 0.295778 0.422629
Si Si5 0.824889 0.806051 0.222566
Si Si6 0.326403 0.063345 0.558586
Si Si7 0.323496 0.567219 0.423065
Si Si8 0.679345 0.315048 0.112211
O O1 0.500000 0.057512 0.877869
O O2 0.742701 0.949954 0.815964
O O3 0.735032 0.176324 0.819308
O O4 0.726646 0.037977 0.984464
O O5 0.788726 0.730267 0.841456
O O6 0.754106 0.795499 0.668037
O O7 0.000000 0.858727 0.758432
O O8 0.199619 0.327514 0.680838
O O9 0.273114 0.564824 0.670129
O O10 0.000000 0.493819 0.714927
O O11 0.227314 0.444376 0.829062
O O12 0.500000 0.289583 0.378813
O O13 0.675279 0.187666 0.497282
O O14 0.683458 0.429614 0.463968
O O15 0.772388 0.906067 0.148024
O O16 0.000000 0.819441 0.243182
O O17 0.500000 0.039659 0.586281
O O18 0.500000 0.591101 0.400682
O O19 0.274540 0.658949 0.504677
O O20 0.500000 0.300705 0.113064
#
# Coordination Sequence:
#
# PCOD9338463 Si02
#       8
#     4   4   4   4   4   4   4   4
#     4  10  22  42  66  89 116 155 204 255 300 356
#     4  11  21  35  58  87 117 152 191 243 308 355
#     4  11  24  40  59  89 127 164 200 248 305 363
#     4   9  17  33  57  85 116 152 198 248 290 345
#     4  11  24  41  61  90 126 162 200 248 307 367
#     4   9  19  37  63  92 117 153 203 252 301 355
#     4  10  21  36  58  86 118 161 204 246 296 355
#     4  11  22  38  60  88 121 161 206 248 295 360
#
# _framework density 22.876702999999999
#
# number of rings (size 3 to 8) (size 9 to 14) (size 15 to 20)
#    0.000    1.750    1.250    4.125    0.000    6.500 
#    2.250    0.000    0.000    0.000    0.000    0.000 
#    0.000    0.000    0.000    0.000    0.000    0.000 
#
# Total GULP energy -178960.671435 kJ/mol
# GULP energy per Si atom -5592.520982 kJ/mol
# Density = 2.282463 g / cm^3
# Si number density = 22.876703 Si / 1000 Ang^3
#
#
#
# Elastic Constant Matrix: (Units=GPa)
#
#
# Indices 1 2 3 4 5 6 
#
# 1 49.0489 9.0023 26.4682 0.0000 0.0000 0.0000
# 2 9.0023 56.4726 6.2169 0.0000 0.0000 0.0000
# 3 26.4682 6.2169 97.0879 0.0000 0.0000 0.0000
# 4 0.0000 0.0000 0.0000 39.7598 0.0000 0.0000
# 5 0.0000 0.0000 0.0000 0.0000 79.0097 0.0000
# 6 0.0000 0.0000 0.0000 0.0000 0.0000 23.0439
#
#
#
# Elastic Compliance Matrix: (Units=1/GPa)
#
#
# Indices 1 2 3 4 5 6 
#
# 1 0.024461 -0.003188 -0.006465 0.000000 0.000000 0.000000
# 2 -0.003188 0.018249 -0.000299 0.000000 0.000000 0.000000
# 3 -0.006465 -0.000299 0.012081 0.000000 0.000000 0.000000
# 4 0.000000 0.000000 0.000000 0.025151 0.000000 0.000000
# 5 0.000000 0.000000 0.000000 0.000000 0.012657 0.000000
# 6 0.000000 0.000000 0.000000 0.000000 0.000000 0.043395
#
#
# Mechanical properties :
#
#
# Convention : Reuss Voigt Hill
#
# Bulk Modulus (GPa) = 28.66305 31.77603 30.21954
# Shear Modulus (GPa) = 29.84580 39.09082 34.46831
#
# Velocity S-wave (km/s) = 3.61589 4.13820 3.88583
# Velocity P-wave (km/s) = 5.47627 6.06244 5.77679
#
# Compressibility (1/GPa) = 0.03488812
#
# Stress axis : x y z
#
# Youngs Moduli (GPa) = 40.88077 54.79803 82.77120
#
# Poissons Ratio (x) = 0.17468 0.53508
# Poissons Ratio (y) = 0.13032 0.02479
# Poissons Ratio (z) = 0.26428 0.01641
#
# Static dielectric constant tensor:
#      x y z
#    x 1.776110 0.000000 0.000000 
#    y 0.000000 1.947460 0.000000 
#    z 0.000000 0.000000 1.854780 
# 
# From -- ./inp_files/4230.got.cif
#   From: 2010.05.17/outbox.cif.g08.bks.cpg/sg26_3_cif.got.tgz:4230.got - 2010.06.04 01:07:29.
