data_PCOD9338806
_publ_section_title
;
Structure prediction by ZEFSAII (Michael W. Deem and Ramdas Pophale) SiO2 
 PCOD9338806
Probable space group: P C C 2
;
_chemical_formula_sum "Si O2"
_cell_formula_units_Z 32
_cell_length_a 5.807930
_cell_length_b 13.882622
_cell_length_c 18.324819
_cell_angle_alpha 90.000000
_cell_angle_beta 90.000000
_cell_angle_gamma 90.000000
_cell_volume 1477.517270
_symmetry_space_group_name_H-M "P C C 2"
_symmetry_group_IT_number 27
_symmetry_cell_setting 'orthorhombic'
loop_
_space_group_symop_operation_xyz
x,y,z
-x,-y,z
-x,y,1/2+z
x,-y,1/2+z
loop_
_atom_site_type_symbol
_atom_site_label
_atom_site_fract_x
_atom_site_fract_y
_atom_site_fract_z
Si Si1 0.908103 0.391392 0.872310
Si Si2 0.018216 0.136480 0.231324
Si Si3 0.760834 0.205901 0.357302
Si Si4 0.757614 0.043901 0.609585
Si Si5 0.281853 0.259884 0.632955
Si Si6 0.995071 0.613133 0.534038
Si Si7 0.352658 0.774304 0.520162
Si Si8 0.384226 0.294318 0.259243
O O1 0.705744 0.376879 0.813480
O O2 0.000000 0.500000 0.866807
O O3 0.096918 0.307468 0.856805
O O4 0.851192 0.374387 0.958030
O O5 0.913282 0.129032 0.312225
O O6 0.814148 0.165846 0.174823
O O7 0.189532 0.058618 0.196177
O O8 0.165575 0.234424 0.233488
O O9 0.685686 0.184928 0.439423
O O10 0.533870 0.224890 0.310730
O O11 0.763583 0.150446 0.575134
O O12 0.500000 0.000000 0.596857
O O13 0.000000 0.000000 0.580719
O O14 0.397930 0.230676 0.556388
O O15 0.459888 0.311188 0.688280
O O16 0.099265 0.336895 0.606243
O O17 0.235212 0.669073 0.520453
O O18 0.000000 0.500000 0.545474
#
# Coordination Sequence:
#
# PCOD9338806 Si02
#       8
#     4   4   4   4   4   4   4   4
#     4   9  19  36  54  86 127 166 222 277 330 409
#     4  10  21  42  63  94 129 169 222 270 344 414
#     4   9  21  37  66  88 122 177 218 268 347 402
#     4  12  26  44  75 105 134 179 232 285 355 421
#     4  11  19  36  64  87 132 172 220 281 335 409
#     4  10  21  37  61  92 129 177 224 276 345 410
#     4  11  22  42  66  95 132 174 221 287 342 409
#     4  10  19  36  60  88 115 177 220 268 345 406
#
# _framework density 21.657951000000001
#
# number of rings (size 3 to 8) (size 9 to 14) (size 15 to 20)
#    0.000    1.750    2.500    1.500    1.750    1.000 
#    0.000   19.375    0.000    0.000    0.000    0.000 
#    0.000    0.000    0.000    0.000    0.000    0.000 
#
# Total GULP energy -178235.683855 kJ/mol
# GULP energy per Si atom -5569.865120 kJ/mol
# Density = 2.160866 g / cm^3
# Si number density = 21.657951 Si / 1000 Ang^3
#
#
#
# Elastic Constant Matrix: (Units=GPa)
#
#
# Indices 1 2 3 4 5 6 
#
# 1 65.3746 15.3962 37.7902 0.0000 0.0000 0.0000
# 2 15.3962 66.3115 8.4733 0.0000 0.0000 0.0000
# 3 37.7902 8.4733 113.4777 0.0000 0.0000 0.0000
# 4 0.0000 0.0000 0.0000 18.2769 0.0000 0.0000
# 5 0.0000 0.0000 0.0000 0.0000 37.0597 0.0000
# 6 0.0000 0.0000 0.0000 0.0000 0.0000 20.6897
#
#
#
# Elastic Compliance Matrix: (Units=1/GPa)
#
#
# Indices 1 2 3 4 5 6 
#
# 1 0.019848 -0.003800 -0.006326 0.000000 0.000000 0.000000
# 2 -0.003800 0.015953 0.000074 0.000000 0.000000 0.000000
# 3 -0.006326 0.000074 0.010913 0.000000 0.000000 0.000000
# 4 0.000000 0.000000 0.000000 0.054714 0.000000 0.000000
# 5 0.000000 0.000000 0.000000 0.000000 0.026984 0.000000
# 6 0.000000 0.000000 0.000000 0.000000 0.000000 0.048333
#
#
# Mechanical properties :
#
#
# Convention : Reuss Voigt Hill
#
# Bulk Modulus (GPa) = 37.57822 40.94259 39.26040
# Shear Modulus (GPa) = 24.30497 27.43888 25.87192
#
# Velocity S-wave (km/s) = 3.35359 3.56324 3.46000
# Velocity P-wave (km/s) = 5.69068 5.98950 5.84200
#
# Compressibility (1/GPa) = 0.02661116
#
# Stress axis : x y z
#
# Youngs Moduli (GPa) = 50.38239 62.68362 91.63001
#
# Poissons Ratio (x) = 0.23820 0.57966
# Poissons Ratio (y) = 0.19145 -0.00680
# Poissons Ratio (z) = 0.31872 -0.00465
#
# Static dielectric constant tensor:
#      x y z
#    x 1.868960 0.000000 0.000000 
#    y 0.000000 1.830920 0.000000 
#    z 0.000000 0.000000 1.823460 
# 
# From -- ./inp_files/4075.got.cif
#   From: 2010.05.17/outbox.cif.g08.bks.cpg/sg27_3_cif.got.tgz:4075.got - 2010.06.04 01:11:05.
