data_PCOD9338708
_publ_section_title
;
Structure prediction by ZEFSAII (Michael W. Deem and Ramdas Pophale) SiO2 
 PCOD9338708
Probable space group: P M C 21
;
_chemical_formula_sum "Si O2"
_cell_formula_units_Z 32
_cell_length_a 9.000000
_cell_length_b 9.000000
_cell_length_c 21.000000
_cell_angle_alpha 90.000000
_cell_angle_beta 90.000000
_cell_angle_gamma 90.000000
_cell_volume 1701.000000
_symmetry_space_group_name_H-M "P M C 21"
_symmetry_group_IT_number 26
_symmetry_cell_setting 'orthorhombic'
loop_
_space_group_symop_operation_xyz
x,y,z
-x,-y,1/2+z
-x,y,z
x,-y,1/2+z
loop_
_atom_site_type_symbol
_atom_site_label
_atom_site_fract_x
_atom_site_fract_y
_atom_site_fract_z
Si Si1 0.320196 0.613716 0.117400
Si Si2 0.679627 0.047887 0.581733
Si Si3 0.178369 0.955235 0.322547
Si Si4 0.177838 0.618230 0.360161
Si Si5 0.323470 0.460166 0.476554
Si Si6 0.179041 0.559550 0.734156
Si Si7 0.678321 0.885547 0.942176
Si Si8 0.320506 0.878073 0.706021
O O1 0.500000 0.602954 0.124971
O O2 0.282048 0.787007 0.106726
O O3 0.238603 0.545925 0.177859
O O4 0.279496 0.531976 0.050925
O O5 0.500000 0.044383 0.579013
O O6 0.727962 0.034493 0.508190
O O7 0.725538 0.929625 0.634888
O O8 0.216757 0.785563 0.339967
O O9 0.000000 0.968343 0.315623
O O10 0.235834 0.056111 0.380880
O O11 0.258330 0.006653 0.258016
O O12 0.246472 0.568914 0.426982
O O13 0.222962 0.508382 0.302692
O O14 0.000000 0.610650 0.365430
O O15 0.500000 0.484713 0.474256
O O16 0.296994 0.289920 0.454107
O O17 0.252182 0.719434 0.723435
O O18 0.000000 0.569078 0.731966
O O19 0.500000 0.907182 0.933842
O O20 0.500000 0.873435 0.708766
#
# Coordination Sequence:
#
# PCOD9338708 Si02
#       8
#     4   4   4   4   4   4   4   4
#     4   9  18  36  59  83 109 140 178 222 267 318
#     4   8  17  35  59  83 109 139 178 225 270 317
#     4  11  23  38  54  78 110 143 180 225 270 321
#     4  10  23  39  54  75 109 147 183 222 269 322
#     4   9  19  35  58  84 109 138 178 223 267 316
#     4  11  23  38  55  79 111 147 182 223 271 323
#     4   9  18  36  59  83 109 141 179 221 269 323
#     4  11  22  37  58  83 108 141 182 227 275 324
#
# _framework density 18.812463000000001
#
# number of rings (size 3 to 8) (size 9 to 14) (size 15 to 20)
#    0.000    2.250    0.000    4.125    0.000    6.000 
#    0.000    7.500    0.000    0.000    0.000    0.000 
#    0.000    0.000    0.000    0.000    0.000    0.000 
#
# Total GULP energy -178679.499941 kJ/mol
# GULP energy per Si atom -5583.734373 kJ/mol
# Density = 1.876965 g / cm^3
# Si number density = 18.812463 Si / 1000 Ang^3
#
#
#
# Elastic Constant Matrix: (Units=GPa)
#
#
# Indices 1 2 3 4 5 6 
#
# 1 29.1663 1.5580 0.3723 0.0000 0.0000 0.0000
# 2 1.5580 7.8993 -25.2978 0.0000 0.0000 0.0000
# 3 0.3723 -25.2978 39.1388 0.0000 0.0000 0.0000
# 4 0.0000 0.0000 0.0000 36.7977 0.0000 0.0000
# 5 0.0000 0.0000 0.0000 0.0000 19.8414 0.0000
# 6 0.0000 0.0000 0.0000 0.0000 0.0000 30.1545
#
#
#
# Elastic Compliance Matrix: (Units=1/GPa)
#
#
# Indices 1 2 3 4 5 6 
#
# 1 0.033846 0.007203 0.004334 0.000000 0.000000 0.000000
# 2 0.007203 -0.116780 -0.075550 0.000000 0.000000 0.000000
# 3 0.004334 -0.075550 -0.023324 0.000000 0.000000 0.000000
# 4 0.000000 0.000000 0.000000 0.027176 0.000000 0.000000
# 5 0.000000 0.000000 0.000000 0.000000 0.050400 0.000000
# 6 0.000000 0.000000 0.000000 0.000000 0.000000 0.033163
#
#
# Mechanical properties :
#
#
# Convention : Reuss Voigt Hill
#
# Bulk Modulus (GPa) = -4.26828 3.27439 -0.49695
# Shear Modulus (GPa) = 91.88989 23.99685 57.94337
#
# Velocity S-wave (km/s) = 6.99652 3.57540 5.55584
# Velocity P-wave (km/s) = 7.93691 4.33463 6.39467
#
# Compressibility (1/GPa) = -0.23428643
#
# Stress axis : x y z
#
# Youngs Moduli (GPa) = 29.54551 -8.56311 -42.87437
#
# Poissons Ratio (x) = 0.06168 0.18580
# Poissons Ratio (y) = -0.21281 -3.23918
# Poissons Ratio (z) = -0.12804 -0.64695
#
# Static dielectric constant tensor:
#      x y z
#    x 1.626490 0.000000 0.000000 
#    y 0.000000 1.654820 0.000000 
#    z 0.000000 0.000000 1.642840 
# 
# From -- ./inp_files/5342.got.cif
#   From: 2010.05.17/outbox.ucp.g08.bks.cvg/sg26_3_cif.got.tgz:5342.got - 2010.06.11 15:23:25.
