data_PCOD9338118
_publ_section_title
;
Structure prediction by ZEFSAII (Michael W. Deem and Ramdas Pophale) SiO2 
 PCOD9338118
Probable space group: P M C 21
;
_chemical_formula_sum "Si O2"
_cell_formula_units_Z 32
_cell_length_a 14.853769
_cell_length_b 13.326486
_cell_length_c 9.598268
_cell_angle_alpha 90.000000
_cell_angle_beta 90.000000
_cell_angle_gamma 90.000000
_cell_volume 1899.963182
_symmetry_space_group_name_H-M "P M C 21"
_symmetry_group_IT_number 26
_symmetry_cell_setting 'orthorhombic'
loop_
_space_group_symop_operation_xyz
x,y,z
-x,-y,1/2+z
-x,y,z
x,-y,1/2+z
loop_
_atom_site_type_symbol
_atom_site_label
_atom_site_fract_x
_atom_site_fract_y
_atom_site_fract_z
Si Si1 0.701068 0.301089 0.088870
Si Si2 0.290929 0.290721 0.593084
Si Si3 0.325457 0.431587 0.355969
Si Si4 0.604186 0.895669 0.978441
Si Si5 0.402227 0.367024 0.834805
Si Si6 0.099151 0.386771 0.637029
Si Si7 0.604188 0.101961 0.146800
Si Si8 0.157120 0.567283 0.443407
O O1 0.693481 0.348329 0.241364
O O2 0.675499 0.184806 0.096231
O O3 0.623734 0.351838 0.994828
O O4 0.794699 0.339451 0.021480
O O5 0.341697 0.374987 0.500116
O O6 0.324122 0.185402 0.533111
O O7 0.327983 0.307395 0.747493
O O8 0.184937 0.318416 0.592604
O O9 0.396451 0.514116 0.307984
O O10 0.237301 0.499052 0.380377
O O11 0.500000 0.860338 0.000314
O O12 0.614797 0.912488 0.812933
O O13 0.614536 0.998762 0.063172
O O14 0.500000 0.326837 0.801303
O O15 0.110994 0.493618 0.556293
O O16 0.104158 0.401531 0.804554
O O17 0.000000 0.346738 0.600357
O O18 0.500000 0.136923 0.124208
#
# Coordination Sequence:
#
# PCOD9338118 Si02
#       8
#     4   4   4   4   4   4   4   4
#     4  11  19  35  53  75 111 149 181 227 266 317
#     4  11  21  37  55  76 110 146 185 226 278 329
#     4  10  19  34  51  71 110 146 186 217 261 317
#     4  10  22  38  56  78 109 145 186 234 277 323
#     4  11  22  31  48  77 111 150 185 218 260 320
#     4  11  21  35  57  84 111 147 188 230 276 327
#     4  10  22  37  55  81 108 144 191 233 273 323
#     4  10  19  35  53  80 114 147 180 225 269 328
#
# _framework density 16.842431999999999
#
# number of rings (size 3 to 8) (size 9 to 14) (size 15 to 20)
#    0.000    1.500    5.000    2.625    1.750    3.000 
#    0.000    0.000    0.000    0.000    0.000    4.375 
#    0.000    0.000    0.000    0.000    0.000    0.000 
#
# Total GULP energy -178327.794799 kJ/mol
# GULP energy per Si atom -5572.743587 kJ/mol
# Density = 1.680410 g / cm^3
# Si number density = 16.842432 Si / 1000 Ang^3
#
#
#
# Elastic Constant Matrix: (Units=GPa)
#
#
# Indices 1 2 3 4 5 6 
#
# 1 93.5686 40.9309 25.6057 0.0000 0.0000 0.0000
# 2 40.9309 76.0888 23.3166 0.0000 0.0000 0.0000
# 3 25.6057 23.3166 60.3543 0.0000 0.0000 0.0000
# 4 0.0000 0.0000 0.0000 28.2193 0.0000 0.0000
# 5 0.0000 0.0000 0.0000 0.0000 10.1463 0.0000
# 6 0.0000 0.0000 0.0000 0.0000 0.0000 12.0358
#
#
#
# Elastic Compliance Matrix: (Units=1/GPa)
#
#
# Indices 1 2 3 4 5 6 
#
# 1 0.014632 -0.006770 -0.003592 0.000000 0.000000 0.000000
# 2 -0.006770 0.018040 -0.004097 0.000000 0.000000 0.000000
# 3 -0.003592 -0.004097 0.019676 0.000000 0.000000 0.000000
# 4 0.000000 0.000000 0.000000 0.035437 0.000000 0.000000
# 5 0.000000 0.000000 0.000000 0.000000 0.098558 0.000000
# 6 0.000000 0.000000 0.000000 0.000000 0.000000 0.083086
#
#
# Mechanical properties :
#
#
# Convention : Reuss Voigt Hill
#
# Bulk Modulus (GPa) = 42.68275 45.52423 44.10349
# Shear Modulus (GPa) = 16.33153 19.42418 17.87785
#
# Velocity S-wave (km/s) = 3.11732 3.39969 3.26157
# Velocity P-wave (km/s) = 6.19309 6.51910 6.35819
#
# Compressibility (1/GPa) = 0.02342867
#
# Stress axis : x y z
#
# Youngs Moduli (GPa) = 68.34343 55.43233 50.82430
#
# Poissons Ratio (x) = 0.37529 0.18257
# Poissons Ratio (y) = 0.46271 0.20823
# Poissons Ratio (z) = 0.24550 0.22711
#
# Static dielectric constant tensor:
#      x y z
#    x 1.591840 0.000000 0.000000 
#    y 0.000000 1.560850 0.000000 
#    z 0.000000 0.000000 1.581880 
# 
# From -- ./inp_files/2231.got.cif
#   From: 2010.05.17/outbox.cif.g08.bks.cpg/sg26_2_cif.got.tgz:2231.got - 2010.06.04 01:07:29.
