data_PCOD9338135
_publ_section_title
;
Structure prediction by ZEFSAII (Michael W. Deem and Ramdas Pophale) SiO2 
 PCOD9338135
Probable space group: P M C 21
;
_chemical_formula_sum "Si O2"
_cell_formula_units_Z 32
_cell_length_a 7.662202
_cell_length_b 34.358114
_cell_length_c 5.000167
_cell_angle_alpha 90.000000
_cell_angle_beta 90.000000
_cell_angle_gamma 90.000000
_cell_volume 1316.338013
_symmetry_space_group_name_H-M "P M C 21"
_symmetry_group_IT_number 26
_symmetry_cell_setting 'orthorhombic'
loop_
_space_group_symop_operation_xyz
x,y,z
-x,-y,1/2+z
-x,y,z
x,-y,1/2+z
loop_
_atom_site_type_symbol
_atom_site_label
_atom_site_fract_x
_atom_site_fract_y
_atom_site_fract_z
Si Si1 0.212873 0.477143 0.603000
Si Si2 0.298839 0.648786 0.874201
Si Si3 0.201118 0.772328 0.086431
Si Si4 0.291356 0.979073 0.608803
Si Si5 0.209509 0.896070 0.859994
Si Si6 0.298881 0.725286 0.587180
Si Si7 0.798750 0.601711 0.374797
Si Si8 0.786495 0.851319 0.359235
O O1 0.265514 0.488324 0.304868
O O2 0.274052 0.436788 0.730506
O O3 0.000000 0.475209 0.598818
O O4 0.500000 0.657116 0.942890
O O5 0.222783 0.687043 0.730754
O O6 0.290352 0.615813 0.645496
O O7 0.210589 0.634614 0.145497
O O8 0.210631 0.739447 0.315854
O O9 0.272881 0.810899 0.230682
O O10 0.000000 0.779930 0.012848
O O11 0.290542 0.758263 0.815878
O O12 0.500000 0.982811 0.586751
O O13 0.257043 0.937442 0.737762
O O14 0.221968 0.988309 0.314897
O O15 0.271272 0.862620 0.654879
O O16 0.000000 0.894510 0.866131
O O17 0.268865 0.885674 0.157101
O O18 0.500000 0.716931 0.518379
O O19 0.000000 0.594055 0.447783
O O20 0.000000 0.849515 0.367126
#
# Coordination Sequence:
#
# PCOD9338135 Si02
#       8
#     4   4   4   4   4   4   4   4
#     4   9  17  31  53  82 114 145 180 230 290 338
#     4  11  24  41  59  81 119 162 189 228 298 356
#     4  11  22  39  64  89 115 152 195 238 288 344
#     4  10  21  36  52  73 105 140 173 216 268 316
#     4  10  19  34  56  79 105 138 177 219 264 323
#     4  11  24  41  59  84 119 156 193 236 290 346
#     4  11  22  37  62  91 114 145 198 249 278 329
#     4   9  19  35  55  81 111 140 173 222 280 326
#
# _framework density 24.309867000000001
#
# number of rings (size 3 to 8) (size 9 to 14) (size 15 to 20)
#    0.000    1.750    0.000    4.500    0.000    9.500 
#    0.000    3.750    0.000    7.500    0.000    0.000 
#    0.000    0.000    0.000    0.000    0.000    0.000 
#
# Total GULP energy -179046.547945 kJ/mol
# GULP energy per Si atom -5595.204623 kJ/mol
# Density = 2.425454 g / cm^3
# Si number density = 24.309867 Si / 1000 Ang^3
#
#
#
# Elastic Constant Matrix: (Units=GPa)
#
#
# Indices 1 2 3 4 5 6 
#
# 1 48.0417 -10.7194 -1.6373 0.0000 0.0000 0.0000
# 2 -10.7194 57.5374 -12.5525 0.0000 0.0000 0.0000
# 3 -1.6373 -12.5525 100.0371 0.0000 0.0000 0.0000
# 4 0.0000 0.0000 0.0000 40.3149 0.0000 0.0000
# 5 0.0000 0.0000 0.0000 0.0000 23.9342 0.0000
# 6 0.0000 0.0000 0.0000 0.0000 0.0000 43.9367
#
#
#
# Elastic Compliance Matrix: (Units=1/GPa)
#
#
# Indices 1 2 3 4 5 6 
#
# 1 0.021795 0.004255 0.000891 0.000000 0.000000 0.000000
# 2 0.004255 0.018700 0.002416 0.000000 0.000000 0.000000
# 3 0.000891 0.002416 0.010314 0.000000 0.000000 0.000000
# 4 0.000000 0.000000 0.000000 0.024805 0.000000 0.000000
# 5 0.000000 0.000000 0.000000 0.000000 0.041781 0.000000
# 6 0.000000 0.000000 0.000000 0.000000 0.000000 0.022760
#
#
# Mechanical properties :
#
#
# Convention : Reuss Voigt Hill
#
# Bulk Modulus (GPa) = 15.16724 17.31086 16.23905
# Shear Modulus (GPa) = 34.01153 37.00554 35.50853
#
# Velocity S-wave (km/s) = 3.74449 3.90583 3.82601
# Velocity P-wave (km/s) = 4.99476 5.24185 5.11980
#
# Compressibility (1/GPa) = 0.06593158
#
# Stress axis : x y z
#
# Youngs Moduli (GPa) = 45.88220 53.47662 96.95532
#
# Poissons Ratio (x) = -0.22753 -0.08635
# Poissons Ratio (y) = -0.19522 -0.23425
# Poissons Ratio (z) = -0.04086 -0.12920
#
# Static dielectric constant tensor:
#      x y z
#    x 1.891870 0.000000 0.000000 
#    y 0.000000 1.974430 0.000000 
#    z 0.000000 0.000000 1.884340 
# 
# From -- ./inp_files/254.got.cif
#   From: 2010.05.17/outbox.cif.g08.bks.cpg/sg26_1_cif.got.tgz:254.got - 2010.06.04 01:07:29.
