data_PCOD9338799
_publ_section_title
;
Structure prediction by ZEFSAII (Michael W. Deem and Ramdas Pophale) SiO2 
 PCOD9338799
Probable space group: P C C 2
;
_chemical_formula_sum "Si O2"
_cell_formula_units_Z 24
_cell_length_a 10.275296
_cell_length_b 7.779536
_cell_length_c 14.459818
_cell_angle_alpha 90.000000
_cell_angle_beta 90.000000
_cell_angle_gamma 90.000000
_cell_volume 1155.874980
_symmetry_space_group_name_H-M "P C C 2"
_symmetry_group_IT_number 27
_symmetry_cell_setting 'orthorhombic'
loop_
_space_group_symop_operation_xyz
x,y,z
-x,-y,z
-x,y,1/2+z
x,-y,1/2+z
loop_
_atom_site_type_symbol
_atom_site_label
_atom_site_fract_x
_atom_site_fract_y
_atom_site_fract_z
Si Si1 0.634652 0.455712 0.408580
Si Si2 0.696647 0.658582 0.226126
Si Si3 0.958057 0.802689 0.291081
Si Si4 0.799781 0.290665 0.164786
Si Si5 0.440499 0.177444 0.759434
Si Si6 0.117093 0.391854 0.480499
O O1 0.500000 0.500000 0.459556
O O2 0.658981 0.602106 0.330906
O O3 0.609494 0.287644 0.347200
O O4 0.766899 0.471663 0.463554
O O5 0.822554 0.780072 0.234632
O O6 0.739143 0.482486 0.176741
O O7 0.557116 0.736270 0.198923
O O8 0.932973 0.699479 0.386869
O O9 0.075942 0.720924 0.232134
O O10 0.000000 0.000000 0.307393
O O11 0.687374 0.162621 0.197409
O O12 0.836688 0.261276 0.058807
O O13 0.500000 0.000000 0.792454
O O14 0.000000 0.500000 0.522469
#
# Coordination Sequence:
#
# PCOD9338799 Si02
#       6
#     4   4   4   4   4   4
#     4   8  17  33  55  82 114 153 197 240 289 358
#     4   9  18  35  57  82 112 154 200 235 286 360
#     4  11  22  38  61  88 121 155 194 252 311 362
#     4  11  22  38  61  86 118 161 206 248 296 362
#     4  10  19  35  61  88 117 156 199 248 307 363
#     4  11  22  37  60  88 118 157 207 251 298 363
#
# _framework density 20.763490999999998
#
# number of rings (size 3 to 8) (size 9 to 14) (size 15 to 20)
#    0.000    2.000    0.000    7.000    0.000    2.000 
#    0.000    1.667    0.000   20.000    0.000    0.000 
#    0.000    0.000    0.000    0.000    0.000    0.000 
#
# Total GULP energy -133761.787581 kJ/mol
# GULP energy per Si atom -5573.407816 kJ/mol
# Density = 2.071623 g / cm^3
# Si number density = 20.763491 Si / 1000 Ang^3
#
#
#
# Elastic Constant Matrix: (Units=GPa)
#
#
# Indices 1 2 3 4 5 6 
#
# 1 166.7973 43.8289 50.2797 0.0000 0.0000 0.0000
# 2 43.8289 79.7012 6.4088 0.0000 0.0000 0.0000
# 3 50.2797 6.4088 62.3872 0.0000 0.0000 0.0000
# 4 0.0000 0.0000 0.0000 0.7021 0.0000 0.0000
# 5 0.0000 0.0000 0.0000 0.0000 -3.8993 0.0000
# 6 0.0000 0.0000 0.0000 0.0000 0.0000 40.5461
#
#
#
# Elastic Compliance Matrix: (Units=1/GPa)
#
#
# Indices 1 2 3 4 5 6 
#
# 1 0.009314 -0.004556 -0.007039 0.000000 0.000000 0.000000
# 2 -0.004556 0.014880 0.002143 0.000000 0.000000 0.000000
# 3 -0.007039 0.002143 0.021481 0.000000 0.000000 0.000000
# 4 0.000000 0.000000 0.000000 1.424272 0.000000 0.000000
# 5 0.000000 0.000000 0.000000 0.000000 -0.256457 0.000000
# 6 0.000000 0.000000 0.000000 0.000000 0.000000 0.024663
#
#
# Mechanical properties :
#
#
# Convention : Reuss Voigt Hill
#
# Bulk Modulus (GPa) = 37.35126 56.65783 47.00454
# Shear Modulus (GPa) = 3.94951 21.36100 12.65525
#
# Velocity S-wave (km/s) = 1.38068 3.21093 2.47147
# Velocity P-wave (km/s) = 4.53538 6.41040 5.55261
#
# Compressibility (1/GPa) = 0.02677286
#
# Stress axis : x y z
#
# Youngs Moduli (GPa) = 107.36293 67.20449 46.55201
#
# Poissons Ratio (x) = 0.30619 0.32766
# Poissons Ratio (y) = 0.48915 -0.09977
# Poissons Ratio (z) = 0.75568 -0.14404
#
# Static dielectric constant tensor:
#      x y z
#    x 1.809270 0.000000 0.000000 
#    y 0.000000 1.818140 0.000000 
#    z 0.000000 0.000000 1.741880 
# 
# From -- ./inp_files/3302.got.cif
#   From: 2010.05.17/outbox.cif.g08.bks.cpg/sg27_2_cif.got.tgz:3302.got - 2010.06.04 01:11:05.
