data_PCOD9338037
_publ_section_title
;
Structure prediction by ZEFSAII (Michael W. Deem and Ramdas Pophale) SiO2 
 PCOD9338037
Probable space group: P M C 21
;
_chemical_formula_sum "Si O2"
_cell_formula_units_Z 32
_cell_length_a 14.145028
_cell_length_b 13.593716
_cell_length_c 8.079736
_cell_angle_alpha 90.000000
_cell_angle_beta 90.000000
_cell_angle_gamma 90.000000
_cell_volume 1553.599864
_symmetry_space_group_name_H-M "P M C 21"
_symmetry_group_IT_number 26
_symmetry_cell_setting 'orthorhombic'
loop_
_space_group_symop_operation_xyz
x,y,z
-x,-y,1/2+z
-x,y,z
x,-y,1/2+z
loop_
_atom_site_type_symbol
_atom_site_label
_atom_site_fract_x
_atom_site_fract_y
_atom_site_fract_z
Si Si1 0.888182 0.560119 0.981720
Si Si2 0.257395 0.204855 0.018782
Si Si3 0.389465 0.531848 0.355264
Si Si4 0.391349 0.650331 0.695265
Si Si5 0.606666 0.846316 0.032976
Si Si6 0.608747 0.047989 0.890213
Si Si7 0.734717 0.314456 0.666341
Si Si8 0.109598 0.354038 0.112126
O O1 0.881311 0.600754 0.795828
O O2 0.000000 0.560379 0.029080
O O3 0.826893 0.632111 0.096019
O O4 0.854197 0.446066 0.998821
O O5 0.250196 0.251314 0.834198
O O6 0.333332 0.257276 0.137447
O O7 0.304209 0.098372 0.988524
O O8 0.161370 0.249292 0.096039
O O9 0.500000 0.527731 0.310086
O O10 0.384414 0.579128 0.534835
O O11 0.353432 0.420350 0.339637
O O12 0.336996 0.602460 0.229185
O O13 0.500000 0.676919 0.721885
O O14 0.500000 0.805265 0.023913
O O15 0.611171 0.906198 0.206967
O O16 0.683589 0.761055 0.041208
O O17 0.619515 0.930727 0.896898
O O18 0.500000 0.068828 0.953277
O O19 0.000000 0.339831 0.072444
#
# Coordination Sequence:
#
# PCOD9338037 Si02
#       8
#     4   4   4   4   4   4   4   4
#     4  10  21  36  53  74 101 132 166 206 251 299
#     4  10  19  31  50  73  97 128 165 205 248 293
#     4   9  17  28  41  61  92 126 156 187 227 278
#     4   9  17  28  41  61  92 126 156 187 227 278
#     4   9  18  33  52  75 104 136 169 206 249 297
#     4   9  18  33  52  75 104 136 169 206 249 297
#     4  10  19  31  50  73  97 128 165 205 248 293
#     4  10  21  36  53  74 101 132 166 206 251 299
#
# _framework density 20.597321999999998
#
# number of rings (size 3 to 8) (size 9 to 14) (size 15 to 20)
#    0.000    2.500    0.000    2.250    0.000    8.500 
#    0.000    0.000    0.000    8.250    0.000    0.000 
#    0.000    0.000    0.000    0.000    0.000    0.000 
#
# Total GULP energy -178628.218031 kJ/mol
# GULP energy per Si atom -5582.131813 kJ/mol
# Density = 2.055044 g / cm^3
# Si number density = 20.597322 Si / 1000 Ang^3
#
#
#
# Elastic Constant Matrix: (Units=GPa)
#
#
# Indices 1 2 3 4 5 6 
#
# 1 84.6611 41.9980 12.7680 0.0000 0.0000 0.0000
# 2 41.9980 66.0128 28.8353 0.0000 0.0000 0.0000
# 3 12.7680 28.8353 61.9560 0.0000 0.0000 0.0000
# 4 0.0000 0.0000 0.0000 35.8782 0.0000 0.0000
# 5 0.0000 0.0000 0.0000 0.0000 16.1360 0.0000
# 6 0.0000 0.0000 0.0000 0.0000 0.0000 7.9468
#
#
#
# Elastic Compliance Matrix: (Units=1/GPa)
#
#
# Indices 1 2 3 4 5 6 
#
# 1 0.017449 -0.011962 0.001972 0.000000 0.000000 0.000000
# 2 -0.011962 0.027215 -0.010201 0.000000 0.000000 0.000000
# 3 0.001972 -0.010201 0.020482 0.000000 0.000000 0.000000
# 4 0.000000 0.000000 0.000000 0.027872 0.000000 0.000000
# 5 0.000000 0.000000 0.000000 0.000000 0.061973 0.000000
# 6 0.000000 0.000000 0.000000 0.000000 0.000000 0.125837
#
#
# Mechanical properties :
#
#
# Convention : Reuss Voigt Hill
#
# Bulk Modulus (GPa) = 40.38434 42.20361 41.29397
# Shear Modulus (GPa) = 15.17607 20.59408 17.88508
#
# Velocity S-wave (km/s) = 2.71735 3.16546 2.94992
# Velocity P-wave (km/s) = 5.43088 5.82190 5.62979
#
# Compressibility (1/GPa) = 0.02476208
#
# Stress axis : x y z
#
# Youngs Moduli (GPa) = 57.31129 36.74440 48.82348
#
# Poissons Ratio (x) = 0.43954 -0.09626
# Poissons Ratio (y) = 0.68557 0.49805
# Poissons Ratio (z) = -0.11299 0.37483
#
# Static dielectric constant tensor:
#      x y z
#    x 1.748910 0.000000 0.000000 
#    y 0.000000 1.732790 0.000000 
#    z 0.000000 0.000000 1.824510 
# 
# From -- ./inp_files/2291.got.cif
#   From: 2010.05.17/outbox.cif.g08.bks.cpg/sg26_2_cif.got.tgz:2291.got - 2010.06.04 01:07:29.
