data_PCOD9338437
_publ_section_title
;
Structure prediction by ZEFSAII (Michael W. Deem and Ramdas Pophale) SiO2 
 PCOD9338437
Probable space group: P M C 21
;
_chemical_formula_sum "Si O2"
_cell_formula_units_Z 32
_cell_length_a 7.682864
_cell_length_b 15.167171
_cell_length_c 10.488247
_cell_angle_alpha 90.000000
_cell_angle_beta 90.000000
_cell_angle_gamma 90.000000
_cell_volume 1222.167231
_symmetry_space_group_name_H-M "P M C 21"
_symmetry_group_IT_number 26
_symmetry_cell_setting 'orthorhombic'
loop_
_space_group_symop_operation_xyz
x,y,z
-x,-y,1/2+z
-x,y,z
x,-y,1/2+z
loop_
_atom_site_type_symbol
_atom_site_label
_atom_site_fract_x
_atom_site_fract_y
_atom_site_fract_z
Si Si1 0.707430 0.425033 0.826790
Si Si2 0.788878 0.754747 0.991725
Si Si3 0.705356 0.764461 0.710836
Si Si4 0.284254 0.053576 0.115933
Si Si5 0.208773 0.555537 0.994055
Si Si6 0.796679 0.223691 0.774860
Si Si7 0.709704 0.568248 0.668596
Si Si8 0.301196 0.043933 0.855548
O O1 0.500000 0.417217 0.823932
O O2 0.779281 0.325920 0.815498
O O3 0.754508 0.457611 0.658796
O O4 0.751321 0.535142 0.831991
O O5 0.718828 0.654497 0.989256
O O6 0.733592 0.789529 0.128996
O O7 0.000000 0.752241 0.991078
O O8 0.727312 0.792818 0.858336
O O9 0.500000 0.756760 0.684608
O O10 0.775581 0.846054 0.631838
O O11 0.783530 0.667694 0.683765
O O12 0.500000 0.054498 0.111607
O O13 0.219204 0.995546 0.231201
O O14 0.219545 0.012762 0.985533
O O15 0.260265 0.444840 0.998426
O O16 0.000000 0.556485 0.993664
O O17 0.700315 0.149864 0.855099
O O18 0.000000 0.202907 0.780527
O O19 0.500000 0.572238 0.671721
O O20 0.500000 0.013359 0.853315
#
# Coordination Sequence:
#
# PCOD9338437 Si02
#       8
#     4   4   4   4   4   4   4   4
#     4  11  22  37  57  85 119 162 213 265 308 364
#     4  10  22  38  57  85 124 167 211 262 314 377
#     4  10  21  38  61  90 123 161 209 264 313 374
#     4   9  21  41  68  99 130 158 203 264 323 386
#     4  11  22  36  55  80 120 169 212 260 315 373
#     4  11  24  42  61  90 127 166 213 265 323 387
#     4  10  21  35  54  83 119 159 208 260 307 362
#     4  10  22  43  69  98 126 164 209 262 327 391
#
# _framework density 26.182994999999998
#
# number of rings (size 3 to 8) (size 9 to 14) (size 15 to 20)
#    0.000    1.750    2.500    1.125    3.500    2.500 
#    0.000    1.875    0.000    0.000    0.000    0.000 
#    0.000    0.000    0.000    0.000    0.000    0.000 
#
# Total GULP energy -178533.847491 kJ/mol
# GULP energy per Si atom -5579.182734 kJ/mol
# Density = 2.612340 g / cm^3
# Si number density = 26.182995 Si / 1000 Ang^3
#
#
#
# Elastic Constant Matrix: (Units=GPa)
#
#
# Indices 1 2 3 4 5 6 
#
# 1 93.6953 -6.9347 6.4117 0.0000 0.0000 0.0000
# 2 -6.9347 84.8581 60.8782 0.0000 0.0000 0.0000
# 3 6.4117 60.8782 206.3038 0.0000 0.0000 0.0000
# 4 0.0000 0.0000 0.0000 47.3563 0.0000 0.0000
# 5 0.0000 0.0000 0.0000 0.0000 21.1086 0.0000
# 6 0.0000 0.0000 0.0000 0.0000 0.0000 -0.0977
#
#
#
# Elastic Compliance Matrix: (Units=1/GPa)
#
#
# Indices 1 2 3 4 5 6 
#
# 1 0.010831 0.001429 -0.000758 0.000000 0.000000 0.000000
# 2 0.001429 0.015138 -0.004511 0.000000 0.000000 0.000000
# 3 -0.000758 -0.004511 0.006202 0.000000 0.000000 0.000000
# 4 0.000000 0.000000 0.000000 0.021117 0.000000 0.000000
# 5 0.000000 0.000000 0.000000 0.000000 0.047374 0.000000
# 6 0.000000 0.000000 0.000000 0.000000 0.000000-10.240096
#
#
# Mechanical properties :
#
#
# Convention : Reuss Voigt Hill
#
# Bulk Modulus (GPa) = 40.83448 56.17419 48.50433
# Shear Modulus (GPa) = -0.49390 35.30692 17.40651
#
# Velocity S-wave (km/s) = -0.43479 3.67613 2.58117
# Velocity P-wave (km/s) = 3.92143 6.28646 5.23914
#
# Compressibility (1/GPa) = 0.02448911
#
# Stress axis : x y z
#
# Youngs Moduli (GPa) = 92.33127 66.06026 161.23680
#
# Poissons Ratio (x) = -0.09441 0.12227
# Poissons Ratio (y) = -0.13195 0.72740
# Poissons Ratio (z) = 0.07002 0.29802
#
# Static dielectric constant tensor:
#      x y z
#    x 1.870420 0.000000 0.000000 
#    y 0.000000 1.994520 0.000000 
#    z 0.000000 0.000000 2.924100 
# 
# From -- ./inp_files/3017.got.cif
#   From: 2010.05.17/outbox.cif.g08.bks.cpg/sg26_2_cif.got.tgz:3017.got - 2010.06.04 01:07:29.
