data_PCOD9338480
_publ_section_title
;
Structure prediction by ZEFSAII (Michael W. Deem and Ramdas Pophale) SiO2 
 PCOD9338480
Probable space group: P M C 21
;
_chemical_formula_sum "Si O2"
_cell_formula_units_Z 32
_cell_length_a 8.261164
_cell_length_b 11.103320
_cell_length_c 14.425980
_cell_angle_alpha 90.000000
_cell_angle_beta 90.000000
_cell_angle_gamma 90.000000
_cell_volume 1323.242454
_symmetry_space_group_name_H-M "P M C 21"
_symmetry_group_IT_number 26
_symmetry_cell_setting 'orthorhombic'
loop_
_space_group_symop_operation_xyz
x,y,z
-x,-y,1/2+z
-x,y,z
x,-y,1/2+z
loop_
_atom_site_type_symbol
_atom_site_label
_atom_site_fract_x
_atom_site_fract_y
_atom_site_fract_z
Si Si1 0.308689 0.203173 0.324040
Si Si2 0.306554 0.703993 0.106460
Si Si3 0.192207 0.074147 0.158521
Si Si4 0.190807 0.155589 0.773510
Si Si5 0.691785 0.945484 0.987503
Si Si6 0.309381 0.559343 0.602061
Si Si7 0.191196 0.542826 0.811936
Si Si8 0.194152 0.313925 0.931125
O O1 0.500000 0.214241 0.340056
O O2 0.249112 0.088402 0.384604
O O3 0.225355 0.326018 0.354429
O O4 0.275093 0.179890 0.215887
O O5 0.500000 0.698394 0.124603
O O6 0.216436 0.733526 0.202371
O O7 0.279943 0.817235 0.039532
O O8 0.255708 0.574287 0.068146
O O9 0.258131 0.956352 0.214857
O O10 0.227286 0.046022 0.051584
O O11 0.000000 0.086775 0.169285
O O12 0.258835 0.199462 0.872363
O O13 0.000000 0.132379 0.783411
O O14 0.500000 0.969746 0.986159
O O15 0.500000 0.571603 0.589484
O O16 0.271255 0.551839 0.710787
O O17 0.232228 0.661914 0.538066
O O18 0.252227 0.433188 0.875218
O O19 0.000000 0.527032 0.799342
O O20 0.000000 0.308313 0.923656
#
# Coordination Sequence:
#
# PCOD9338480 Si02
#       8
#     4   4   4   4   4   4   4   4
#     4  11  23  41  63  87 122 160 200 249 301 361
#     4   9  17  31  54  82 112 146 189 239 288 341
#     4  10  21  38  62  89 117 152 198 250 299 353
#     4   9  18  35  57  81 110 145 189 239 289 341
#     4   9  19  37  61  88 116 154 199 247 300 352
#     4  11  22  35  55  86 122 160 198 240 296 359
#     4  11  23  40  62  88 122 161 202 249 300 356
#     4  10  21  37  58  85 119 158 197 241 295 357
#
# _framework density 24.183018000000001
#
# number of rings (size 3 to 8) (size 9 to 14) (size 15 to 20)
#    0.000    2.000    1.250    2.250    0.000    4.500 
#    2.250    2.500    0.000    0.000    0.000    0.000 
#    0.000    0.000    0.000    0.000    0.000    0.000 
#
# Total GULP energy -178839.728999 kJ/mol
# GULP energy per Si atom -5588.741531 kJ/mol
# Density = 2.412798 g / cm^3
# Si number density = 24.183018 Si / 1000 Ang^3
#
#
#
# Elastic Constant Matrix: (Units=GPa)
#
#
# Indices 1 2 3 4 5 6 
#
# 1 13.3353 -3.4235 -7.1393 0.0000 0.0000 0.0000
# 2 -3.4235 57.3050 5.2820 0.0000 0.0000 0.0000
# 3 -7.1393 5.2820 111.7578 0.0000 0.0000 0.0000
# 4 0.0000 0.0000 0.0000 46.0218 0.0000 0.0000
# 5 0.0000 0.0000 0.0000 0.0000 18.5209 0.0000
# 6 0.0000 0.0000 0.0000 0.0000 0.0000 16.7097
#
#
#
# Elastic Compliance Matrix: (Units=1/GPa)
#
#
# Indices 1 2 3 4 5 6 
#
# 1 0.078664 0.004255 0.004824 0.000000 0.000000 0.000000
# 2 0.004255 0.017757 -0.000567 0.000000 0.000000 0.000000
# 3 0.004824 -0.000567 0.009283 0.000000 0.000000 0.000000
# 4 0.000000 0.000000 0.000000 0.021729 0.000000 0.000000
# 5 0.000000 0.000000 0.000000 0.000000 0.053993 0.000000
# 6 0.000000 0.000000 0.000000 0.000000 0.000000 0.059845
#
#
# Mechanical properties :
#
#
# Convention : Reuss Voigt Hill
#
# Bulk Modulus (GPa) = 8.14818 19.09293 13.62055
# Shear Modulus (GPa) = 18.85677 28.76242 23.80959
#
# Velocity S-wave (km/s) = 2.79543 3.45246 3.14117
# Velocity P-wave (km/s) = 3.71429 4.87903 4.33595
#
# Compressibility (1/GPa) = 0.12272686
#
# Stress axis : x y z
#
# Youngs Moduli (GPa) = 12.71232 56.31586 107.72476
#
# Poissons Ratio (x) = -0.23962 -0.51968
# Poissons Ratio (y) = -0.05409 0.06113
# Poissons Ratio (z) = -0.06133 0.03196
#
# Static dielectric constant tensor:
#      x y z
#    x 1.820130 0.000000 0.000000 
#    y 0.000000 1.997370 0.000000 
#    z 0.000000 0.000000 1.973920 
# 
# From -- ./inp_files/4247.got.cif
#   From: 2010.05.17/outbox.cif.g08.bks.cpg/sg26_3_cif.got.tgz:4247.got - 2010.06.04 01:07:29.
