data_PCOD9338384
_publ_section_title
;
Structure prediction by ZEFSAII (Michael W. Deem and Ramdas Pophale) SiO2 
 PCOD9338384
Probable space group: P M C 21
;
_chemical_formula_sum "Si O2"
_cell_formula_units_Z 32
_cell_length_a 8.652137
_cell_length_b 15.997797
_cell_length_c 11.312771
_cell_angle_alpha 90.000000
_cell_angle_beta 90.000000
_cell_angle_gamma 90.000000
_cell_volume 1565.858684
_symmetry_space_group_name_H-M "P M C 21"
_symmetry_group_IT_number 26
_symmetry_cell_setting 'orthorhombic'
loop_
_space_group_symop_operation_xyz
x,y,z
-x,-y,1/2+z
-x,y,z
x,-y,1/2+z
loop_
_atom_site_type_symbol
_atom_site_label
_atom_site_fract_x
_atom_site_fract_y
_atom_site_fract_z
Si Si1 0.823262 0.163259 0.082490
Si Si2 0.683518 0.841357 0.926355
Si Si3 0.185970 0.841727 0.184559
Si Si4 0.317237 0.451661 0.931814
Si Si5 0.818908 0.470888 0.188338
Si Si6 0.678241 0.296278 0.243812
Si Si7 0.820195 0.278380 0.869746
Si Si8 0.816184 0.978104 0.747746
O O1 0.704490 0.222392 0.150144
O O2 0.795651 0.068076 0.120182
O O3 0.000000 0.182138 0.124345
O O4 0.817893 0.194537 0.949389
O O5 0.500000 0.848401 0.941190
O O6 0.714597 0.751537 0.865227
O O7 0.740279 0.915753 0.841169
O O8 0.768956 0.845521 0.049348
O O9 0.240311 0.755871 0.245342
O O10 0.000000 0.841420 0.196645
O O11 0.244642 0.927991 0.242720
O O12 0.500000 0.464062 0.934509
O O13 0.252952 0.486109 0.805982
O O14 0.274418 0.353245 0.926804
O O15 0.249226 0.487726 0.056031
O O16 0.786889 0.372812 0.211852
O O17 0.000000 0.489558 0.185125
O O18 0.500000 0.324751 0.243124
O O19 0.000000 0.306104 0.862930
O O20 0.000000 0.981227 0.771806
#
# Coordination Sequence:
#
# PCOD9338384 Si02
#       8
#     4   4   4   4   4   4   4   4
#     4   9  17  32  58  86 115 151 197 250 302 359
#     4  10  22  38  56  83 122 160 199 252 311 373
#     4  10  22  37  59  87 120 161 208 258 309 369
#     4  12  26  45  69  99 134 173 218 270 329 396
#     4  12  25  44  70 100 132 170 215 270 327 392
#     4  10  20  37  61  88 117 154 201 250 306 370
#     4  10  21  38  60  90 124 162 206 258 314 374
#     4   9  19  35  59  87 114 155 206 256 304 359
#
# _framework density 20.436070999999998
#
# number of rings (size 3 to 8) (size 9 to 14) (size 15 to 20)
#    0.000    1.750    1.250    3.000    1.750    3.500 
#    0.000    2.500    0.000    0.000    0.000    0.000 
#    0.000    0.000    0.000    0.000    0.000    0.000 
#
# Total GULP energy -178502.939093 kJ/mol
# GULP energy per Si atom -5578.216847 kJ/mol
# Density = 2.038956 g / cm^3
# Si number density = 20.436071 Si / 1000 Ang^3
#
#
#
# Elastic Constant Matrix: (Units=GPa)
#
#
# Indices 1 2 3 4 5 6 
#
# 1 73.6481 22.6816 44.4090 0.0000 0.0000 0.0000
# 2 22.6816 42.9207 29.5439 0.0000 0.0000 0.0000
# 3 44.4090 29.5439 113.5494 0.0000 0.0000 0.0000
# 4 0.0000 0.0000 0.0000 21.5660 0.0000 0.0000
# 5 0.0000 0.0000 0.0000 0.0000 13.2230 0.0000
# 6 0.0000 0.0000 0.0000 0.0000 0.0000 721.3986
#
#
#
# Elastic Compliance Matrix: (Units=1/GPa)
#
#
# Indices 1 2 3 4 5 6 
#
# 1 0.018952 -0.005985 -0.005855 0.000000 0.000000 0.000000
# 2 -0.005985 0.030272 -0.005536 0.000000 0.000000 0.000000
# 3 -0.005855 -0.005536 0.012537 0.000000 0.000000 0.000000
# 4 0.000000 0.000000 0.000000 0.046369 0.000000 0.000000
# 5 0.000000 0.000000 0.000000 0.000000 0.075626 0.000000
# 6 0.000000 0.000000 0.000000 0.000000 0.000000 0.001386
#
#
# Mechanical properties :
#
#
# Convention : Reuss Voigt Hill
#
# Bulk Modulus (GPa) = 37.02375 47.04299 42.03337
# Shear Modulus (GPa) = 21.84401 160.13643 90.99022
#
# Velocity S-wave (km/s) = 3.27294 8.86170 6.67989
# Velocity P-wave (km/s) = 5.69553 11.30380 8.95028
#
# Compressibility (1/GPa) = 0.02700969
#
# Stress axis : x y z
#
# Youngs Moduli (GPa) = 52.76581 33.03392 79.76517
#
# Poissons Ratio (x) = 0.19771 0.46701
# Poissons Ratio (y) = 0.31580 0.44155
# Poissons Ratio (z) = 0.30893 0.18286
#
# Static dielectric constant tensor:
#      x y z
#    x 1.702820 0.000000 0.000000 
#    y 0.000000 1.740220 0.000000 
#    z 0.000000 0.000000 1.768970 
# 
# From -- ./inp_files/3020.got.cif
#   From: 2010.05.17/outbox.cif.g08.bks.cpg/sg26_2_cif.got.tgz:3020.got - 2010.06.04 01:07:29.
