data_PCOD9338528
_publ_section_title
;
Structure prediction by ZEFSAII (Michael W. Deem and Ramdas Pophale) SiO2 
 PCOD9338528
Probable space group: P M C 21
;
_chemical_formula_sum "Si O2"
_cell_formula_units_Z 32
_cell_length_a 8.947009
_cell_length_b 31.124205
_cell_length_c 5.384378
_cell_angle_alpha 90.000000
_cell_angle_beta 90.000000
_cell_angle_gamma 90.000000
_cell_volume 1499.379893
_symmetry_space_group_name_H-M "P M C 21"
_symmetry_group_IT_number 26
_symmetry_cell_setting 'orthorhombic'
loop_
_space_group_symop_operation_xyz
x,y,z
-x,-y,1/2+z
-x,y,z
x,-y,1/2+z
loop_
_atom_site_type_symbol
_atom_site_label
_atom_site_fract_x
_atom_site_fract_y
_atom_site_fract_z
Si Si1 0.679188 0.339856 0.801300
Si Si2 0.836740 0.101067 0.676321
Si Si3 0.336251 0.164824 0.935233
Si Si4 0.828013 0.750776 0.235286
Si Si5 0.161048 0.815551 0.840540
Si Si6 0.178812 0.380290 0.300957
Si Si7 0.322070 0.025733 0.401413
Si Si8 0.676360 0.472441 0.281498
O O1 0.500000 0.345218 0.803364
O O2 0.726562 0.290066 0.781059
O O3 0.749394 0.362101 0.555903
O O4 0.749490 0.358517 0.055568
O O5 0.725477 0.116813 0.889695
O O6 0.853040 0.147190 0.544855
O O7 0.769101 0.067199 0.487312
O O8 0.000000 0.086891 0.765750
O O9 0.500000 0.168661 0.831054
O O10 0.239727 0.207086 0.865011
O O11 0.318766 0.171614 0.226497
O O12 0.000000 0.742122 0.307717
O O13 0.832215 0.767924 0.951633
O O14 0.000000 0.819943 0.700205
O O15 0.221907 0.430432 0.286969
O O16 0.000000 0.373805 0.303842
O O17 0.500000 0.034196 0.413371
O O18 0.288588 0.008387 0.125033
O O19 0.500000 0.459713 0.282749
O O20 0.701783 0.500690 0.529045
#
# Coordination Sequence:
#
# PCOD9338528 Si02
#       8
#     4   4   4   4   4   4   4   4
#     4  12  26  45  69  97 136 182 231 280 333 404
#     4  10  22  40  61  87 119 157 205 256 310 370
#     4  11  22  36  60  90 122 159 205 259 316 379
#     4  10  22  41  62  88 123 165 214 267 325 385
#     4   9  20  38  60  86 119 158 203 260 315 374
#     4  12  26  45  69 101 139 180 228 281 342 404
#     4  10  23  42  63  91 126 162 202 249 309 378
#     4  10  21  39  66  98 134 175 220 276 340 402
#
# _framework density 21.342158000000001
#
# number of rings (size 3 to 8) (size 9 to 14) (size 15 to 20)
#    0.000    1.500    0.000    5.625    3.500    5.000 
#    0.000    0.000    0.000    0.000    0.000    0.000 
#    0.000    0.000    0.000    0.000    0.000    0.000 
#
# Total GULP energy -178367.665080 kJ/mol
# GULP energy per Si atom -5573.989534 kJ/mol
# Density = 2.129358 g / cm^3
# Si number density = 21.342158 Si / 1000 Ang^3
#
#
#
# Elastic Constant Matrix: (Units=GPa)
#
#
# Indices 1 2 3 4 5 6 
#
# 1 105.0025 19.6437 20.4518 0.0000 0.0000 0.0000
# 2 19.6437 63.5603 0.1896 0.0000 0.0000 0.0000
# 3 20.4518 0.1896 68.6582 0.0000 0.0000 0.0000
# 4 0.0000 0.0000 0.0000 23.9138 0.0000 0.0000
# 5 0.0000 0.0000 0.0000 0.0000 52.3474 0.0000
# 6 0.0000 0.0000 0.0000 0.0000 0.0000 45.3697
#
#
#
# Elastic Compliance Matrix: (Units=1/GPa)
#
#
# Indices 1 2 3 4 5 6 
#
# 1 0.010767 -0.003318 -0.003198 0.000000 0.000000 0.000000
# 2 -0.003318 0.016756 0.000942 0.000000 0.000000 0.000000
# 3 -0.003198 0.000942 0.015515 0.000000 0.000000 0.000000
# 4 0.000000 0.000000 0.000000 0.041817 0.000000 0.000000
# 5 0.000000 0.000000 0.000000 0.000000 0.019103 0.000000
# 6 0.000000 0.000000 0.000000 0.000000 0.000000 0.022041
#
#
# Mechanical properties :
#
#
# Convention : Reuss Voigt Hill
#
# Bulk Modulus (GPa) = 31.35816 35.31014 33.33415
# Shear Modulus (GPa) = 33.83469 37.45525 35.64497
#
# Velocity S-wave (km/s) = 3.98596 4.19380 4.09120
# Velocity P-wave (km/s) = 5.99239 6.32703 6.16199
#
# Compressibility (1/GPa) = 0.03188963
#
# Stress axis : x y z
#
# Youngs Moduli (GPa) = 92.87414 59.68090 64.45393
#
# Poissons Ratio (x) = 0.19803 0.20613
# Poissons Ratio (y) = 0.30817 -0.06072
# Poissons Ratio (z) = 0.29703 -0.05623
#
# Static dielectric constant tensor:
#      x y z
#    x 1.700210 0.000000 0.000000 
#    y 0.000000 1.725960 0.000000 
#    z 0.000000 0.000000 2.010900 
# 
# From -- ./inp_files/243.got.cif
#   From: 2010.05.17/outbox.cif.g08.bks.cpg/sg26_1_cif.got.tgz:243.got - 2010.06.04 01:07:29.
