data_PCOD9338244
_publ_section_title
;
Structure prediction by ZEFSAII (Michael W. Deem and Ramdas Pophale) SiO2 
 PCOD9338244
Probable space group: P M C 21
;
_chemical_formula_sum "Si O2"
_cell_formula_units_Z 24
_cell_length_a 10.932341
_cell_length_b 5.043464
_cell_length_c 18.544630
_cell_angle_alpha 90.000000
_cell_angle_beta 90.000000
_cell_angle_gamma 90.000000
_cell_volume 1022.492821
_symmetry_space_group_name_H-M "P M C 21"
_symmetry_group_IT_number 26
_symmetry_cell_setting 'orthorhombic'
loop_
_space_group_symop_operation_xyz
x,y,z
-x,-y,1/2+z
-x,y,z
x,-y,1/2+z
loop_
_atom_site_type_symbol
_atom_site_label
_atom_site_fract_x
_atom_site_fract_y
_atom_site_fract_z
Si Si1 0.250480 0.686151 0.078590
Si Si2 0.644889 0.473165 0.796759
Si Si3 0.251682 0.835793 0.909428
Si Si4 0.500000 0.540058 0.544338
Si Si5 0.000000 0.463897 0.043239
Si Si6 0.500000 0.968275 0.944427
Si Si7 0.000000 0.965652 0.940053
Si Si8 0.354973 0.027061 0.196925
O O1 0.374619 0.513728 0.086321
O O2 0.123970 0.527860 0.086932
O O3 0.271437 0.935462 0.130420
O O4 0.249474 0.781087 0.995347
O O5 0.500000 0.493340 0.815745
O O6 0.726365 0.569944 0.863947
O O7 0.667056 0.198476 0.757130
O O8 0.669095 0.697061 0.735785
O O9 0.376561 0.000764 0.899713
O O10 0.124522 0.980274 0.894732
O O11 0.500000 0.324353 0.479382
O O12 0.500000 0.825505 0.509048
O O13 0.000000 0.674108 0.976678
O O14 0.000000 0.178301 0.004996
O O15 0.500000 0.016745 0.176626
#
# Coordination Sequence:
#
# PCOD9338244 Si02
#       8
#     4   4   4   2   2   2   2   4
#     4  10  21  40  62  90 119 159 203 250 298 361
#     4  10  22  39  58  86 122 158 195 249 309 358
#     4  10  21  40  62  90 119 159 203 250 298 361
#     4  10  20  32  54  86 112 140 191 242 283 338
#     4  10  22  38  58  88 124 154 191 248 305 346
#     4  10  20  32  54  86 112 140 191 242 283 338
#     4  10  22  38  58  88 124 154 191 248 305 346
#     4  10  22  39  58  86 122 158 195 249 309 358
#
# _framework density 23.472045999999999
#
# number of rings (size 3 to 8) (size 9 to 14) (size 15 to 20)
#    0.000    2.000    1.667    1.000    0.000   10.667 
#    0.000    1.667    0.000    0.000    0.000    0.000 
#    0.000    0.000    0.000    0.000    0.000    0.000 
#
# Total GULP energy -134290.278168 kJ/mol
# GULP energy per Si atom -5595.428257 kJ/mol
# Density = 2.341862 g / cm^3
# Si number density = 23.472046 Si / 1000 Ang^3
#
#
#
# Elastic Constant Matrix: (Units=GPa)
#
#
# Indices 1 2 3 4 5 6 
#
# 1 181.7744 6.8633 9.3155 0.0000 0.0000 0.0000
# 2 6.8633 63.3053 32.5595 0.0000 0.0000 0.0000
# 3 9.3155 32.5595 111.5780 0.0000 0.0000 0.0000
# 4 0.0000 0.0000 0.0000 38.2807 0.0000 0.0000
# 5 0.0000 0.0000 0.0000 0.0000 10.5284 0.0000
# 6 0.0000 0.0000 0.0000 0.0000 0.0000 21.3158
#
#
#
# Elastic Compliance Matrix: (Units=1/GPa)
#
#
# Indices 1 2 3 4 5 6 
#
# 1 0.005535 -0.000426 -0.000338 0.000000 0.000000 0.000000
# 2 -0.000426 0.018619 -0.005398 0.000000 0.000000 0.000000
# 3 -0.000338 -0.005398 0.010566 0.000000 0.000000 0.000000
# 4 0.000000 0.000000 0.000000 0.026123 0.000000 0.000000
# 5 0.000000 0.000000 0.000000 0.000000 0.094981 0.000000
# 6 0.000000 0.000000 0.000000 0.000000 0.000000 0.046914
#
#
# Mechanical properties :
#
#
# Convention : Reuss Voigt Hill
#
# Bulk Modulus (GPa) = 44.65099 50.45937 47.55518
# Shear Modulus (GPa) = 22.46936 34.55294 28.51115
#
# Velocity S-wave (km/s) = 3.09735 3.84094 3.48901
# Velocity P-wave (km/s) = 5.64410 6.41987 6.04444
#
# Compressibility (1/GPa) = 0.02239592
#
# Stress axis : x y z
#
# Youngs Moduli (GPa) = 180.67738 53.70922 94.64686
#
# Poissons Ratio (x) = 0.02290 0.03196
# Poissons Ratio (y) = 0.07704 0.51086
# Poissons Ratio (z) = 0.06101 0.28990
#
# Static dielectric constant tensor:
#      x y z
#    x 1.969330 0.000000 0.000000 
#    y 0.000000 1.923330 0.000000 
#    z 0.000000 0.000000 1.903590 
# 
# From -- ./inp_files/417.got.cif
#   From: 2010.05.17/outbox.cif.g08.bks.cpg/sg26_1_cif.got.tgz:417.got - 2010.06.04 01:07:29.
