data_PCOD9338845
_publ_section_title
;
Structure prediction by ZEFSAII (Michael W. Deem and Ramdas Pophale) SiO2 
 PCOD9338845
Probable space group: P C C 2
;
_chemical_formula_sum "Si O2"
_cell_formula_units_Z 24
_cell_length_a 11.796690
_cell_length_b 7.572598
_cell_length_c 11.209943
_cell_angle_alpha 90.000000
_cell_angle_beta 90.000000
_cell_angle_gamma 90.000000
_cell_volume 1001.402044
_symmetry_space_group_name_H-M "P C C 2"
_symmetry_group_IT_number 27
_symmetry_cell_setting 'orthorhombic'
loop_
_space_group_symop_operation_xyz
x,y,z
-x,-y,z
-x,y,1/2+z
x,-y,1/2+z
loop_
_atom_site_type_symbol
_atom_site_label
_atom_site_fract_x
_atom_site_fract_y
_atom_site_fract_z
Si Si1 0.164790 0.594342 0.731920
Si Si2 0.291671 0.287529 0.446975
Si Si3 0.791671 0.212471 0.213389
Si Si4 0.392557 0.402126 0.075244
Si Si5 0.335210 0.094342 0.928443
Si Si6 0.892557 0.097874 0.585119
O O1 0.186496 0.682742 0.859189
O O2 0.140440 0.387946 0.750463
O O3 0.289528 0.606016 0.668392
O O4 0.089346 0.709135 0.641728
O O5 0.249999 0.250000 0.580182
O O6 0.357735 0.470701 0.464066
O O7 0.359560 0.112054 0.409902
O O8 0.686496 0.182742 0.301175
O O9 0.857735 0.029299 0.196298
O O10 0.500000 0.500000 0.130125
O O11 0.410654 0.209135 0.018635
O O12 0.210472 0.106016 0.991972
O O13 0.000000 0.000000 0.530239
#
# Coordination Sequence:
#
# PCOD9338845 Si02
#       6
#     4   4   4   4   4   4
#     4  10  20  39  62  87 125 164 203 263 314 369
#     4  10  20  37  62  88 119 165 204 250 320 370
#     4  10  20  37  62  88 119 165 204 250 320 370
#     4  10  22  38  62  89 121 164 214 257 313 380
#     4  10  20  39  62  87 125 164 203 263 314 369
#     4  10  22  38  62  89 121 164 214 257 313 380
#
# _framework density 23.966397000000001
#
# number of rings (size 3 to 8) (size 9 to 14) (size 15 to 20)
#    0.000    2.000    3.333    0.000    0.000    2.667 
#    0.000    0.000    0.000    0.000    0.000    0.000 
#    0.000    0.000    0.000    0.000    0.000    0.000 
#
# Total GULP energy -133965.744404 kJ/mol
# GULP energy per Si atom -5581.906017 kJ/mol
# Density = 2.391185 g / cm^3
# Si number density = 23.966397 Si / 1000 Ang^3
#
#
#
# Elastic Constant Matrix: (Units=GPa)
#
#
# Indices 1 2 3 4 5 6 
#
# 1 61.1204 -20.9013 5.3442 0.0000 0.0000 0.0000
# 2 -20.9013 90.4998 13.1312 0.0000 0.0000 0.0000
# 3 5.3442 13.1312 89.5322 0.0000 0.0000 0.0000
# 4 0.0000 0.0000 0.0000 33.0738 0.0000 0.0000
# 5 0.0000 0.0000 0.0000 0.0000 17.2276 0.0000
# 6 0.0000 0.0000 0.0000 0.0000 0.0000 22.7729
#
#
#
# Elastic Compliance Matrix: (Units=1/GPa)
#
#
# Indices 1 2 3 4 5 6 
#
# 1 0.018021 0.004412 -0.001723 0.000000 0.000000 0.000000
# 2 0.004412 0.012370 -0.002078 0.000000 0.000000 0.000000
# 3 -0.001723 -0.002078 0.011577 0.000000 0.000000 0.000000
# 4 0.000000 0.000000 0.000000 0.030235 0.000000 0.000000
# 5 0.000000 0.000000 0.000000 0.000000 0.058046 0.000000
# 6 0.000000 0.000000 0.000000 0.000000 0.000000 0.043912
#
#
# Mechanical properties :
#
#
# Convention : Reuss Voigt Hill
#
# Bulk Modulus (GPa) = 23.15326 26.25561 24.70444
# Shear Modulus (GPa) = 26.69019 30.85340 28.77180
#
# Velocity S-wave (km/s) = 3.34076 3.59187 3.46859
# Velocity P-wave (km/s) = 4.95607 5.30858 5.13535
#
# Compressibility (1/GPa) = 0.04319046
#
# Stress axis : x y z
#
# Youngs Moduli (GPa) = 55.49231 80.83980 86.38031
#
# Poissons Ratio (x) = -0.35665 0.14881
# Poissons Ratio (y) = -0.24483 0.17946
# Poissons Ratio (z) = 0.09560 0.16795
#
# Static dielectric constant tensor:
#      x y z
#    x 1.983290 0.000000 0.000000 
#    y 0.000000 1.993650 0.000000 
#    z 0.000000 0.000000 1.866110 
# 
# From -- ./inp_files/2564.got.cif
#   From: 2010.05.17/outbox.cif.g08.bks.cpg/sg27_2_cif.got.tgz:2564.got - 2010.06.04 01:11:05.
