data_PCOD9338790
_publ_section_title
;
Structure prediction by ZEFSAII (Michael W. Deem and Ramdas Pophale) SiO2 
 PCOD9338790
Probable space group: P C C 2
;
_chemical_formula_sum "Si O2"
_cell_formula_units_Z 32
_cell_length_a 13.206038
_cell_length_b 5.577771
_cell_length_c 23.130509
_cell_angle_alpha 90.000000
_cell_angle_beta 90.000000
_cell_angle_gamma 90.000000
_cell_volume 1703.799209
_symmetry_space_group_name_H-M "P C C 2"
_symmetry_group_IT_number 27
_symmetry_cell_setting 'orthorhombic'
loop_
_space_group_symop_operation_xyz
x,y,z
-x,-y,z
-x,y,1/2+z
x,-y,1/2+z
loop_
_atom_site_type_symbol
_atom_site_label
_atom_site_fract_x
_atom_site_fract_y
_atom_site_fract_z
Si Si1 0.260413 0.750002 0.405740
Si Si2 0.122045 0.494046 0.623802
Si Si3 0.593968 0.629463 0.346872
Si Si4 0.209251 0.109990 0.313207
Si Si5 0.593967 0.870534 0.464608
Si Si6 0.938117 0.750000 0.405739
Si Si7 0.122045 0.994046 0.687677
Si Si8 0.209250 0.609986 0.998272
O O1 0.331130 0.566601 0.372266
O O2 0.201856 0.617239 0.456074
O O3 0.201859 0.882770 0.355406
O O4 0.331132 0.933397 0.439214
O O5 0.149567 0.756788 0.649653
O O6 0.171125 0.448903 0.561500
O O7 0.000000 0.500000 0.618201
O O8 0.149567 0.256788 0.661826
O O9 0.500000 0.500000 0.315695
O O10 0.672804 0.804514 0.314327
O O11 0.551431 0.750000 0.405740
O O12 0.134062 0.284763 0.348988
O O13 0.171127 0.051095 0.249978
O O14 0.672804 0.695480 0.497152
O O15 0.500000 0.000000 0.495785
O O16 0.865936 0.784760 0.462489
O O17 0.000000 0.500000 0.411849
O O18 0.000000 0.000000 0.399629
O O19 0.000000 0.000000 0.693279
#
# Coordination Sequence:
#
# PCOD9338790 Si02
#       8
#     4   4   4   4   4   4   4   4
#     4  10  19  35  58  90 124 156 191 243 318 368
#     4  10  24  43  63  85 116 167 218 256 297 358
#     4  10  19  33  58  88 124 159 197 245 310 383
#     4  11  23  37  59  90 124 158 203 253 311 372
#     4  10  19  33  58  88 124 159 197 245 310 383
#     4  12  25  35  56  90 128 162 189 245 322 376
#     4  10  24  43  63  85 116 167 218 256 297 358
#     4  11  23  37  59  90 124 158 203 253 311 372
#
# _framework density 18.781556999999999
#
# number of rings (size 3 to 8) (size 9 to 14) (size 15 to 20)
#    0.000    1.500    5.000    1.500    3.500    3.000 
#    0.000    0.000    0.000    1.500    0.000    0.000 
#    0.000    0.000    0.000    0.000    0.000    0.000 
#
# Total GULP energy -178214.199519 kJ/mol
# GULP energy per Si atom -5569.193735 kJ/mol
# Density = 1.873881 g / cm^3
# Si number density = 18.781557 Si / 1000 Ang^3
#
#
#
# Elastic Constant Matrix: (Units=GPa)
#
#
# Indices 1 2 3 4 5 6 
#
# 1 89.5226 43.4967 54.0301 0.0000 0.0000 0.0000
# 2 43.4967 103.6859 44.6460 0.0000 0.0000 0.0000
# 3 54.0301 44.6460 128.7297 0.0000 0.0000 0.0000
# 4 0.0000 0.0000 0.0000 24.1676 0.0000 0.0000
# 5 0.0000 0.0000 0.0000 0.0000 14.6771 0.0000
# 6 0.0000 0.0000 0.0000 0.0000 0.0000 13.6273
#
#
#
# Elastic Compliance Matrix: (Units=1/GPa)
#
#
# Indices 1 2 3 4 5 6 
#
# 1 0.016696 -0.004686 -0.005382 0.000000 0.000000 0.000000
# 2 -0.004686 0.012653 -0.002421 0.000000 0.000000 0.000000
# 3 -0.005382 -0.002421 0.010867 0.000000 0.000000 0.000000
# 4 0.000000 0.000000 0.000000 0.041378 0.000000 0.000000
# 5 0.000000 0.000000 0.000000 0.000000 0.068133 0.000000
# 6 0.000000 0.000000 0.000000 0.000000 0.000000 0.073382
#
#
# Mechanical properties :
#
#
# Convention : Reuss Voigt Hill
#
# Bulk Modulus (GPa) = 65.63444 67.36488 66.49966
# Shear Modulus (GPa) = 19.74979 22.47878 21.11428
#
# Velocity S-wave (km/s) = 3.24628 3.46331 3.35655
# Velocity P-wave (km/s) = 7.00523 7.20681 7.10673
#
# Compressibility (1/GPa) = 0.01523590
#
# Stress axis : x y z
#
# Youngs Moduli (GPa) = 59.89574 79.03203 92.02201
#
# Poissons Ratio (x) = 0.37038 0.49527
# Poissons Ratio (y) = 0.28070 0.22282
# Poissons Ratio (z) = 0.32237 0.19137
#
# Static dielectric constant tensor:
#      x y z
#    x 1.751660 0.000000 0.000000 
#    y 0.000000 1.791450 0.000000 
#    z 0.000000 0.000000 1.595860 
# 
# From -- ./inp_files/5148.got.cif
#   From: 2010.05.17/outbox.cif.g08.bks.cpg/sg27_3_cif.got.tgz:5148.got - 2010.06.04 01:11:05.
