data_PCOD9338488
_publ_section_title
;
Structure prediction by ZEFSAII (Michael W. Deem and Ramdas Pophale) SiO2 
 PCOD9338488
Probable space group: P M C 21
;
_chemical_formula_sum "Si O2"
_cell_formula_units_Z 32
_cell_length_a 8.070133
_cell_length_b 11.012151
_cell_length_c 14.437652
_cell_angle_alpha 90.000000
_cell_angle_beta 90.000000
_cell_angle_gamma 90.000000
_cell_volume 1283.067249
_symmetry_space_group_name_H-M "P M C 21"
_symmetry_group_IT_number 26
_symmetry_cell_setting 'orthorhombic'
loop_
_space_group_symop_operation_xyz
x,y,z
-x,-y,1/2+z
-x,y,z
x,-y,1/2+z
loop_
_atom_site_type_symbol
_atom_site_label
_atom_site_fract_x
_atom_site_fract_y
_atom_site_fract_z
Si Si1 0.305723 0.423879 0.414640
Si Si2 0.804662 0.964584 0.746117
Si Si3 0.694433 0.804569 0.359229
Si Si4 0.810580 0.817544 0.014233
Si Si5 0.698078 0.424765 0.077124
Si Si6 0.700799 0.671846 0.186590
Si Si7 0.805587 0.302312 0.247289
Si Si8 0.308173 0.932541 0.537996
O O1 0.500000 0.414305 0.435733
O O2 0.220946 0.303885 0.455838
O O3 0.248629 0.541207 0.472884
O O4 0.281994 0.408175 0.305788
O O5 0.746815 0.830721 0.777868
O O6 0.000000 0.978093 0.766815
O O7 0.711761 0.074209 0.795931
O O8 0.782352 0.954441 0.635192
O O9 0.500000 0.777803 0.374485
O O10 0.760121 0.699567 0.290755
O O11 0.761005 0.839442 0.460755
O O12 0.773150 0.774394 0.118882
O O13 0.700259 0.933592 0.991455
O O14 0.000000 0.855000 0.003134
O O15 0.500000 0.406970 0.078589
O O16 0.742154 0.546127 0.136046
O O17 0.774769 0.319053 0.138204
O O18 0.500000 0.680903 0.185859
O O19 0.000000 0.310857 0.264906
O O20 0.500000 0.902149 0.557796
#
# Coordination Sequence:
#
# PCOD9338488 Si02
#       8
#     4   4   4   4   4   4   4   4
#     4  10  21  39  64  91 117 155 207 255 296 350
#     4  11  24  40  58  86 123 161 197 244 299 355
#     4  10  21  37  60  87 116 153 196 243 294 354
#     4  11  20  32  55  86 118 153 192 242 296 349
#     4   9  20  39  63  88 116 152 197 251 299 349
#     4   9  18  36  59  83 112 145 192 247 292 344
#     4  11  24  41  61  88 125 161 199 249 303 362
#     4  11  22  36  56  85 119 160 200 239 293 357
#
# _framework density 24.940235000000001
#
# number of rings (size 3 to 8) (size 9 to 14) (size 15 to 20)
#    0.000    1.750    1.250    4.125    0.000    7.500 
#    2.250    0.000    0.000    0.000    0.000    0.000 
#    0.000    0.000    0.000    0.000    0.000    0.000 
#
# Total GULP energy -178935.269921 kJ/mol
# GULP energy per Si atom -5591.727185 kJ/mol
# Density = 2.488347 g / cm^3
# Si number density = 24.940235 Si / 1000 Ang^3
#
#
#
# Elastic Constant Matrix: (Units=GPa)
#
#
# Indices 1 2 3 4 5 6 
#
# 1 28.3704 -0.6618 -5.8343 0.0000 0.0000 0.0000
# 2 -0.6618 69.7477 9.0037 0.0000 0.0000 0.0000
# 3 -5.8343 9.0037 134.1738 0.0000 0.0000 0.0000
# 4 0.0000 0.0000 0.0000 48.2504 0.0000 0.0000
# 5 0.0000 0.0000 0.0000 0.0000 10.5453 0.0000
# 6 0.0000 0.0000 0.0000 0.0000 0.0000 23.1995
#
#
#
# Elastic Compliance Matrix: (Units=1/GPa)
#
#
# Indices 1 2 3 4 5 6 
#
# 1 0.035567 0.000139 0.001537 0.000000 0.000000 0.000000
# 2 0.000139 0.014463 -0.000965 0.000000 0.000000 0.000000
# 3 0.001537 -0.000965 0.007585 0.000000 0.000000 0.000000
# 4 0.000000 0.000000 0.000000 0.020725 0.000000 0.000000
# 5 0.000000 0.000000 0.000000 0.000000 0.094829 0.000000
# 6 0.000000 0.000000 0.000000 0.000000 0.000000 0.043104
#
#
# Mechanical properties :
#
#
# Convention : Reuss Voigt Hill
#
# Bulk Modulus (GPa) = 16.93803 26.36745 21.65274
# Shear Modulus (GPa) = 21.31930 31.71800 26.51865
#
# Velocity S-wave (km/s) = 2.92689 3.57004 3.26435
# Velocity P-wave (km/s) = 4.26948 5.25251 4.78630
#
# Compressibility (1/GPa) = 0.05903876
#
# Stress axis : x y z
#
# Youngs Moduli (GPa) = 28.11566 69.14087 131.84637
#
# Poissons Ratio (x) = -0.00961 -0.20268
# Poissons Ratio (y) = -0.00391 0.12717
# Poissons Ratio (z) = -0.04322 0.06669
#
# Static dielectric constant tensor:
#      x y z
#    x 1.878510 0.000000 0.000000 
#    y 0.000000 2.010820 0.000000 
#    z 0.000000 0.000000 2.051340 
# 
# From -- ./inp_files/4302.got.cif
#   From: 2010.05.17/outbox.cif.g08.bks.cpg/sg26_3_cif.got.tgz:4302.got - 2010.06.04 01:07:29.
