data_PCOD9338947
_publ_section_title
;
Structure prediction by ZEFSAII (Michael W. Deem and Ramdas Pophale) SiO2 
 PCOD9338947
Probable space group: P C C 2
;
_chemical_formula_sum "Si O2"
_cell_formula_units_Z 32
_cell_length_a 9.356972
_cell_length_b 15.384850
_cell_length_c 10.774090
_cell_angle_alpha 90.000000
_cell_angle_beta 90.000000
_cell_angle_gamma 90.000000
_cell_volume 1550.990705
_symmetry_space_group_name_H-M "P C C 2"
_symmetry_group_IT_number 27
_symmetry_cell_setting 'orthorhombic'
loop_
_space_group_symop_operation_xyz
x,y,z
-x,-y,z
-x,y,1/2+z
x,-y,1/2+z
loop_
_atom_site_type_symbol
_atom_site_label
_atom_site_fract_x
_atom_site_fract_y
_atom_site_fract_z
Si Si1 0.192850 0.872216 0.716250
Si Si2 0.365725 0.829715 0.473330
Si Si3 0.880962 0.148515 0.129876
Si Si4 0.421522 0.313663 0.493037
Si Si5 0.825871 0.303492 0.323919
Si Si6 0.127541 0.733974 0.905083
Si Si7 0.651882 0.033657 0.251443
Si Si8 0.438323 0.596577 0.254111
O O1 0.290312 0.867487 0.594154
O O2 0.193436 0.778865 0.783010
O O3 0.028534 0.889614 0.682143
O O4 0.258919 0.949877 0.796028
O O5 0.517968 0.784618 0.499356
O O6 0.263838 0.751085 0.425551
O O7 0.374771 0.899764 0.363941
O O8 0.844841 0.234046 0.212354
O O9 0.751474 0.082461 0.151413
O O10 0.910213 0.183794 0.992600
O O11 0.252045 0.316555 0.474486
O O12 0.484800 0.356294 0.369086
O O13 0.466106 0.359489 0.620640
O O14 0.729981 0.385073 0.282448
O O15 0.985039 0.318952 0.374381
O O16 0.500000 0.000000 0.203525
O O17 0.500000 0.500000 0.250433
#
# Coordination Sequence:
#
# PCOD9338947 Si02
#       8
#     4   4   4   4   4   4   4   4
#     4  11  23  38  60  88 128 174 231 286 348 399
#     4  10  22  40  60  90 126 173 227 278 339 413
#     4  10  21  40  60  89 125 174 227 280 339 407
#     4  11  23  41  71 100 138 178 228 278 343 427
#     4   9  20  41  65  92 129 167 222 272 328 419
#     4  11  21  38  68  95 124 178 229 275 339 406
#     4  11  25  39  56  86 126 170 226 295 345 385
#     4  11  23  43  70 104 139 177 217 279 350 419
#
# _framework density 20.631974
#
# number of rings (size 3 to 8) (size 9 to 14) (size 15 to 20)
#    0.000    1.500    2.500    2.250    3.500    0.500 
#    0.000    0.625    0.000    1.500    0.000    0.000 
#    0.000    0.000    0.000    0.000    0.000    0.000 
#
# Total GULP energy -178707.123643 kJ/mol
# GULP energy per Si atom -5584.597614 kJ/mol
# Density = 2.058501 g / cm^3
# Si number density = 20.631974 Si / 1000 Ang^3
#
#
#
# Elastic Constant Matrix: (Units=GPa)
#
#
# Indices 1 2 3 4 5 6 
#
# 1 135.9626 57.7623 31.0990 0.0000 0.0000 0.0000
# 2 57.7623 89.6347 25.6570 0.0000 0.0000 0.0000
# 3 31.0990 25.6570 78.5338 0.0000 0.0000 0.0000
# 4 0.0000 0.0000 0.0000 18.2146 0.0000 0.0000
# 5 0.0000 0.0000 0.0000 0.0000 27.9815 0.0000
# 6 0.0000 0.0000 0.0000 0.0000 0.0000 30.3778
#
#
#
# Elastic Compliance Matrix: (Units=1/GPa)
#
#
# Indices 1 2 3 4 5 6 
#
# 1 0.010443 -0.006118 -0.002137 0.000000 0.000000 0.000000
# 2 -0.006118 0.015892 -0.002769 0.000000 0.000000 0.000000
# 3 -0.002137 -0.002769 0.014484 0.000000 0.000000 0.000000
# 4 0.000000 0.000000 0.000000 0.054901 0.000000 0.000000
# 5 0.000000 0.000000 0.000000 0.000000 0.035738 0.000000
# 6 0.000000 0.000000 0.000000 0.000000 0.000000 0.032919
#
#
# Mechanical properties :
#
#
# Convention : Reuss Voigt Hill
#
# Bulk Modulus (GPa) = 53.27302 59.24085 56.25693
# Shear Modulus (GPa) = 25.94970 27.95565 26.95267
#
# Velocity S-wave (km/s) = 3.55031 3.68498 3.61827
# Velocity P-wave (km/s) = 6.53322 6.84696 6.69193
#
# Compressibility (1/GPa) = 0.01877123
#
# Stress axis : x y z
#
# Youngs Moduli (GPa) = 95.75956 62.92652 69.04122
#
# Poissons Ratio (x) = 0.38498 0.14751
# Poissons Ratio (y) = 0.58586 0.19118
# Poissons Ratio (z) = 0.20460 0.17425
#
# Static dielectric constant tensor:
#      x y z
#    x 1.766810 0.000000 0.000000 
#    y 0.000000 1.729600 0.000000 
#    z 0.000000 0.000000 1.779210 
# 
# From -- ./inp_files/2446.got.cif
#   From: 2010.05.17/outbox.cif.g08.bks.cpg/sg27_2_cif.got.tgz:2446.got - 2010.06.04 01:11:05.
