data_PCOD9338585
_publ_section_title
;
Structure prediction by ZEFSAII (Michael W. Deem and Ramdas Pophale) SiO2 
 PCOD9338585
Probable space group: P M C 21
;
_chemical_formula_sum "Si O2"
_cell_formula_units_Z 24
_cell_length_a 18.313079
_cell_length_b 5.377999
_cell_length_c 10.782982
_cell_angle_alpha 90.000000
_cell_angle_beta 90.000000
_cell_angle_gamma 90.000000
_cell_volume 1061.991318
_symmetry_space_group_name_H-M "P M C 21"
_symmetry_group_IT_number 26
_symmetry_cell_setting 'orthorhombic'
loop_
_space_group_symop_operation_xyz
x,y,z
-x,-y,1/2+z
-x,y,z
x,-y,1/2+z
loop_
_atom_site_type_symbol
_atom_site_label
_atom_site_fract_x
_atom_site_fract_y
_atom_site_fract_z
Si Si1 0.845206 0.609536 0.720400
Si Si2 0.297303 0.476969 0.353510
Si Si3 0.651775 0.920231 0.030904
Si Si4 0.085718 0.093343 0.816968
Si Si5 0.204488 0.168289 0.995158
Si Si6 0.585632 0.809578 0.285012
O O1 0.769084 0.671722 0.792276
O O2 0.884758 0.358067 0.764211
O O3 0.821422 0.599978 0.577533
O O4 0.895338 0.853676 0.733963
O O5 0.331006 0.352368 0.475349
O O6 0.252800 0.727455 0.382979
O O7 0.366404 0.557553 0.273903
O O8 0.733984 0.011366 0.063996
O O9 0.612733 0.055057 0.912332
O O10 0.604929 0.944006 0.155407
O O11 0.132572 0.044051 0.941577
O O12 0.000000 0.111316 0.838570
O O13 0.500000 0.765015 0.293911
#
# Coordination Sequence:
#
# PCOD9338585 Si02
#       6
#     4   4   4   4   4   4
#     4  11  23  42  68  96 132 181 230 288 348 424
#     4  10  22  41  65  97 128 179 235 288 352 427
#     4  11  22  43  70  99 134 189 243 298 363 440
#     4  11  25  42  63  98 138 175 229 290 357 419
#     4  10  23  39  67  94 127 175 235 285 346 420
#     4  11  25  41  65 102 143 183 234 303 372 436
#
# _framework density 22.599056000000001
#
# number of rings (size 3 to 8) (size 9 to 14) (size 15 to 20)
#    0.000    1.333    1.667    3.000    7.000    4.000 
#    0.000    0.000    0.000    0.000    0.000    0.000 
#    0.000    0.000    0.000    0.000    0.000    0.000 
#
# Total GULP energy -133748.382882 kJ/mol
# GULP energy per Si atom -5572.849287 kJ/mol
# Density = 2.254762 g / cm^3
# Si number density = 22.599056 Si / 1000 Ang^3
#
#
#
# Elastic Constant Matrix: (Units=GPa)
#
#
# Indices 1 2 3 4 5 6 
#
# 1 214.6272 43.9639 50.4212 0.0000 0.0000 0.0000
# 2 43.9639 73.7234 8.7151 0.0000 0.0000 0.0000
# 3 50.4212 8.7151 66.0532 0.0000 0.0000 0.0000
# 4 0.0000 0.0000 0.0000 21.8164 0.0000 0.0000
# 5 0.0000 0.0000 0.0000 0.0000 20.7798 0.0000
# 6 0.0000 0.0000 0.0000 0.0000 0.0000 20.1460
#
#
#
# Elastic Compliance Matrix: (Units=1/GPa)
#
#
# Indices 1 2 3 4 5 6 
#
# 1 0.006371 -0.003276 -0.004431 0.000000 0.000000 0.000000
# 2 -0.003276 0.015463 0.000460 0.000000 0.000000 0.000000
# 3 -0.004431 0.000460 0.018461 0.000000 0.000000 0.000000
# 4 0.000000 0.000000 0.000000 0.045837 0.000000 0.000000
# 5 0.000000 0.000000 0.000000 0.000000 0.048124 0.000000
# 6 0.000000 0.000000 0.000000 0.000000 0.000000 0.049638
#
#
# Mechanical properties :
#
#
# Convention : Reuss Voigt Hill
#
# Bulk Modulus (GPa) = 38.75631 62.28935 50.52283
# Shear Modulus (GPa) = 24.15601 29.30202 26.72901
#
# Velocity S-wave (km/s) = 3.27294 3.60474 3.44284
# Velocity P-wave (km/s) = 5.60978 6.70434 6.18134
#
# Compressibility (1/GPa) = 0.02580225
#
# Stress axis : x y z
#
# Youngs Moduli (GPa) = 156.95609 64.66988 54.16775
#
# Poissons Ratio (x) = 0.21183 0.24003
# Poissons Ratio (y) = 0.51412 -0.02493
# Poissons Ratio (z) = 0.69551 -0.02976
#
# Static dielectric constant tensor:
#      x y z
#    x 1.826010 0.000000 0.000000 
#    y 0.000000 1.930570 0.000000 
#    z 0.000000 0.000000 1.943960 
# 
# From -- ./inp_files/3630.got.cif
#   From: 2010.05.17/outbox.cif.g08.bks.cpg/sg26_2_cif.got.tgz:3630.got - 2010.06.04 01:07:29.
