data_PCOD9338698
_publ_section_title
;
Structure prediction by ZEFSAII (Michael W. Deem and Ramdas Pophale) SiO2 
 PCOD9338698
Probable space group: P M C 21
;
_chemical_formula_sum "Si O2"
_cell_formula_units_Z 32
_cell_length_a 9.000000
_cell_length_b 15.000000
_cell_length_c 12.000000
_cell_angle_alpha 90.000000
_cell_angle_beta 90.000000
_cell_angle_gamma 90.000000
_cell_volume 1620.000000
_symmetry_space_group_name_H-M "P M C 21"
_symmetry_group_IT_number 26
_symmetry_cell_setting 'orthorhombic'
loop_
_space_group_symop_operation_xyz
x,y,z
-x,-y,1/2+z
-x,y,z
x,-y,1/2+z
loop_
_atom_site_type_symbol
_atom_site_label
_atom_site_fract_x
_atom_site_fract_y
_atom_site_fract_z
Si Si1 0.176429 0.126128 0.714050
Si Si2 0.677062 0.950636 0.768839
Si Si3 0.171264 0.360574 0.450601
Si Si4 0.673982 0.176586 0.080383
Si Si5 0.165111 0.327120 0.193838
Si Si6 0.821458 0.162300 0.464694
Si Si7 0.174735 0.550964 0.481761
Si Si8 0.178482 0.272813 0.874816
O O1 0.205821 0.118219 0.583549
O O2 0.215058 0.224268 0.759945
O O3 0.000000 0.113740 0.732485
O O4 0.265302 0.050635 0.778303
O O5 0.500000 0.946201 0.776839
O O6 0.720112 0.911675 0.646946
O O7 0.748641 0.890363 0.864199
O O8 0.168779 0.364689 0.316800
O O9 0.236034 0.263751 0.474859
O O10 0.243127 0.453082 0.487371
O O11 0.000000 0.357469 0.494097
O O12 0.500000 0.172233 0.054081
O O13 0.709660 0.254917 0.169178
O O14 0.763563 0.207719 0.972348
O O15 0.000000 0.284879 0.178417
O O16 0.178706 0.403334 0.102037
O O17 0.000000 0.166499 0.445172
O O18 0.236019 0.627299 0.398874
O O19 0.000000 0.537845 0.451074
O O20 0.000000 0.278063 0.884284
#
# Coordination Sequence:
#
# PCOD9338698 Si02
#       8
#     4   4   4   4   4   4   4   4
#     4  10  23  39  57  83 114 150 186 231 284 337
#     4  11  24  39  57  81 109 144 187 236 283 336
#     4   9  16  28  51  82 113 145 181 223 273 326
#     4  10  20  34  54  78 104 138 184 236 279 321
#     4   9  16  29  50  76 107 144 184 226 274 326
#     4  10  21  38  59  85 116 148 187 231 280 338
#     4   8  15  27  48  80 111 143 183 224 268 321
#     4   9  19  36  56  81 114 148 184 225 277 333
#
# _framework density 19.753086
#
# number of rings (size 3 to 8) (size 9 to 14) (size 15 to 20)
#    0.000    2.500    1.250    1.500    1.750    3.500 
#    0.000    5.000    0.000    6.000    0.000    3.500 
#    0.000    0.000    0.000    0.000    0.000    0.000 
#
# Total GULP energy -178242.673384 kJ/mol
# GULP energy per Si atom -5570.083543 kJ/mol
# Density = 1.970813 g / cm^3
# Si number density = 19.753086 Si / 1000 Ang^3
#
#
#
# Elastic Constant Matrix: (Units=GPa)
#
#
# Indices 1 2 3 4 5 6 
#
# 1 -0.9079 21.6758 16.9044 0.0000 0.0000 0.0000
# 2 21.6758 122.3286 22.5375 0.0000 0.0000 0.0000
# 3 16.9044 22.5375 37.9560 0.0000 0.0000 0.0000
# 4 0.0000 0.0000 0.0000 3.8291 0.0000 0.0000
# 5 0.0000 0.0000 0.0000 0.0000 5.7772 0.0000
# 6 0.0000 0.0000 0.0000 0.0000 0.0000 -2.2609
#
#
#
# Elastic Compliance Matrix: (Units=1/GPa)
#
#
# Indices 1 2 3 4 5 6 
#
# 1 -0.103307 0.011036 0.039457 0.000000 0.000000 0.000000
# 2 0.011036 0.008000 -0.009665 0.000000 0.000000 0.000000
# 3 0.039457 -0.009665 0.014512 0.000000 0.000000 0.000000
# 4 0.000000 0.000000 0.000000 0.261160 0.000000 0.000000
# 5 0.000000 0.000000 0.000000 0.000000 0.173095 0.000000
# 6 0.000000 0.000000 0.000000 0.000000 0.000000 -0.442303
#
#
# Mechanical properties :
#
#
# Convention : Reuss Voigt Hill
#
# Bulk Modulus (GPa) = 1162.51222 31.29026 596.90124
# Shear Modulus (GPa) = -29.37528 8.01967 -10.67781
#
# Velocity S-wave (km/s) = -3.86051 2.01712 -2.32753
# Velocity P-wave (km/s) = 23.87317 4.61520 17.19343
#
# Compressibility (1/GPa) = 0.00086021
#
# Stress axis : x y z
#
# Youngs Moduli (GPa) = -9.67984 125.00137 68.90674
#
# Poissons Ratio (x) = -1.37951 -2.71885
# Poissons Ratio (y) = 0.10683 0.66600
# Poissons Ratio (z) = 0.38194 1.20817
#
# Static dielectric constant tensor:
#      x y z
#    x 1.667920 0.000000 0.000000 
#    y 0.000000 1.743190 0.000000 
#    z 0.000000 0.000000 1.706350 
# 
# From -- ./inp_files/2966.got.cif
#   From: 2010.05.17/outbox.ucp.g08.bks.cvg/sg26_2_cif.got.tgz:2966.got - 2010.06.11 15:23:25.
