data_PCOD9338057
_publ_section_title
;
Structure prediction by ZEFSAII (Michael W. Deem and Ramdas Pophale) SiO2 
 PCOD9338057
Probable space group: P M C 21
;
_chemical_formula_sum "Si O2"
_cell_formula_units_Z 24
_cell_length_a 7.552867
_cell_length_b 7.845273
_cell_length_c 14.467101
_cell_angle_alpha 90.000000
_cell_angle_beta 90.000000
_cell_angle_gamma 90.000000
_cell_volume 857.237994
_symmetry_space_group_name_H-M "P M C 21"
_symmetry_group_IT_number 26
_symmetry_cell_setting 'orthorhombic'
loop_
_space_group_symop_operation_xyz
x,y,z
-x,-y,1/2+z
-x,y,z
x,-y,1/2+z
loop_
_atom_site_type_symbol
_atom_site_label
_atom_site_fract_x
_atom_site_fract_y
_atom_site_fract_z
Si Si1 0.209121 0.621666 0.676920
Si Si2 0.218930 0.300504 0.792343
Si Si3 0.710184 0.407151 0.511221
Si Si4 0.290215 0.815677 0.848680
Si Si5 0.205048 0.141065 0.968459
Si Si6 0.793260 0.075961 0.632434
O O1 0.284527 0.464905 0.737325
O O2 0.252434 0.578744 0.570298
O O3 0.256398 0.782782 0.740427
O O4 0.000000 0.611266 0.680900
O O5 0.280433 0.141006 0.729608
O O6 0.000000 0.300545 0.793397
O O7 0.283645 0.278291 0.897029
O O8 0.500000 0.391283 0.511995
O O9 0.771592 0.351493 0.408572
O O10 0.787830 0.252907 0.573481
O O11 0.500000 0.835574 0.860604
O O12 0.202425 0.974500 0.900220
O O13 0.000000 0.184769 0.986633
O O14 0.285759 0.065184 0.062901
O O15 0.000000 0.032083 0.645414
#
# Coordination Sequence:
#
# PCOD9338057 Si02
#       6
#     4   4   4   4   4   4
#     4  10  19  32  51  73  97 126 162 201 239 284
#     4   8  15  28  46  69  93 117 152 196 236 276
#     4   9  17  30  48  68  93 126 162 198 237 283
#     4  10  20  33  49  71  99 128 159 197 240 287
#     4   9  16  29  49  69  91 121 156 194 235 280
#     4   8  14  26  45  66  89 120 157 192 229 280
#
# _framework density 27.99689
#
# number of rings (size 3 to 8) (size 9 to 14) (size 15 to 20)
#    0.000    3.000    0.000    2.500    0.000    2.000 
#    0.000    5.833    0.000    4.000    0.000    0.000 
#    0.000    0.000    0.000    0.000    0.000    0.000 
#
# Total GULP energy -134183.256658 kJ/mol
# GULP energy per Si atom -5590.969027 kJ/mol
# Density = 2.793317 g / cm^3
# Si number density = 27.996890 Si / 1000 Ang^3
#
#
#
# Elastic Constant Matrix: (Units=GPa)
#
#
# Indices 1 2 3 4 5 6 
#
# 1 115.1004 -11.3978 -2.1261 0.0000 0.0000 0.0000
# 2 -11.3978 87.2999 8.7833 0.0000 0.0000 0.0000
# 3 -2.1261 8.7833 225.9970 0.0000 0.0000 0.0000
# 4 0.0000 0.0000 0.0000 60.6677 0.0000 0.0000
# 5 0.0000 0.0000 0.0000 0.0000 4.9489 0.0000
# 6 0.0000 0.0000 0.0000 0.0000 0.0000 -16.4588
#
#
#
# Elastic Compliance Matrix: (Units=1/GPa)
#
#
# Indices 1 2 3 4 5 6 
#
# 1 0.008802 0.001145 0.000038 0.000000 0.000000 0.000000
# 2 0.001145 0.011649 -0.000442 0.000000 0.000000 0.000000
# 3 0.000038 -0.000442 0.004442 0.000000 0.000000 0.000000
# 4 0.000000 0.000000 0.000000 0.016483 0.000000 0.000000
# 5 0.000000 0.000000 0.000000 0.000000 0.202065 0.000000
# 6 0.000000 0.000000 0.000000 0.000000 0.000000 -0.060758
#
#
# Mechanical properties :
#
#
# Convention : Reuss Voigt Hill
#
# Bulk Modulus (GPa) = 37.91218 46.54622 42.22920
# Shear Modulus (GPa) = 26.31677 38.70742 32.51209
#
# Velocity S-wave (km/s) = 3.06925 3.72231 3.41145
# Velocity P-wave (km/s) = 5.11188 5.92754 5.53476
#
# Compressibility (1/GPa) = 0.02637675
#
# Stress axis : x y z
#
# Youngs Moduli (GPa) = 113.60806 85.84595 225.10489
#
# Poissons Ratio (x) = -0.09832 -0.00862
# Poissons Ratio (y) = -0.13012 0.09948
# Poissons Ratio (z) = -0.00435 0.03794
#
# Static dielectric constant tensor:
#      x y z
#    x 1.998120 0.000000 0.000000 
#    y 0.000000 2.378580 0.000000 
#    z 0.000000 0.000000 2.205630 
# 
# From -- ./inp_files/2826.got.cif
#   From: 2010.05.17/outbox.cif.g08.bks.cpg/sg26_2_cif.got.tgz:2826.got - 2010.06.04 01:07:29.
