data_PCOD9338639
_publ_section_title
;
Structure prediction by ZEFSAII (Michael W. Deem and Ramdas Pophale) SiO2 
 PCOD9338639
Probable space group: P M C 21
;
_chemical_formula_sum "Si O2"
_cell_formula_units_Z 24
_cell_length_a 7.635151
_cell_length_b 14.613880
_cell_length_c 8.271869
_cell_angle_alpha 90.000000
_cell_angle_beta 90.000000
_cell_angle_gamma 90.000000
_cell_volume 922.968364
_symmetry_space_group_name_H-M "P M C 21"
_symmetry_group_IT_number 26
_symmetry_cell_setting 'orthorhombic'
loop_
_space_group_symop_operation_xyz
x,y,z
-x,-y,1/2+z
-x,y,z
x,-y,1/2+z
loop_
_atom_site_type_symbol
_atom_site_label
_atom_site_fract_x
_atom_site_fract_y
_atom_site_fract_z
Si Si1 0.713068 0.138454 0.250000
Si Si2 0.711347 0.309320 0.064089
Si Si3 0.286229 0.796834 0.235784
Si Si4 0.696593 0.361791 0.527745
Si Si5 0.807141 0.514369 0.731276
Si Si6 0.286324 0.969250 0.424695
O O1 0.500000 0.142850 0.257550
O O2 0.770336 0.240818 0.208454
O O3 0.771937 0.073106 0.395033
O O4 0.761636 0.079339 0.090920
O O5 0.500000 0.316158 0.067887
O O6 0.785972 0.408930 0.092221
O O7 0.758661 0.260484 0.897359
O O8 0.500000 0.798824 0.222211
O O9 0.225003 0.734726 0.086170
O O10 0.232613 0.899857 0.280347
O O11 0.500000 0.343192 0.469682
O O12 0.688581 0.428491 0.685036
O O13 0.778906 0.425342 0.390844
O O14 0.000000 0.475183 0.730625
O O15 0.500000 0.970671 0.424216
#
# Coordination Sequence:
#
# PCOD9338639 Si02
#       6
#     4   4   4   4   4   4
#     4   8  14  23  41  69 104 138 169 209 261 313
#     4   9  17  33  54  78 106 141 181 220 262 317
#     4   8  16  30  51  77 106 136 173 219 267 315
#     4  11  22  38  59  81 105 141 182 221 265 324
#     4  12  25  39  55  80 110 140 174 222 275 322
#     4   8  13  23  39  69 107 136 163 209 266 313
#
# _framework density 26.003059
#
# number of rings (size 3 to 8) (size 9 to 14) (size 15 to 20)
#    0.000    2.667    0.000    5.000    0.000    2.667 
#    0.000    5.833    0.000    0.000    0.000   11.667 
#    0.000    0.000    0.000    0.000    0.000    0.000 
#
# Total GULP energy -134135.583484 kJ/mol
# GULP energy per Si atom -5588.982645 kJ/mol
# Density = 2.594388 g / cm^3
# Si number density = 26.003059 Si / 1000 Ang^3
#
#
#
# Elastic Constant Matrix: (Units=GPa)
#
#
# Indices 1 2 3 4 5 6 
#
# 1 55.9662 -2.8107 1.9162 0.0000 0.0000 0.0000
# 2 -2.8107 145.5895 8.5551 0.0000 0.0000 0.0000
# 3 1.9162 8.5551 67.0363 0.0000 0.0000 0.0000
# 4 0.0000 0.0000 0.0000 51.0807 0.0000 0.0000
# 5 0.0000 0.0000 0.0000 0.0000 18.3628 0.0000
# 6 0.0000 0.0000 0.0000 0.0000 0.0000 38.9792
#
#
#
# Elastic Compliance Matrix: (Units=1/GPa)
#
#
# Indices 1 2 3 4 5 6 
#
# 1 0.017906 0.000379 -0.000560 0.000000 0.000000 0.000000
# 2 0.000379 0.006929 -0.000895 0.000000 0.000000 0.000000
# 3 -0.000560 -0.000895 0.015048 0.000000 0.000000 0.000000
# 4 0.000000 0.000000 0.000000 0.019577 0.000000 0.000000
# 5 0.000000 0.000000 0.000000 0.000000 0.054458 0.000000
# 6 0.000000 0.000000 0.000000 0.000000 0.000000 0.025655
#
#
# Mechanical properties :
#
#
# Convention : Reuss Voigt Hill
#
# Bulk Modulus (GPa) = 26.50482 31.54592 29.02537
# Shear Modulus (GPa) = 32.40414 39.07995 35.74205
#
# Velocity S-wave (km/s) = 3.53394 3.88093 3.71149
# Velocity P-wave (km/s) = 5.18331 5.67804 5.43630
#
# Compressibility (1/GPa) = 0.03772899
#
# Stress axis : x y z
#
# Youngs Moduli (GPa) = 55.84682 144.33074 66.45611
#
# Poissons Ratio (x) = -0.05464 0.03723
# Poissons Ratio (y) = -0.02114 0.05948
# Poissons Ratio (z) = 0.03128 0.12918
#
# Static dielectric constant tensor:
#      x y z
#    x 1.973650 0.000000 0.000000 
#    y 0.000000 1.984800 0.000000 
#    z 0.000000 0.000000 2.147390 
# 
# From -- ./inp_files/1416.got.cif
#   From: 2010.05.17/outbox.cif.g08.bks.cpg/sg26_1_cif.got.tgz:1416.got - 2010.06.04 01:07:29.
