data_PCOD9338711
_publ_section_title
;
Structure prediction by ZEFSAII (Michael W. Deem and Ramdas Pophale) SiO2 
 PCOD9338711
Probable space group: P C C 2
;
_chemical_formula_sum "Si O2"
_cell_formula_units_Z 24
_cell_length_a 6.764473
_cell_length_b 30.232669
_cell_length_c 5.198319
_cell_angle_alpha 90.000000
_cell_angle_beta 90.000000
_cell_angle_gamma 90.000000
_cell_volume 1063.098202
_symmetry_space_group_name_H-M "P C C 2"
_symmetry_group_IT_number 27
_symmetry_cell_setting 'orthorhombic'
loop_
_space_group_symop_operation_xyz
x,y,z
-x,-y,z
-x,y,1/2+z
x,-y,1/2+z
loop_
_atom_site_type_symbol
_atom_site_label
_atom_site_fract_x
_atom_site_fract_y
_atom_site_fract_z
Si Si1 0.272702 0.482475 0.989930
Si Si2 0.874041 0.114887 0.547223
Si Si3 0.367863 0.612246 0.667967
Si Si4 0.372183 0.201781 0.168677
Si Si5 0.364942 0.294909 0.051778
Si Si6 0.773958 0.982237 0.974712
O O1 0.500000 0.500000 0.948977
O O2 0.190822 0.484192 0.703151
O O3 0.262759 0.433680 0.106532
O O4 0.745835 0.157572 0.609819
O O5 0.770701 0.067388 0.578960
O O6 0.949528 0.115710 0.254609
O O7 0.547192 0.612199 0.457002
O O8 0.258788 0.658543 0.608616
O O9 0.448266 0.202168 0.461440
O O10 0.261023 0.248112 0.107137
O O11 0.543673 0.295075 0.264955
O O12 0.690266 0.985016 0.688930
O O13 0.000000 0.000000 0.933588
#
# Coordination Sequence:
#
# PCOD9338711 Si02
#       6
#     4   4   4   4   4   4
#     4  10  14  18  24  40  67  91 124 178 228 248
#     4  12  21  33  58  86  99 131 175 213 246 293
#     4  10  14  20  31  46  65  97 142 183 208 270
#     4  10  21  38  52  72 107 138 164 209 257 301
#     4   8  16  27  42  56  76 116 159 187 218 283
#     4  10  16  30  49  77 101 124 159 205 239 285
#
# _framework density 22.575524000000001
#
# number of rings (size 3 to 8) (size 9 to 14) (size 15 to 20)
#    0.000    2.000    6.667    1.000    0.000    0.000 
#    0.000    0.000    0.000    3.000    0.000    0.000 
#    0.000    0.000    0.000    0.000    0.000    5.000 
#
# Total GULP energy -133771.323233 kJ/mol
# GULP energy per Si atom -5573.805135 kJ/mol
# Density = 2.252414 g / cm^3
# Si number density = 22.575524 Si / 1000 Ang^3
#
#
#
# Elastic Constant Matrix: (Units=GPa)
#
#
# Indices 1 2 3 4 5 6 
#
# 1 28.4988 -1.5157 -12.5630 0.0000 0.0000 0.0000
# 2 -1.5157 172.8391 -12.8567 0.0000 0.0000 0.0000
# 3 -12.5630 -12.8567 119.5855 0.0000 0.0000 0.0000
# 4 0.0000 0.0000 0.0000 35.9765 0.0000 0.0000
# 5 0.0000 0.0000 0.0000 0.0000 -28.8098 0.0000
# 6 0.0000 0.0000 0.0000 0.0000 0.0000 7.0328
#
#
#
# Elastic Compliance Matrix: (Units=1/GPa)
#
#
# Indices 1 2 3 4 5 6 
#
# 1 0.036858 0.000616 0.003938 0.000000 0.000000 0.000000
# 2 0.000616 0.005843 0.000693 0.000000 0.000000 0.000000
# 3 0.003938 0.000693 0.008850 0.000000 0.000000 0.000000
# 4 0.000000 0.000000 0.000000 0.027796 0.000000 0.000000
# 5 0.000000 0.000000 0.000000 0.000000 -0.034710 0.000000
# 6 0.000000 0.000000 0.000000 0.000000 0.000000 0.142190
#
#
# Mechanical properties :
#
#
# Convention : Reuss Voigt Hill
#
# Bulk Modulus (GPa) = 16.11707 29.67253 22.89480
# Shear Modulus (GPa) = 25.37886 26.03050 25.70468
#
# Velocity S-wave (km/s) = 3.35651 3.39933 3.37799
# Velocity P-wave (km/s) = 4.70916 5.34598 5.03764
#
# Compressibility (1/GPa) = 0.06204604
#
# Stress axis : x y z
#
# Youngs Moduli (GPa) = 27.13108 171.15463 112.98865
#
# Poissons Ratio (x) = -0.10546 -0.44499
# Poissons Ratio (y) = -0.01672 -0.07829
# Poissons Ratio (z) = -0.10685 -0.11859
#
# Static dielectric constant tensor:
#      x y z
#    x 2.341670 0.000000 0.000000 
#    y 0.000000 1.923010 0.000000 
#    z 0.000000 0.000000 1.864350 
# 
# From -- ./inp_files/203.got.cif
#   From: 2010.05.17/outbox.cif.g08.bks.cpg/sg27_1_cif.got.tgz:203.got - 2010.06.04 01:11:05.
