data_PCOD9338308
_publ_section_title
;
Structure prediction by ZEFSAII (Michael W. Deem and Ramdas Pophale) SiO2 
 PCOD9338308
Probable space group: P M C 21
;
_chemical_formula_sum "Si O2"
_cell_formula_units_Z 32
_cell_length_a 9.128675
_cell_length_b 12.641748
_cell_length_c 14.979990
_cell_angle_alpha 90.000000
_cell_angle_beta 90.000000
_cell_angle_gamma 90.000000
_cell_volume 1728.726932
_symmetry_space_group_name_H-M "P M C 21"
_symmetry_group_IT_number 26
_symmetry_cell_setting 'orthorhombic'
loop_
_space_group_symop_operation_xyz
x,y,z
-x,-y,1/2+z
-x,y,z
x,-y,1/2+z
loop_
_atom_site_type_symbol
_atom_site_label
_atom_site_fract_x
_atom_site_fract_y
_atom_site_fract_z
Si Si1 0.175842 0.616914 0.732380
Si Si2 0.332261 0.006927 0.090945
Si Si3 0.323902 0.610447 0.232380
Si Si4 0.824925 0.219398 0.078413
Si Si5 0.175075 0.780602 0.886346
Si Si6 0.677037 0.226125 0.886034
Si Si7 0.677037 0.773875 0.078726
Si Si8 0.332261 0.993073 0.873814
O O1 0.250850 0.503511 0.732380
O O2 0.215238 0.687024 0.646051
O O3 0.215238 0.687024 0.818709
O O4 0.000000 0.603940 0.732380
O O5 0.500000 0.025198 0.119423
O O6 0.233722 0.106736 0.114552
O O7 0.284255 0.889528 0.118897
O O8 0.332222 0.000000 0.982380
O O9 0.500000 0.599369 0.232380
O O10 0.284051 0.680202 0.318936
O O11 0.284051 0.680202 0.145824
O O12 0.000000 0.214825 0.070305
O O13 0.752669 0.237344 0.981812
O O14 0.000000 0.785175 0.894455
O O15 0.233722 0.893264 0.850208
O O16 0.247331 0.762656 0.982948
O O17 0.500000 0.224253 0.897765
O O18 0.715745 0.110472 0.845863
O O19 0.500000 0.775747 0.066995
O O20 0.500000 0.974802 0.845337
#
# Coordination Sequence:
#
# PCOD9338308 Si02
#       8
#     4   4   4   4   4   4   4   4
#     4  10  24  41  52  72 108 143 179 222 263 304
#     4   8  15  30  53  80 109 136 165 209 263 315
#     4  10  22  39  58  78 102 137 181 222 259 310
#     4  10  20  35  55  78 107 142 176 213 258 310
#     4  10  20  35  55  78 107 142 176 213 258 310
#     4   9  19  36  56  81 110 136 168 215 267 313
#     4   9  19  36  56  81 110 136 168 215 267 313
#     4   8  15  30  53  80 109 136 165 209 263 315
#
# _framework density 18.510731
#
# number of rings (size 3 to 8) (size 9 to 14) (size 15 to 20)
#    0.000    2.750    0.000    2.250    0.000    9.500 
#    0.000    6.250    0.000    0.000    0.000    0.000 
#    0.000    0.000    0.000    0.000    0.000    0.000 
#
# Total GULP energy -178543.939061 kJ/mol
# GULP energy per Si atom -5579.498096 kJ/mol
# Density = 1.846860 g / cm^3
# Si number density = 18.510731 Si / 1000 Ang^3
#
#
#
# Elastic Constant Matrix: (Units=GPa)
#
#
# Indices 1 2 3 4 5 6 
#
# 1 42.2515 70.1836 45.8411 0.0000 0.0000 0.0000
# 2 70.1836 214.0033 90.5676 0.0000 0.0000 0.0000
# 3 45.8411 90.5676 106.2870 0.0000 0.0000 0.0000
# 4 0.0000 0.0000 0.0000 30.0343 0.0000 0.0000
# 5 0.0000 0.0000 0.0000 0.0000 2.7956 0.0000
# 6 0.0000 0.0000 0.0000 0.0000 0.0000 -1.2444
#
#
#
# Elastic Compliance Matrix: (Units=1/GPa)
#
#
# Indices 1 2 3 4 5 6 
#
# 1 0.064928 -0.014768 -0.015419 0.000000 0.000000 0.000000
# 2 -0.014768 0.010667 -0.002720 0.000000 0.000000 0.000000
# 3 -0.015419 -0.002720 0.018377 0.000000 0.000000 0.000000
# 4 0.000000 0.000000 0.000000 0.033295 0.000000 0.000000
# 5 0.000000 0.000000 0.000000 0.000000 0.357709 0.000000
# 6 0.000000 0.000000 0.000000 0.000000 0.000000 -0.803600
#
#
# Mechanical properties :
#
#
# Convention : Reuss Voigt Hill
#
# Bulk Modulus (GPa) = 35.51520 86.19182 60.85351
# Shear Modulus (GPa) = -20.54041 16.71372 -1.91335
#
# Velocity S-wave (km/s) = -3.33475 3.00812 -1.01779
# Velocity P-wave (km/s) = 2.09773 7.66351 5.61827
#
# Compressibility (1/GPa) = 0.02815696
#
# Stress axis : x y z
#
# Youngs Moduli (GPa) = 15.40163 93.74427 54.41651
#
# Poissons Ratio (x) = 1.38441 0.83907
# Poissons Ratio (y) = 0.22745 0.14803
# Poissons Ratio (z) = 0.23748 0.25501
#
# Static dielectric constant tensor:
#      x y z
#    x 1.614650 0.000000 0.000000 
#    y 0.000000 1.634280 0.000000 
#    z 0.000000 0.000000 1.652540 
# 
# From -- ./inp_files/4305.got.cif
#   From: 2010.05.17/outbox.cif.g08.bks.cpg/sg26_3_cif.got.tgz:4305.got - 2010.06.04 01:07:29.
