data_PCOD9338310
_publ_section_title
;
Structure prediction by ZEFSAII (Michael W. Deem and Ramdas Pophale) SiO2 
 PCOD9338310
Probable space group: P M C 21
;
_chemical_formula_sum "Si O2"
_cell_formula_units_Z 32
_cell_length_a 7.617888
_cell_length_b 14.900813
_cell_length_c 12.667019
_cell_angle_alpha 90.000000
_cell_angle_beta 90.000000
_cell_angle_gamma 90.000000
_cell_volume 1437.867839
_symmetry_space_group_name_H-M "P M C 21"
_symmetry_group_IT_number 26
_symmetry_cell_setting 'orthorhombic'
loop_
_space_group_symop_operation_xyz
x,y,z
-x,-y,1/2+z
-x,y,z
x,-y,1/2+z
loop_
_atom_site_type_symbol
_atom_site_label
_atom_site_fract_x
_atom_site_fract_y
_atom_site_fract_z
Si Si1 0.709160 0.161264 0.940700
Si Si2 0.297803 0.322673 0.808992
Si Si3 0.202570 0.153722 0.175586
Si Si4 0.787298 0.648508 0.722619
Si Si5 0.788136 0.032537 0.744971
Si Si6 0.785691 0.194350 0.613394
Si Si7 0.204873 0.663957 0.955692
Si Si8 0.294197 0.540545 0.149139
O O1 0.500000 0.169188 0.954034
O O2 0.778711 0.259067 0.900606
O O3 0.741521 0.088035 0.849531
O O4 0.790793 0.133811 0.051215
O O5 0.500000 0.340704 0.838705
O O6 0.287209 0.256054 0.707979
O O7 0.220590 0.413291 0.757364
O O8 0.277687 0.252973 0.190412
O O9 0.000000 0.160641 0.210771
O O10 0.281212 0.068352 0.235904
O O11 0.723210 0.635014 0.843111
O O12 0.728038 0.565315 0.652528
O O13 0.000000 0.646441 0.716778
O O14 0.733555 0.093917 0.644570
O O15 0.000000 0.027937 0.741469
O O16 0.725726 0.243150 0.506614
O O17 0.000000 0.199405 0.617417
O O18 0.000000 0.680783 0.936394
O O19 0.218985 0.588767 0.046028
O O20 0.500000 0.561960 0.147792
#
# Coordination Sequence:
#
# PCOD9338310 Si02
#       8
#     4   4   4   4   4   4   4   4
#     4  10  20  35  56  81 111 144 177 220 272 322
#     4   8  16  31  50  74 103 134 170 213 261 314
#     4  10  22  38  55  78 110 146 183 222 265 317
#     4  10  22  38  54  77 110 145 181 222 268 319
#     4   9  18  34  57  82 107 140 182 223 263 314
#     4   8  14  27  51  80 103 127 166 214 259 304
#     4   9  18  34  55  78 106 139 176 221 270 317
#     4  10  20  35  56  80 106 139 181 225 270 325
#
# _framework density 22.255175000000001
#
# number of rings (size 3 to 8) (size 9 to 14) (size 15 to 20)
#    0.000    2.750    0.000    0.750    0.000    4.500 
#    0.000    6.250    0.000    4.500    0.000    0.000 
#    0.000    0.000    0.000    0.000    0.000    0.000 
#
# Total GULP energy -178391.285090 kJ/mol
# GULP energy per Si atom -5574.727659 kJ/mol
# Density = 2.220452 g / cm^3
# Si number density = 22.255175 Si / 1000 Ang^3
#
#
#
# Elastic Constant Matrix: (Units=GPa)
#
#
# Indices 1 2 3 4 5 6 
#
# 1 48.8859 -3.8966 -12.0023 0.0000 0.0000 0.0000
# 2 -3.8966 139.7709 24.1481 0.0000 0.0000 0.0000
# 3 -12.0023 24.1481 56.5926 0.0000 0.0000 0.0000
# 4 0.0000 0.0000 0.0000 22.8057 0.0000 0.0000
# 5 0.0000 0.0000 0.0000 0.0000 45.6187 0.0000
# 6 0.0000 0.0000 0.0000 0.0000 0.0000 -11.4111
#
#
#
# Elastic Compliance Matrix: (Units=1/GPa)
#
#
# Indices 1 2 3 4 5 6 
#
# 1 0.021585 -0.000204 0.004665 0.000000 0.000000 0.000000
# 2 -0.000204 0.007726 -0.003340 0.000000 0.000000 0.000000
# 3 0.004665 -0.003340 0.020085 0.000000 0.000000 0.000000
# 4 0.000000 0.000000 0.000000 0.043849 0.000000 0.000000
# 5 0.000000 0.000000 0.000000 0.000000 0.021921 0.000000
# 6 0.000000 0.000000 0.000000 0.000000 0.000000 -0.087634
#
#
# Mechanical properties :
#
#
# Convention : Reuss Voigt Hill
#
# Bulk Modulus (GPa) = 19.36602 29.08310 24.22456
# Shear Modulus (GPa) = 117.64156 27.20266 72.42211
#
# Velocity S-wave (km/s) = 7.27840 3.49994 5.71072
# Velocity P-wave (km/s) = 8.90809 5.42487 7.37507
#
# Compressibility (1/GPa) = 0.05163684
#
# Stress axis : x y z
#
# Youngs Moduli (GPa) = 46.32886 129.43446 49.78926
#
# Poissons Ratio (x) = 0.02643 -0.23226
# Poissons Ratio (y) = 0.00946 0.16629
# Poissons Ratio (z) = -0.21612 0.43231
#
# Static dielectric constant tensor:
#      x y z
#    x 1.824240 0.000000 0.000000 
#    y 0.000000 1.859300 0.000000 
#    z 0.000000 0.000000 1.841310 
# 
# From -- ./inp_files/2977.got.cif
#   From: 2010.05.17/outbox.cif.g08.bks.cpg/sg26_2_cif.got.tgz:2977.got - 2010.06.04 01:07:29.
