data_PCOD9338289
_publ_section_title
;
Structure prediction by ZEFSAII (Michael W. Deem and Ramdas Pophale) SiO2 
 PCOD9338289
Probable space group: P M C 21
;
_chemical_formula_sum "Si O2"
_cell_formula_units_Z 32
_cell_length_a 7.984617
_cell_length_b 11.704489
_cell_length_c 16.627981
_cell_angle_alpha 90.000000
_cell_angle_beta 90.000000
_cell_angle_gamma 90.000000
_cell_volume 1553.982295
_symmetry_space_group_name_H-M "P M C 21"
_symmetry_group_IT_number 26
_symmetry_cell_setting 'orthorhombic'
loop_
_space_group_symop_operation_xyz
x,y,z
-x,-y,1/2+z
-x,y,z
x,-y,1/2+z
loop_
_atom_site_type_symbol
_atom_site_label
_atom_site_fract_x
_atom_site_fract_y
_atom_site_fract_z
Si Si1 0.704778 0.173015 0.254670
Si Si2 0.201485 0.414882 0.620723
Si Si3 0.692023 0.767587 0.444328
Si Si4 0.196251 0.921443 0.581541
Si Si5 0.303203 0.057136 0.818200
Si Si6 0.202933 0.154756 0.647321
Si Si7 0.302027 0.432622 0.275158
Si Si8 0.193873 0.514963 0.451170
O O1 0.500000 0.170698 0.251602
O O2 0.775252 0.129344 0.170082
O O3 0.762001 0.301872 0.270403
O O4 0.758951 0.073428 0.316929
O O5 0.258273 0.283449 0.629902
O O6 0.240398 0.489106 0.700684
O O7 0.265683 0.464865 0.535258
O O8 0.000000 0.413591 0.615480
O O9 0.500000 0.736589 0.422816
O O10 0.695963 0.844681 0.523060
O O11 0.772377 0.849998 0.377668
O O12 0.789097 0.651042 0.456771
O O13 0.000000 0.911627 0.560723
O O14 0.243315 0.055502 0.583085
O O15 0.500000 0.051479 0.838657
O O16 0.280896 0.109368 0.729894
O O17 0.000000 0.154027 0.655990
O O18 0.500000 0.427235 0.264383
O O19 0.268057 0.478956 0.364890
O O20 0.000000 0.481009 0.447697
#
# Coordination Sequence:
#
# PCOD9338289 Si02
#       8
#     4   4   4   4   4   4   4   4
#     4   9  19  37  57  78 108 144 183 226 275 332
#     4  10  22  40  60  82 113 154 195 235 281 335
#     4  11  22  36  55  80 110 142 181 228 278 332
#     4  10  20  34  55  82 109 139 178 225 277 332
#     4   9  19  35  55  79 106 139 179 223 273 330
#     4   9  19  36  56  79 107 139 179 225 273 326
#     4  11  23  38  59  86 116 151 189 234 286 338
#     4  11  24  40  59  84 115 152 194 238 283 339
#
# _framework density 20.592254000000001
#
# number of rings (size 3 to 8) (size 9 to 14) (size 15 to 20)
#    0.000    2.000    0.000    3.000    0.000    9.000 
#    0.000    0.000    0.000    0.000    0.000    0.000 
#    0.000    0.000    0.000    0.000    0.000    0.000 
#
# Total GULP energy -178495.154592 kJ/mol
# GULP energy per Si atom -5577.973581 kJ/mol
# Density = 2.054538 g / cm^3
# Si number density = 20.592254 Si / 1000 Ang^3
#
#
#
# Elastic Constant Matrix: (Units=GPa)
#
#
# Indices 1 2 3 4 5 6 
#
# 1 22.0682 4.9135 -3.6662 0.0000 0.0000 0.0000
# 2 4.9135 181.2846 60.4358 0.0000 0.0000 0.0000
# 3 -3.6662 60.4358 86.9724 0.0000 0.0000 0.0000
# 4 0.0000 0.0000 0.0000 32.3136 0.0000 0.0000
# 5 0.0000 0.0000 0.0000 0.0000 17.6284 0.0000
# 6 0.0000 0.0000 0.0000 0.0000 0.0000 -13.0041
#
#
#
# Elastic Compliance Matrix: (Units=1/GPa)
#
#
# Indices 1 2 3 4 5 6 
#
# 1 0.046481 -0.002490 0.003689 0.000000 0.000000 0.000000
# 2 -0.002490 0.007313 -0.005186 0.000000 0.000000 0.000000
# 3 0.003689 -0.005186 0.015257 0.000000 0.000000 0.000000
# 4 0.000000 0.000000 0.000000 0.030947 0.000000 0.000000
# 5 0.000000 0.000000 0.000000 0.000000 0.056727 0.000000
# 6 0.000000 0.000000 0.000000 0.000000 0.000000 -0.076899
#
#
# Mechanical properties :
#
#
# Convention : Reuss Voigt Hill
#
# Bulk Modulus (GPa) = 16.37254 45.96573 31.16913
# Shear Modulus (GPa) = 46.22836 22.63039 34.42938
#
# Velocity S-wave (km/s) = 4.74322 3.31868 4.09339
# Velocity P-wave (km/s) = 6.16162 6.08729 6.12457
#
# Compressibility (1/GPa) = 0.06107788
#
# Stress axis : x y z
#
# Youngs Moduli (GPa) = 21.51401 136.74834 65.54197
#
# Poissons Ratio (x) = 0.34047 -0.24181
# Poissons Ratio (y) = 0.05357 0.33993
# Poissons Ratio (z) = -0.07937 0.70924
#
# Static dielectric constant tensor:
#      x y z
#    x 1.736780 0.000000 0.000000 
#    y 0.000000 1.746830 0.000000 
#    z 0.000000 0.000000 1.750390 
# 
# From -- ./inp_files/4172.got.cif
#   From: 2010.05.17/outbox.cif.g08.bks.cpg/sg26_3_cif.got.tgz:4172.got - 2010.06.04 01:07:29.
