data_PCOD9338115
_publ_section_title
;
Structure prediction by ZEFSAII (Michael W. Deem and Ramdas Pophale) SiO2 
 PCOD9338115
Probable space group: P M C 21
;
_chemical_formula_sum "Si O2"
_cell_formula_units_Z 32
_cell_length_a 8.465016
_cell_length_b 11.005915
_cell_length_c 14.377362
_cell_angle_alpha 90.000000
_cell_angle_beta 90.000000
_cell_angle_gamma 90.000000
_cell_volume 1339.470476
_symmetry_space_group_name_H-M "P M C 21"
_symmetry_group_IT_number 26
_symmetry_cell_setting 'orthorhombic'
loop_
_space_group_symop_operation_xyz
x,y,z
-x,-y,1/2+z
-x,y,z
x,-y,1/2+z
loop_
_atom_site_type_symbol
_atom_site_label
_atom_site_fract_x
_atom_site_fract_y
_atom_site_fract_z
Si Si1 0.819367 0.683652 0.214850
Si Si2 0.313070 0.690226 0.552344
Si Si3 0.312673 0.077852 0.617938
Si Si4 0.817879 0.157147 0.891748
Si Si5 0.814919 0.190901 0.450467
Si Si6 0.684077 0.930027 0.784016
Si Si7 0.187488 0.459654 0.443108
Si Si8 0.315408 0.564498 0.737171
O O1 0.774812 0.805272 0.160268
O O2 0.810272 0.726345 0.322597
O O3 0.706977 0.570915 0.195309
O O4 0.000000 0.648602 0.193950
O O5 0.500000 0.714550 0.554968
O O6 0.232417 0.796606 0.492845
O O7 0.279688 0.567238 0.493346
O O8 0.261744 0.659178 0.657841
O O9 0.500000 0.089785 0.631264
O O10 0.272055 0.088085 0.510268
O O11 0.263579 0.962341 0.679506
O O12 0.712259 0.055731 0.841151
O O13 0.000000 0.114018 0.891655
O O14 0.765003 0.325989 0.479584
O O15 0.000000 0.180229 0.466273
O O16 0.776982 0.168934 0.342661
O O17 0.500000 0.897901 0.783823
O O18 0.220813 0.446823 0.333101
O O19 0.000000 0.477968 0.457829
O O20 0.500000 0.586777 0.757349
#
# Coordination Sequence:
#
# PCOD9338115 Si02
#       8
#     4   4   4   4   4   4   4   4
#     4  10  19  33  57  87 119 155 197 249 298 354
#     4  11  23  38  59  89 123 161 203 249 303 367
#     4  10  21  38  63  93 121 159 207 255 306 363
#     4  10  20  36  60  87 116 153 196 246 302 355
#     4  11  24  42  64  91 124 163 207 256 309 368
#     4  10  22  41  65  91 121 158 202 255 307 363
#     4  11  24  41  61  89 124 164 205 253 307 364
#     4  11  23  37  57  87 122 163 203 247 304 366
#
# _framework density 23.890038000000001
#
# number of rings (size 3 to 8) (size 9 to 14) (size 15 to 20)
#    0.000    1.500    1.250    3.750    0.000    8.500 
#    2.250    0.000    0.000    0.000    0.000    0.000 
#    0.000    0.000    0.000    0.000    0.000    0.000 
#
# Total GULP energy -179064.228890 kJ/mol
# GULP energy per Si atom -5595.757153 kJ/mol
# Density = 2.383566 g / cm^3
# Si number density = 23.890038 Si / 1000 Ang^3
#
#
#
# Elastic Constant Matrix: (Units=GPa)
#
#
# Indices 1 2 3 4 5 6 
#
# 1 38.3072 -2.3955 3.7431 0.0000 0.0000 0.0000
# 2 -2.3955 66.5112 0.8930 0.0000 0.0000 0.0000
# 3 3.7431 0.8930 112.5828 0.0000 0.0000 0.0000
# 4 0.0000 0.0000 0.0000 40.4446 0.0000 0.0000
# 5 0.0000 0.0000 0.0000 0.0000 25.2243 0.0000
# 6 0.0000 0.0000 0.0000 0.0000 0.0000 19.7481
#
#
#
# Elastic Compliance Matrix: (Units=1/GPa)
#
#
# Indices 1 2 3 4 5 6 
#
# 1 0.026251 0.000957 -0.000880 0.000000 0.000000 0.000000
# 2 0.000957 0.015072 -0.000151 0.000000 0.000000 0.000000
# 3 -0.000880 -0.000151 0.008913 0.000000 0.000000 0.000000
# 4 0.000000 0.000000 0.000000 0.024725 0.000000 0.000000
# 5 0.000000 0.000000 0.000000 0.000000 0.039644 0.000000
# 6 0.000000 0.000000 0.000000 0.000000 0.000000 0.050638
#
#
# Mechanical properties :
#
#
# Convention : Reuss Voigt Hill
#
# Bulk Modulus (GPa) = 19.96559 24.65359 22.30959
# Shear Modulus (GPa) = 27.45948 31.42745 29.44346
#
# Velocity S-wave (km/s) = 3.39397 3.63092 3.51445
# Velocity P-wave (km/s) = 4.87177 5.28395 5.08204
#
# Compressibility (1/GPa) = 0.05008618
#
# Stress axis : x y z
#
# Youngs Moduli (GPa) = 38.09426 66.35007 112.19795
#
# Poissons Ratio (x) = -0.06352 0.09877
# Poissons Ratio (y) = -0.03647 0.01698
# Poissons Ratio (z) = 0.03354 0.01004
#
# Static dielectric constant tensor:
#      x y z
#    x 1.807480 0.000000 0.000000 
#    y 0.000000 1.943920 0.000000 
#    z 0.000000 0.000000 1.976530 
# 
# From -- ./inp_files/4185.got.cif
#   From: 2010.05.17/outbox.cif.g08.bks.cpg/sg26_3_cif.got.tgz:4185.got - 2010.06.04 01:07:29.
