data_PCOD9338541
_publ_section_title
;
Structure prediction by ZEFSAII (Michael W. Deem and Ramdas Pophale) SiO2 
 PCOD9338541
Probable space group: P M C 21
;
_chemical_formula_sum "Si O2"
_cell_formula_units_Z 32
_cell_length_a 9.063701
_cell_length_b 12.123326
_cell_length_c 15.169441
_cell_angle_alpha 90.000000
_cell_angle_beta 90.000000
_cell_angle_gamma 90.000000
_cell_volume 1666.851580
_symmetry_space_group_name_H-M "P M C 21"
_symmetry_group_IT_number 26
_symmetry_cell_setting 'orthorhombic'
loop_
_space_group_symop_operation_xyz
x,y,z
-x,-y,1/2+z
-x,y,z
x,-y,1/2+z
loop_
_atom_site_type_symbol
_atom_site_label
_atom_site_fract_x
_atom_site_fract_y
_atom_site_fract_z
Si Si1 0.175885 0.487954 0.822570
Si Si2 0.667070 0.249029 0.088407
Si Si3 0.324084 0.907690 0.961646
Si Si4 0.677088 0.353195 0.460319
Si Si5 0.323647 0.496149 0.632679
Si Si6 0.330564 0.730390 0.381354
Si Si7 0.169377 0.965854 0.619600
Si Si8 0.828238 0.056902 0.815996
O O1 0.243683 0.590224 0.877150
O O2 0.237914 0.478058 0.723397
O O3 0.234570 0.378820 0.871243
O O4 0.000000 0.493953 0.822279
O O5 0.500000 0.227438 0.120518
O O6 0.701244 0.376345 0.106691
O O7 0.777306 0.160084 0.127228
O O8 0.668852 0.234153 0.983230
O O9 0.500000 0.921516 0.952578
O O10 0.268865 0.969448 0.049382
O O11 0.291573 0.777010 0.966159
O O12 0.243350 0.966009 0.879936
O O13 0.500000 0.367817 0.449817
O O14 0.718917 0.417083 0.550899
O O15 0.500000 0.481446 0.646854
O O16 0.500000 0.707804 0.355220
O O17 0.260160 0.829883 0.327681
O O18 0.179889 0.019447 0.715324
O O19 0.000000 0.969786 0.589194
O O20 0.000000 0.073141 0.840048
#
# Coordination Sequence:
#
# PCOD9338541 Si02
#       8
#     4   4   4   4   4   4   4   4
#     4  12  26  41  63  97 132 167 206 256 319 383
#     4  10  21  40  68  94 120 159 214 265 311 369
#     4  11  24  42  66  94 124 167 218 263 310 372
#     4  10  23  45  67  91 124 167 217 263 311 369
#     4  10  22  43  67  92 124 165 213 266 310 365
#     4  11  22  42  69  94 122 163 214 264 310 370
#     4  11  25  42  63  92 132 168 204 259 319 381
#     4  11  25  43  63  94 130 168 208 258 324 379
#
# _framework density 19.197870999999999
#
# number of rings (size 3 to 8) (size 9 to 14) (size 15 to 20)
#    0.000    1.250    2.500    2.625    3.500    4.500 
#    0.000    0.000    0.000    0.000    0.000    0.000 
#    0.000    0.000    0.000    0.000    0.000    0.000 
#
# Total GULP energy -178889.269767 kJ/mol
# GULP energy per Si atom -5590.289680 kJ/mol
# Density = 1.915418 g / cm^3
# Si number density = 19.197871 Si / 1000 Ang^3
#
#
#
# Elastic Constant Matrix: (Units=GPa)
#
#
# Indices 1 2 3 4 5 6 
#
# 1 59.0513 19.6192 14.3699 0.0000 0.0000 0.0000
# 2 19.6192 61.2110 -8.9287 0.0000 0.0000 0.0000
# 3 14.3699 -8.9287 40.6998 0.0000 0.0000 0.0000
# 4 0.0000 0.0000 0.0000 26.6362 0.0000 0.0000
# 5 0.0000 0.0000 0.0000 0.0000 23.7316 0.0000
# 6 0.0000 0.0000 0.0000 0.0000 0.0000 19.4886
#
#
#
# Elastic Compliance Matrix: (Units=1/GPa)
#
#
# Indices 1 2 3 4 5 6 
#
# 1 0.022111 -0.008498 -0.009671 0.000000 0.000000 0.000000
# 2 -0.008498 0.020143 0.007419 0.000000 0.000000 0.000000
# 3 -0.009671 0.007419 0.029612 0.000000 0.000000 0.000000
# 4 0.000000 0.000000 0.000000 0.037543 0.000000 0.000000
# 5 0.000000 0.000000 0.000000 0.000000 0.042138 0.000000
# 6 0.000000 0.000000 0.000000 0.000000 0.000000 0.051312
#
#
# Mechanical properties :
#
#
# Convention : Reuss Voigt Hill
#
# Bulk Modulus (GPa) = 19.85415 23.45364 21.65390
# Shear Modulus (GPa) = 20.73422 23.03138 21.88280
#
# Velocity S-wave (km/s) = 3.28994 3.46740 3.37984
# Velocity P-wave (km/s) = 4.97955 5.31731 5.15120
#
# Compressibility (1/GPa) = 0.05036731
#
# Stress axis : x y z
#
# Youngs Moduli (GPa) = 45.22613 49.64547 33.76972
#
# Poissons Ratio (x) = 0.42187 0.32659
# Poissons Ratio (y) = 0.38432 -0.25055
# Poissons Ratio (z) = 0.43738 -0.36833
#
# Static dielectric constant tensor:
#      x y z
#    x 1.663610 0.000000 0.000000 
#    y 0.000000 1.660650 0.000000 
#    z 0.000000 0.000000 1.657080 
# 
# From -- ./inp_files/4194.got.cif
#   From: 2010.05.17/outbox.cif.g08.bks.cpg/sg26_3_cif.got.tgz:4194.got - 2010.06.04 01:07:29.
