data_PCOD9338798
_publ_section_title
;
Structure prediction by ZEFSAII (Michael W. Deem and Ramdas Pophale) SiO2 
 PCOD9338798
Probable space group: P C C 2
;
_chemical_formula_sum "Si O2"
_cell_formula_units_Z 28
_cell_length_a 17.383041
_cell_length_b 9.702988
_cell_length_c 8.421521
_cell_angle_alpha 90.000000
_cell_angle_beta 90.000000
_cell_angle_gamma 90.000000
_cell_volume 1420.436373
_symmetry_space_group_name_H-M "P C C 2"
_symmetry_group_IT_number 27
_symmetry_cell_setting 'orthorhombic'
loop_
_space_group_symop_operation_xyz
x,y,z
-x,-y,z
-x,y,1/2+z
x,-y,1/2+z
loop_
_atom_site_type_symbol
_atom_site_label
_atom_site_fract_x
_atom_site_fract_y
_atom_site_fract_z
Si Si1 0.774500 0.373738 0.351660
Si Si2 0.749386 0.060229 0.876695
Si Si3 0.263522 0.643591 0.994358
Si Si4 0.000000 0.000000 0.587411
Si Si5 0.500000 0.500000 0.010814
Si Si6 0.321896 0.161431 0.060396
Si Si7 0.412175 0.650981 0.765877
Si Si8 0.106345 0.862158 0.344454
O O1 0.732432 0.383175 0.181585
O O2 0.789791 0.524566 0.421727
O O3 0.717023 0.290799 0.470303
O O4 0.852401 0.285304 0.333837
O O5 0.734747 0.108859 0.698289
O O6 0.822925 0.964233 0.879512
O O7 0.761182 0.197733 0.977896
O O8 0.677915 0.966844 0.939302
O O9 0.338397 0.633509 0.879845
O O10 0.044926 0.887400 0.482987
O O11 0.938017 0.917427 0.691064
O O12 0.569224 0.538984 0.129199
O O13 0.480339 0.627407 0.893777
O O14 0.395760 0.213278 0.160153
#
# Coordination Sequence:
#
# PCOD9338798 Si02
#       8
#     4   4   4   2   2   4   4   4
#     4  11  21  34  56  86 117 145 188 249 296 339
#     4  10  19  35  59  85 114 145 186 244 297 340
#     4  11  21  35  59  89 117 147 188 250 303 342
#     4  10  20  34  58  80 114 156 194 234 272 366
#     4  10  20  38  58  82 124 162 192 232 270 360
#     4  10  20  35  57  86 115 144 187 242 289 337
#     4  10  21  35  58  88 116 155 196 229 289 345
#     4  10  20  36  57  84 110 150 196 232 291 347
#
# _framework density 19.712254000000001
#
# number of rings (size 3 to 8) (size 9 to 14) (size 15 to 20)
#    0.000    1.714    0.000    7.714    0.000    1.143 
#    0.000    0.000    0.000   24.857    0.000    0.000 
#    0.000    0.000    0.000    0.000    0.000    0.000 
#
# Total GULP energy -155968.094380 kJ/mol
# GULP energy per Si atom -5570.289085 kJ/mol
# Density = 1.966739 g / cm^3
# Si number density = 19.712254 Si / 1000 Ang^3
#
#
#
# Elastic Constant Matrix: (Units=GPa)
#
#
# Indices 1 2 3 4 5 6 
#
# 1 61.3802 33.8336 36.0075 0.0000 0.0000 0.0000
# 2 33.8336 95.9705 26.3041 0.0000 0.0000 0.0000
# 3 36.0075 26.3041 123.6638 0.0000 0.0000 0.0000
# 4 0.0000 0.0000 0.0000 29.6975 0.0000 0.0000
# 5 0.0000 0.0000 0.0000 0.0000 20.6899 0.0000
# 6 0.0000 0.0000 0.0000 0.0000 0.0000 28.2231
#
#
#
# Elastic Compliance Matrix: (Units=1/GPa)
#
#
# Indices 1 2 3 4 5 6 
#
# 1 0.023087 -0.006686 -0.005300 0.000000 0.000000 0.000000
# 2 -0.006686 0.013001 -0.000819 0.000000 0.000000 0.000000
# 3 -0.005300 -0.000819 0.009804 0.000000 0.000000 0.000000
# 4 0.000000 0.000000 0.000000 0.033673 0.000000 0.000000
# 5 0.000000 0.000000 0.000000 0.000000 0.048333 0.000000
# 6 0.000000 0.000000 0.000000 0.000000 0.000000 0.035432
#
#
# Mechanical properties :
#
#
# Convention : Reuss Voigt Hill
#
# Bulk Modulus (GPa) = 49.30482 52.58945 50.94713
# Shear Modulus (GPa) = 25.54933 28.04673 26.79803
#
# Velocity S-wave (km/s) = 3.60406 3.77610 3.69109
# Velocity P-wave (km/s) = 6.51042 6.76376 6.63830
#
# Compressibility (1/GPa) = 0.02028199
#
# Stress axis : x y z
#
# Youngs Moduli (GPa) = 43.31516 76.91447 102.00160
#
# Poissons Ratio (x) = 0.51428 0.54060
# Poissons Ratio (y) = 0.28962 0.08350
# Poissons Ratio (z) = 0.22957 0.06296
#
# Static dielectric constant tensor:
#      x y z
#    x 1.740940 0.000000 0.000000 
#    y 0.000000 1.722540 0.000000 
#    z 0.000000 0.000000 1.729700 
# 
# From -- ./inp_files/1706.got.cif
#   From: 2010.05.17/outbox.cif.g08.bks.cpg/sg27_1_cif.got.tgz:1706.got - 2010.06.04 01:11:05.
