data_PCOD9338285
_publ_section_title
;
Structure prediction by ZEFSAII (Michael W. Deem and Ramdas Pophale) SiO2 
 PCOD9338285
Probable space group: P M C 21
;
_chemical_formula_sum "Si O2"
_cell_formula_units_Z 32
_cell_length_a 7.396475
_cell_length_b 8.317803
_cell_length_c 19.579822
_cell_angle_alpha 90.000000
_cell_angle_beta 90.000000
_cell_angle_gamma 90.000000
_cell_volume 1204.598071
_symmetry_space_group_name_H-M "P M C 21"
_symmetry_group_IT_number 26
_symmetry_cell_setting 'orthorhombic'
loop_
_space_group_symop_operation_xyz
x,y,z
-x,-y,1/2+z
-x,y,z
x,-y,1/2+z
loop_
_atom_site_type_symbol
_atom_site_label
_atom_site_fract_x
_atom_site_fract_y
_atom_site_fract_z
Si Si1 0.780380 0.484138 0.849170
Si Si2 0.785674 0.194547 0.420686
Si Si3 0.207500 0.505341 0.093774
Si Si4 0.221490 0.313796 0.718393
Si Si5 0.703795 0.032469 0.554337
Si Si6 0.780032 0.708351 0.474351
Si Si7 0.280847 0.179513 0.174195
Si Si8 0.208519 0.009305 0.801402
O O1 0.714304 0.642019 0.887858
O O2 0.724175 0.452918 0.771960
O O3 0.730418 0.333355 0.897284
O O4 0.000000 0.488922 0.848928
O O5 0.000000 0.195479 0.408503
O O6 0.767567 0.167399 0.501398
O O7 0.713688 0.049187 0.373307
O O8 0.285278 0.643696 0.142384
O O9 0.212526 0.344829 0.141388
O O10 0.000000 0.548471 0.079392
O O11 0.283304 0.438735 0.022911
O O12 0.286756 0.152418 0.755479
O O13 0.000000 0.310551 0.714624
O O14 0.500000 0.071853 0.570584
O O15 0.711726 0.871134 0.507607
O O16 0.787941 0.966775 0.624739
O O17 0.000000 0.716460 0.478082
O O18 0.500000 0.183144 0.172460
O O19 0.216256 0.143221 0.250310
O O20 0.000000 0.057088 0.813968
#
# Coordination Sequence:
#
# PCOD9338285 Si02
#       8
#     4   4   4   4   4   4   4   4
#     4   9  17  30  50  76 103 129 163 210 258 303
#     4  10  20  34  55  81 106 135 172 213 258 308
#     4   9  17  31  52  75  98 128 168 212 256 302
#     4   9  17  30  50  76 103 129 163 210 258 303
#     4  10  21  36  53  75 105 140 175 211 254 305
#     4   9  17  31  52  75  98 128 168 212 256 302
#     4  10  21  36  53  75 105 140 175 211 254 305
#     4  10  20  34  55  81 106 135 172 213 258 308
#
# _framework density 26.564878
#
# number of rings (size 3 to 8) (size 9 to 14) (size 15 to 20)
#    0.000    2.500    0.000    2.250    0.000    7.000 
#    0.000    3.750    0.000    6.000    0.000    0.000 
#    0.000    0.000    0.000    0.000    0.000    0.000 
#
# Total GULP energy -178938.497551 kJ/mol
# GULP energy per Si atom -5591.828048 kJ/mol
# Density = 2.650442 g / cm^3
# Si number density = 26.564878 Si / 1000 Ang^3
#
#
#
# Elastic Constant Matrix: (Units=GPa)
#
#
# Indices 1 2 3 4 5 6 
#
# 1 102.1809 4.6922 0.7558 0.0000 0.0000 0.0000
# 2 4.6922 79.8871 9.6623 0.0000 0.0000 0.0000
# 3 0.7558 9.6623 146.2628 0.0000 0.0000 0.0000
# 4 0.0000 0.0000 0.0000 51.8004 0.0000 0.0000
# 5 0.0000 0.0000 0.0000 0.0000 -150.2328 0.0000
# 6 0.0000 0.0000 0.0000 0.0000 0.0000 68.1208
#
#
#
# Elastic Compliance Matrix: (Units=1/GPa)
#
#
# Indices 1 2 3 4 5 6 
#
# 1 0.009813 -0.000575 -0.000013 0.000000 0.000000 0.000000
# 2 -0.000575 0.012652 -0.000833 0.000000 0.000000 0.000000
# 3 -0.000013 -0.000833 0.006892 0.000000 0.000000 0.000000
# 4 0.000000 0.000000 0.000000 0.019305 0.000000 0.000000
# 5 0.000000 0.000000 0.000000 0.000000 -0.006656 0.000000
# 6 0.000000 0.000000 0.000000 0.000000 0.000000 0.014680
#
#
# Mechanical properties :
#
#
# Convention : Reuss Voigt Hill
#
# Bulk Modulus (GPa) = 37.71242 39.83907 38.77574
# Shear Modulus (GPa) = 73.13649 14.81904 43.97776
#
# Velocity S-wave (km/s) = 5.25272 2.36443 4.07318
# Velocity P-wave (km/s) = 7.14249 4.74168 6.06213
#
# Compressibility (1/GPa) = 0.02651647
#
# Stress axis : x y z
#
# Youngs Moduli (GPa) = 101.90507 79.03787 145.09382
#
# Poissons Ratio (x) = 0.04543 0.00185
# Poissons Ratio (y) = 0.05858 0.12084
# Poissons Ratio (z) = 0.00130 0.06583
#
# Static dielectric constant tensor:
#      x y z
#    x 2.074910 0.000000 0.000000 
#    y 0.000000 2.148700 0.000000 
#    z 0.000000 0.000000 2.021000 
# 
# From -- ./inp_files/5339.got.cif
#   From: 2010.05.17/outbox.cif.g08.bks.cpg/sg26_3_cif.got.tgz:5339.got - 2010.06.04 01:07:29.
