data_PCOD9338202
_publ_section_title
;
Structure prediction by ZEFSAII (Michael W. Deem and Ramdas Pophale) SiO2 
 PCOD9338202
Probable space group: P M C 21
;
_chemical_formula_sum "Si O2"
_cell_formula_units_Z 20
_cell_length_a 26.468004
_cell_length_b 7.344671
_cell_length_c 4.951878
_cell_angle_alpha 90.000000
_cell_angle_beta 90.000000
_cell_angle_gamma 90.000000
_cell_volume 962.639049
_symmetry_space_group_name_H-M "P M C 21"
_symmetry_group_IT_number 26
_symmetry_cell_setting 'orthorhombic'
loop_
_space_group_symop_operation_xyz
x,y,z
-x,-y,1/2+z
-x,y,z
x,-y,1/2+z
loop_
_atom_site_type_symbol
_atom_site_label
_atom_site_fract_x
_atom_site_fract_y
_atom_site_fract_z
Si Si1 0.500000 0.117738 0.490000
Si Si2 0.705504 0.375485 0.427334
Si Si3 0.797523 0.881346 0.774146
Si Si4 0.000000 0.374660 0.295122
Si Si5 0.591603 0.624091 0.832671
Si Si6 0.891417 0.371722 0.417343
O O1 0.450810 0.233557 0.413101
O O2 0.500000 0.060596 0.801246
O O3 0.710974 0.550313 0.230174
O O4 0.747728 0.231960 0.348274
O O5 0.648522 0.305363 0.380382
O O6 0.846129 0.761721 0.848898
O O7 0.798168 0.059327 0.963649
O O8 0.946624 0.283687 0.364176
O O9 0.000000 0.445441 0.988651
O O10 0.586272 0.551115 0.529164
O O11 0.888383 0.545349 0.215965
#
# Coordination Sequence:
#
# PCOD9338202 Si02
#       6
#     2   4   4   2   4   4
#     4  12  24  36  56  86 118 146 176 218 274 324
#     4  10  21  39  61  81 103 143 189 225 263 315
#     4  12  24  36  53  82 115 143 173 220 277 324
#     4   8  16  30  54  80  98 130 182 228 258 298
#     4  10  21  39  61  81 107 144 187 225 263 315
#     4  10  19  36  58  78 104 141 184 222 260 318
#
# _framework density 20.776216999999999
#
# number of rings (size 3 to 8) (size 9 to 14) (size 15 to 20)
#    0.000    1.600    0.000    5.400    0.000    1.600 
#    0.000    1.000    0.000    0.000    0.000    0.000 
#    0.000    0.000    0.000    0.000    0.000    0.000 
#
# Total GULP energy -111810.334498 kJ/mol
# GULP energy per Si atom -5590.516725 kJ/mol
# Density = 2.072893 g / cm^3
# Si number density = 20.776217 Si / 1000 Ang^3
#
#
#
# Elastic Constant Matrix: (Units=GPa)
#
#
# Indices 1 2 3 4 5 6 
#
# 1 151.3611 53.8466 -9.9380 0.0000 0.0000 0.0000
# 2 53.8466 27.8447 -12.3367 0.0000 0.0000 0.0000
# 3 -9.9380 -12.3367 63.2570 0.0000 0.0000 0.0000
# 4 0.0000 0.0000 0.0000 22.4106 0.0000 0.0000
# 5 0.0000 0.0000 0.0000 0.0000 23.9017 0.0000
# 6 0.0000 0.0000 0.0000 0.0000 0.0000 -37.2938
#
#
#
# Elastic Compliance Matrix: (Units=1/GPa)
#
#
# Indices 1 2 3 4 5 6 
#
# 1 0.022790 -0.046503 -0.005489 0.000000 0.000000 0.000000
# 2 -0.046503 0.134201 0.018867 0.000000 0.000000 0.000000
# 3 -0.005489 0.018867 0.018626 0.000000 0.000000 0.000000
# 4 0.000000 0.000000 0.000000 0.044622 0.000000 0.000000
# 5 0.000000 0.000000 0.000000 0.000000 0.041838 0.000000
# 6 0.000000 0.000000 0.000000 0.000000 0.000000 -0.026814
#
#
# Mechanical properties :
#
#
# Convention : Reuss Voigt Hill
#
# Bulk Modulus (GPa) = 9.14359 33.95627 21.54993
# Shear Modulus (GPa) = 14.79427 15.86310 15.32869
#
# Velocity S-wave (km/s) = 2.67137 2.76619 2.71919
# Velocity P-wave (km/s) = 3.73169 5.15574 4.50040
#
# Compressibility (1/GPa) = 0.10936618
#
# Stress axis : x y z
#
# Youngs Moduli (GPa) = 43.87921 7.45149 53.68919
#
# Poissons Ratio (x) = 0.34652 0.29470
# Poissons Ratio (y) = 2.04053 -1.01295
# Poissons Ratio (z) = 0.24085 -0.14059
#
# Static dielectric constant tensor:
#      x y z
#    x 1.747590 0.000000 0.000000 
#    y 0.000000 1.696890 0.000000 
#    z 0.000000 0.000000 1.710290 
# 
# From -- ./inp_files/997.got.cif
#   From: 2010.05.17/outbox.cif.g08.bks.cpg/sg26_1_cif.got.tgz:997.got - 2010.06.04 01:07:29.
