data_PCOD9338082
_publ_section_title
;
Structure prediction by ZEFSAII (Michael W. Deem and Ramdas Pophale) SiO2 
 PCOD9338082
Probable space group: P M C 21
;
_chemical_formula_sum "Si O2"
_cell_formula_units_Z 24
_cell_length_a 8.181832
_cell_length_b 26.052869
_cell_length_c 5.002533
_cell_angle_alpha 90.000000
_cell_angle_beta 90.000000
_cell_angle_gamma 90.000000
_cell_volume 1066.340921
_symmetry_space_group_name_H-M "P M C 21"
_symmetry_group_IT_number 26
_symmetry_cell_setting 'orthorhombic'
loop_
_space_group_symop_operation_xyz
x,y,z
-x,-y,1/2+z
-x,y,z
x,-y,1/2+z
loop_
_atom_site_type_symbol
_atom_site_label
_atom_site_fract_x
_atom_site_fract_y
_atom_site_fract_z
Si Si1 0.199106 0.859965 0.202710
Si Si2 0.197410 0.201883 0.201022
Si Si3 0.313791 0.307892 0.451886
Si Si4 0.303175 0.531499 0.210645
Si Si5 0.800409 0.969211 0.423512
Si Si6 0.185790 0.637832 0.453289
O O1 0.250144 0.815089 0.406722
O O2 0.257073 0.914641 0.312103
O O3 0.000000 0.861879 0.208285
O O4 0.243944 0.843833 0.904727
O O5 0.267325 0.254351 0.314865
O O6 0.000000 0.206473 0.201550
O O7 0.500000 0.307894 0.542133
O O8 0.210261 0.321218 0.714340
O O9 0.291127 0.349327 0.214512
O O10 0.500000 0.537145 0.220248
O O11 0.256857 0.485704 0.413923
O O12 0.228171 0.583737 0.318634
O O13 0.000000 0.967144 0.424561
O O14 0.751313 0.985838 0.718892
O O15 0.000000 0.639213 0.545831
#
# Coordination Sequence:
#
# PCOD9338082 Si02
#       6
#     4   4   4   4   4   4
#     4   9  17  28  45  70 102 141 180 225 282 340
#     4  10  19  33  52  75 106 142 184 232 286 343
#     4  12  25  42  63  88 120 157 200 247 300 358
#     4  10  21  38  61  89 123 161 198 239 291 347
#     4   9  15  23  37  61  97 137 174 215 271 337
#     4  12  25  42  65  93 124 158 200 248 298 351
#
# _framework density 22.506872999999999
#
# number of rings (size 3 to 8) (size 9 to 14) (size 15 to 20)
#    0.000    1.667    0.000    6.000    0.000    7.333 
#    0.000    0.000    0.000    0.000    0.000    0.000 
#    0.000   13.333    0.000    0.000    0.000    0.000 
#
# Total GULP energy -134243.697048 kJ/mol
# GULP energy per Si atom -5593.487377 kJ/mol
# Density = 2.245565 g / cm^3
# Si number density = 22.506873 Si / 1000 Ang^3
#
#
#
# Elastic Constant Matrix: (Units=GPa)
#
#
# Indices 1 2 3 4 5 6 
#
# 1 27.0621 0.5435 -4.5145 0.0000 0.0000 0.0000
# 2 0.5435 57.8733 -23.7301 0.0000 0.0000 0.0000
# 3 -4.5145 -23.7301 63.1884 0.0000 0.0000 0.0000
# 4 0.0000 0.0000 0.0000 34.2441 0.0000 0.0000
# 5 0.0000 0.0000 0.0000 0.0000 8.6622 0.0000
# 6 0.0000 0.0000 0.0000 0.0000 0.0000 5.9878
#
#
#
# Elastic Compliance Matrix: (Units=1/GPa)
#
#
# Indices 1 2 3 4 5 6 
#
# 1 0.037436 0.000881 0.003005 0.000000 0.000000 0.000000
# 2 0.000881 0.020445 0.007741 0.000000 0.000000 0.000000
# 3 0.003005 0.007741 0.018947 0.000000 0.000000 0.000000
# 4 0.000000 0.000000 0.000000 0.029202 0.000000 0.000000
# 5 0.000000 0.000000 0.000000 0.000000 0.115444 0.000000
# 6 0.000000 0.000000 0.000000 0.000000 0.000000 0.167007
#
#
# Mechanical properties :
#
#
# Convention : Reuss Voigt Hill
#
# Bulk Modulus (GPa) = 9.99180 10.30240 10.14710
# Shear Modulus (GPa) = 12.54428 21.50047 17.02238
#
# Velocity S-wave (km/s) = 2.36339 3.09412 2.75311
# Velocity P-wave (km/s) = 3.44914 4.16559 3.82418
#
# Compressibility (1/GPa) = 0.10008211
#
# Stress axis : x y z
#
# Youngs Moduli (GPa) = 26.71242 48.91195 52.77748
#
# Poissons Ratio (x) = -0.04308 -0.15862
# Poissons Ratio (y) = -0.02353 -0.40855
# Poissons Ratio (z) = -0.08028 -0.37862
#
# Static dielectric constant tensor:
#      x y z
#    x 1.802930 0.000000 0.000000 
#    y 0.000000 1.836120 0.000000 
#    z 0.000000 0.000000 1.781380 
# 
# From -- ./inp_files/192.got.cif
#   From: 2010.05.17/outbox.cif.g08.bks.cpg/sg26_1_cif.got.tgz:192.got - 2010.06.04 01:07:29.
