data_PCOD9338771
_publ_section_title
;
Structure prediction by ZEFSAII (Michael W. Deem and Ramdas Pophale) SiO2 
 PCOD9338771
Probable space group: P C C 2
;
_chemical_formula_sum "Si O2"
_cell_formula_units_Z 22
_cell_length_a 8.257505
_cell_length_b 11.931837
_cell_length_c 8.713712
_cell_angle_alpha 90.000000
_cell_angle_beta 90.000000
_cell_angle_gamma 90.000000
_cell_volume 858.537677
_symmetry_space_group_name_H-M "P C C 2"
_symmetry_group_IT_number 27
_symmetry_cell_setting 'orthorhombic'
loop_
_space_group_symop_operation_xyz
x,y,z
-x,-y,z
-x,y,1/2+z
x,-y,1/2+z
loop_
_atom_site_type_symbol
_atom_site_label
_atom_site_fract_x
_atom_site_fract_y
_atom_site_fract_z
Si Si1 0.378727 0.634300 0.442190
Si Si2 0.000000 0.000000 0.327818
Si Si3 0.295741 0.096397 0.627310
Si Si4 0.147990 0.222275 0.381097
Si Si5 0.718547 0.432454 0.786862
Si Si6 0.651089 0.862089 0.088990
O O1 0.333228 0.586991 0.611095
O O2 0.268552 0.563164 0.325556
O O3 0.561477 0.610562 0.384926
O O4 0.350639 0.766084 0.461291
O O5 0.848089 0.046998 0.229207
O O6 0.029897 0.117397 0.416524
O O7 0.251711 0.207536 0.534516
O O8 0.478961 0.123242 0.675865
O O9 0.316877 0.984835 0.520447
O O10 0.133269 0.353429 0.342324
O O11 0.229731 0.179169 0.222977
#
# Coordination Sequence:
#
# PCOD9338771 Si02
#       6
#     4   2   4   4   4   4
#     4  10  18  34  51  89 121 155 185 250 309 365
#     4  10  22  36  54  82 118 164 206 248 302 378
#     4  10  19  36  54  80 118 156 198 251 312 372
#     4  10  20  37  56  87 119 158 204 252 309 377
#     4  10  19  32  57  85 129 151 198 243 317 370
#     4   9  20  33  55  87 117 148 197 255 318 371
#
# _framework density 25.624967999999999
#
# number of rings (size 3 to 8) (size 9 to 14) (size 15 to 20)
#    0.000    2.182    1.818    2.727    0.000    5.818 
#    0.000    0.000    0.000    0.000    0.000   58.545 
#    0.000    0.000    0.000    0.000    0.000    0.000 
#
# Total GULP energy -122501.755524 kJ/mol
# GULP energy per Si atom -5568.261615 kJ/mol
# Density = 2.556664 g / cm^3
# Si number density = 25.624968 Si / 1000 Ang^3
#
#
#
# Elastic Constant Matrix: (Units=GPa)
#
#
# Indices 1 2 3 4 5 6 
#
# 1 34.4023 10.9497 -2.3860 0.0000 0.0000 0.0000
# 2 10.9497 109.2177 11.4944 0.0000 0.0000 0.0000
# 3 -2.3860 11.4944 72.0923 0.0000 0.0000 0.0000
# 4 0.0000 0.0000 0.0000 37.0894 0.0000 0.0000
# 5 0.0000 0.0000 0.0000 0.0000 6.2730 0.0000
# 6 0.0000 0.0000 0.0000 0.0000 0.0000 28.2032
#
#
#
# Elastic Compliance Matrix: (Units=1/GPa)
#
#
# Indices 1 2 3 4 5 6 
#
# 1 0.030186 -0.003185 0.001507 0.000000 0.000000 0.000000
# 2 -0.003185 0.009648 -0.001644 0.000000 0.000000 0.000000
# 3 0.001507 -0.001644 0.014183 0.000000 0.000000 0.000000
# 4 0.000000 0.000000 0.000000 0.026962 0.000000 0.000000
# 5 0.000000 0.000000 0.000000 0.000000 0.159414 0.000000
# 6 0.000000 0.000000 0.000000 0.000000 0.000000 0.035457
#
#
# Mechanical properties :
#
#
# Convention : Reuss Voigt Hill
#
# Bulk Modulus (GPa) = 21.10870 28.42539 24.76704
# Shear Modulus (GPa) = 16.76247 27.35673 22.05960
#
# Velocity S-wave (km/s) = 2.56040 3.27093 2.93723
# Velocity P-wave (km/s) = 4.12266 5.03808 4.60318
#
# Compressibility (1/GPa) = 0.04737384
#
# Stress axis : x y z
#
# Youngs Moduli (GPa) = 33.12789 103.64493 70.50663
#
# Poissons Ratio (x) = 0.33010 -0.10624
# Poissons Ratio (y) = 0.10551 0.11589
# Poissons Ratio (z) = -0.04992 0.17037
#
# Static dielectric constant tensor:
#      x y z
#    x 2.234000 0.000000 0.000000 
#    y 0.000000 2.089650 0.000000 
#    z 0.000000 0.000000 2.056410 
# 
# From -- ./inp_files/1108.got.cif
#   From: 2010.05.17/outbox.cif.g08.bks.cpg/sg27_1_cif.got.tgz:1108.got - 2010.06.04 01:11:05.
