data_PCOD9338548
_publ_section_title
;
Structure prediction by ZEFSAII (Michael W. Deem and Ramdas Pophale) SiO2 
 PCOD9338548
Probable space group: P M C 21
;
_chemical_formula_sum "Si O2"
_cell_formula_units_Z 20
_cell_length_a 14.646385
_cell_length_b 5.225005
_cell_length_c 9.400701
_cell_angle_alpha 90.000000
_cell_angle_beta 90.000000
_cell_angle_gamma 90.000000
_cell_volume 719.411533
_symmetry_space_group_name_H-M "P M C 21"
_symmetry_group_IT_number 26
_symmetry_cell_setting 'orthorhombic'
loop_
_space_group_symop_operation_xyz
x,y,z
-x,-y,1/2+z
-x,y,z
x,-y,1/2+z
loop_
_atom_site_type_symbol
_atom_site_label
_atom_site_fract_x
_atom_site_fract_y
_atom_site_fract_z
Si Si1 0.500000 0.991333 0.581950
Si Si2 0.343090 0.292459 0.253240
Si Si3 0.000000 0.112642 0.346542
Si Si4 0.500000 0.348557 0.816321
Si Si5 0.800575 0.337535 0.678352
Si Si6 0.000000 0.606038 0.184407
Si Si7 0.201755 0.030074 0.941188
O O1 0.589894 0.872793 0.655187
O O2 0.500000 0.900082 0.418749
O O3 0.500000 0.275183 0.647821
O O4 0.410227 0.483438 0.338832
O O5 0.278878 0.464019 0.152588
O O6 0.280100 0.134330 0.361312
O O7 0.096309 0.050646 0.416114
O O8 0.000000 0.413043 0.316965
O O9 0.000000 0.909341 0.216041
O O10 0.786217 0.063743 0.603094
O O11 0.898330 0.448482 0.627961
O O12 0.797901 0.291176 0.849142
#
# Coordination Sequence:
#
# PCOD9338548 Si02
#       7
#     2   4   2   2   4   2   4
#     4  11  26  46  69  97 131 173 223 287 356 430
#     4  11  24  43  70  98 132 175 230 287 350 424
#     4  10  21  44  68 103 145 194 240 290 349 417
#     4  11  26  46  69  97 131 173 223 287 356 430
#     4  11  24  43  68 102 140 185 234 289 349 419
#     4  10  21  44  68 103 145 194 240 290 349 417
#     4  11  24  43  68 102 140 185 234 289 349 419
#
# _framework density 27.800498000000001
#
# number of rings (size 3 to 8) (size 9 to 14) (size 15 to 20)
#    0.000    1.200    2.000    3.000    0.000   11.200 
#    0.000    2.000    0.000    0.000    0.000    0.000 
#    0.000    0.000    0.000    0.000    0.000    0.000 
#
# Total GULP energy -111872.004989 kJ/mol
# GULP energy per Si atom -5593.600249 kJ/mol
# Density = 2.773722 g / cm^3
# Si number density = 27.800498 Si / 1000 Ang^3
#
#
#
# Elastic Constant Matrix: (Units=GPa)
#
#
# Indices 1 2 3 4 5 6 
#
# 1 220.8837 33.1270 27.9365 0.0000 0.0000 0.0000
# 2 33.1270 53.4694 -5.2813 0.0000 0.0000 0.0000
# 3 27.9365 -5.2813 91.4854 0.0000 0.0000 0.0000
# 4 0.0000 0.0000 0.0000 21.7944 0.0000 0.0000
# 5 0.0000 0.0000 0.0000 0.0000 16.5182 0.0000
# 6 0.0000 0.0000 0.0000 0.0000 0.0000 52.2656
#
#
#
# Elastic Compliance Matrix: (Units=1/GPa)
#
#
# Indices 1 2 3 4 5 6 
#
# 1 0.005273 -0.003445 -0.001809 0.000000 0.000000 0.000000
# 2 -0.003445 0.021061 0.002268 0.000000 0.000000 0.000000
# 3 -0.001809 0.002268 0.011614 0.000000 0.000000 0.000000
# 4 0.000000 0.000000 0.000000 0.045883 0.000000 0.000000
# 5 0.000000 0.000000 0.000000 0.000000 0.060539 0.000000
# 6 0.000000 0.000000 0.000000 0.000000 0.000000 0.019133
#
#
# Mechanical properties :
#
#
# Convention : Reuss Voigt Hill
#
# Bulk Modulus (GPa) = 31.27475 53.04479 42.15977
# Shear Modulus (GPa) = 27.75698 38.78605 33.27151
#
# Velocity S-wave (km/s) = 3.16323 3.73923 3.46323
# Velocity P-wave (km/s) = 4.96140 6.14528 5.58480
#
# Compressibility (1/GPa) = 0.03197468
#
# Stress axis : x y z
#
# Youngs Moduli (GPa) = 189.65258 47.48126 86.10265
#
# Poissons Ratio (x) = 0.16359 0.15576
# Poissons Ratio (y) = 0.65344 -0.19527
# Poissons Ratio (z) = 0.34309 -0.10768
#
# Static dielectric constant tensor:
#      x y z
#    x 2.081190 0.000000 0.000000 
#    y 0.000000 2.186020 0.000000 
#    z 0.000000 0.000000 2.275190 
# 
# From -- ./inp_files/3443.got.cif
#   From: 2010.05.17/outbox.cif.g08.bks.cpg/sg26_2_cif.got.tgz:3443.got - 2010.06.04 01:07:29.
