data_PCOD9338642
_publ_section_title
;
Structure prediction by ZEFSAII (Michael W. Deem and Ramdas Pophale) SiO2 
 PCOD9338642
Probable space group: P M C 21
;
_chemical_formula_sum "Si O2"
_cell_formula_units_Z 32
_cell_length_a 15.413194
_cell_length_b 7.263396
_cell_length_c 11.910004
_cell_angle_alpha 90.000000
_cell_angle_beta 90.000000
_cell_angle_gamma 90.000000
_cell_volume 1333.350336
_symmetry_space_group_name_H-M "P M C 21"
_symmetry_group_IT_number 26
_symmetry_cell_setting 'orthorhombic'
loop_
_space_group_symop_operation_xyz
x,y,z
-x,-y,1/2+z
-x,y,z
x,-y,1/2+z
loop_
_atom_site_type_symbol
_atom_site_label
_atom_site_fract_x
_atom_site_fract_y
_atom_site_fract_z
Si Si1 0.156155 0.697574 0.468850
Si Si2 0.283363 0.390972 0.169286
Si Si3 0.902054 0.288802 0.394960
Si Si4 0.765966 0.205014 0.733690
Si Si5 0.404213 0.511130 0.501564
Si Si6 0.285685 0.197982 0.407889
Si Si7 0.907304 0.920348 0.661878
Si Si8 0.600127 0.872157 0.346677
O O1 0.232697 0.679758 0.560571
O O2 0.116798 0.502037 0.427678
O O3 0.195072 0.791235 0.359164
O O4 0.092115 0.820965 0.541992
O O5 0.236447 0.583452 0.197325
O O6 0.284500 0.263016 0.277691
O O7 0.381111 0.420959 0.126201
O O8 0.815575 0.186801 0.440086
O O9 0.901628 0.233521 0.262027
O O10 0.000000 0.242611 0.434752
O O11 0.664860 0.148076 0.740670
O O12 0.828303 0.062282 0.672466
O O13 0.500000 0.430323 0.495412
O O14 0.331177 0.364224 0.472040
O O15 0.399654 0.679541 0.413816
O O16 0.349077 0.025495 0.418989
O O17 0.000000 0.017138 0.681350
O O18 0.500000 0.920067 0.322726
#
# Coordination Sequence:
#
# PCOD9338642 Si02
#       8
#     4   4   4   4   4   4   4   4
#     4  12  22  45  70 103 143 195 243 300 373 438
#     4  12  22  43  71 101 141 196 237 305 374 437
#     4  11  22  40  69  99 136 188 245 298 363 444
#     4  12  24  45  73 105 147 196 243 310 370 451
#     4  11  25  45  71 104 143 191 248 298 370 451
#     4  12  22  46  70 100 145 189 242 308 373 430
#     4  11  26  45  69 108 149 190 248 311 371 448
#     4  11  23  43  69 100 138 187 242 302 366 435
#
# _framework density 23.999694000000002
#
# number of rings (size 3 to 8) (size 9 to 14) (size 15 to 20)
#    0.000    0.500    7.500    0.750    0.000    4.500 
#    2.250    2.500    0.000    0.000    0.000    0.000 
#    0.000    0.000    0.000    0.000    0.000    0.000 
#
# Total GULP energy -178909.487386 kJ/mol
# GULP energy per Si atom -5590.921481 kJ/mol
# Density = 2.394507 g / cm^3
# Si number density = 23.999694 Si / 1000 Ang^3
#
#
#
# Elastic Constant Matrix: (Units=GPa)
#
#
# Indices 1 2 3 4 5 6 
#
# 1 196.4518 26.9062 28.5869 0.0000 0.0000 0.0000
# 2 26.9062 81.9198 21.8231 0.0000 0.0000 0.0000
# 3 28.5869 21.8231 118.4831 0.0000 0.0000 0.0000
# 4 0.0000 0.0000 0.0000 36.0066 0.0000 0.0000
# 5 0.0000 0.0000 0.0000 0.0000 20.8702 0.0000
# 6 0.0000 0.0000 0.0000 0.0000 0.0000 20.9283
#
#
#
# Elastic Compliance Matrix: (Units=1/GPa)
#
#
# Indices 1 2 3 4 5 6 
#
# 1 0.005448 -0.001514 -0.001036 0.000000 0.000000 0.000000
# 2 -0.001514 0.013257 -0.002077 0.000000 0.000000 0.000000
# 3 -0.001036 -0.002077 0.009072 0.000000 0.000000 0.000000
# 4 0.000000 0.000000 0.000000 0.027773 0.000000 0.000000
# 5 0.000000 0.000000 0.000000 0.000000 0.047915 0.000000
# 6 0.000000 0.000000 0.000000 0.000000 0.000000 0.047782
#
#
# Mechanical properties :
#
#
# Convention : Reuss Voigt Hill
#
# Bulk Modulus (GPa) = 53.97766 61.27634 57.62700
# Shear Modulus (GPa) = 29.99839 36.86358 33.43098
#
# Velocity S-wave (km/s) = 3.53930 3.92344 3.73631
# Velocity P-wave (km/s) = 6.26434 6.79059 6.53276
#
# Compressibility (1/GPa) = 0.01852618
#
# Stress axis : x y z
#
# Youngs Moduli (GPa) = 183.54265 75.42962 110.22416
#
# Poissons Ratio (x) = 0.11417 0.11417
# Poissons Ratio (y) = 0.27780 0.22890
# Poissons Ratio (z) = 0.19011 0.15664
#
# Static dielectric constant tensor:
#      x y z
#    x 1.964340 0.000000 0.000000 
#    y 0.000000 1.953640 0.000000 
#    z 0.000000 0.000000 1.923230 
# 
# From -- ./inp_files/3596.got.cif
#   From: 2010.05.17/outbox.cif.g08.bks.cpg/sg26_2_cif.got.tgz:3596.got - 2010.06.04 01:07:29.
