data_PCOD9338716
_publ_section_title
;
Structure prediction by ZEFSAII (Michael W. Deem and Ramdas Pophale) SiO2 
 PCOD9338716
Probable space group: P C C 2
;
_chemical_formula_sum "Si O2"
_cell_formula_units_Z 24
_cell_length_a 23.691097
_cell_length_b 7.601133
_cell_length_c 5.493257
_cell_angle_alpha 90.000000
_cell_angle_beta 90.000000
_cell_angle_gamma 90.000000
_cell_volume 989.221212
_symmetry_space_group_name_H-M "P C C 2"
_symmetry_group_IT_number 27
_symmetry_cell_setting 'orthorhombic'
loop_
_space_group_symop_operation_xyz
x,y,z
-x,-y,z
-x,y,1/2+z
x,-y,1/2+z
loop_
_atom_site_type_symbol
_atom_site_label
_atom_site_fract_x
_atom_site_fract_y
_atom_site_fract_z
Si Si1 0.021929 0.707564 0.853910
Si Si2 0.859798 0.401217 0.983799
Si Si3 0.477674 0.300317 0.827979
Si Si4 0.273521 0.399633 0.447705
Si Si5 0.742093 0.976896 0.443642
Si Si6 0.624314 0.897836 0.939870
O O1 0.087965 0.721193 0.917617
O O2 0.000000 0.500000 0.838801
O O3 0.010496 0.781430 0.587255
O O4 0.866887 0.546259 0.766894
O O5 0.794181 0.355938 0.952517
O O6 0.500000 0.500000 0.807889
O O7 0.509402 0.220905 0.062837
O O8 0.412093 0.277290 0.895232
O O9 0.286407 0.501811 0.696290
O O10 0.294832 0.201218 0.447094
O O11 0.774803 0.997772 0.193238
O O12 0.692234 0.121632 0.440798
O O13 0.610027 0.982062 0.202851
#
# Coordination Sequence:
#
# PCOD9338716 Si02
#       6
#     4   4   4   4   4   4
#     4  10  14  20  34  55  94 140 177 209 271 345
#     4  10  16  25  39  67 101 143 172 225 284 347
#     4  10  21  37  60  89 122 150 185 231 276 324
#     4  10  21  35  58  85 119 148 186 247 306 341
#     4  10  21  40  65  84 114 155 200 239 285 351
#     4  10  21  37  63  86 112 153 192 226 273 333
#
# _framework density 24.261510000000001
#
# number of rings (size 3 to 8) (size 9 to 14) (size 15 to 20)
#    0.000    2.000    3.333    2.000    0.000    2.000 
#    0.000    0.000   88.000    0.000    0.000    0.000 
#    0.000    4.000    0.000    0.000    0.000    0.000 
#
# Total GULP energy -133729.367914 kJ/mol
# GULP energy per Si atom -5572.056996 kJ/mol
# Density = 2.420629 g / cm^3
# Si number density = 24.261510 Si / 1000 Ang^3
#
#
#
# Elastic Constant Matrix: (Units=GPa)
#
#
# Indices 1 2 3 4 5 6 
#
# 1 49.7471 -15.6995 -13.1088 0.0000 0.0000 0.0000
# 2 -15.6995 58.1522 35.4982 0.0000 0.0000 0.0000
# 3 -13.1088 35.4982 229.0257 0.0000 0.0000 0.0000
# 4 0.0000 0.0000 0.0000 22.5574 0.0000 0.0000
# 5 0.0000 0.0000 0.0000 0.0000 25.4731 0.0000
# 6 0.0000 0.0000 0.0000 0.0000 0.0000 -0.0504
#
#
#
# Elastic Compliance Matrix: (Units=1/GPa)
#
#
# Indices 1 2 3 4 5 6 
#
# 1 0.022003 0.005712 0.000374 0.000000 0.000000 0.000000
# 2 0.005712 0.020476 -0.002847 0.000000 0.000000 0.000000
# 3 0.000374 -0.002847 0.004829 0.000000 0.000000 0.000000
# 4 0.000000 0.000000 0.000000 0.044331 0.000000 0.000000
# 5 0.000000 0.000000 0.000000 0.000000 0.039257 0.000000
# 6 0.000000 0.000000 0.000000 0.000000 0.000000-19.849262
#
#
# Mechanical properties :
#
#
# Convention : Reuss Voigt Hill
#
# Bulk Modulus (GPa) = 18.59216 38.92275 28.75746
# Shear Modulus (GPa) = -0.25372 31.61170 15.67899
#
# Velocity S-wave (km/s) = -0.32373 3.61357 2.54490
# Velocity P-wave (km/s) = 2.74593 5.78691 4.52926
#
# Compressibility (1/GPa) = 0.05378610
#
# Stress axis : x y z
#
# Youngs Moduli (GPa) = 45.44869 48.83745 207.08320
#
# Poissons Ratio (x) = -0.27895 -0.07746
# Poissons Ratio (y) = -0.25959 0.58952
# Poissons Ratio (z) = -0.01700 0.13903
#
# Static dielectric constant tensor:
#      x y z
#    x 1.982300 0.000000 0.000000 
#    y 0.000000 1.945750 0.000000 
#    z 0.000000 0.000000 2.017770 
# 
# From -- ./inp_files/657.got.cif
#   From: 2010.05.17/outbox.cif.g08.bks.cpg/sg27_1_cif.got.tgz:657.got - 2010.06.04 01:11:05.
