data_PCOD9338963
_publ_section_title
;
Structure prediction by ZEFSAII (Michael W. Deem and Ramdas Pophale) SiO2 
 PCOD9338963
Probable space group: P C C 2
;
_chemical_formula_sum "Si O2"
_cell_formula_units_Z 22
_cell_length_a 12.111651
_cell_length_b 5.476472
_cell_length_c 16.014512
_cell_angle_alpha 90.000000
_cell_angle_beta 90.000000
_cell_angle_gamma 90.000000
_cell_volume 1062.228449
_symmetry_space_group_name_H-M "P C C 2"
_symmetry_group_IT_number 27
_symmetry_cell_setting 'orthorhombic'
loop_
_space_group_symop_operation_xyz
x,y,z
-x,-y,z
-x,y,1/2+z
x,-y,1/2+z
loop_
_atom_site_type_symbol
_atom_site_label
_atom_site_fract_x
_atom_site_fract_y
_atom_site_fract_z
Si Si1 0.500000 0.500000 0.987860
Si Si2 0.759522 0.095302 0.738601
Si Si3 0.879511 0.608824 0.704243
Si Si4 0.127788 0.468953 0.512754
Si Si5 0.689599 0.787660 0.414294
Si Si6 0.319996 0.163340 0.060462
O O1 0.407368 0.596247 0.924214
O O2 0.424648 0.338269 0.049592
O O3 0.803237 0.376149 0.728577
O O4 0.694318 0.089822 0.824910
O O5 0.691981 0.058638 0.653135
O O6 0.846865 0.870132 0.743092
O O7 0.874154 0.658122 0.604030
O O8 0.000000 0.500000 0.722952
O O9 0.192893 0.329129 0.440221
O O10 0.204351 0.703645 0.534266
O O11 0.000000 0.500000 0.489569
O O12 0.662631 0.964244 0.490391
#
# Coordination Sequence:
#
# PCOD9338963 Si02
#       6
#     2   4   4   4   4   4
#     4  10  24  44  68  90 126 180 224 300 338 404
#     4  11  24  40  69  97 136 178 222 282 338 403
#     4  10  21  42  64  97 139 183 223 268 330 401
#     4   9  20  39  66  94 136 180 218 270 335 406
#     4  11  23  42  65  96 134 170 233 281 342 408
#     4  10  22  44  64  94 131 173 230 276 347 404
#
# _framework density 20.711178
#
# number of rings (size 3 to 8) (size 9 to 14) (size 15 to 20)
#    0.000    1.818    1.818    1.091    5.091    2.182 
#    3.273    3.636    0.000    0.000    0.000    0.000 
#    0.000    0.000    0.000    0.000    0.000    0.000 
#
# Total GULP energy -122593.575840 kJ/mol
# GULP energy per Si atom -5572.435265 kJ/mol
# Density = 2.066404 g / cm^3
# Si number density = 20.711178 Si / 1000 Ang^3
#
#
#
# Elastic Constant Matrix: (Units=GPa)
#
#
# Indices 1 2 3 4 5 6 
#
# 1 109.2747 17.2394 25.1551 0.0000 0.0000 0.0000
# 2 17.2394 50.3463 26.7495 0.0000 0.0000 0.0000
# 3 25.1551 26.7495 117.8930 0.0000 0.0000 0.0000
# 4 0.0000 0.0000 0.0000 13.3103 0.0000 0.0000
# 5 0.0000 0.0000 0.0000 0.0000 51.2766 0.0000
# 6 0.0000 0.0000 0.0000 0.0000 0.0000 -22.8083
#
#
#
# Elastic Compliance Matrix: (Units=1/GPa)
#
#
# Indices 1 2 3 4 5 6 
#
# 1 0.009910 -0.002581 -0.001529 0.000000 0.000000 0.000000
# 2 -0.002581 0.023257 -0.004726 0.000000 0.000000 0.000000
# 3 -0.001529 -0.004726 0.009881 0.000000 0.000000 0.000000
# 4 0.000000 0.000000 0.000000 0.075130 0.000000 0.000000
# 5 0.000000 0.000000 0.000000 0.000000 0.019502 0.000000
# 6 0.000000 0.000000 0.000000 0.000000 0.000000 -0.043844
#
#
# Mechanical properties :
#
#
# Convention : Reuss Voigt Hill
#
# Bulk Modulus (GPa) = 39.40739 46.20022 42.80380
# Shear Modulus (GPa) = 41.67761 22.24705 31.96233
#
# Velocity S-wave (km/s) = 4.49076 3.28099 3.93267
# Velocity P-wave (km/s) = 6.77921 6.05875 6.42908
#
# Compressibility (1/GPa) = 0.02537595
#
# Stress axis : x y z
#
# Youngs Moduli (GPa) = 100.90392 42.99706 101.20553
#
# Poissons Ratio (x) = 0.11098 0.15474
# Poissons Ratio (y) = 0.26045 0.47833
# Poissons Ratio (z) = 0.15428 0.20322
#
# Static dielectric constant tensor:
#      x y z
#    x 1.747480 0.000000 0.000000 
#    y 0.000000 1.872390 0.000000 
#    z 0.000000 0.000000 1.757370 
# 
# From -- ./inp_files/2997.got.cif
#   From: 2010.05.17/outbox.cif.g08.bks.cpg/sg27_2_cif.got.tgz:2997.got - 2010.06.04 01:11:05.
