data_PCOD9338274
_publ_section_title
;
Structure prediction by ZEFSAII (Michael W. Deem and Ramdas Pophale) SiO2 
 PCOD9338274
Probable space group: P M C 21
;
_chemical_formula_sum "Si O2"
_cell_formula_units_Z 32
_cell_length_a 11.442090
_cell_length_b 7.429510
_cell_length_c 14.018052
_cell_angle_alpha 90.000000
_cell_angle_beta 90.000000
_cell_angle_gamma 90.000000
_cell_volume 1191.662294
_symmetry_space_group_name_H-M "P M C 21"
_symmetry_group_IT_number 26
_symmetry_cell_setting 'orthorhombic'
loop_
_space_group_symop_operation_xyz
x,y,z
-x,-y,1/2+z
-x,y,z
x,-y,1/2+z
loop_
_atom_site_type_symbol
_atom_site_label
_atom_site_fract_x
_atom_site_fract_y
_atom_site_fract_z
Si Si1 0.127594 0.446817 0.754660
Si Si2 0.124653 0.973680 0.442351
Si Si3 0.127727 0.608325 0.562104
Si Si4 0.627283 0.164719 0.457089
Si Si5 0.375494 0.587143 0.586883
Si Si6 0.625725 0.501851 0.813054
Si Si7 0.374768 0.989663 0.642129
Si Si8 0.125672 0.062681 0.718637
O O1 0.132465 0.610165 0.678652
O O2 0.242283 0.426360 0.819294
O O3 0.127883 0.270985 0.686904
O O4 0.000000 0.456945 0.803061
O O5 0.129214 0.801947 0.511500
O O6 0.117991 0.920689 0.332175
O O7 0.000000 0.069954 0.463251
O O8 0.245840 0.076841 0.446773
O O9 0.254735 0.522721 0.540165
O O10 0.000000 0.528921 0.538019
O O11 0.500000 0.071962 0.436769
O O12 0.625981 0.327543 0.382447
O O13 0.623938 0.163850 0.573456
O O14 0.500000 0.523608 0.546352
O O15 0.376999 0.549413 0.700189
O O16 0.374936 0.804983 0.581281
O O17 0.500000 0.403994 0.830037
O O18 0.500000 0.988908 0.695651
O O19 0.252541 0.985611 0.696097
O O20 0.000000 0.984062 0.686539
#
# Coordination Sequence:
#
# PCOD9338274 Si02
#       8
#     4   4   4   4   4   4   4   4
#     4   9  19  37  55  74 103 140 182 220 261 312
#     4  10  20  34  54  80 108 138 177 223 269 320
#     4   9  17  31  53  76 100 134 175 217 259 307
#     4  10  20  35  55  81 112 139 171 215 267 329
#     4   9  16  29  50  76 103 132 166 206 261 315
#     4   9  18  32  53  78 103 133 170 215 261 310
#     4  10  20  34  53  77 108 142 174 213 265 322
#     4  10  22  38  53  76 109 144 183 225 267 315
#
# _framework density 26.853244
#
# number of rings (size 3 to 8) (size 9 to 14) (size 15 to 20)
#    0.000    2.500    1.250    0.750    0.000    3.500 
#    2.250    2.500    0.000    0.000    0.000    0.000 
#    0.000    0.000    0.000    0.000    0.000    0.000 
#
# Total GULP energy -178372.797615 kJ/mol
# GULP energy per Si atom -5574.149925 kJ/mol
# Density = 2.679213 g / cm^3
# Si number density = 26.853244 Si / 1000 Ang^3
#
#
#
# Elastic Constant Matrix: (Units=GPa)
#
#
# Indices 1 2 3 4 5 6 
#
# 1 386.1062 46.7795 41.0472 0.0000 0.0000 0.0000
# 2 46.7795 49.1047 10.8773 0.0000 0.0000 0.0000
# 3 41.0472 10.8773 96.8281 0.0000 0.0000 0.0000
# 4 0.0000 0.0000 0.0000 31.0088 0.0000 0.0000
# 5 0.0000 0.0000 0.0000 0.0000 20.1059 0.0000
# 6 0.0000 0.0000 0.0000 0.0000 0.0000 6.0691
#
#
#
# Elastic Compliance Matrix: (Units=1/GPa)
#
#
# Indices 1 2 3 4 5 6 
#
# 1 0.003016 -0.002656 -0.000980 0.000000 0.000000 0.000000
# 2 -0.002656 0.023223 -0.001483 0.000000 0.000000 0.000000
# 3 -0.000980 -0.001483 0.010910 0.000000 0.000000 0.000000
# 4 0.000000 0.000000 0.000000 0.032249 0.000000 0.000000
# 5 0.000000 0.000000 0.000000 0.000000 0.049737 0.000000
# 6 0.000000 0.000000 0.000000 0.000000 0.000000 0.164768
#
#
# Mechanical properties :
#
#
# Convention : Reuss Voigt Hill
#
# Bulk Modulus (GPa) = 37.15968 81.04968 59.10468
# Shear Modulus (GPa) = 16.49560 40.32576 28.41068
#
# Velocity S-wave (km/s) = 2.48117 3.87939 3.25622
# Velocity P-wave (km/s) = 4.69855 7.09325 6.01625
#
# Compressibility (1/GPa) = 0.02691089
#
# Stress axis : x y z
#
# Youngs Moduli (GPa) = 331.56947 43.05999 91.66185
#
# Poissons Ratio (x) = 0.11437 0.08984
# Poissons Ratio (y) = 0.88066 0.13592
# Poissons Ratio (z) = 0.32499 0.06385
#
# Static dielectric constant tensor:
#      x y z
#    x 2.171900 0.000000 0.000000 
#    y 0.000000 2.097910 0.000000 
#    z 0.000000 0.000000 2.072230 
# 
# From -- ./inp_files/5065.got.cif
#   From: 2010.05.17/outbox.cif.g08.bks.cpg/sg26_3_cif.got.tgz:5065.got - 2010.06.04 01:07:29.
