data_PCOD9338307
_publ_section_title
;
Structure prediction by ZEFSAII (Michael W. Deem and Ramdas Pophale) SiO2 
 PCOD9338307
Probable space group: P M C 21
;
_chemical_formula_sum "Si O2"
_cell_formula_units_Z 24
_cell_length_a 7.528655
_cell_length_b 12.310574
_cell_length_c 11.093807
_cell_angle_alpha 90.000000
_cell_angle_beta 90.000000
_cell_angle_gamma 90.000000
_cell_volume 1028.196936
_symmetry_space_group_name_H-M "P M C 21"
_symmetry_group_IT_number 26
_symmetry_cell_setting 'orthorhombic'
loop_
_space_group_symop_operation_xyz
x,y,z
-x,-y,1/2+z
-x,y,z
x,-y,1/2+z
loop_
_atom_site_type_symbol
_atom_site_label
_atom_site_fract_x
_atom_site_fract_y
_atom_site_fract_z
Si Si1 0.285390 0.710483 0.350150
Si Si2 0.796222 0.254160 0.588975
Si Si3 0.717034 0.288863 0.120360
Si Si4 0.281604 0.933039 0.727592
Si Si5 0.299544 0.960947 0.985125
Si Si6 0.710412 0.474856 0.690443
O O1 0.500000 0.714436 0.349388
O O2 0.227451 0.776113 0.231443
O O3 0.225124 0.738457 0.483488
O O4 0.227614 0.587764 0.311359
O O5 0.693423 0.168376 0.508781
O O6 0.739835 0.380624 0.590083
O O7 0.000000 0.246304 0.555632
O O8 0.500000 0.291887 0.116809
O O9 0.765880 0.193058 0.210442
O O10 0.782843 0.407722 0.158635
O O11 0.500000 0.941134 0.731222
O O12 0.217662 0.990683 0.605991
O O13 0.217033 0.978694 0.854757
O O14 0.500000 0.006511 0.980046
O O15 0.500000 0.488182 0.703360
#
# Coordination Sequence:
#
# PCOD9338307 Si02
#       6
#     4   4   4   4   4   4
#     4   8  16  30  53  80 107 141 179 227 275 321
#     4  10  20  35  54  77 109 150 187 222 272 330
#     4   9  16  30  54  85 114 139 179 232 282 330
#     4   9  20  33  56  88 113 141 181 234 284 329
#     4  10  20  36  58  85 113 143 185 234 280 330
#     4   8  16  30  51  79 108 144 181 225 275 326
#
# _framework density 23.341832
#
# number of rings (size 3 to 8) (size 9 to 14) (size 15 to 20)
#    1.000    2.000    0.000    1.000    2.333    1.333 
#    0.000    6.667    0.000    2.000    0.000    0.000 
#    0.000    0.000    0.000    0.000    0.000    0.000 
#
# Total GULP energy -133730.020179 kJ/mol
# GULP energy per Si atom -5572.084174 kJ/mol
# Density = 2.328870 g / cm^3
# Si number density = 23.341832 Si / 1000 Ang^3
#
#
#
# Elastic Constant Matrix: (Units=GPa)
#
#
# Indices 1 2 3 4 5 6 
#
# 1 50.1345 -11.5292 8.4104 0.0000 0.0000 0.0000
# 2 -11.5292 90.6452 48.3258 0.0000 0.0000 0.0000
# 3 8.4104 48.3258 144.1952 0.0000 0.0000 0.0000
# 4 0.0000 0.0000 0.0000 28.0395 0.0000 0.0000
# 5 0.0000 0.0000 0.0000 0.0000 -47.5341 0.0000
# 6 0.0000 0.0000 0.0000 0.0000 0.0000 -21.0367
#
#
#
# Elastic Compliance Matrix: (Units=1/GPa)
#
#
# Indices 1 2 3 4 5 6 
#
# 1 0.021332 0.004111 -0.002622 0.000000 0.000000 0.000000
# 2 0.004111 0.014224 -0.005007 0.000000 0.000000 0.000000
# 3 -0.002622 -0.005007 0.008766 0.000000 0.000000 0.000000
# 4 0.000000 0.000000 0.000000 0.035664 0.000000 0.000000
# 5 0.000000 0.000000 0.000000 0.000000 -0.021038 0.000000
# 6 0.000000 0.000000 0.000000 0.000000 0.000000 -0.047536
#
#
# Mechanical properties :
#
#
# Convention : Reuss Voigt Hill
#
# Bulk Modulus (GPa) = 26.81964 41.70988 34.26476
# Shear Modulus (GPa) = 161.93471 7.87827 84.90649
#
# Velocity S-wave (km/s) = 8.33822 1.83916 6.03773
# Velocity P-wave (km/s) = 10.20863 4.73476 7.95720
#
# Compressibility (1/GPa) = 0.03728610
#
# Stress axis : x y z
#
# Youngs Moduli (GPa) = 46.87886 70.30248 114.07716
#
# Poissons Ratio (x) = -0.28902 0.29911
# Poissons Ratio (y) = -0.19272 0.57117
# Poissons Ratio (z) = 0.12292 0.35200
#
# Static dielectric constant tensor:
#      x y z
#    x 1.890980 0.000000 0.000000 
#    y 0.000000 1.918490 0.000000 
#    z 0.000000 0.000000 1.876260 
# 
# From -- ./inp_files/2824.got.cif
#   From: 2010.05.17/outbox.cif.g08.bks.cpg/sg26_2_cif.got.tgz:2824.got - 2010.06.04 01:07:29.
