data_PCOD9338433
_publ_section_title
;
Structure prediction by ZEFSAII (Michael W. Deem and Ramdas Pophale) SiO2 
 PCOD9338433
Probable space group: P M C 21
;
_chemical_formula_sum "Si O2"
_cell_formula_units_Z 32
_cell_length_a 10.087694
_cell_length_b 16.707146
_cell_length_c 10.544963
_cell_angle_alpha 90.000000
_cell_angle_beta 90.000000
_cell_angle_gamma 90.000000
_cell_volume 1777.211963
_symmetry_space_group_name_H-M "P M C 21"
_symmetry_group_IT_number 26
_symmetry_cell_setting 'orthorhombic'
loop_
_space_group_symop_operation_xyz
x,y,z
-x,-y,1/2+z
-x,y,z
x,-y,1/2+z
loop_
_atom_site_type_symbol
_atom_site_label
_atom_site_fract_x
_atom_site_fract_y
_atom_site_fract_z
Si Si1 0.347718 0.916534 0.525530
Si Si2 0.155418 0.303813 0.187055
Si Si3 0.347510 0.100330 0.551353
Si Si4 0.356213 0.816491 0.783890
Si Si5 0.846627 0.786806 0.430058
Si Si6 0.837973 0.586517 0.069856
Si Si7 0.154985 0.238214 0.641906
Si Si8 0.840724 0.476819 0.297327
O O1 0.500000 0.917835 0.476597
O O2 0.348081 0.871505 0.660025
O O3 0.249839 0.863188 0.440817
O O4 0.306072 0.007709 0.550555
O O5 0.240078 0.247030 0.276885
O O6 0.183369 0.395264 0.218997
O O7 0.000000 0.290996 0.209775
O O8 0.184424 0.275467 0.043271
O O9 0.500000 0.105532 0.600547
O O10 0.349644 0.128576 0.406027
O O11 0.247455 0.162155 0.615922
O O12 0.500000 0.775115 0.782531
O O13 0.837728 0.746831 0.292909
O O14 0.000000 0.812495 0.448174
O O15 0.802253 0.680509 0.070753
O O16 0.792522 0.546374 0.202402
O O17 0.000000 0.584285 0.069589
O O18 0.793823 0.539536 0.942061
O O19 0.000000 0.221815 0.610719
O O20 0.000000 0.488000 0.308501
#
# Coordination Sequence:
#
# PCOD9338433 Si02
#       8
#     4   4   4   4   4   4   4   4
#     4   9  19  34  53  75  99 130 170 214 254 305
#     4   9  17  31  52  75 100 131 169 208 256 309
#     4  10  21  34  53  75  98 133 173 214 258 308
#     4   9  18  33  50  72  98 126 165 209 256 306
#     4   9  19  33  50  75 106 137 168 210 261 312
#     4   9  18  30  47  74 106 138 176 217 263 313
#     4  10  21  35  51  75 109 140 171 215 267 314
#     4   9  17  28  48  75 102 135 174 215 259 309
#
# _framework density 18.005731000000001
#
# number of rings (size 3 to 8) (size 9 to 14) (size 15 to 20)
#    0.000    2.750    0.000    0.750    3.500    2.500 
#    0.000    0.000    0.000    0.750    0.000    0.000 
#    0.000    0.000    0.000    0.000    0.000    0.000 
#
# Total GULP energy -178236.313074 kJ/mol
# GULP energy per Si atom -5569.884784 kJ/mol
# Density = 1.796475 g / cm^3
# Si number density = 18.005731 Si / 1000 Ang^3
#
#
#
# Elastic Constant Matrix: (Units=GPa)
#
#
# Indices 1 2 3 4 5 6 
#
# 1 21.2881 31.4502 17.3071 0.0000 0.0000 0.0000
# 2 31.4502 63.8904 23.1489 0.0000 0.0000 0.0000
# 3 17.3071 23.1489 69.5902 0.0000 0.0000 0.0000
# 4 0.0000 0.0000 0.0000 14.5251 0.0000 0.0000
# 5 0.0000 0.0000 0.0000 0.0000 15.6489 0.0000
# 6 0.0000 0.0000 0.0000 0.0000 0.0000 -49.1325
#
#
#
# Elastic Compliance Matrix: (Units=1/GPa)
#
#
# Indices 1 2 3 4 5 6 
#
# 1 0.191000 -0.087335 -0.018450 0.000000 0.000000 0.000000
# 2 -0.087335 0.057731 0.002516 0.000000 0.000000 0.000000
# 3 -0.018450 0.002516 0.018121 0.000000 0.000000 0.000000
# 4 0.000000 0.000000 0.000000 0.068846 0.000000 0.000000
# 5 0.000000 0.000000 0.000000 0.000000 0.063902 0.000000
# 6 0.000000 0.000000 0.000000 0.000000 0.000000 -0.020353
#
#
# Mechanical properties :
#
#
# Convention : Reuss Voigt Hill
#
# Bulk Modulus (GPa) = 16.57978 33.17565 24.87772
# Shear Modulus (GPa) = 8.25231 1.73246 4.99238
#
# Velocity S-wave (km/s) = 2.14315 0.98197 1.66694
# Velocity P-wave (km/s) = 3.91819 4.44418 4.18945
#
# Compressibility (1/GPa) = 0.06031443
#
# Stress axis : x y z
#
# Youngs Moduli (GPa) = 5.23560 17.32168 55.18359
#
# Poissons Ratio (x) = 1.51280 1.01814
# Poissons Ratio (y) = 0.45725 -0.13886
# Poissons Ratio (z) = 0.09660 -0.04359
#
# Static dielectric constant tensor:
#      x y z
#    x 1.618940 0.000000 0.000000 
#    y 0.000000 1.615920 0.000000 
#    z 0.000000 0.000000 1.652240 
# 
# From -- ./inp_files/1977.got.cif
#   From: 2010.05.17/outbox.cif.g08.bks.cpg/sg26_1_cif.got.tgz:1977.got - 2010.06.04 01:07:29.
