data_PCOD9338241
_publ_section_title
;
Structure prediction by ZEFSAII (Michael W. Deem and Ramdas Pophale) SiO2 
 PCOD9338241
Probable space group: P M C 21
;
_chemical_formula_sum "Si O2"
_cell_formula_units_Z 24
_cell_length_a 9.743310
_cell_length_b 9.086401
_cell_length_c 16.037845
_cell_angle_alpha 90.000000
_cell_angle_beta 90.000000
_cell_angle_gamma 90.000000
_cell_volume 1419.856427
_symmetry_space_group_name_H-M "P M C 21"
_symmetry_group_IT_number 26
_symmetry_cell_setting 'orthorhombic'
loop_
_space_group_symop_operation_xyz
x,y,z
-x,-y,1/2+z
-x,y,z
x,-y,1/2+z
loop_
_atom_site_type_symbol
_atom_site_label
_atom_site_fract_x
_atom_site_fract_y
_atom_site_fract_z
Si Si1 0.838056 0.871111 0.639400
Si Si2 0.155374 0.581493 0.738203
Si Si3 0.659542 0.344483 0.815710
Si Si4 0.155026 0.601553 0.064470
Si Si5 0.839129 0.307795 0.968286
Si Si6 0.339874 0.836704 0.142937
O O1 0.811121 0.746998 0.709773
O O2 0.816654 0.792904 0.549684
O O3 0.000000 0.909925 0.644890
O O4 0.742095 0.011331 0.647531
O O5 0.263959 0.498021 0.795126
O O6 0.151795 0.488948 0.651699
O O7 0.000000 0.576939 0.773184
O O8 0.500000 0.366328 0.835395
O O9 0.741246 0.271779 0.891786
O O10 0.668769 0.245259 0.732476
O O11 0.264069 0.730159 0.076807
O O12 0.000000 0.658581 0.050404
O O13 0.186665 0.476753 0.996581
O O14 0.000000 0.295622 0.945616
O O15 0.500000 0.857289 0.123067
#
# Coordination Sequence:
#
# PCOD9338241 Si02
#       6
#     4   4   4   4   4   4
#     4   9  18  33  53  75  97 126 166 206 244 288
#     4   8  15  30  51  71  91 120 160 201 238 279
#     4  10  20  32  48  73 102 130 161 198 243 294
#     4   8  15  30  51  71  91 119 158 200 237 280
#     4   9  18  33  53  75  96 122 162 208 248 287
#     4  10  20  32  48  73 103 133 163 195 238 294
#
# _framework density 16.903117000000002
#
# number of rings (size 3 to 8) (size 9 to 14) (size 15 to 20)
#    0.000    3.000    0.000    3.000    0.000    4.000 
#    0.000    5.000    0.000    2.000    0.000    0.000 
#    0.000    0.000    0.000    0.000    0.000    0.000 
#
# Total GULP energy -133708.896372 kJ/mol
# GULP energy per Si atom -5571.204015 kJ/mol
# Density = 1.686465 g / cm^3
# Si number density = 16.903117 Si / 1000 Ang^3
#
#
#
# Elastic Constant Matrix: (Units=GPa)
#
#
# Indices 1 2 3 4 5 6 
#
# 1 117.0801 76.6473 36.4571 0.0000 0.0000 0.0000
# 2 76.6473 96.3560 1.7125 0.0000 0.0000 0.0000
# 3 36.4571 1.7125 35.0163 0.0000 0.0000 0.0000
# 4 0.0000 0.0000 0.0000 9.0604 0.0000 0.0000
# 5 0.0000 0.0000 0.0000 0.0000 23.0061 0.0000
# 6 0.0000 0.0000 0.0000 0.0000 0.0000 18.7344
#
#
#
# Elastic Compliance Matrix: (Units=1/GPa)
#
#
# Indices 1 2 3 4 5 6 
#
# 1 0.047833 -0.037196 -0.047982 0.000000 0.000000 0.000000
# 2 -0.037196 0.039312 0.036804 0.000000 0.000000 0.000000
# 3 -0.047982 0.036804 0.076714 0.000000 0.000000 0.000000
# 4 0.000000 0.000000 0.000000 0.110371 0.000000 0.000000
# 5 0.000000 0.000000 0.000000 0.000000 0.043467 0.000000
# 6 0.000000 0.000000 0.000000 0.000000 0.000000 0.053378
#
#
# Mechanical properties :
#
#
# Convention : Reuss Voigt Hill
#
# Bulk Modulus (GPa) = 14.90057 53.12069 34.01063
# Shear Modulus (GPa) = 10.20005 19.06921 14.63463
#
# Velocity S-wave (km/s) = 2.45917 3.36243 2.94563
# Velocity P-wave (km/s) = 4.11069 6.82418 5.63326
#
# Compressibility (1/GPa) = 0.06711153
#
# Stress axis : x y z
#
# Youngs Moduli (GPa) = 20.90609 25.43731 13.03536
#
# Poissons Ratio (x) = 0.94618 0.62546
# Poissons Ratio (y) = 0.77763 -0.47976
# Poissons Ratio (z) = 1.00312 -0.93620
#
# Static dielectric constant tensor:
#      x y z
#    x 1.561730 0.000000 0.000000 
#    y 0.000000 1.561790 0.000000 
#    z 0.000000 0.000000 1.583090 
# 
# From -- ./inp_files/3946.got.cif
#   From: 2010.05.17/outbox.cif.g08.bks.cpg/sg26_2_cif.got.tgz:3946.got - 2010.06.04 01:07:29.
