data_PCOD9338699
_publ_section_title
;
Structure prediction by ZEFSAII (Michael W. Deem and Ramdas Pophale) SiO2 
 PCOD9338699
Probable space group: P M C 21
;
_chemical_formula_sum "Si O2"
_cell_formula_units_Z 32
_cell_length_a 9.000000
_cell_length_b 12.000000
_cell_length_c 15.000000
_cell_angle_alpha 90.000000
_cell_angle_beta 90.000000
_cell_angle_gamma 90.000000
_cell_volume 1620.000000
_symmetry_space_group_name_H-M "P M C 21"
_symmetry_group_IT_number 26
_symmetry_cell_setting 'orthorhombic'
loop_
_space_group_symop_operation_xyz
x,y,z
-x,-y,1/2+z
-x,y,z
x,-y,1/2+z
loop_
_atom_site_type_symbol
_atom_site_label
_atom_site_fract_x
_atom_site_fract_y
_atom_site_fract_z
Si Si1 0.320204 0.364593 0.623570
Si Si2 0.175748 0.084293 0.201596
Si Si3 0.677280 0.797005 0.974454
Si Si4 0.679220 0.981370 0.370370
Si Si5 0.678233 0.171801 0.028203
Si Si6 0.172681 0.692030 0.812872
Si Si7 0.679338 0.575686 0.497115
Si Si8 0.175591 0.439888 0.801012
O O1 0.500000 0.364414 0.630589
O O2 0.271125 0.254900 0.567872
O O3 0.279232 0.473265 0.562766
O O4 0.251514 0.371137 0.721737
O O5 0.247853 0.000016 0.273708
O O6 0.248224 0.095492 0.104371
O O7 0.200422 0.206845 0.245581
O O8 0.000000 0.064311 0.195066
O O9 0.500000 0.804253 0.980074
O O10 0.728523 0.915239 0.934519
O O11 0.723636 0.709883 0.898066
O O12 0.500000 0.986915 0.359528
O O13 0.715994 0.872658 0.428822
O O14 0.500000 0.161521 0.037790
O O15 0.718018 0.302183 0.036601
O O16 0.195506 0.569979 0.773992
O O17 0.000000 0.700004 0.841721
O O18 0.500000 0.571562 0.486483
O O19 0.753124 0.570009 0.399252
O O20 0.000000 0.416208 0.806179
#
# Coordination Sequence:
#
# PCOD9338699 Si02
#       8
#     4   4   4   4   4   4   4   4
#     4  10  20  34  54  80 109 142 182 226 273 327
#     4  10  20  35  58  86 113 145 185 230 278 329
#     4   9  17  32  55  78 100 132 176 225 270 311
#     4   9  19  37  59  82 108 141 185 232 274 322
#     4  10  21  38  59  83 112 148 188 230 276 327
#     4   9  18  32  51  77 108 141 177 219 268 321
#     4  10  21  38  58  82 112 147 186 230 277 325
#     4  11  22  34  52  80 114 150 181 218 274 336
#
# _framework density 19.753086
#
# number of rings (size 3 to 8) (size 9 to 14) (size 15 to 20)
#    0.000    2.250    1.250    1.500    0.000    3.000 
#    2.250    0.000    0.000    0.000    0.000    0.000 
#    0.000    0.000    0.000    0.000    0.000    0.000 
#
# Total GULP energy -178549.690540 kJ/mol
# GULP energy per Si atom -5579.677829 kJ/mol
# Density = 1.970813 g / cm^3
# Si number density = 19.753086 Si / 1000 Ang^3
#
#
#
# Elastic Constant Matrix: (Units=GPa)
#
#
# Indices 1 2 3 4 5 6 
#
# 1 15.5889 1.8724 22.1036 0.0000 0.0000 0.0000
# 2 1.8724 17.6494 -11.7078 0.0000 0.0000 0.0000
# 3 22.1036 -11.7078 87.0578 0.0000 0.0000 0.0000
# 4 0.0000 0.0000 0.0000 25.0544 0.0000 0.0000
# 5 0.0000 0.0000 0.0000 0.0000 12.4839 0.0000
# 6 0.0000 0.0000 0.0000 0.0000 0.0000 16.0937
#
#
#
# Elastic Compliance Matrix: (Units=1/GPa)
#
#
# Indices 1 2 3 4 5 6 
#
# 1 0.117417 -0.035389 -0.034571 0.000000 0.000000 0.000000
# 2 -0.035389 0.072875 0.018786 0.000000 0.000000 0.000000
# 3 -0.034571 0.018786 0.022790 0.000000 0.000000 0.000000
# 4 0.000000 0.000000 0.000000 0.039913 0.000000 0.000000
# 5 0.000000 0.000000 0.000000 0.000000 0.080103 0.000000
# 6 0.000000 0.000000 0.000000 0.000000 0.000000 0.062136
#
#
# Mechanical properties :
#
#
# Convention : Reuss Voigt Hill
#
# Bulk Modulus (GPa) = 9.03069 16.09249 12.56159
# Shear Modulus (GPa) = 9.35462 17.92825 13.64143
#
# Velocity S-wave (km/s) = 2.17854 3.01594 2.63077
# Velocity P-wave (km/s) = 3.30300 4.50470 3.94982
#
# Compressibility (1/GPa) = 0.11073355
#
# Stress axis : x y z
#
# Youngs Moduli (GPa) = 8.51663 13.72214 43.87824
#
# Poissons Ratio (x) = 0.48561 1.51691
# Poissons Ratio (y) = 0.30140 -0.82428
# Poissons Ratio (z) = 0.29443 -0.25778
#
# Static dielectric constant tensor:
#      x y z
#    x 1.662110 0.000000 0.000000 
#    y 0.000000 1.734730 0.000000 
#    z 0.000000 0.000000 1.678410 
# 
# From -- ./inp_files/4236.got.cif
#   From: 2010.05.17/outbox.ucp.g08.bks.cvg/sg26_3_cif.got.tgz:4236.got - 2010.06.11 15:23:25.
