data_PCOD9338188
_publ_section_title
;
Structure prediction by ZEFSAII (Michael W. Deem and Ramdas Pophale) SiO2 
 PCOD9338188
Probable space group: P M C 21
;
_chemical_formula_sum "Si O2"
_cell_formula_units_Z 32
_cell_length_a 7.913189
_cell_length_b 7.977781
_cell_length_c 24.479096
_cell_angle_alpha 90.000000
_cell_angle_beta 90.000000
_cell_angle_gamma 90.000000
_cell_volume 1545.357714
_symmetry_space_group_name_H-M "P M C 21"
_symmetry_group_IT_number 26
_symmetry_cell_setting 'orthorhombic'
loop_
_space_group_symop_operation_xyz
x,y,z
-x,-y,1/2+z
-x,y,z
x,-y,1/2+z
loop_
_atom_site_type_symbol
_atom_site_label
_atom_site_fract_x
_atom_site_fract_y
_atom_site_fract_z
Si Si1 0.706883 0.176680 0.539730
Si Si2 0.801899 0.188436 0.312896
Si Si3 0.696636 0.334058 0.425844
Si Si4 0.302133 0.192768 0.043823
Si Si5 0.300278 0.493573 0.237086
Si Si6 0.195203 0.289176 0.924881
Si Si7 0.204467 0.182319 0.805475
Si Si8 0.292637 0.490365 0.612204
O O1 0.500000 0.171275 0.540010
O O2 0.756416 0.230056 0.478366
O O3 0.760518 0.321530 0.581255
O O4 0.770217 0.991674 0.554190
O O5 0.713014 0.233323 0.369781
O O6 0.777800 0.341337 0.271378
O O7 0.000000 0.173309 0.325791
O O8 0.745938 0.007339 0.290326
O O9 0.500000 0.377299 0.435223
O O10 0.792241 0.509854 0.420802
O O11 0.500000 0.185528 0.058062
O O12 0.231606 0.348225 0.078165
O O13 0.287146 0.231131 0.979537
O O14 0.500000 0.461422 0.235752
O O15 0.270707 0.669907 0.267303
O O16 0.237782 0.501967 0.174896
O O17 0.261175 0.215247 0.867926
O O18 0.000000 0.238837 0.930488
O O19 0.000000 0.195887 0.804591
O O20 0.500000 0.489365 0.611387
#
# Coordination Sequence:
#
# PCOD9338188 Si02
#       8
#     4   4   4   4   4   4   4   4
#     4   9  18  33  57  87 114 144 183 232 286 338
#     4  11  23  40  60  84 119 157 191 235 294 352
#     4  11  20  34  59  89 117 148 189 236 288 346
#     4  10  19  35  60  84 113 149 184 231 286 341
#     4  11  23  38  61  88 114 150 198 249 290 336
#     4  11  21  35  57  85 117 152 188 231 288 349
#     4  10  23  41  60  82 116 160 194 233 291 351
#     4   9  19  36  56  83 114 146 189 237 287 333
#
# _framework density 20.707180000000001
#
# number of rings (size 3 to 8) (size 9 to 14) (size 15 to 20)
#    0.000    1.750    2.500    2.250    0.000    2.500 
#    0.000    4.375    0.000    0.000    0.000    0.000 
#    0.000    0.000    0.000    0.000    0.000    0.000 
#
# Total GULP energy -178799.275378 kJ/mol
# GULP energy per Si atom -5587.477356 kJ/mol
# Density = 2.066005 g / cm^3
# Si number density = 20.707180 Si / 1000 Ang^3
#
#
#
# Elastic Constant Matrix: (Units=GPa)
#
#
# Indices 1 2 3 4 5 6 
#
# 1 21.9838 -4.2568 -5.7251 0.0000 0.0000 0.0000
# 2 -4.2568 161.9957 59.5155 0.0000 0.0000 0.0000
# 3 -5.7251 59.5155 127.1631 0.0000 0.0000 0.0000
# 4 0.0000 0.0000 0.0000 -0.8688 0.0000 0.0000
# 5 0.0000 0.0000 0.0000 0.0000 -61.1257 0.0000
# 6 0.0000 0.0000 0.0000 0.0000 0.0000 6.5681
#
#
#
# Elastic Compliance Matrix: (Units=1/GPa)
#
#
# Indices 1 2 3 4 5 6 
#
# 1 0.046067 0.000542 0.001820 0.000000 0.000000 0.000000
# 2 0.000542 0.007461 -0.003468 0.000000 0.000000 0.000000
# 3 0.001820 -0.003468 0.009569 0.000000 0.000000 0.000000
# 4 0.000000 0.000000 0.000000 -1.151042 0.000000 0.000000
# 5 0.000000 0.000000 0.000000 0.000000 -0.016360 0.000000
# 6 0.000000 0.000000 0.000000 0.000000 0.000000 0.152251
#
#
# Mechanical properties :
#
#
# Convention : Reuss Voigt Hill
#
# Bulk Modulus (GPa) = 16.42411 45.57887 31.00149
# Shear Modulus (GPa) = -5.37896 6.35532 0.48818
#
# Velocity S-wave (km/s) = -1.61347 1.75380 0.48607
# Velocity P-wave (km/s) = 2.11608 5.11468 3.91394
#
# Compressibility (1/GPa) = 0.06088608
#
# Stress axis : x y z
#
# Youngs Moduli (GPa) = 21.70751 134.02637 104.50602
#
# Poissons Ratio (x) = -0.07260 -0.19025
# Poissons Ratio (y) = -0.01176 0.36239
# Poissons Ratio (z) = -0.03952 0.46476
#
# Static dielectric constant tensor:
#      x y z
#    x 1.771440 0.000000 0.000000 
#    y 0.000000 1.735240 0.000000 
#    z 0.000000 0.000000 1.703010 
# 
# From -- ./inp_files/5571.got.cif
#   From: 2010.05.17/outbox.cif.g08.bks.cpg/sg26_3_cif.got.tgz:5571.got - 2010.06.04 01:07:29.
