data_PCOD9338676
_publ_section_title
;
Structure prediction by ZEFSAII (Michael W. Deem and Ramdas Pophale) SiO2 
 PCOD9338676
Probable space group: P M C 21
;
_chemical_formula_sum "Si O2"
_cell_formula_units_Z 32
_cell_length_a 7.379976
_cell_length_b 19.757100
_cell_length_c 10.651847
_cell_angle_alpha 90.000000
_cell_angle_beta 90.000000
_cell_angle_gamma 90.000000
_cell_volume 1553.113044
_symmetry_space_group_name_H-M "P M C 21"
_symmetry_group_IT_number 26
_symmetry_cell_setting 'orthorhombic'
loop_
_space_group_symop_operation_xyz
x,y,z
-x,-y,1/2+z
-x,y,z
x,-y,1/2+z
loop_
_atom_site_type_symbol
_atom_site_label
_atom_site_fract_x
_atom_site_fract_y
_atom_site_fract_z
Si Si1 0.281805 0.296789 0.548940
Si Si2 0.278750 0.156397 0.651936
Si Si3 0.721250 0.843603 0.657950
Si Si4 0.721463 0.917845 0.404943
Si Si5 0.281806 0.703212 0.760949
Si Si6 0.213303 0.548833 0.047429
Si Si7 0.786697 0.451167 0.262459
Si Si8 0.279057 0.926013 0.904943
O O1 0.500000 0.294967 0.547272
O O2 0.220446 0.234030 0.633045
O O3 0.220336 0.286016 0.404944
O O4 0.229575 0.372576 0.585966
O O5 0.500000 0.156116 0.652809
O O6 0.219953 0.121007 0.779786
O O7 0.222650 0.113434 0.530122
O O8 0.500000 0.843885 0.657077
O O9 0.780048 0.878992 0.530099
O O10 0.779553 0.765970 0.676843
O O11 0.777350 0.886567 0.779764
O O12 0.500000 0.918290 0.404944
O O13 0.778552 0.996039 0.404944
O O14 0.500000 0.705034 0.762618
O O15 0.229577 0.627425 0.723922
O O16 0.289838 0.500000 0.154944
O O17 0.000000 0.533377 0.037849
O O18 0.288219 0.542228 0.904944
O O19 0.000000 0.466621 0.272038
O O20 0.500000 0.925615 0.904943
#
# Coordination Sequence:
#
# PCOD9338676 Si02
#       8
#     4   4   4   4   4   4   4   4
#     4   9  16  28  46  65  89 120 148 176 214 262
#     4   9  15  24  36  54  82 114 145 177 215 254
#     4   9  15  24  36  54  82 114 145 177 215 254
#     4   9  16  22  32  54  84 113 144 182 217 251
#     4   9  16  28  46  65  89 120 148 176 214 262
#     4   9  18  33  51  69  89 113 144 181 217 256
#     4   9  18  33  51  69  89 113 144 181 217 256
#     4   9  14  22  36  52  76 115 152 176 209 259
#
# _framework density 20.603781000000001
#
# number of rings (size 3 to 8) (size 9 to 14) (size 15 to 20)
#    0.000    3.000    1.250    0.750    0.000    3.500 
#    2.250    0.000    0.000    0.000    0.000    0.000 
#    0.000    6.000    0.000    0.000    0.000    0.000 
#
# Total GULP energy -178581.037755 kJ/mol
# GULP energy per Si atom -5580.657430 kJ/mol
# Density = 2.055689 g / cm^3
# Si number density = 20.603781 Si / 1000 Ang^3
#
#
#
# Elastic Constant Matrix: (Units=GPa)
#
#
# Indices 1 2 3 4 5 6 
#
# 1 70.8263 -1.0409 5.3001 0.0000 0.0000 0.0000
# 2 -1.0409 196.8920 131.0166 0.0000 0.0000 0.0000
# 3 5.3001 131.0166 178.0000 0.0000 0.0000 0.0000
# 4 0.0000 0.0000 0.0000 37.3983 0.0000 0.0000
# 5 0.0000 0.0000 0.0000 0.0000 -10.0233 0.0000
# 6 0.0000 0.0000 0.0000 0.0000 0.0000 31.8092
#
#
#
# Elastic Compliance Matrix: (Units=1/GPa)
#
#
# Indices 1 2 3 4 5 6 
#
# 1 0.014199 0.000699 -0.000937 0.000000 0.000000 0.000000
# 2 0.000699 0.009989 -0.007373 0.000000 0.000000 0.000000
# 3 -0.000937 -0.007373 0.011073 0.000000 0.000000 0.000000
# 4 0.000000 0.000000 0.000000 0.026739 0.000000 0.000000
# 5 0.000000 0.000000 0.000000 0.000000 -0.099767 0.000000
# 6 0.000000 0.000000 0.000000 0.000000 0.000000 0.031437
#
#
# Mechanical properties :
#
#
# Convention : Reuss Voigt Hill
#
# Bulk Modulus (GPa) = 49.90493 79.58556 64.74525
# Shear Modulus (GPa) = 321.07784 32.53300 176.80542
#
# Velocity S-wave (km/s) = 12.49691 3.97795 9.27353
# Velocity P-wave (km/s) = 15.24809 7.73365 12.08953
#
# Compressibility (1/GPa) = 0.02003810
#
# Stress axis : x y z
#
# Youngs Moduli (GPa) = 70.42537 100.11182 90.31131
#
# Poissons Ratio (x) = -0.06993 0.08462
# Poissons Ratio (y) = -0.04920 0.66587
# Poissons Ratio (z) = 0.06599 0.73813
#
# Static dielectric constant tensor:
#      x y z
#    x 1.793130 0.000000 0.000000 
#    y 0.000000 1.701480 0.000000 
#    z 0.000000 0.000000 1.708030 
# 
# From -- ./inp_files/2003.got.cif
#   From: 2010.05.17/outbox.cif.g08.bks.cpg/sg26_2_cif.got.tgz:2003.got - 2010.06.04 01:07:29.
