data_PCOD9338990
_publ_section_title
;
Structure prediction by ZEFSAII (Michael W. Deem and Ramdas Pophale) SiO2 
 PCOD9338990
Probable space group: P C C 2
;
_chemical_formula_sum "Si O2"
_cell_formula_units_Z 20
_cell_length_a 7.594374
_cell_length_b 8.217408
_cell_length_c 13.674315
_cell_angle_alpha 90.000000
_cell_angle_beta 90.000000
_cell_angle_gamma 90.000000
_cell_volume 853.360254
_symmetry_space_group_name_H-M "P C C 2"
_symmetry_group_IT_number 27
_symmetry_cell_setting 'orthorhombic'
loop_
_space_group_symop_operation_xyz
x,y,z
-x,-y,z
-x,y,1/2+z
x,-y,1/2+z
loop_
_atom_site_type_symbol
_atom_site_label
_atom_site_fract_x
_atom_site_fract_y
_atom_site_fract_z
Si Si1 0.500000 0.000000 0.232350
Si Si2 0.917006 0.157829 0.858600
Si Si3 0.000000 0.000000 0.540176
Si Si4 0.207157 0.451916 0.244125
Si Si5 0.695779 0.236367 0.586511
Si Si6 0.693302 0.745691 0.865802
O O1 0.426164 0.133448 0.157932
O O2 0.630987 0.097498 0.304585
O O3 0.790335 0.281535 0.805254
O O4 0.095825 0.253850 0.882506
O O5 0.000000 0.000000 0.802846
O O6 0.862669 0.086536 0.963996
O O7 0.883319 0.136821 0.590975
O O8 0.272605 0.410301 0.136107
O O9 0.322327 0.586867 0.298596
O O10 0.000000 0.500000 0.237759
O O11 0.623922 0.251468 0.476370
#
# Coordination Sequence:
#
# PCOD9338990 Si02
#       6
#     2   4   2   4   4   4
#     4  12  26  44  70  90 140 182 236 262 340 428
#     4   8  16  37  64  97 127 167 213 283 329 382
#     4   8  20  34  70  98 128 162 238 270 338 386
#     4  10  22  38  69 101 138 165 223 284 349 387
#     4  11  24  42  69 100 126 183 227 273 343 405
#     4  10  23  44  60  96 139 173 220 283 334 398
#
# _framework density 23.436762000000002
#
# number of rings (size 3 to 8) (size 9 to 14) (size 15 to 20)
#    0.600    1.600    0.000    1.800    7.000    4.800 
#    0.000    2.000    0.000    0.000    0.000    0.000 
#    0.000    0.000    0.000    0.000    0.000    0.000 
#
# Total GULP energy -111465.642005 kJ/mol
# GULP energy per Si atom -5573.282100 kJ/mol
# Density = 2.338342 g / cm^3
# Si number density = 23.436762 Si / 1000 Ang^3
#
#
#
# Elastic Constant Matrix: (Units=GPa)
#
#
# Indices 1 2 3 4 5 6 
#
# 1 39.4320 2.7668 25.3629 0.0000 0.0000 0.0000
# 2 2.7668 91.3587 42.4366 0.0000 0.0000 0.0000
# 3 25.3629 42.4366 151.8730 0.0000 0.0000 0.0000
# 4 0.0000 0.0000 0.0000 42.5178 0.0000 0.0000
# 5 0.0000 0.0000 0.0000 0.0000 16.2204 0.0000
# 6 0.0000 0.0000 0.0000 0.0000 0.0000 33.1095
#
#
#
# Elastic Compliance Matrix: (Units=1/GPa)
#
#
# Indices 1 2 3 4 5 6 
#
# 1 0.028603 0.001554 -0.005211 0.000000 0.000000 0.000000
# 2 0.001554 0.012663 -0.003798 0.000000 0.000000 0.000000
# 3 -0.005211 -0.003798 0.008516 0.000000 0.000000 0.000000
# 4 0.000000 0.000000 0.000000 0.023520 0.000000 0.000000
# 5 0.000000 0.000000 0.000000 0.000000 0.061651 0.000000
# 6 0.000000 0.000000 0.000000 0.000000 0.000000 0.030203
#
#
# Mechanical properties :
#
#
# Convention : Reuss Voigt Hill
#
# Bulk Modulus (GPa) = 28.67589 47.08847 37.88218
# Shear Modulus (GPa) = 26.08403 32.50935 29.29669
#
# Velocity S-wave (km/s) = 3.33972 3.72843 3.53941
# Velocity P-wave (km/s) = 5.20899 6.21854 5.73602
#
# Compressibility (1/GPa) = 0.03487250
#
# Stress axis : x y z
#
# Youngs Moduli (GPa) = 34.96164 78.97071 117.42751
#
# Poissons Ratio (x) = -0.12274 0.61191
# Poissons Ratio (y) = -0.05434 0.44597
# Poissons Ratio (z) = 0.18218 0.29992
#
# Static dielectric constant tensor:
#      x y z
#    x 1.993610 0.000000 0.000000 
#    y 0.000000 1.966370 0.000000 
#    z 0.000000 0.000000 1.932380 
# 
# From -- ./inp_files/2279.got.cif
#   From: 2010.05.17/outbox.cif.g08.bks.cpg/sg27_2_cif.got.tgz:2279.got - 2010.06.04 01:11:05.
