data_PCOD9338664
_publ_section_title
;
Structure prediction by ZEFSAII (Michael W. Deem and Ramdas Pophale) SiO2 
 PCOD9338664
Probable space group: P M C 21
;
_chemical_formula_sum "Si O2"
_cell_formula_units_Z 24
_cell_length_a 24.433200
_cell_length_b 4.786753
_cell_length_c 8.245416
_cell_angle_alpha 90.000000
_cell_angle_beta 90.000000
_cell_angle_gamma 90.000000
_cell_volume 964.348346
_symmetry_space_group_name_H-M "P M C 21"
_symmetry_group_IT_number 26
_symmetry_cell_setting 'orthorhombic'
loop_
_space_group_symop_operation_xyz
x,y,z
-x,-y,1/2+z
-x,y,z
x,-y,1/2+z
loop_
_atom_site_type_symbol
_atom_site_label
_atom_site_fract_x
_atom_site_fract_y
_atom_site_fract_z
Si Si1 0.772171 0.388253 0.939130
Si Si2 0.729971 0.911190 0.124867
Si Si3 0.604554 0.910762 0.064300
Si Si4 0.104806 0.608015 0.317552
Si Si5 0.937092 0.914792 0.631455
Si Si6 0.436996 0.419545 0.877149
O O1 0.739051 0.232108 0.797855
O O2 0.833492 0.426573 0.877002
O O3 0.746246 0.677113 0.993780
O O4 0.768098 0.178556 0.092567
O O5 0.666957 0.988544 0.100468
O O6 0.599919 0.687632 0.917202
O O7 0.571837 0.187114 0.016626
O O8 0.579620 0.742084 0.214749
O O9 0.077629 0.319961 0.264398
O O10 0.072954 0.766013 0.460462
O O11 0.101075 0.818743 0.164558
O O12 0.000000 0.003944 0.644862
O O13 0.500000 0.509273 0.872059
#
# Coordination Sequence:
#
# PCOD9338664 Si02
#       6
#     4   4   4   4   4   4
#     4  12  25  44  67  96 130 170 214 264 319 380
#     4  12  24  43  67  96 130 169 213 264 319 380
#     4  12  25  43  66  96 129 169 214 264 319 380
#     4  12  25  44  67  96 130 170 214 264 319 380
#     4  12  24  42  66  96 129 168 213 264 319 380
#     4  12  25  44  67  96 130 170 214 264 319 380
#
# _framework density 24.887274999999999
#
# number of rings (size 3 to 8) (size 9 to 14) (size 15 to 20)
#    0.000    0.000    0.000   12.000    0.000    0.000 
#    0.000    0.000    0.000    0.000    0.000    0.000 
#    0.000    0.000    0.000    0.000    0.000    0.000 
#
# Total GULP energy -134813.780535 kJ/mol
# GULP energy per Si atom -5617.240856 kJ/mol
# Density = 2.483063 g / cm^3
# Si number density = 24.887275 Si / 1000 Ang^3
#
#
#
# Elastic Constant Matrix: (Units=GPa)
#
#
# Indices 1 2 3 4 5 6 
#
# 1 90.1996 1.7675 4.1702 0.0000 0.0000 0.0000
# 2 1.7675 88.4191 7.4556 0.0000 0.0000 0.0000
# 3 4.1702 7.4556 77.5710 0.0000 0.0000 0.0000
# 4 0.0000 0.0000 0.0000 43.1462 0.0000 0.0000
# 5 0.0000 0.0000 0.0000 0.0000 41.9002 0.0000
# 6 0.0000 0.0000 0.0000 0.0000 0.0000 -210.3983
#
#
#
# Elastic Compliance Matrix: (Units=1/GPa)
#
#
# Indices 1 2 3 4 5 6 
#
# 1 0.011117 -0.000173 -0.000581 0.000000 0.000000 0.000000
# 2 -0.000173 0.011405 -0.001087 0.000000 0.000000 0.000000
# 3 -0.000581 -0.001087 0.013027 0.000000 0.000000 0.000000
# 4 0.000000 0.000000 0.000000 0.023177 0.000000 0.000000
# 5 0.000000 0.000000 0.000000 0.000000 0.023866 0.000000
# 6 0.000000 0.000000 0.000000 0.000000 0.000000 -0.004753
#
#
# Mechanical properties :
#
#
# Convention : Reuss Voigt Hill
#
# Bulk Modulus (GPa) = 31.38077 31.44179 31.41128
# Shear Modulus (GPa) = 54.26319 -8.88396 22.68961
#
# Velocity S-wave (km/s) = 4.67450 -1.89141 3.02271
# Velocity P-wave (km/s) = 6.46306 2.80913 4.98309
#
# Compressibility (1/GPa) = 0.03186665
#
# Stress axis : x y z
#
# Youngs Moduli (GPa) = 89.95408 87.68172 76.76302
#
# Poissons Ratio (x) = 0.01519 0.04460
# Poissons Ratio (y) = 0.01558 0.08343
# Poissons Ratio (z) = 0.05226 0.09530
#
# Static dielectric constant tensor:
#      x y z
#    x 1.875750 0.000000 0.000000 
#    y 0.000000 1.915850 0.000000 
#    z 0.000000 0.000000 2.068670 
# 
# From -- ./inp_files/2502.got.cif
#   From: 2010.05.17/outbox.cif.g08.bks.cpg/sg26_2_cif.got.tgz:2502.got - 2010.06.04 01:07:29.
