data_PCOD9338767
_publ_section_title
;
Structure prediction by ZEFSAII (Michael W. Deem and Ramdas Pophale) SiO2 
 PCOD9338767
Probable space group: P C C 2
;
_chemical_formula_sum "Si O2"
_cell_formula_units_Z 32
_cell_length_a 8.997011
_cell_length_b 10.737734
_cell_length_c 14.300061
_cell_angle_alpha 90.000000
_cell_angle_beta 90.000000
_cell_angle_gamma 90.000000
_cell_volume 1381.493299
_symmetry_space_group_name_H-M "P C C 2"
_symmetry_group_IT_number 27
_symmetry_cell_setting 'orthorhombic'
loop_
_space_group_symop_operation_xyz
x,y,z
-x,-y,z
-x,y,1/2+z
x,-y,1/2+z
loop_
_atom_site_type_symbol
_atom_site_label
_atom_site_fract_x
_atom_site_fract_y
_atom_site_fract_z
Si Si1 0.953937 0.826708 0.586740
Si Si2 0.339947 0.959524 0.101147
Si Si3 0.480321 0.291648 0.527882
Si Si4 0.097109 0.386106 0.321400
Si Si5 0.776503 0.675571 0.141287
Si Si6 0.386807 0.893826 0.409491
Si Si7 0.944472 0.131795 0.370333
Si Si8 0.193729 0.428587 0.532972
O O1 0.833402 0.926398 0.627915
O O2 0.876917 0.689748 0.585313
O O3 0.113396 0.793572 0.632382
O O4 0.994368 0.860203 0.478368
O O5 0.383413 0.825579 0.060392
O O6 0.500000 0.000000 0.151819
O O7 0.337903 0.050899 0.011348
O O8 0.617244 0.301469 0.597445
O O9 0.539243 0.240366 0.428305
O O10 0.370881 0.407015 0.529676
O O11 0.229039 0.363295 0.248963
O O12 0.143639 0.421733 0.425666
O O13 0.000000 0.500000 0.283809
O O14 0.005264 0.258144 0.326062
O O15 0.838905 0.560237 0.079981
O O16 0.232609 0.873122 0.358933
O O17 0.500000 0.000000 0.373152
O O18 0.000000 0.000000 0.332731
#
# Coordination Sequence:
#
# PCOD9338767 Si02
#       8
#     4   4   4   4   4   4   4   4
#     4  10  18  32  62  90 121 168 226 285 340 410
#     4   8  16  31  52  92 125 161 217 287 337 406
#     4   9  19  34  61  94 121 170 228 283 345 420
#     4  11  26  43  66 101 144 185 235 302 367 431
#     4  12  22  40  65  95 137 183 235 297 357 428
#     4   9  17  32  60  96 129 169 226 295 346 413
#     4  11  20  37  65 101 133 180 241 288 344 427
#     4  10  21  40  63  91 127 177 233 277 349 426
#
# _framework density 23.163340999999999
#
# number of rings (size 3 to 8) (size 9 to 14) (size 15 to 20)
#    0.000    2.250    2.500    3.000    1.750    0.000 
#    0.000    5.625    5.500    0.750    0.000    0.000 
#    0.000    0.000    0.000    0.000    0.000    0.000 
#
# Total GULP energy -178390.889483 kJ/mol
# GULP energy per Si atom -5574.715296 kJ/mol
# Density = 2.311062 g / cm^3
# Si number density = 23.163341 Si / 1000 Ang^3
#
#
#
# Elastic Constant Matrix: (Units=GPa)
#
#
# Indices 1 2 3 4 5 6 
#
# 1 133.8883 27.5905 12.2921 0.0000 0.0000 0.0000
# 2 27.5905 115.9906 20.1335 0.0000 0.0000 0.0000
# 3 12.2921 20.1335 65.1838 0.0000 0.0000 0.0000
# 4 0.0000 0.0000 0.0000 -10.1666 0.0000 0.0000
# 5 0.0000 0.0000 0.0000 0.0000 68.6206 0.0000
# 6 0.0000 0.0000 0.0000 0.0000 0.0000 46.8750
#
#
#
# Elastic Compliance Matrix: (Units=1/GPa)
#
#
# Indices 1 2 3 4 5 6 
#
# 1 0.007911 -0.001715 -0.000962 0.000000 0.000000 0.000000
# 2 -0.001715 0.009481 -0.002605 0.000000 0.000000 0.000000
# 3 -0.000962 -0.002605 0.016327 0.000000 0.000000 0.000000
# 4 0.000000 0.000000 0.000000 -0.098362 0.000000 0.000000
# 5 0.000000 0.000000 0.000000 0.000000 0.014573 0.000000
# 6 0.000000 0.000000 0.000000 0.000000 0.000000 0.021333
#
#
# Mechanical properties :
#
#
# Convention : Reuss Voigt Hill
#
# Bulk Modulus (GPa) = 43.18654 48.34387 45.76521
# Shear Modulus (GPa) = -478.30508 38.06893 -220.11808
#
# Velocity S-wave (km/s) = -14.38543 4.05841 -9.75884
# Velocity P-wave (km/s) = 16.03858 6.54806 10.35275
#
# Compressibility (1/GPa) = 0.02315536
#
# Stress axis : x y z
#
# Youngs Moduli (GPa) = 126.41285 105.46893 61.24690
#
# Poissons Ratio (x) = 0.18084 0.05893
# Poissons Ratio (y) = 0.21676 0.15956
# Poissons Ratio (z) = 0.12163 0.27477
#
# Static dielectric constant tensor:
#      x y z
#    x 1.806470 0.000000 0.000000 
#    y 0.000000 1.927700 0.000000 
#    z 0.000000 0.000000 1.850730 
# 
# From -- ./inp_files/3472.got.cif
#   From: 2010.05.17/outbox.cif.g08.bks.cpg/sg27_2_cif.got.tgz:3472.got - 2010.06.04 01:11:05.
