data_PCOD9338334
_publ_section_title
;
Structure prediction by ZEFSAII (Michael W. Deem and Ramdas Pophale) SiO2 
 PCOD9338334
Probable space group: P M C 21
;
_chemical_formula_sum "Si O2"
_cell_formula_units_Z 24
_cell_length_a 21.739132
_cell_length_b 9.436498
_cell_length_c 5.199705
_cell_angle_alpha 90.000000
_cell_angle_beta 90.000000
_cell_angle_gamma 90.000000
_cell_volume 1066.674117
_symmetry_space_group_name_H-M "P M C 21"
_symmetry_group_IT_number 26
_symmetry_cell_setting 'orthorhombic'
loop_
_space_group_symop_operation_xyz
x,y,z
-x,-y,1/2+z
-x,y,z
x,-y,1/2+z
loop_
_atom_site_type_symbol
_atom_site_label
_atom_site_fract_x
_atom_site_fract_y
_atom_site_fract_z
Si Si1 0.627067 0.092615 0.846110
Si Si2 0.174215 0.696627 0.706361
Si Si3 0.071611 0.903153 0.896951
Si Si4 0.225870 0.910924 0.328499
Si Si5 0.425732 0.590650 0.334776
Si Si6 0.752216 0.551144 0.061665
O O1 0.701092 0.109841 0.843335
O O2 0.599182 0.249332 0.843171
O O3 0.610130 0.998590 0.597678
O O4 0.115260 0.770022 0.829145
O O5 0.190624 0.776838 0.443833
O O6 0.183421 0.531788 0.630437
O O7 0.230845 0.695328 0.916602
O O8 0.000000 0.859727 0.882660
O O9 0.080776 0.977343 0.174492
O O10 0.210239 0.024510 0.553593
O O11 0.500000 0.601620 0.337086
O O12 0.408037 0.494367 0.578175
O O13 0.720607 0.457469 0.837260
#
# Coordination Sequence:
#
# PCOD9338334 Si02
#       6
#     4   4   4   4   4   4
#     4  10  21  39  56  84 119 149 194 240 281 343
#     4  10  20  36  55  73 108 133 174 213 263 312
#     4  10  22  35  53  78 100 129 169 215 261 313
#     4  10  22  34  55  80 105 143 177 220 268 318
#     4  10  21  38  59  87 118 152 196 238 283 342
#     4   8  20  32  49  74 100 128 167 210 240 310
#
# _framework density 22.499842000000001
#
# number of rings (size 3 to 8) (size 9 to 14) (size 15 to 20)
#    1.000    1.333    0.000    2.000    4.667    0.667 
#    3.000    0.833    0.000    0.000    0.000    0.000 
#    0.000    0.000    0.000    0.000    0.000    0.000 
#
# Total GULP energy -133840.684575 kJ/mol
# GULP energy per Si atom -5576.695191 kJ/mol
# Density = 2.244863 g / cm^3
# Si number density = 22.499842 Si / 1000 Ang^3
#
#
#
# Elastic Constant Matrix: (Units=GPa)
#
#
# Indices 1 2 3 4 5 6 
#
# 1 62.8647 32.6078 5.9386 0.0000 0.0000 0.0000
# 2 32.6078 135.1144 49.3564 0.0000 0.0000 0.0000
# 3 5.9386 49.3564 155.5426 0.0000 0.0000 0.0000
# 4 0.0000 0.0000 0.0000 36.6805 0.0000 0.0000
# 5 0.0000 0.0000 0.0000 0.0000 20.8084 0.0000
# 6 0.0000 0.0000 0.0000 0.0000 0.0000 35.6184
#
#
#
# Elastic Compliance Matrix: (Units=1/GPa)
#
#
# Indices 1 2 3 4 5 6 
#
# 1 0.018270 -0.004699 0.000794 0.000000 0.000000 0.000000
# 2 -0.004699 0.009580 -0.002861 0.000000 0.000000 0.000000
# 3 0.000794 -0.002861 0.007307 0.000000 0.000000 0.000000
# 4 0.000000 0.000000 0.000000 0.027262 0.000000 0.000000
# 5 0.000000 0.000000 0.000000 0.000000 0.048057 0.000000
# 6 0.000000 0.000000 0.000000 0.000000 0.000000 0.028075
#
#
# Mechanical properties :
#
#
# Convention : Reuss Voigt Hill
#
# Bulk Modulus (GPa) = 46.24439 58.81415 52.52927
# Shear Modulus (GPa) = 31.38900 36.32937 33.85918
#
# Velocity S-wave (km/s) = 3.73912 4.02263 3.88346
# Velocity P-wave (km/s) = 6.26412 6.91173 6.59588
#
# Compressibility (1/GPa) = 0.02162425
#
# Stress axis : x y z
#
# Youngs Moduli (GPa) = 54.73592 104.38317 136.86428
#
# Poissons Ratio (x) = 0.49049 -0.10861
# Poissons Ratio (y) = 0.25720 0.39150
# Poissons Ratio (z) = -0.04343 0.29859
#
# Static dielectric constant tensor:
#      x y z
#    x 1.856400 0.000000 0.000000 
#    y 0.000000 1.916140 0.000000 
#    z 0.000000 0.000000 2.017690 
# 
# From -- ./inp_files/947.got.cif
#   From: 2010.05.17/outbox.cif.g08.bks.cpg/sg26_1_cif.got.tgz:947.got - 2010.06.04 01:07:29.
