data_PCOD9338853
_publ_section_title
;
Structure prediction by ZEFSAII (Michael W. Deem and Ramdas Pophale) SiO2 
 PCOD9338853
Probable space group: P C C 2
;
_chemical_formula_sum "Si O2"
_cell_formula_units_Z 20
_cell_length_a 7.622310
_cell_length_b 11.440478
_cell_length_c 9.910148
_cell_angle_alpha 90.000000
_cell_angle_beta 90.000000
_cell_angle_gamma 90.000000
_cell_volume 864.193346
_symmetry_space_group_name_H-M "P C C 2"
_symmetry_group_IT_number 27
_symmetry_cell_setting 'orthorhombic'
loop_
_space_group_symop_operation_xyz
x,y,z
-x,-y,z
-x,y,1/2+z
x,-y,1/2+z
loop_
_atom_site_type_symbol
_atom_site_label
_atom_site_fract_x
_atom_site_fract_y
_atom_site_fract_z
Si Si1 0.955391 0.244948 0.790530
Si Si2 0.094988 0.377509 0.549819
Si Si3 0.187733 0.947431 0.966329
Si Si4 0.340683 0.809613 0.401819
Si Si5 0.411695 0.751118 0.123443
O O1 0.975506 0.286424 0.637560
O O2 0.153015 0.230668 0.847315
O O3 0.860388 0.124445 0.829963
O O4 0.881952 0.341895 0.893603
O O5 0.288038 0.362680 0.614273
O O6 0.000000 0.500000 0.561952
O O7 0.286576 0.856094 0.064005
O O8 0.312860 0.055803 0.938285
O O9 0.000000 0.000000 0.017045
O O10 0.422079 0.743805 0.527698
O O11 0.463990 0.786218 0.273567
#
# Coordination Sequence:
#
# PCOD9338853 Si02
#       5
#     4   4   4   4   4
#     4   9  20  36  58  84 111 147 196 241 286 345
#     4  10  20  38  61  84 109 146 197 249 291 333
#     4   9  19  34  55  83 116 153 193 239 287 341
#     4  10  21  36  54  82 120 153 185 231 292 356
#     4  10  22  36  55  85 116 153 192 232 289 351
#
# _framework density 23.142968
#
# number of rings (size 3 to 8) (size 9 to 14) (size 15 to 20)
#    0.000    2.400    0.000    1.200    0.000   13.600 
#    0.000    1.000    0.000    4.800    0.000    0.000 
#    0.000    0.000    0.000    0.000    0.000    0.000 
#
# Total GULP energy -111708.555788 kJ/mol
# GULP energy per Si atom -5585.427789 kJ/mol
# Density = 2.309029 g / cm^3
# Si number density = 23.142968 Si / 1000 Ang^3
#
#
#
# Elastic Constant Matrix: (Units=GPa)
#
#
# Indices 1 2 3 4 5 6 
#
# 1 78.8744 12.5960 -0.1508 0.0000 0.0000 0.0000
# 2 12.5960 69.8011 -10.3365 0.0000 0.0000 0.0000
# 3 -0.1508 -10.3365 80.6064 0.0000 0.0000 0.0000
# 4 0.0000 0.0000 0.0000 15.6005 0.0000 0.0000
# 5 0.0000 0.0000 0.0000 0.0000 -153.4810 0.0000
# 6 0.0000 0.0000 0.0000 0.0000 0.0000 7.3120
#
#
#
# Elastic Compliance Matrix: (Units=1/GPa)
#
#
# Indices 1 2 3 4 5 6 
#
# 1 0.013061 -0.002399 -0.000283 0.000000 0.000000 0.000000
# 2 -0.002399 0.015044 0.001925 0.000000 0.000000 0.000000
# 3 -0.000283 0.001925 0.012652 0.000000 0.000000 0.000000
# 4 0.000000 0.000000 0.000000 0.064100 0.000000 0.000000
# 5 0.000000 0.000000 0.000000 0.000000 -0.006515 0.000000
# 6 0.000000 0.000000 0.000000 0.000000 0.000000 0.136762
#
#
# Mechanical properties :
#
#
# Convention : Reuss Voigt Hill
#
# Bulk Modulus (GPa) = 25.48234 25.94436 25.71335
# Shear Modulus (GPa) = 20.02405 -10.96881 4.52762
#
# Velocity S-wave (km/s) = 2.94467 -2.17942 1.40022
# Velocity P-wave (km/s) = 4.75355 2.21397 3.70795
#
# Compressibility (1/GPa) = 0.03924287
#
# Stress axis : x y z
#
# Youngs Moduli (GPa) = 76.56418 66.47021 79.03734
#
# Poissons Ratio (x) = 0.15945 0.02238
# Poissons Ratio (y) = 0.18367 -0.15212
# Poissons Ratio (z) = 0.02168 -0.12794
#
# Static dielectric constant tensor:
#      x y z
#    x 2.628320 0.000000 0.000000 
#    y 0.000000 1.856240 0.000000 
#    z 0.000000 0.000000 1.900160 
# 
# From -- ./inp_files/1036.got.cif
#   From: 2010.05.17/outbox.cif.g08.bks.cpg/sg27_1_cif.got.tgz:1036.got - 2010.06.04 01:11:05.
