data_PCOD9338529
_publ_section_title
;
Structure prediction by ZEFSAII (Michael W. Deem and Ramdas Pophale) SiO2 
 PCOD9338529
Probable space group: P M C 21
;
_chemical_formula_sum "Si O2"
_cell_formula_units_Z 24
_cell_length_a 14.495121
_cell_length_b 5.528147
_cell_length_c 13.521434
_cell_angle_alpha 90.000000
_cell_angle_beta 90.000000
_cell_angle_gamma 90.000000
_cell_volume 1083.488187
_symmetry_space_group_name_H-M "P M C 21"
_symmetry_group_IT_number 26
_symmetry_cell_setting 'orthorhombic'
loop_
_space_group_symop_operation_xyz
x,y,z
-x,-y,1/2+z
-x,y,z
x,-y,1/2+z
loop_
_atom_site_type_symbol
_atom_site_label
_atom_site_fract_x
_atom_site_fract_y
_atom_site_fract_z
Si Si1 0.398936 0.929215 0.320200
Si Si2 0.216989 0.316225 0.640315
Si Si3 0.604471 0.426900 0.196654
Si Si4 0.890901 0.988775 0.776211
Si Si5 0.899296 0.687805 0.572494
Si Si6 0.772969 0.000592 0.453800
O O1 0.500000 0.955078 0.365760
O O2 0.387492 0.164523 0.248888
O O3 0.321164 0.942898 0.400915
O O4 0.396651 0.669631 0.265423
O O5 0.296815 0.519590 0.645058
O O6 0.182374 0.198450 0.742762
O O7 0.120533 0.412857 0.596921
O O8 0.249623 0.135780 0.555691
O O9 0.500000 0.427423 0.149358
O O10 0.000000 0.051207 0.791382
O O11 0.888537 0.819608 0.678748
O O12 0.842698 0.876892 0.873712
O O13 0.000000 0.740552 0.535038
O O14 0.828398 0.768557 0.490221
#
# Coordination Sequence:
#
# PCOD9338529 Si02
#       6
#     4   4   4   4   4   4
#     4  10  22  42  68  96 130 172 217 267 327 394
#     4  11  23  38  63  90 130 173 222 274 340 405
#     4  10  22  42  69  97 131 173 219 271 329 396
#     4  10  21  40  61  85 124 169 219 274 333 400
#     4  10  23  40  60  92 128 170 220 276 333 399
#     4  11  23  38  63  94 127 169 219 278 334 398
#
# _framework density 22.150679
#
# number of rings (size 3 to 8) (size 9 to 14) (size 15 to 20)
#    0.000    1.667    1.667    2.000    4.667    4.000 
#    0.000    2.500    0.000    0.000    0.000    0.000 
#    0.000    0.000    0.000    0.000    0.000    0.000 
#
# Total GULP energy -133663.939424 kJ/mol
# GULP energy per Si atom -5569.330809 kJ/mol
# Density = 2.210026 g / cm^3
# Si number density = 22.150679 Si / 1000 Ang^3
#
#
#
# Elastic Constant Matrix: (Units=GPa)
#
#
# Indices 1 2 3 4 5 6 
#
# 1 147.8777 3.3212 51.5766 0.0000 0.0000 0.0000
# 2 3.3212 52.3965 10.5553 0.0000 0.0000 0.0000
# 3 51.5766 10.5553 64.2101 0.0000 0.0000 0.0000
# 4 0.0000 0.0000 0.0000 6.4361 0.0000 0.0000
# 5 0.0000 0.0000 0.0000 0.0000 30.4541 0.0000
# 6 0.0000 0.0000 0.0000 0.0000 0.0000 28.4583
#
#
#
# Elastic Compliance Matrix: (Units=1/GPa)
#
#
# Indices 1 2 3 4 5 6 
#
# 1 0.009441 0.000961 -0.007741 0.000000 0.000000 0.000000
# 2 0.000961 0.019837 -0.004033 0.000000 0.000000 0.000000
# 3 -0.007741 -0.004033 0.022455 0.000000 0.000000 0.000000
# 4 0.000000 0.000000 0.000000 0.155374 0.000000 0.000000
# 5 0.000000 0.000000 0.000000 0.000000 0.032836 0.000000
# 6 0.000000 0.000000 0.000000 0.000000 0.000000 0.035139
#
#
# Mechanical properties :
#
#
# Convention : Reuss Voigt Hill
#
# Bulk Modulus (GPa) = 33.21560 43.93229 38.57394
# Shear Modulus (GPa) = 16.30024 26.33844 21.31934
#
# Velocity S-wave (km/s) = 2.71565 3.45201 3.10573
# Velocity P-wave (km/s) = 4.98607 5.98038 5.50572
#
# Compressibility (1/GPa) = 0.03010634
#
# Stress axis : x y z
#
# Youngs Moduli (GPa) = 105.92378 50.41147 44.53351
#
# Poissons Ratio (x) = -0.04845 0.34475
# Poissons Ratio (y) = -0.10180 0.17960
# Poissons Ratio (z) = 0.81998 0.20330
#
# Static dielectric constant tensor:
#      x y z
#    x 1.865160 0.000000 0.000000 
#    y 0.000000 1.865270 0.000000 
#    z 0.000000 0.000000 1.853640 
# 
# From -- ./inp_files/4623.got.cif
#   From: 2010.05.17/outbox.cif.g08.bks.cpg/sg26_3_cif.got.tgz:4623.got - 2010.06.04 01:07:29.
