data_PCOD9338031
_publ_section_title
;
Structure prediction by ZEFSAII (Michael W. Deem and Ramdas Pophale) SiO2 
 PCOD9338031
Probable space group: P M C 21
;
_chemical_formula_sum "Si O2"
_cell_formula_units_Z 32
_cell_length_a 22.900813
_cell_length_b 7.177947
_cell_length_c 7.155188
_cell_angle_alpha 90.000000
_cell_angle_beta 90.000000
_cell_angle_gamma 90.000000
_cell_volume 1176.175685
_symmetry_space_group_name_H-M "P M C 21"
_symmetry_group_IT_number 26
_symmetry_cell_setting 'orthorhombic'
loop_
_space_group_symop_operation_xyz
x,y,z
-x,-y,1/2+z
-x,y,z
x,-y,1/2+z
loop_
_atom_site_type_symbol
_atom_site_label
_atom_site_fract_x
_atom_site_fract_y
_atom_site_fract_z
Si Si1 0.189197 0.304462 0.197010
Si Si2 0.938065 0.812163 0.191071
Si Si3 0.438109 0.279133 0.180474
Si Si4 0.688314 0.862291 0.267546
Si Si5 0.437046 0.843683 0.249094
Si Si6 0.685715 0.290787 0.189351
Si Si7 0.813375 0.908443 0.303582
Si Si8 0.064199 0.567660 0.817492
O O1 0.253242 0.397135 0.222500
O O2 0.128550 0.408334 0.228950
O O3 0.192317 0.128616 0.334809
O O4 0.186283 0.212694 0.991445
O O5 0.876814 0.908744 0.209075
O O6 0.938164 0.653963 0.350127
O O7 0.000000 0.917947 0.200096
O O8 0.936538 0.695665 0.999692
O O9 0.500000 0.369891 0.230729
O O10 0.377391 0.377878 0.232178
O O11 0.437835 0.069488 0.264004
O O12 0.437819 0.240844 0.957370
O O13 0.627734 0.804849 0.166950
O O14 0.686189 0.767573 0.470821
O O15 0.754751 0.839206 0.198233
O O16 0.685800 0.087643 0.287478
O O17 0.500000 0.795029 0.158132
O O18 0.000000 0.605366 0.726700
#
# Coordination Sequence:
#
# PCOD9338031 Si02
#       8
#     4   4   4   4   4   4   4   4
#     4  10  19  31  48  70  97 127 158 192 229 271
#     4  10  21  37  55  73  93 118 149 186 229 277
#     4   8  12  18  29  46  71 105 143 179 214 254
#     4   8  14  23  35  54  81 113 147 182 220 260
#     4   8  12  18  29  46  71 105 143 179 214 254
#     4   8  14  23  35  54  81 113 147 182 220 260
#     4  10  19  31  48  70  97 127 158 192 229 271
#     4  10  21  37  55  73  93 118 149 186 229 277
#
# _framework density 27.20682
#
# number of rings (size 3 to 8) (size 9 to 14) (size 15 to 20)
#    0.000    3.000    0.000    1.500    0.000    3.000 
#    0.000    0.000    0.000    0.000    0.000    0.000 
#    0.000    1.000    0.000    1.750    0.000   12.500 
#
# Total GULP energy -178461.756298 kJ/mol
# GULP energy per Si atom -5576.929884 kJ/mol
# Density = 2.714490 g / cm^3
# Si number density = 27.206820 Si / 1000 Ang^3
#
#
#
# Elastic Constant Matrix: (Units=GPa)
#
#
# Indices 1 2 3 4 5 6 
#
# 1 395.4418 25.5306 38.8801 0.0000 0.0000 0.0000
# 2 25.5306 64.3722 -2.8332 0.0000 0.0000 0.0000
# 3 38.8801 -2.8332 72.7448 0.0000 0.0000 0.0000
# 4 0.0000 0.0000 0.0000 11.4184 0.0000 0.0000
# 5 0.0000 0.0000 0.0000 0.0000 23.7793 0.0000
# 6 0.0000 0.0000 0.0000 0.0000 0.0000 -110.8905
#
#
#
# Elastic Compliance Matrix: (Units=1/GPa)
#
#
# Indices 1 2 3 4 5 6 
#
# 1 0.002753 -0.001158 -0.001516 0.000000 0.000000 0.000000
# 2 -0.001158 0.016049 0.001244 0.000000 0.000000 0.000000
# 3 -0.001516 0.001244 0.014606 0.000000 0.000000 0.000000
# 4 0.000000 0.000000 0.000000 0.087578 0.000000 0.000000
# 5 0.000000 0.000000 0.000000 0.000000 0.042053 0.000000
# 6 0.000000 0.000000 0.000000 0.000000 0.000000 -0.009018
#
#
# Mechanical properties :
#
#
# Convention : Reuss Voigt Hill
#
# Bulk Modulus (GPa) = 32.73757 72.85709 52.79733
# Shear Modulus (GPa) = 29.92874 16.26021 23.09447
#
# Velocity S-wave (km/s) = 3.32029 2.44734 2.91666
# Velocity P-wave (km/s) = 5.17282 5.90111 5.54893
#
# Compressibility (1/GPa) = 0.03054594
#
# Stress axis : x y z
#
# Youngs Moduli (GPa) = 363.27951 62.30968 68.46688
#
# Poissons Ratio (x) = 0.07218 0.10382
# Poissons Ratio (y) = 0.42085 -0.08519
# Poissons Ratio (z) = 0.55086 -0.07753
#
# Static dielectric constant tensor:
#      x y z
#    x 2.199260 0.000000 0.000000 
#    y 0.000000 2.054300 0.000000 
#    z 0.000000 0.000000 2.153690 
# 
# From -- ./inp_files/2501.got.cif
#   From: 2010.05.17/outbox.cif.g08.bks.cpg/sg26_2_cif.got.tgz:2501.got - 2010.06.04 01:07:29.
