data_PCOD9338860
_publ_section_title
;
Structure prediction by ZEFSAII (Michael W. Deem and Ramdas Pophale) SiO2 
 PCOD9338860
Probable space group: P C C 2
;
_chemical_formula_sum "Si O2"
_cell_formula_units_Z 14
_cell_length_a 4.791143
_cell_length_b 8.902868
_cell_length_c 13.666498
_cell_angle_alpha 90.000000
_cell_angle_beta 90.000000
_cell_angle_gamma 90.000000
_cell_volume 582.943293
_symmetry_space_group_name_H-M "P C C 2"
_symmetry_group_IT_number 27
_symmetry_cell_setting 'orthorhombic'
loop_
_space_group_symop_operation_xyz
x,y,z
-x,-y,z
-x,y,1/2+z
x,-y,1/2+z
loop_
_atom_site_type_symbol
_atom_site_label
_atom_site_fract_x
_atom_site_fract_y
_atom_site_fract_z
Si Si1 0.465758 0.300932 0.008880
Si Si2 0.745245 0.614863 0.799829
Si Si3 0.270383 0.898310 0.161583
Si Si4 0.000000 0.500000 0.040980
O O1 0.500000 0.500000 0.273138
O O2 0.580866 0.154956 0.061538
O O3 0.325009 0.302735 0.902473
O O4 0.748368 0.399779 0.996164
O O5 0.785187 0.744928 0.720602
O O6 0.000000 0.500000 0.808807
O O7 0.779093 0.627111 0.078323
O O8 0.500000 0.000000 0.216561
O O9 0.000000 0.000000 0.146827
#
# Coordination Sequence:
#
# PCOD9338860 Si02
#       4
#     4   4   4   2
#     4  11  22  44  73 107 150 189 256 311 386 442
#     4  12  25  46  80 112 144 194 263 326 372 440
#     4  12  29  49  72 110 161 207 246 301 396 472
#     4  10  20  38  70 112 138 170 250 320 370 422
#
# _framework density 24.016055000000001
#
# number of rings (size 3 to 8) (size 9 to 14) (size 15 to 20)
#    0.000    0.571    4.286    3.429    6.000    1.143 
#    0.000    2.857    0.000    0.000    0.000    0.000 
#    0.000    0.000    0.000    0.000    0.000    0.000 
#
# Total GULP energy -78057.393031 kJ/mol
# GULP energy per Si atom -5575.528074 kJ/mol
# Density = 2.396139 g / cm^3
# Si number density = 24.016055 Si / 1000 Ang^3
#
#
#
# Elastic Constant Matrix: (Units=GPa)
#
#
# Indices 1 2 3 4 5 6 
#
# 1 242.9579 95.0338 54.4078 0.0000 0.0000 0.0000
# 2 95.0338 187.9826 82.4147 0.0000 0.0000 0.0000
# 3 54.4078 82.4147 129.8701 0.0000 0.0000 0.0000
# 4 0.0000 0.0000 0.0000 18.7691 0.0000 0.0000
# 5 0.0000 0.0000 0.0000 0.0000 20.3395 0.0000
# 6 0.0000 0.0000 0.0000 0.0000 0.0000 67.6661
#
#
#
# Elastic Compliance Matrix: (Units=1/GPa)
#
#
# Indices 1 2 3 4 5 6 
#
# 1 0.005176 -0.002308 -0.000704 0.000000 0.000000 0.000000
# 2 -0.002308 0.008400 -0.004363 0.000000 0.000000 0.000000
# 3 -0.000704 -0.004363 0.010764 0.000000 0.000000 0.000000
# 4 0.000000 0.000000 0.000000 0.053279 0.000000 0.000000
# 5 0.000000 0.000000 0.000000 0.000000 0.049165 0.000000
# 6 0.000000 0.000000 0.000000 0.000000 0.000000 0.014778
#
#
# Mechanical properties :
#
#
# Convention : Reuss Voigt Hill
#
# Bulk Modulus (GPa) = 104.28616 113.83592 109.06104
# Shear Modulus (GPa) = 31.34607 43.28523 37.31565
#
# Velocity S-wave (km/s) = 3.61669 4.25001 3.94608
# Velocity P-wave (km/s) = 7.80759 8.46087 8.14078
#
# Compressibility (1/GPa) = 0.00958900
#
# Stress axis : x y z
#
# Youngs Moduli (GPa) = 193.18154 119.05386 92.90498
#
# Poissons Ratio (x) = 0.27483 0.06538
# Poissons Ratio (y) = 0.44594 0.40536
# Poissons Ratio (z) = 0.13595 0.51946
#
# Static dielectric constant tensor:
#      x y z
#    x 1.928430 0.000000 0.000000 
#    y 0.000000 1.988550 0.000000 
#    z 0.000000 0.000000 2.126940 
# 
# From -- ./inp_files/2903.got.cif
#   From: 2010.05.17/outbox.cif.g08.bks.cpg/sg27_2_cif.got.tgz:2903.got - 2010.06.04 01:11:05.
