data_PCOD9338980
_publ_section_title
;
Structure prediction by ZEFSAII (Michael W. Deem and Ramdas Pophale) SiO2 
 PCOD9338980
Probable space group: P C C 2
;
_chemical_formula_sum "Si O2"
_cell_formula_units_Z 24
_cell_length_a 10.177819
_cell_length_b 11.671604
_cell_length_c 8.826586
_cell_angle_alpha 90.000000
_cell_angle_beta 90.000000
_cell_angle_gamma 90.000000
_cell_volume 1048.523152
_symmetry_space_group_name_H-M "P C C 2"
_symmetry_group_IT_number 27
_symmetry_cell_setting 'orthorhombic'
loop_
_space_group_symop_operation_xyz
x,y,z
-x,-y,z
-x,y,1/2+z
x,-y,1/2+z
loop_
_atom_site_type_symbol
_atom_site_label
_atom_site_fract_x
_atom_site_fract_y
_atom_site_fract_z
Si Si1 0.500000 0.500000 0.371081
Si Si2 0.000000 0.500000 0.936666
Si Si3 0.395796 0.842744 0.988802
Si Si4 0.000000 0.000000 0.660934
Si Si5 0.108912 0.150468 0.398012
Si Si6 0.500000 0.000000 0.226519
Si Si7 0.395796 0.342744 0.108798
Si Si8 0.108912 0.349532 0.199588
O O1 0.447099 0.400986 0.262330
O O2 0.605909 0.443156 0.482888
O O3 0.887945 0.454817 0.820644
O O4 0.961331 0.601115 0.051764
O O5 0.394091 0.943156 0.114712
O O6 0.500000 0.750000 0.048800
O O7 0.249160 0.803011 0.954397
O O8 0.447099 0.900986 0.835270
O O9 0.112055 0.954817 0.776956
O O10 0.961331 0.898885 0.545836
O O11 0.042275 0.250000 0.298800
O O12 0.249160 0.303011 0.143203
#
# Coordination Sequence:
#
# PCOD9338980 Si02
#       8
#     2   2   4   2   4   2   4   4
#     4  10  22  38  58  90 126 162 204 248 322 386
#     4  10  24  42  64  92 126 174 220 264 320 372
#     4  11  22  39  62  92 126 164 207 262 323 381
#     4  10  24  42  64  92 126 174 220 264 320 372
#     4  11  22  41  64  92 126 166 219 270 316 382
#     4  10  22  38  58  90 126 162 204 248 322 386
#     4  11  22  39  62  92 126 164 207 262 323 381
#     4  11  22  41  64  92 126 166 219 270 316 382
#
# _framework density 22.889339
#
# number of rings (size 3 to 8) (size 9 to 14) (size 15 to 20)
#    0.000    1.333    0.000    6.000    0.000    2.667 
#    0.000   10.000    0.000    0.000    0.000    0.000 
#    0.000    0.000    0.000    0.000    0.000    0.000 
#
# Total GULP energy -133964.533631 kJ/mol
# GULP energy per Si atom -5581.855568 kJ/mol
# Density = 2.283724 g / cm^3
# Si number density = 22.889339 Si / 1000 Ang^3
#
#
#
# Elastic Constant Matrix: (Units=GPa)
#
#
# Indices 1 2 3 4 5 6 
#
# 1 67.3975 18.8622 40.5618 0.0000 0.0000 0.0000
# 2 18.8622 72.9870 49.0358 0.0000 0.0000 0.0000
# 3 40.5618 49.0358 180.0346 0.0000 0.0000 0.0000
# 4 0.0000 0.0000 0.0000 77.7113 0.0000 0.0000
# 5 0.0000 0.0000 0.0000 0.0000 17.7715 0.0000
# 6 0.0000 0.0000 0.0000 0.0000 0.0000 30.3076
#
#
#
# Elastic Compliance Matrix: (Units=1/GPa)
#
#
# Indices 1 2 3 4 5 6 
#
# 1 0.017472 -0.002290 -0.003313 0.000000 0.000000 0.000000
# 2 -0.002290 0.017070 -0.004133 0.000000 0.000000 0.000000
# 3 -0.003313 -0.004133 0.007427 0.000000 0.000000 0.000000
# 4 0.000000 0.000000 0.000000 0.012868 0.000000 0.000000
# 5 0.000000 0.000000 0.000000 0.000000 0.056270 0.000000
# 6 0.000000 0.000000 0.000000 0.000000 0.000000 0.032995
#
#
# Mechanical properties :
#
#
# Convention : Reuss Voigt Hill
#
# Bulk Modulus (GPa) = 44.45106 59.70430 52.07768
# Shear Modulus (GPa) = 29.22750 39.28872 34.25811
#
# Velocity S-wave (km/s) = 3.57726 4.14752 3.87290
# Velocity P-wave (km/s) = 6.04355 7.00545 6.54220
#
# Compressibility (1/GPa) = 0.02249665
#
# Stress axis : x y z
#
# Youngs Moduli (GPa) = 57.23488 58.58301 134.64983
#
# Poissons Ratio (x) = 0.13413 0.44607
# Poissons Ratio (y) = 0.13105 0.55656
# Poissons Ratio (z) = 0.18961 0.24215
#
# Static dielectric constant tensor:
#      x y z
#    x 1.860550 0.000000 0.000000 
#    y 0.000000 1.953160 0.000000 
#    z 0.000000 0.000000 1.829080 
# 
# From -- ./inp_files/1425.got.cif
#   From: 2010.05.17/outbox.cif.g08.bks.cpg/sg27_1_cif.got.tgz:1425.got - 2010.06.04 01:11:05.
