data_PCOD9338406
_publ_section_title
;
Structure prediction by ZEFSAII (Michael W. Deem and Ramdas Pophale) SiO2 
 PCOD9338406
Probable space group: P M C 21
;
_chemical_formula_sum "Si O2"
_cell_formula_units_Z 24
_cell_length_a 7.776763
_cell_length_b 13.929044
_cell_length_c 10.319571
_cell_angle_alpha 90.000000
_cell_angle_beta 90.000000
_cell_angle_gamma 90.000000
_cell_volume 1117.845589
_symmetry_space_group_name_H-M "P M C 21"
_symmetry_group_IT_number 26
_symmetry_cell_setting 'orthorhombic'
loop_
_space_group_symop_operation_xyz
x,y,z
-x,-y,1/2+z
-x,y,z
x,-y,1/2+z
loop_
_atom_site_type_symbol
_atom_site_label
_atom_site_fract_x
_atom_site_fract_y
_atom_site_fract_z
Si Si1 0.299884 0.435264 0.268990
Si Si2 0.700708 0.716985 0.974031
Si Si3 0.198075 0.651930 0.253314
Si Si4 0.796900 0.699469 0.537136
Si Si5 0.291586 0.914920 0.613066
Si Si6 0.710440 0.070765 0.405346
O O1 0.500000 0.457186 0.296569
O O2 0.226290 0.367442 0.383209
O O3 0.208160 0.536746 0.256110
O O4 0.287469 0.374297 0.137214
O O5 0.500000 0.721562 0.936038
O O6 0.713419 0.690384 0.124096
O O7 0.771203 0.822802 0.945437
O O8 0.269928 0.688692 0.390445
O O9 0.000000 0.682890 0.244545
O O10 0.770089 0.807383 0.585999
O O11 0.000000 0.677015 0.534996
O O12 0.500000 0.912352 0.610499
O O13 0.239509 0.946919 0.757010
O O14 0.230979 0.989281 0.504364
O O15 0.500000 0.070638 0.410897
#
# Coordination Sequence:
#
# PCOD9338406 Si02
#       6
#     4   4   4   4   4   4
#     4  11  22  40  65  90 117 153 203 252 299 355
#     4  10  21  39  62  90 120 153 201 249 297 356
#     4  11  25  40  57  87 124 160 201 243 295 359
#     4  11  24  41  60  87 125 164 201 242 295 358
#     4  10  20  38  63  90 120 154 198 249 300 352
#     4   9  19  36  61  92 118 148 194 249 300 348
#
# _framework density 21.46987
#
# number of rings (size 3 to 8) (size 9 to 14) (size 15 to 20)
#    0.000    1.667    1.667    2.500    2.333    6.667 
#    0.000    1.667    0.000    0.000    0.000    0.000 
#    0.000    0.000    0.000    0.000    0.000    0.000 
#
# Total GULP energy -134180.355025 kJ/mol
# GULP energy per Si atom -5590.848126 kJ/mol
# Density = 2.142100 g / cm^3
# Si number density = 21.469870 Si / 1000 Ang^3
#
#
#
# Elastic Constant Matrix: (Units=GPa)
#
#
# Indices 1 2 3 4 5 6 
#
# 1 32.0145 -10.6164 -11.0587 0.0000 0.0000 0.0000
# 2 -10.6164 74.1999 39.1004 0.0000 0.0000 0.0000
# 3 -11.0587 39.1004 145.4787 0.0000 0.0000 0.0000
# 4 0.0000 0.0000 0.0000 44.1843 0.0000 0.0000
# 5 0.0000 0.0000 0.0000 0.0000 16.9241 0.0000
# 6 0.0000 0.0000 0.0000 0.0000 0.0000 61.0685
#
#
#
# Elastic Compliance Matrix: (Units=1/GPa)
#
#
# Indices 1 2 3 4 5 6 
#
# 1 0.033051 0.003967 0.001446 0.000000 0.000000 0.000000
# 2 0.003967 0.016177 -0.004046 0.000000 0.000000 0.000000
# 3 0.001446 -0.004046 0.008071 0.000000 0.000000 0.000000
# 4 0.000000 0.000000 0.000000 0.022632 0.000000 0.000000
# 5 0.000000 0.000000 0.000000 0.000000 0.059087 0.000000
# 6 0.000000 0.000000 0.000000 0.000000 0.000000 0.016375
#
#
# Mechanical properties :
#
#
# Convention : Reuss Voigt Hill
#
# Bulk Modulus (GPa) = 16.65770 31.83821 24.24796
# Shear Modulus (GPa) = 28.95674 40.05324 34.50499
#
# Velocity S-wave (km/s) = 3.67647 4.32389 4.01326
# Velocity P-wave (km/s) = 5.07911 6.30789 5.72656
#
# Compressibility (1/GPa) = 0.06003230
#
# Stress axis : x y z
#
# Youngs Moduli (GPa) = 30.25646 61.81643 123.89522
#
# Poissons Ratio (x) = -0.24521 -0.17918
# Poissons Ratio (y) = -0.12002 0.50132
# Poissons Ratio (z) = -0.04376 0.25013
#
# Static dielectric constant tensor:
#      x y z
#    x 1.734080 0.000000 0.000000 
#    y 0.000000 1.727460 0.000000 
#    z 0.000000 0.000000 1.759920 
# 
# From -- ./inp_files/1448.got.cif
#   From: 2010.05.17/outbox.cif.g08.bks.cpg/sg26_1_cif.got.tgz:1448.got - 2010.06.04 01:07:29.
