data_PCOD9338795
_publ_section_title
;
Structure prediction by ZEFSAII (Michael W. Deem and Ramdas Pophale) SiO2 
 PCOD9338795
Probable space group: P C C 2
;
_chemical_formula_sum "Si O2"
_cell_formula_units_Z 24
_cell_length_a 5.240543
_cell_length_b 7.139749
_cell_length_c 25.830453
_cell_angle_alpha 90.000000
_cell_angle_beta 90.000000
_cell_angle_gamma 90.000000
_cell_volume 966.476405
_symmetry_space_group_name_H-M "P C C 2"
_symmetry_group_IT_number 27
_symmetry_cell_setting 'orthorhombic'
loop_
_space_group_symop_operation_xyz
x,y,z
-x,-y,z
-x,y,1/2+z
x,-y,1/2+z
loop_
_atom_site_type_symbol
_atom_site_label
_atom_site_fract_x
_atom_site_fract_y
_atom_site_fract_z
Si Si1 0.974059 0.725546 0.217150
Si Si2 0.752928 0.231476 0.927784
Si Si3 0.894676 0.711886 0.100708
Si Si4 0.472952 0.727716 0.271809
Si Si5 0.378839 0.196627 0.540763
Si Si6 0.257226 0.805358 0.382695
O O1 0.865694 0.769359 0.160448
O O2 0.265562 0.782761 0.227976
O O3 0.000000 0.500000 0.220747
O O4 0.760401 0.789815 0.258292
O O5 0.481984 0.302555 0.910385
O O6 0.992425 0.293710 0.894491
O O7 0.751232 0.009301 0.910690
O O8 0.756068 0.272427 0.988659
O O9 0.138731 0.823793 0.078546
O O10 0.000000 0.500000 0.099733
O O11 0.626600 0.714407 0.069308
O O12 0.500000 0.500000 0.276226
O O13 0.345527 0.808454 0.323627
O O14 0.500000 0.000000 0.523592
#
# Coordination Sequence:
#
# PCOD9338795 Si02
#       6
#     4   4   4   4   4   4
#     4   9  19  37  60  88 123 165 202 252 326 385
#     4  10  21  37  60  82 112 168 209 248 315 381
#     4  11  24  42  68  98 131 174 221 273 324 394
#     4  10  19  34  61  91 121 158 206 258 315 386
#     4  12  23  41  70  93 130 179 222 266 332 403
#     4  10  19  35  59  85 113 156 214 247 305 387
#
# _framework density 24.832476
#
# number of rings (size 3 to 8) (size 9 to 14) (size 15 to 20)
#    0.000    1.667    1.667    4.000    2.333    2.667 
#    0.000    3.333   36.667    1.000    0.000    0.000 
#    0.000    0.000    0.000    0.000    0.000    0.000 
#
# Total GULP energy -133938.441406 kJ/mol
# GULP energy per Si atom -5580.768392 kJ/mol
# Density = 2.477596 g / cm^3
# Si number density = 24.832476 Si / 1000 Ang^3
#
#
#
# Elastic Constant Matrix: (Units=GPa)
#
#
# Indices 1 2 3 4 5 6 
#
# 1 198.7610 9.6260 57.7134 0.0000 0.0000 0.0000
# 2 9.6260 84.1742 1.5088 0.0000 0.0000 0.0000
# 3 57.7134 1.5088 145.8514 0.0000 0.0000 0.0000
# 4 0.0000 0.0000 0.0000 29.3386 0.0000 0.0000
# 5 0.0000 0.0000 0.0000 0.0000 52.4229 0.0000
# 6 0.0000 0.0000 0.0000 0.0000 0.0000 -4.9025
#
#
#
# Elastic Compliance Matrix: (Units=1/GPa)
#
#
# Indices 1 2 3 4 5 6 
#
# 1 0.005716 -0.000613 -0.002255 0.000000 0.000000 0.000000
# 2 -0.000613 0.011948 0.000119 0.000000 0.000000 0.000000
# 3 -0.002255 0.000119 0.007748 0.000000 0.000000 0.000000
# 4 0.000000 0.000000 0.000000 0.034085 0.000000 0.000000
# 5 0.000000 0.000000 0.000000 0.000000 0.019076 0.000000
# 6 0.000000 0.000000 0.000000 0.000000 0.000000 -0.203978
#
#
# Mechanical properties :
#
#
# Convention : Reuss Voigt Hill
#
# Bulk Modulus (GPa) = 50.22024 62.94255 56.58139
# Shear Modulus (GPa) = -44.14244 39.36770 -2.38737
#
# Velocity S-wave (km/s) = -4.22074 3.98594 -0.98157
# Velocity P-wave (km/s) = 1.86692 6.82536 4.64221
#
# Compressibility (1/GPa) = 0.01991229
#
# Stress axis : x y z
#
# Youngs Moduli (GPa) = 174.95515 83.69522 129.07360
#
# Poissons Ratio (x) = 0.05132 0.29111
# Poissons Ratio (y) = 0.10728 -0.01537
# Poissons Ratio (z) = 0.39459 -0.00996
#
# Static dielectric constant tensor:
#      x y z
#    x 1.960940 0.000000 0.000000 
#    y 0.000000 2.038540 0.000000 
#    z 0.000000 0.000000 2.002810 
# 
# From -- ./inp_files/4962.got.cif
#   From: 2010.05.17/outbox.cif.g08.bks.cpg/sg27_3_cif.got.tgz:4962.got - 2010.06.04 01:11:05.
