data_PCOD9338391
_publ_section_title
;
Structure prediction by ZEFSAII (Michael W. Deem and Ramdas Pophale) SiO2 
 PCOD9338391
Probable space group: P M C 21
;
_chemical_formula_sum "Si O2"
_cell_formula_units_Z 32
_cell_length_a 18.037869
_cell_length_b 5.120307
_cell_length_c 15.328018
_cell_angle_alpha 90.000000
_cell_angle_beta 90.000000
_cell_angle_gamma 90.000000
_cell_volume 1415.686958
_symmetry_space_group_name_H-M "P M C 21"
_symmetry_group_IT_number 26
_symmetry_cell_setting 'orthorhombic'
loop_
_space_group_symop_operation_xyz
x,y,z
-x,-y,1/2+z
-x,y,z
x,-y,1/2+z
loop_
_atom_site_type_symbol
_atom_site_label
_atom_site_fract_x
_atom_site_fract_y
_atom_site_fract_z
Si Si1 0.210857 0.184109 0.024800
Si Si2 0.652485 0.595338 0.170473
Si Si3 0.365620 0.931774 0.564587
Si Si4 0.583059 0.263361 0.891369
Si Si5 0.342947 0.251879 0.339602
Si Si6 0.087589 0.196392 0.518407
Si Si7 0.814812 0.556485 0.871213
Si Si8 0.818976 0.431432 0.676592
O O1 0.282125 0.995368 0.029173
O O2 0.201437 0.309926 0.120731
O O3 0.224347 0.359212 0.939443
O O4 0.128866 0.076883 0.007936
O O5 0.645717 0.358301 0.102215
O O6 0.634086 0.434285 0.257344
O O7 0.737387 0.694232 0.183749
O O8 0.611092 0.847574 0.132835
O O9 0.417550 0.890403 0.483008
O O10 0.500000 0.298941 0.857796
O O11 0.619911 0.547805 0.908756
O O12 0.627441 0.042603 0.835616
O O13 0.253542 0.251582 0.346672
O O14 0.119385 0.340701 0.432663
O O15 0.123730 0.299387 0.609400
O O16 0.000000 0.193762 0.522348
O O17 0.843723 0.462895 0.776652
#
# Coordination Sequence:
#
# PCOD9338391 Si02
#       8
#     4   4   4   4   4   4   4   4
#     4  10  20  37  62  90 122 165 210 275 322 391
#     4  10  21  38  66  95 119 163 221 274 321 372
#     4  11  20  39  65  91 126 165 217 270 317 394
#     4  12  25  41  63  96 135 175 211 266 340 400
#     4  11  23  42  67  96 128 172 223 276 323 393
#     4  11  23  39  60  90 131 170 210 269 342 393
#     4  10  22  40  65  94 120 172 225 271 322 397
#     4   9  21  38  60  88 122 156 217 271 322 384
#
# _framework density 22.603867000000001
#
# number of rings (size 3 to 8) (size 9 to 14) (size 15 to 20)
#    0.000    1.500    2.500    2.625    1.750    3.500 
#    0.000    5.000    0.000    0.000    0.000    0.000 
#    0.000    0.000    0.000    0.000    0.000    0.000 
#
# Total GULP energy -178186.796526 kJ/mol
# GULP energy per Si atom -5568.337391 kJ/mol
# Density = 2.255242 g / cm^3
# Si number density = 22.603867 Si / 1000 Ang^3
#
#
#
# Elastic Constant Matrix: (Units=GPa)
#
#
# Indices 1 2 3 4 5 6 
#
# 1 89.3443 14.2611 -10.2810 0.0000 0.0000 0.0000
# 2 14.2611 63.4870 3.9325 0.0000 0.0000 0.0000
# 3 -10.2810 3.9325 132.7898 0.0000 0.0000 0.0000
# 4 0.0000 0.0000 0.0000 24.9921 0.0000 0.0000
# 5 0.0000 0.0000 0.0000 0.0000 -10.2000 0.0000
# 6 0.0000 0.0000 0.0000 0.0000 0.0000 15.3160
#
#
#
# Elastic Compliance Matrix: (Units=1/GPa)
#
#
# Indices 1 2 3 4 5 6 
#
# 1 0.011737 -0.002698 0.000989 0.000000 0.000000 0.000000
# 2 -0.002698 0.016400 -0.000695 0.000000 0.000000 0.000000
# 3 0.000989 -0.000695 0.007628 0.000000 0.000000 0.000000
# 4 0.000000 0.000000 0.000000 0.040013 0.000000 0.000000
# 5 0.000000 0.000000 0.000000 0.000000 -0.098039 0.000000
# 6 0.000000 0.000000 0.000000 0.000000 0.000000 0.065291
#
#
# Mechanical properties :
#
#
# Convention : Reuss Voigt Hill
#
# Bulk Modulus (GPa) = 32.30207 33.49403 32.89805
# Shear Modulus (GPa) = 85.97551 24.53553 55.25552
#
# Velocity S-wave (km/s) = 6.17400 3.29820 4.94957
# Velocity P-wave (km/s) = 8.07131 5.41795 6.87387
#
# Compressibility (1/GPa) = 0.03095777
#
# Stress axis : x y z
#
# Youngs Moduli (GPa) = 85.20050 60.97462 131.09923
#
# Poissons Ratio (x) = 0.16449 -0.12961
# Poissons Ratio (y) = 0.22985 0.09105
# Poissons Ratio (z) = -0.08423 0.04235
#
# Static dielectric constant tensor:
#      x y z
#    x 1.893540 0.000000 0.000000 
#    y 0.000000 1.972220 0.000000 
#    z 0.000000 0.000000 2.032130 
# 
# From -- ./inp_files/4726.got.cif
#   From: 2010.05.17/outbox.cif.g08.bks.cpg/sg26_3_cif.got.tgz:4726.got - 2010.06.04 01:07:29.
