data_PCOD9338107
_publ_section_title
;
Structure prediction by ZEFSAII (Michael W. Deem and Ramdas Pophale) SiO2 
 PCOD9338107
Probable space group: P M C 21
;
_chemical_formula_sum "Si O2"
_cell_formula_units_Z 32
_cell_length_a 9.129350
_cell_length_b 11.034909
_cell_length_c 14.260658
_cell_angle_alpha 90.000000
_cell_angle_beta 90.000000
_cell_angle_gamma 90.000000
_cell_volume 1436.640741
_symmetry_space_group_name_H-M "P M C 21"
_symmetry_group_IT_number 26
_symmetry_cell_setting 'orthorhombic'
loop_
_space_group_symop_operation_xyz
x,y,z
-x,-y,1/2+z
-x,y,z
x,-y,1/2+z
loop_
_atom_site_type_symbol
_atom_site_label
_atom_site_fract_x
_atom_site_fract_y
_atom_site_fract_z
Si Si1 0.670293 0.065678 0.728420
Si Si2 0.167938 0.334511 0.182251
Si Si3 0.826569 0.308044 0.729384
Si Si4 0.672576 0.189689 0.333812
Si Si5 0.174648 0.437069 0.549851
Si Si6 0.674151 0.571537 0.393290
Si Si7 0.170644 0.797059 0.493224
Si Si8 0.673794 0.954461 0.004706
O O1 0.500000 0.098180 0.747218
O O2 0.772521 0.175823 0.760004
O O3 0.688793 0.056284 0.616181
O O4 0.697977 0.937475 0.778066
O O5 0.254545 0.294716 0.273431
O O6 0.210220 0.449947 0.119497
O O7 0.176573 0.226788 0.105224
O O8 0.000000 0.353555 0.209500
O O9 0.792880 0.326119 0.619031
O O10 0.745162 0.408624 0.791717
O O11 0.000000 0.321915 0.740962
O O12 0.500000 0.214025 0.334565
O O13 0.720466 0.158748 0.439827
O O14 0.263682 0.461119 0.455558
O O15 0.000000 0.441522 0.529657
O O16 0.500000 0.567067 0.388583
O O17 0.731990 0.692398 0.446658
O O18 0.000000 0.783139 0.465298
O O19 0.235138 0.928368 0.473704
O O20 0.500000 0.974388 0.985646
#
# Coordination Sequence:
#
# PCOD9338107 Si02
#       8
#     4   4   4   4   4   4   4   4
#     4  10  21  37  56  83 123 158 195 246 294 351
#     4   9  18  34  56  80 107 139 184 238 287 339
#     4  11  23  41  64  87 119 159 203 249 296 354
#     4  10  20  34  54  81 113 152 189 230 290 350
#     4   9  21  42  63  86 116 152 196 250 300 347
#     4  11  22  37  62  92 119 153 199 247 299 358
#     4  10  19  33  56  84 114 149 195 245 286 341
#     4  10  20  34  53  81 117 156 193 237 292 350
#
# _framework density 22.274184000000002
#
# number of rings (size 3 to 8) (size 9 to 14) (size 15 to 20)
#    0.000    2.000    1.250    3.375    0.000    5.500 
#    2.250    0.000    0.000    0.000    0.000    0.000 
#    0.000    0.000    0.000    0.000    0.000    0.000 
#
# Total GULP energy -178845.404936 kJ/mol
# GULP energy per Si atom -5588.918904 kJ/mol
# Density = 2.222349 g / cm^3
# Si number density = 22.274184 Si / 1000 Ang^3
#
#
#
# Elastic Constant Matrix: (Units=GPa)
#
#
# Indices 1 2 3 4 5 6 
#
# 1 71.1201 24.2749 48.9454 0.0000 0.0000 0.0000
# 2 24.2749 42.3141 2.1401 0.0000 0.0000 0.0000
# 3 48.9454 2.1401 117.4734 0.0000 0.0000 0.0000
# 4 0.0000 0.0000 0.0000 39.7898 0.0000 0.0000
# 5 0.0000 0.0000 0.0000 0.0000 29.4063 0.0000
# 6 0.0000 0.0000 0.0000 0.0000 0.0000 11.4141
#
#
#
# Elastic Compliance Matrix: (Units=1/GPa)
#
#
# Indices 1 2 3 4 5 6 
#
# 1 0.026460 -0.014635 -0.010758 0.000000 0.000000 0.000000
# 2 -0.014635 0.031750 0.005519 0.000000 0.000000 0.000000
# 3 -0.010758 0.005519 0.012894 0.000000 0.000000 0.000000
# 4 0.000000 0.000000 0.000000 0.025132 0.000000 0.000000
# 5 0.000000 0.000000 0.000000 0.000000 0.034006 0.000000
# 6 0.000000 0.000000 0.000000 0.000000 0.000000 0.087611
#
#
# Mechanical properties :
#
#
# Convention : Reuss Voigt Hill
#
# Bulk Modulus (GPa) = 31.89171 42.40314 37.14742
# Shear Modulus (GPa) = 18.65304 26.49186 22.57245
#
# Velocity S-wave (km/s) = 2.89698 3.45244 3.18683
# Velocity P-wave (km/s) = 5.05360 5.91360 5.50043
#
# Compressibility (1/GPa) = 0.03135611
#
# Stress axis : x y z
#
# Youngs Moduli (GPa) = 37.79323 31.49635 77.55375
#
# Poissons Ratio (x) = 0.46096 0.83431
# Poissons Ratio (y) = 0.55312 -0.42805
# Poissons Ratio (z) = 0.40657 -0.17384
#
# Static dielectric constant tensor:
#      x y z
#    x 1.748370 0.000000 0.000000 
#    y 0.000000 1.836410 0.000000 
#    z 0.000000 0.000000 1.880020 
# 
# From -- ./inp_files/4198.got.cif
#   From: 2010.05.17/outbox.cif.g08.bks.cpg/sg26_3_cif.got.tgz:4198.got - 2010.06.04 01:07:29.
