data_PCOD9338416
_publ_section_title
;
Structure prediction by ZEFSAII (Michael W. Deem and Ramdas Pophale) SiO2 
 PCOD9338416
Probable space group: P M C 21
;
_chemical_formula_sum "Si O2"
_cell_formula_units_Z 32
_cell_length_a 7.860524
_cell_length_b 12.459780
_cell_length_c 15.609587
_cell_angle_alpha 90.000000
_cell_angle_beta 90.000000
_cell_angle_gamma 90.000000
_cell_volume 1528.809190
_symmetry_space_group_name_H-M "P M C 21"
_symmetry_group_IT_number 26
_symmetry_cell_setting 'orthorhombic'
loop_
_space_group_symop_operation_xyz
x,y,z
-x,-y,1/2+z
-x,y,z
x,-y,1/2+z
loop_
_atom_site_type_symbol
_atom_site_label
_atom_site_fract_x
_atom_site_fract_y
_atom_site_fract_z
Si Si1 0.306889 0.749362 0.625000
Si Si2 0.198727 0.744441 0.436849
Si Si3 0.706552 0.961205 0.344254
Si Si4 0.296734 0.877032 0.989108
Si Si5 0.200637 0.371478 0.480762
Si Si6 0.700344 0.514535 0.643987
Si Si7 0.708881 0.013378 0.153263
Si Si8 0.794205 0.468845 0.834843
O O1 0.500000 0.748873 0.660284
O O2 0.307278 0.750517 0.522480
O O3 0.224470 0.635370 0.647507
O O4 0.229218 0.863555 0.649611
O O5 0.223044 0.853462 0.385535
O O6 0.250186 0.641991 0.381488
O O7 0.000000 0.731250 0.460722
O O8 0.500000 0.957223 0.346544
O O9 0.762470 0.061768 0.403145
O O10 0.757848 0.968660 0.245542
O O11 0.500000 0.888710 0.990610
O O12 0.261822 0.750499 0.990135
O O13 0.232304 0.941431 0.073066
O O14 0.231980 0.441790 0.566457
O O15 0.268926 0.435052 0.397024
O O16 0.000000 0.365617 0.468905
O O17 0.500000 0.525297 0.626381
O O18 0.726677 0.468631 0.738551
O O19 0.500000 0.016426 0.148967
O O20 0.000000 0.474687 0.829984
#
# Coordination Sequence:
#
# PCOD9338416 Si02
#       8
#     4   4   4   4   4   4   4   4
#     4  10  20  39  64  89 116 151 197 249 302 352
#     4  11  22  39  62  87 118 156 201 246 292 358
#     4  10  21  38  62  87 119 157 193 247 302 348
#     4  10  21  38  60  87 120 157 201 247 296 353
#     4  11  24  43  62  84 126 168 201 245 304 368
#     4  11  24  39  65  96 119 152 205 260 302 356
#     4   9  19  37  60  87 117 151 191 238 298 354
#     4  10  24  43  61  85 123 168 201 242 306 365
#
# _framework density 20.931322999999999
#
# number of rings (size 3 to 8) (size 9 to 14) (size 15 to 20)
#    0.000    1.750    2.500    1.125    3.500    3.000 
#    0.000    0.625    0.000    0.000    0.000    0.000 
#    0.000    0.000    0.000    0.000    0.000    0.000 
#
# Total GULP energy -178691.260508 kJ/mol
# GULP energy per Si atom -5584.101891 kJ/mol
# Density = 2.088368 g / cm^3
# Si number density = 20.931323 Si / 1000 Ang^3
#
#
#
# Elastic Constant Matrix: (Units=GPa)
#
#
# Indices 1 2 3 4 5 6 
#
# 1 17.7318 -6.0492 -2.0373 0.0000 0.0000 0.0000
# 2 -6.0492 87.9100 -12.2155 0.0000 0.0000 0.0000
# 3 -2.0373 -12.2155 58.8880 0.0000 0.0000 0.0000
# 4 0.0000 0.0000 0.0000 38.0086 0.0000 0.0000
# 5 0.0000 0.0000 0.0000 0.0000 4.9436 0.0000
# 6 0.0000 0.0000 0.0000 0.0000 0.0000 16.6498
#
#
#
# Elastic Compliance Matrix: (Units=1/GPa)
#
#
# Indices 1 2 3 4 5 6 
#
# 1 0.058239 0.004415 0.002931 0.000000 0.000000 0.000000
# 2 0.004415 0.012048 0.002652 0.000000 0.000000 0.000000
# 3 0.002931 0.002652 0.017633 0.000000 0.000000 0.000000
# 4 0.000000 0.000000 0.000000 0.026310 0.000000 0.000000
# 5 0.000000 0.000000 0.000000 0.000000 0.202283 0.000000
# 6 0.000000 0.000000 0.000000 0.000000 0.000000 0.060061
#
#
# Mechanical properties :
#
#
# Convention : Reuss Voigt Hill
#
# Bulk Modulus (GPa) = 9.26671 13.76954 11.51813
# Shear Modulus (GPa) = 12.73726 24.24251 18.48988
#
# Velocity S-wave (km/s) = 2.46951 3.40692 2.97536
# Velocity P-wave (km/s) = 3.54515 4.69775 4.16155
#
# Compressibility (1/GPa) = 0.10791316
#
# Stress axis : x y z
#
# Youngs Moduli (GPa) = 17.17076 83.00452 56.71235
#
# Poissons Ratio (x) = -0.36644 -0.16620
# Poissons Ratio (y) = -0.07580 -0.15039
# Poissons Ratio (z) = -0.05032 -0.22011
#
# Static dielectric constant tensor:
#      x y z
#    x 1.147720 0.000000 0.000000 
#    y 0.000000 1.748610 0.000000 
#    z 0.000000 0.000000 1.717530 
# 
# From -- ./inp_files/4133.got.cif
#   From: 2010.05.17/outbox.cif.g08.bks.cpg/sg26_3_cif.got.tgz:4133.got - 2010.06.04 01:07:29.
