data_PCOD9338769
_publ_section_title
;
Structure prediction by ZEFSAII (Michael W. Deem and Ramdas Pophale) SiO2 
 PCOD9338769
Probable space group: P C C 2
;
_chemical_formula_sum "Si O2"
_cell_formula_units_Z 32
_cell_length_a 6.826867
_cell_length_b 38.150131
_cell_length_c 5.239321
_cell_angle_alpha 90.000000
_cell_angle_beta 90.000000
_cell_angle_gamma 90.000000
_cell_volume 1364.559518
_symmetry_space_group_name_H-M "P C C 2"
_symmetry_group_IT_number 27
_symmetry_cell_setting 'orthorhombic'
loop_
_space_group_symop_operation_xyz
x,y,z
-x,-y,z
-x,y,1/2+z
x,-y,1/2+z
loop_
_atom_site_type_symbol
_atom_site_label
_atom_site_fract_x
_atom_site_fract_y
_atom_site_fract_z
Si Si1 0.369382 0.661878 0.697890
Si Si2 0.280982 0.985839 0.264454
Si Si3 0.868752 0.912996 0.609131
Si Si4 0.209266 0.191062 0.258228
Si Si5 0.781465 0.485712 0.751141
Si Si6 0.365598 0.737256 0.604685
Si Si7 0.765921 0.162930 0.259102
Si Si8 0.632897 0.412993 0.597878
O O1 0.546205 0.661809 0.486260
O O2 0.267857 0.699030 0.643525
O O3 0.266309 0.624875 0.641985
O O4 0.264998 0.946770 0.159200
O O5 0.500000 0.000000 0.307868
O O6 0.192846 0.011109 0.047148
O O7 0.760156 0.876310 0.655373
O O8 0.963972 0.913806 0.329267
O O9 0.222045 0.230186 0.151011
O O10 0.304241 0.188860 0.537340
O O11 0.992575 0.175454 0.299666
O O12 0.309681 0.166496 0.045918
O O13 0.692938 0.510816 0.533245
O O14 0.767968 0.446455 0.648206
O O15 0.000000 0.500000 0.794622
O O16 0.469016 0.739104 0.328500
O O17 0.535336 0.414372 0.318233
#
# Coordination Sequence:
#
# PCOD9338769 Si02
#       8
#     4   4   4   4   4   4   4   4
#     4   8  16  30  48  74 103 134 177 223 270 313
#     4  10  23  42  62  84 120 150 180 224 293 333
#     4  12  21  37  65  90 108 144 196 237 268 322
#     4  10  18  33  56  76 111 138 178 223 262 307
#     4  10  21  35  50  70 104 144 179 211 286 348
#     4  10  19  32  53  79 110 147 177 213 270 334
#     4  10  19  35  55  81 106 141 182 228 257 298
#     4  10  19  32  53  78 102 131 180 242 275 314
#
# _framework density 23.450790999999999
#
# number of rings (size 3 to 8) (size 9 to 14) (size 15 to 20)
#    0.000    2.000    2.500    2.250    0.000    3.000 
#    0.000    0.000   16.500    6.000    0.000    0.000 
#    0.000    0.000    0.000    0.000    0.000    0.000 
#
# Total GULP energy -178578.331283 kJ/mol
# GULP energy per Si atom -5580.572853 kJ/mol
# Density = 2.339742 g / cm^3
# Si number density = 23.450791 Si / 1000 Ang^3
#
#
#
# Elastic Constant Matrix: (Units=GPa)
#
#
# Indices 1 2 3 4 5 6 
#
# 1 53.1797 -4.9996 -22.2436 0.0000 0.0000 0.0000
# 2 -4.9996 167.2085 -13.9893 0.0000 0.0000 0.0000
# 3 -22.2436 -13.9893 157.7166 0.0000 0.0000 0.0000
# 4 0.0000 0.0000 0.0000 38.5750 0.0000 0.0000
# 5 0.0000 0.0000 0.0000 0.0000 -10.2539 0.0000
# 6 0.0000 0.0000 0.0000 0.0000 0.0000 26.6945
#
#
#
# Elastic Compliance Matrix: (Units=1/GPa)
#
#
# Indices 1 2 3 4 5 6 
#
# 1 0.020101 0.000844 0.002910 0.000000 0.000000 0.000000
# 2 0.000844 0.006061 0.000657 0.000000 0.000000 0.000000
# 3 0.002910 0.000657 0.006809 0.000000 0.000000 0.000000
# 4 0.000000 0.000000 0.000000 0.025924 0.000000 0.000000
# 5 0.000000 0.000000 0.000000 0.000000 -0.097524 0.000000
# 6 0.000000 0.000000 0.000000 0.000000 0.000000 0.037461
#
#
# Mechanical properties :
#
#
# Convention : Reuss Voigt Hill
#
# Bulk Modulus (GPa) = 23.92777 32.84886 28.38831
# Shear Modulus (GPa) = 1268.96648 38.95893 653.96271
#
# Velocity S-wave (km/s) = 23.28720 4.08033 16.71740
# Velocity P-wave (km/s) = 27.07921 6.01970 19.61531
#
# Compressibility (1/GPa) = 0.04179245
#
# Stress axis : x y z
#
# Youngs Moduli (GPa) = 49.74959 164.99615 146.86191
#
# Poissons Ratio (x) = -0.13933 -0.42734
# Poissons Ratio (y) = -0.04201 -0.09644
# Poissons Ratio (z) = -0.14476 -0.10835
#
# Static dielectric constant tensor:
#      x y z
#    x 2.255320 0.000000 0.000000 
#    y 0.000000 1.898070 0.000000 
#    z 0.000000 0.000000 1.973920 
# 
# From -- ./inp_files/249.got.cif
#   From: 2010.05.17/outbox.cif.g08.bks.cpg/sg27_1_cif.got.tgz:249.got - 2010.06.04 01:11:05.
