data_PCOD9338738
_publ_section_title
;
Structure prediction by ZEFSAII (Michael W. Deem and Ramdas Pophale) SiO2 
 PCOD9338738
Probable space group: P C C 2
;
_chemical_formula_sum "Si O2"
_cell_formula_units_Z 32
_cell_length_a 17.109069
_cell_length_b 15.565438
_cell_length_c 5.517069
_cell_angle_alpha 90.000000
_cell_angle_beta 90.000000
_cell_angle_gamma 90.000000
_cell_volume 1469.251488
_symmetry_space_group_name_H-M "P C C 2"
_symmetry_group_IT_number 27
_symmetry_cell_setting 'orthorhombic'
loop_
_space_group_symop_operation_xyz
x,y,z
-x,-y,z
-x,y,1/2+z
x,-y,1/2+z
loop_
_atom_site_type_symbol
_atom_site_label
_atom_site_fract_x
_atom_site_fract_y
_atom_site_fract_z
Si Si1 0.705756 0.327114 0.418650
Si Si2 0.048356 0.235335 0.455950
Si Si3 0.215768 0.698284 0.919456
Si Si4 0.409754 0.531466 0.554807
Si Si5 0.632676 0.862160 0.918069
Si Si6 0.326737 0.146594 0.417832
Si Si7 0.089420 0.035285 0.456300
Si Si8 0.516440 0.746551 0.420628
O O1 0.757931 0.339483 0.659759
O O2 0.626705 0.380658 0.451687
O O3 0.681081 0.227403 0.415781
O O4 0.747186 0.343937 0.161243
O O5 0.123088 0.296809 0.444500
O O6 0.079891 0.137174 0.454664
O O7 0.002217 0.245967 0.709906
O O8 0.248504 0.797361 0.918574
O O9 0.500000 0.500000 0.576530
O O10 0.380150 0.528757 0.832738
O O11 0.656246 0.903141 0.664712
O O12 0.542606 0.829032 0.921064
O O13 0.657402 0.903126 0.170257
O O14 0.395636 0.219801 0.416311
O O15 0.126200 0.000468 0.706841
O O16 0.000000 0.000000 0.457192
O O17 0.501583 0.699159 0.671650
#
# Coordination Sequence:
#
# PCOD9338738 Si02
#       8
#     4   4   4   4   4   4   4   4
#     4  10  19  36  50  67 107 139 176 222 272 343
#     4  12  21  33  53  79 112 143 187 243 260 334
#     4  10  21  33  49  73  98 145 179 214 292 327
#     4  10  21  38  52  79 107 140 188 241 257 316
#     4   8  14  23  38  58  76 117 155 189 226 285
#     4   8  14  25  35  52  84 109 156 194 223 304
#     4  10  16  30  49  75 107 145 187 214 264 311
#     4   8  12  20  31  51  72  98 149 184 210 263
#
# _framework density 21.779798
#
# number of rings (size 3 to 8) (size 9 to 14) (size 15 to 20)
#    0.000    2.500    2.500    1.500    0.000    0.000 
#   22.500    0.000    0.000    0.000    0.000    0.000 
#    0.000   35.000    0.000    0.000    0.000   93.750 
#
# Total GULP energy -178320.539449 kJ/mol
# GULP energy per Si atom -5572.516858 kJ/mol
# Density = 2.173023 g / cm^3
# Si number density = 21.779798 Si / 1000 Ang^3
#
#
#
# Elastic Constant Matrix: (Units=GPa)
#
#
# Indices 1 2 3 4 5 6 
#
# 1 83.4362 13.3062 49.3953 0.0000 0.0000 0.0000
# 2 13.3062 36.9625 17.4857 0.0000 0.0000 0.0000
# 3 49.3953 17.4857 239.6652 0.0000 0.0000 0.0000
# 4 0.0000 0.0000 0.0000 -72.3935 0.0000 0.0000
# 5 0.0000 0.0000 0.0000 0.0000 9.8266 0.0000
# 6 0.0000 0.0000 0.0000 0.0000 0.0000 35.5082
#
#
#
# Elastic Compliance Matrix: (Units=1/GPa)
#
#
# Indices 1 2 3 4 5 6 
#
# 1 0.014161 -0.003850 -0.002638 0.000000 0.000000 0.000000
# 2 -0.003850 0.029068 -0.001327 0.000000 0.000000 0.000000
# 3 -0.002638 -0.001327 0.004813 0.000000 0.000000 0.000000
# 4 0.000000 0.000000 0.000000 -0.013813 0.000000 0.000000
# 5 0.000000 0.000000 0.000000 0.000000 0.101765 0.000000
# 6 0.000000 0.000000 0.000000 0.000000 0.000000 0.028162
#
#
# Mechanical properties :
#
#
# Convention : Reuss Voigt Hill
#
# Bulk Modulus (GPa) = 30.85267 57.82650 44.33958
# Shear Modulus (GPa) = 26.23432 13.24670 19.74051
#
# Velocity S-wave (km/s) = 3.47439 2.46887 3.01386
# Velocity P-wave (km/s) = 5.50379 5.89366 5.70206
#
# Compressibility (1/GPa) = 0.03241211
#
# Stress axis : x y z
#
# Youngs Moduli (GPa) = 70.61785 34.40174 207.77277
#
# Poissons Ratio (x) = 0.13245 0.54803
# Poissons Ratio (y) = 0.27188 0.27578
# Poissons Ratio (z) = 0.18627 0.04566
#
# Static dielectric constant tensor:
#      x y z
#    x 1.776620 0.000000 0.000000 
#    y 0.000000 1.759660 0.000000 
#    z 0.000000 0.000000 1.955290 
# 
# From -- ./inp_files/508.got.cif
#   From: 2010.05.17/outbox.cif.g08.bks.cpg/sg27_1_cif.got.tgz:508.got - 2010.06.04 01:11:05.
