data_PCOD9338619
_publ_section_title
;
Structure prediction by ZEFSAII (Michael W. Deem and Ramdas Pophale) SiO2 
 PCOD9338619
Probable space group: P M C 21
;
_chemical_formula_sum "Si O2"
_cell_formula_units_Z 32
_cell_length_a 28.987075
_cell_length_b 5.320676
_cell_length_c 9.107081
_cell_angle_alpha 90.000000
_cell_angle_beta 90.000000
_cell_angle_gamma 90.000000
_cell_volume 1404.592700
_symmetry_space_group_name_H-M "P M C 21"
_symmetry_group_IT_number 26
_symmetry_cell_setting 'orthorhombic'
loop_
_space_group_symop_operation_xyz
x,y,z
-x,-y,1/2+z
-x,y,z
x,-y,1/2+z
loop_
_atom_site_type_symbol
_atom_site_label
_atom_site_fract_x
_atom_site_fract_y
_atom_site_fract_z
Si Si1 0.630213 0.211608 0.753460
Si Si2 0.214519 0.962216 0.548145
Si Si3 0.421822 0.502461 0.502774
Si Si4 0.451489 0.155861 0.253601
Si Si5 0.945869 0.840381 0.540566
Si Si6 0.262758 0.280386 0.800183
Si Si7 0.084547 0.343691 0.368590
Si Si8 0.185123 0.324106 0.304456
O O1 0.609285 0.341830 0.611210
O O2 0.684808 0.242505 0.753230
O O3 0.600154 0.958131 0.757162
O O4 0.612145 0.346397 0.898536
O O5 0.256996 0.840963 0.460828
O O6 0.184369 0.762363 0.635984
O O7 0.233105 0.145348 0.673440
O O8 0.187102 0.099064 0.420968
O O9 0.451460 0.329869 0.396294
O O10 0.450964 0.685081 0.605026
O O11 0.500000 0.000576 0.255387
O O12 0.931014 0.755816 0.706427
O O13 0.939951 0.589641 0.438371
O O14 0.000000 0.905285 0.544847
O O15 0.921237 0.094766 0.474451
O O16 0.234958 0.540792 0.818803
O O17 0.137018 0.447489 0.344430
#
# Coordination Sequence:
#
# PCOD9338619 Si02
#       8
#     4   4   4   4   4   4   4   4
#     4  11  26  42  69  97 135 181 224 281 346 423
#     4  10  25  42  69  99 137 179 239 289 360 419
#     4  10  25  42  67 100 134 169 230 271 351 410
#     4  11  24  45  70 100 135 174 224 286 349 419
#     4  12  26  49  75 114 154 204 258 319 384 459
#     4  11  26  42  71  97 144 182 235 287 362 424
#     4  12  28  45  82 107 159 201 262 315 390 455
#     4  11  25  45  69 106 140 184 240 296 355 427
#
# _framework density 22.782406000000002
#
# number of rings (size 3 to 8) (size 9 to 14) (size 15 to 20)
#    0.000    1.000    0.000    4.500   14.000    6.000 
#    0.000    0.000    0.000    0.000    0.000    0.000 
#    0.000    0.000    0.000    0.000    0.000    0.000 
#
# Total GULP energy -178497.771839 kJ/mol
# GULP energy per Si atom -5578.055370 kJ/mol
# Density = 2.273055 g / cm^3
# Si number density = 22.782406 Si / 1000 Ang^3
#
#
#
# Elastic Constant Matrix: (Units=GPa)
#
#
# Indices 1 2 3 4 5 6 
#
# 1 100.2738 -0.7214 1.8502 0.0000 0.0000 0.0000
# 2 -0.7214 65.8875 21.2913 0.0000 0.0000 0.0000
# 3 1.8502 21.2913 130.5637 0.0000 0.0000 0.0000
# 4 0.0000 0.0000 0.0000 58.7577 0.0000 0.0000
# 5 0.0000 0.0000 0.0000 0.0000 49.9749 0.0000
# 6 0.0000 0.0000 0.0000 0.0000 0.0000 21.8774
#
#
#
# Elastic Compliance Matrix: (Units=1/GPa)
#
#
# Indices 1 2 3 4 5 6 
#
# 1 0.009977 0.000164 -0.000168 0.000000 0.000000 0.000000
# 2 0.000164 0.016024 -0.002615 0.000000 0.000000 0.000000
# 3 -0.000168 -0.002615 0.008088 0.000000 0.000000 0.000000
# 4 0.000000 0.000000 0.000000 0.017019 0.000000 0.000000
# 5 0.000000 0.000000 0.000000 0.000000 0.020010 0.000000
# 6 0.000000 0.000000 0.000000 0.000000 0.000000 0.045709
#
#
# Mechanical properties :
#
#
# Convention : Reuss Voigt Hill
#
# Bulk Modulus (GPa) = 34.66275 37.95168 36.30721
# Shear Modulus (GPa) = 37.96969 44.40899 41.18934
#
# Velocity S-wave (km/s) = 4.08686 4.41984 4.25661
# Velocity P-wave (km/s) = 6.12516 6.53767 6.33478
#
# Compressibility (1/GPa) = 0.02884941
#
# Stress axis : x y z
#
# Youngs Moduli (GPa) = 100.23077 62.40501 123.64019
#
# Poissons Ratio (x) = -0.01021 0.02078
# Poissons Ratio (y) = -0.01639 0.32337
# Poissons Ratio (z) = 0.01684 0.16322
#
# Static dielectric constant tensor:
#      x y z
#    x 1.897650 0.000000 0.000000 
#    y 0.000000 2.000270 0.000000 
#    z 0.000000 0.000000 1.799350 
# 
# From -- ./inp_files/2527.got.cif
#   From: 2010.05.17/outbox.cif.g08.bks.cpg/sg26_2_cif.got.tgz:2527.got - 2010.06.04 01:07:29.
