data_PCOD9338581
_publ_section_title
;
Structure prediction by ZEFSAII (Michael W. Deem and Ramdas Pophale) SiO2 
 PCOD9338581
Probable space group: P M C 21
;
_chemical_formula_sum "Si O2"
_cell_formula_units_Z 32
_cell_length_a 8.708210
_cell_length_b 5.418109
_cell_length_c 31.706809
_cell_angle_alpha 90.000000
_cell_angle_beta 90.000000
_cell_angle_gamma 90.000000
_cell_volume 1495.991644
_symmetry_space_group_name_H-M "P M C 21"
_symmetry_group_IT_number 26
_symmetry_cell_setting 'orthorhombic'
loop_
_space_group_symop_operation_xyz
x,y,z
-x,-y,1/2+z
-x,y,z
x,-y,1/2+z
loop_
_atom_site_type_symbol
_atom_site_label
_atom_site_fract_x
_atom_site_fract_y
_atom_site_fract_z
Si Si1 0.686858 0.154907 0.081860
Si Si2 0.685220 0.691991 0.944497
Si Si3 0.665444 0.715358 0.240728
Si Si4 0.330039 0.964432 0.823858
Si Si5 0.165799 0.698609 0.762369
Si Si6 0.323452 0.101175 0.177924
Si Si7 0.816332 0.804745 0.402730
Si Si8 0.185411 0.654404 0.038919
O O1 0.500000 0.151926 0.079242
O O2 0.750765 0.407037 0.061552
O O3 0.734150 0.143497 0.131181
O O4 0.752156 0.907304 0.060045
O O5 0.500000 0.698971 0.944814
O O6 0.742399 0.454338 0.917582
O O7 0.750509 0.954739 0.927768
O O8 0.751351 0.652514 0.991294
O O9 0.500000 0.577372 0.245820
O O10 0.655286 0.920005 0.277164
O O11 0.822165 0.588197 0.252722
O O12 0.671728 0.817148 0.193470
O O13 0.500000 0.926132 0.841730
O O14 0.232494 0.129007 0.855071
O O15 0.248660 0.718200 0.807938
O O16 0.000000 0.809676 0.767448
O O17 0.234293 0.782975 0.717106
O O18 0.500000 0.186295 0.178749
O O19 0.000000 0.792297 0.407631
O O20 0.000000 0.652951 0.039422
#
# Coordination Sequence:
#
# PCOD9338581 Si02
#       8
#     4   4   4   4   4   4   4   4
#     4  11  24  44  71 102 134 179 231 277 328 406
#     4  12  26  48  74 101 135 180 227 271 331 412
#     4   9  19  37  60  84 118 166 216 265 317 382
#     4  10  22  41  62  88 122 170 222 267 320 393
#     4  11  22  35  57  88 126 166 209 268 331 386
#     4   9  21  40  61  86 120 166 220 268 319 387
#     4  12  26  45  71 105 141 175 220 283 341 394
#     4  12  26  46  70 102 140 176 217 279 347 400
#
# _framework density 21.390495000000001
#
# number of rings (size 3 to 8) (size 9 to 14) (size 15 to 20)
#    0.000    1.250    0.000    6.750    3.500    3.500 
#    0.000    0.000    0.000    0.000    0.000    0.000 
#    0.000    0.000    0.000    0.000    0.000    0.000 
#
# Total GULP energy -178306.132696 kJ/mol
# GULP energy per Si atom -5572.066647 kJ/mol
# Density = 2.134181 g / cm^3
# Si number density = 21.390495 Si / 1000 Ang^3
#
#
#
# Elastic Constant Matrix: (Units=GPa)
#
#
# Indices 1 2 3 4 5 6 
#
# 1 122.5972 20.6460 15.4966 0.0000 0.0000 0.0000
# 2 20.6460 78.3631 19.7542 0.0000 0.0000 0.0000
# 3 15.4966 19.7542 98.8601 0.0000 0.0000 0.0000
# 4 0.0000 0.0000 0.0000 27.9938 0.0000 0.0000
# 5 0.0000 0.0000 0.0000 0.0000 8.7635 0.0000
# 6 0.0000 0.0000 0.0000 0.0000 0.0000 37.7057
#
#
#
# Elastic Compliance Matrix: (Units=1/GPa)
#
#
# Indices 1 2 3 4 5 6 
#
# 1 0.008619 -0.002033 -0.000945 0.000000 0.000000 0.000000
# 2 -0.002033 0.013917 -0.002462 0.000000 0.000000 0.000000
# 3 -0.000945 -0.002462 0.010755 0.000000 0.000000 0.000000
# 4 0.000000 0.000000 0.000000 0.035722 0.000000 0.000000
# 5 0.000000 0.000000 0.000000 0.000000 0.114110 0.000000
# 6 0.000000 0.000000 0.000000 0.000000 0.000000 0.026521
#
#
# Mechanical properties :
#
#
# Convention : Reuss Voigt Hill
#
# Bulk Modulus (GPa) = 44.61921 45.73489 45.17705
# Shear Modulus (GPa) = 21.93032 31.15416 26.54224
#
# Velocity S-wave (km/s) = 3.20541 3.82048 3.52638
# Velocity P-wave (km/s) = 5.88253 6.39444 6.14382
#
# Compressibility (1/GPa) = 0.02241187
#
# Stress axis : x y z
#
# Youngs Moduli (GPa) = 116.02938 71.85289 92.97619
#
# Poissons Ratio (x) = 0.14604 0.08785
# Poissons Ratio (y) = 0.23583 0.22894
# Poissons Ratio (z) = 0.10963 0.17693
#
# Static dielectric constant tensor:
#      x y z
#    x 1.869470 0.000000 0.000000 
#    y 0.000000 1.979730 0.000000 
#    z 0.000000 0.000000 1.737530 
# 
# From -- ./inp_files/5688.got.cif
#   From: 2010.05.17/outbox.cif.g08.bks.cpg/sg26_3_cif.got.tgz:5688.got - 2010.06.04 01:07:29.
