data_PCOD9338854
_publ_section_title
;
Structure prediction by ZEFSAII (Michael W. Deem and Ramdas Pophale) SiO2 
 PCOD9338854
Probable space group: P C C 2
;
_chemical_formula_sum "Si O2"
_cell_formula_units_Z 32
_cell_length_a 8.751219
_cell_length_b 12.133325
_cell_length_c 15.814474
_cell_angle_alpha 90.000000
_cell_angle_beta 90.000000
_cell_angle_gamma 90.000000
_cell_volume 1679.202741
_symmetry_space_group_name_H-M "P C C 2"
_symmetry_group_IT_number 27
_symmetry_cell_setting 'orthorhombic'
loop_
_space_group_symop_operation_xyz
x,y,z
-x,-y,z
-x,y,1/2+z
x,-y,1/2+z
loop_
_atom_site_type_symbol
_atom_site_label
_atom_site_fract_x
_atom_site_fract_y
_atom_site_fract_z
Si Si1 0.814661 1.000000 0.870550
Si Si2 0.318520 0.231138 0.115417
Si Si3 0.184536 0.762359 0.437530
Si Si4 0.816345 0.370848 0.268760
Si Si5 0.816345 0.370848 0.768760
Si Si6 0.816241 1.000000 0.172641
Si Si7 0.681480 0.768862 0.615417
Si Si8 0.815464 0.762359 0.437530
O O1 0.771096 0.000000 0.771836
O O2 0.765368 0.112618 0.915170
O O3 0.765368 0.887382 0.915170
O O4 0.000000 0.000000 0.871922
O O5 0.262422 0.308069 0.191690
O O6 0.246861 0.110324 0.130520
O O7 0.500000 0.223583 0.115360
O O8 0.258336 0.273357 0.025240
O O9 0.224545 0.686366 0.357637
O O10 0.000000 0.761765 0.446239
O O11 0.779740 0.500000 0.269398
O O12 0.737578 0.308068 0.191690
O O13 0.000000 0.358403 0.259019
O O14 0.775455 0.313634 0.857637
O O15 0.753138 0.110324 0.130520
O O16 0.000000 0.000000 0.167362
O O17 0.741664 0.726643 0.525240
#
# Coordination Sequence:
#
# PCOD9338854 Si02
#       8
#     4   4   4   4   4   4   4   4
#     4   9  17  33  62  91 115 148 197 252 304 349
#     4  12  25  39  59  94 132 164 196 242 311 379
#     4  10  20  38  63  91 120 158 206 255 302 357
#     4  10  22  42  67  91 116 157 215 265 300 347
#     4  10  22  42  67  91 116 157 215 265 300 347
#     4  11  20  39  66  91 121 160 207 254 298 355
#     4  12  25  39  59  94 132 164 196 242 311 379
#     4  10  20  38  63  91 120 158 206 255 302 357
#
# _framework density 19.056661999999999
#
# number of rings (size 3 to 8) (size 9 to 14) (size 15 to 20)
#    0.000    1.500    2.500    3.375    0.000    3.500 
#    0.000    2.500    0.000    0.000    0.000    0.000 
#    0.000    0.000    0.000    0.000    0.000    0.000 
#
# Total GULP energy -178902.820928 kJ/mol
# GULP energy per Si atom -5590.713154 kJ/mol
# Density = 1.901329 g / cm^3
# Si number density = 19.056662 Si / 1000 Ang^3
#
#
#
# Elastic Constant Matrix: (Units=GPa)
#
#
# Indices 1 2 3 4 5 6 
#
# 1 61.9113 61.1647 71.2338 0.0000 0.0000 0.0000
# 2 61.1647 124.3473 77.3629 0.0000 0.0000 0.0000
# 3 71.2338 77.3629 189.6102 0.0000 0.0000 0.0000
# 4 0.0000 0.0000 0.0000 -3.9510 0.0000 0.0000
# 5 0.0000 0.0000 0.0000 0.0000 -20.1773 0.0000
# 6 0.0000 0.0000 0.0000 0.0000 0.0000 11.6329
#
#
#
# Elastic Compliance Matrix: (Units=1/GPa)
#
#
# Indices 1 2 3 4 5 6 
#
# 1 0.041591 -0.014389 -0.009754 0.000000 0.000000 0.000000
# 2 -0.014389 0.015756 -0.001023 0.000000 0.000000 0.000000
# 3 -0.009754 -0.001023 0.009356 0.000000 0.000000 0.000000
# 4 0.000000 0.000000 0.000000 -0.253100 0.000000 0.000000
# 5 0.000000 0.000000 0.000000 0.000000 -0.049561 0.000000
# 6 0.000000 0.000000 0.000000 0.000000 0.000000 0.085963
#
#
# Mechanical properties :
#
#
# Convention : Reuss Voigt Hill
#
# Bulk Modulus (GPa) = 61.08631 88.37684 74.73158
# Shear Modulus (GPa) = -53.07592 8.57475 -22.25059
#
# Velocity S-wave (km/s) = -5.28319 2.12353 -3.42073
# Velocity P-wave (km/s) = 2.25642 7.24493 4.86814
#
# Compressibility (1/GPa) = 0.01637028
#
# Stress axis : x y z
#
# Youngs Moduli (GPa) = 24.04373 63.46659 106.88616
#
# Poissons Ratio (x) = 0.91325 1.04257
# Poissons Ratio (y) = 0.34598 0.10932
# Poissons Ratio (z) = 0.23452 0.06491
#
# Static dielectric constant tensor:
#      x y z
#    x 1.636790 0.000000 0.000000 
#    y 0.000000 1.643450 0.000000 
#    z 0.000000 0.000000 1.653120 
# 
# From -- ./inp_files/3429.got.cif
#   From: 2010.05.17/outbox.cif.g08.bks.cpg/sg27_2_cif.got.tgz:3429.got - 2010.06.04 01:11:05.
