data_PCOD9338784
_publ_section_title
;
Structure prediction by ZEFSAII (Michael W. Deem and Ramdas Pophale) SiO2 
 PCOD9338784
Probable space group: P C C 2
;
_chemical_formula_sum "Si O2"
_cell_formula_units_Z 28
_cell_length_a 5.325956
_cell_length_b 13.128143
_cell_length_c 19.955667
_cell_angle_alpha 90.000000
_cell_angle_beta 90.000000
_cell_angle_gamma 90.000000
_cell_volume 1395.298480
_symmetry_space_group_name_H-M "P C C 2"
_symmetry_group_IT_number 27
_symmetry_cell_setting 'orthorhombic'
loop_
_space_group_symop_operation_xyz
x,y,z
-x,-y,z
-x,y,1/2+z
x,-y,1/2+z
loop_
_atom_site_type_symbol
_atom_site_label
_atom_site_fract_x
_atom_site_fract_y
_atom_site_fract_z
Si Si1 0.997749 0.194110 0.253270
Si Si2 0.679869 0.309089 0.559697
Si Si3 0.460486 0.689042 0.912830
Si Si4 0.034352 0.382570 0.845543
Si Si5 0.815590 0.738529 0.610283
Si Si6 0.253860 0.507509 0.156470
Si Si7 0.507965 0.117475 0.824421
O O1 0.929289 0.207287 0.175523
O O2 0.756419 0.144187 0.289048
O O3 0.020967 0.307472 0.283841
O O4 0.256713 0.138975 0.274168
O O5 0.556328 0.328238 0.487976
O O6 0.472234 0.234041 0.593725
O O7 0.719048 0.415485 0.602109
O O8 0.957086 0.259453 0.557005
O O9 0.180710 0.647875 0.899978
O O10 0.459155 0.806145 0.887211
O O11 0.679616 0.637966 0.868235
O O12 0.000000 0.500000 0.834618
O O13 0.770076 0.618010 0.623812
O O14 0.500000 0.500000 0.200527
O O15 0.000000 0.500000 0.195246
O O16 0.500000 0.000000 0.844164
#
# Coordination Sequence:
#
# PCOD9338784 Si02
#       7
#     4   4   4   4   4   4   4
#     4  10  21  37  57  86 113 142 192 237 280 346
#     4  10  19  32  50  76 112 150 183 219 265 325
#     4  10  21  36  55  83 112 144 195 238 276 340
#     4  10  21  34  52  78 114 154 184 231 286 329
#     4  10  19  32  51  77 111 146 180 221 268 326
#     4   8  16  27  41  67 100 145 184 200 237 300
#     4  10  21  40  64  83 104 143 192 248 301 334
#
# _framework density 20.06739
#
# number of rings (size 3 to 8) (size 9 to 14) (size 15 to 20)
#    0.000    2.286    0.000    2.571    0.000    6.857 
#    0.000    7.143    0.000    5.143    0.000    0.000 
#    0.000    0.000    0.000    0.000    0.000    0.000 
#
# Total GULP energy -155913.441076 kJ/mol
# GULP energy per Si atom -5568.337181 kJ/mol
# Density = 2.002172 g / cm^3
# Si number density = 20.067390 Si / 1000 Ang^3
#
#
#
# Elastic Constant Matrix: (Units=GPa)
#
#
# Indices 1 2 3 4 5 6 
#
# 1 141.5003 21.1032 -13.4649 0.0000 0.0000 0.0000
# 2 21.1032 98.7146 16.3309 0.0000 0.0000 0.0000
# 3 -13.4649 16.3309 44.0971 0.0000 0.0000 0.0000
# 4 0.0000 0.0000 0.0000 9.1443 0.0000 0.0000
# 5 0.0000 0.0000 0.0000 0.0000 14.8699 0.0000
# 6 0.0000 0.0000 0.0000 0.0000 0.0000 12.3011
#
#
#
# Elastic Compliance Matrix: (Units=1/GPa)
#
#
# Indices 1 2 3 4 5 6 
#
# 1 0.007690 -0.002165 0.003150 0.000000 0.000000 0.000000
# 2 -0.002165 0.011401 -0.004883 0.000000 0.000000 0.000000
# 3 0.003150 -0.004883 0.025447 0.000000 0.000000 0.000000
# 4 0.000000 0.000000 0.000000 0.109358 0.000000 0.000000
# 5 0.000000 0.000000 0.000000 0.000000 0.067250 0.000000
# 6 0.000000 0.000000 0.000000 0.000000 0.000000 0.081294
#
#
# Mechanical properties :
#
#
# Convention : Reuss Voigt Hill
#
# Bulk Modulus (GPa) = 27.21739 36.91672 32.06706
# Shear Modulus (GPa) = 15.50467 24.61924 20.06195
#
# Velocity S-wave (km/s) = 2.78264 3.50641 3.16528
# Velocity P-wave (km/s) = 4.89045 5.90165 5.41969
#
# Compressibility (1/GPa) = 0.03674121
#
# Stress axis : x y z
#
# Youngs Moduli (GPa) = 130.04339 87.71228 39.29660
#
# Poissons Ratio (x) = 0.18990 -0.12378
# Poissons Ratio (y) = 0.28154 0.19190
# Poissons Ratio (z) = -0.40961 0.42832
#
# Static dielectric constant tensor:
#      x y z
#    x 1.847830 0.000000 0.000000 
#    y 0.000000 1.715070 0.000000 
#    z 0.000000 0.000000 1.727940 
# 
# From -- ./inp_files/4659.got.cif
#   From: 2010.05.17/outbox.cif.g08.bks.cpg/sg27_3_cif.got.tgz:4659.got - 2010.06.04 01:11:05.
