data_PCOD9338299
_publ_section_title
;
Structure prediction by ZEFSAII (Michael W. Deem and Ramdas Pophale) SiO2 
 PCOD9338299
Probable space group: P M C 21
;
_chemical_formula_sum "Si O2"
_cell_formula_units_Z 24
_cell_length_a 9.646594
_cell_length_b 5.509263
_cell_length_c 20.174596
_cell_angle_alpha 90.000000
_cell_angle_beta 90.000000
_cell_angle_gamma 90.000000
_cell_volume 1072.191481
_symmetry_space_group_name_H-M "P M C 21"
_symmetry_group_IT_number 26
_symmetry_cell_setting 'orthorhombic'
loop_
_space_group_symop_operation_xyz
x,y,z
-x,-y,1/2+z
-x,y,z
x,-y,1/2+z
loop_
_atom_site_type_symbol
_atom_site_label
_atom_site_fract_x
_atom_site_fract_y
_atom_site_fract_z
Si Si1 0.846735 0.576094 0.595220
Si Si2 0.668561 0.558256 0.837485
Si Si3 0.345532 0.036174 0.165759
Si Si4 0.334155 0.938397 0.409874
Si Si5 0.346337 0.243285 0.531352
Si Si6 0.155617 0.694189 0.231976
O O1 0.771591 0.445046 0.534173
O O2 0.863924 0.388720 0.656204
O O3 0.000000 0.673904 0.579609
O O4 0.742547 0.765246 0.627586
O O5 0.500000 0.550980 0.827567
O O6 0.705865 0.818031 0.869200
O O7 0.756780 0.506173 0.771526
O O8 0.710978 0.323543 0.882833
O O9 0.500000 0.114223 0.186351
O O10 0.363178 0.838146 0.107221
O O11 0.257015 0.924891 0.225588
O O12 0.500000 0.925710 0.405232
O O13 0.304126 0.016821 0.485554
O O14 0.500000 0.330766 0.508131
O O15 0.000000 0.736832 0.259019
#
# Coordination Sequence:
#
# PCOD9338299 Si02
#       6
#     4   4   4   4   4   4
#     4  10  21  36  56  83 117 154 191 239 301 354
#     4  10  21  38  60  88 117 155 200 247 293 351
#     4  10  20  34  59  88 113 147 195 244 297 355
#     4   9  20  37  61  88 118 152 197 249 298 345
#     4   9  19  36  58  85 113 148 192 242 293 350
#     4  10  22  39  56  80 116 154 193 243 298 357
#
# _framework density 22.384060999999999
#
# number of rings (size 3 to 8) (size 9 to 14) (size 15 to 20)
#    0.000    2.333    0.000    1.500    4.667    2.667 
#    0.000    1.667    0.000    0.000    0.000    0.000 
#    0.000    0.000    0.000    0.000    0.000    0.000 
#
# Total GULP energy -133779.136025 kJ/mol
# GULP energy per Si atom -5574.130668 kJ/mol
# Density = 2.233311 g / cm^3
# Si number density = 22.384061 Si / 1000 Ang^3
#
#
#
# Elastic Constant Matrix: (Units=GPa)
#
#
# Indices 1 2 3 4 5 6 
#
# 1 140.4130 29.5975 8.1763 0.0000 0.0000 0.0000
# 2 29.5975 73.5485 13.6092 0.0000 0.0000 0.0000
# 3 8.1763 13.6092 65.8847 0.0000 0.0000 0.0000
# 4 0.0000 0.0000 0.0000 41.7723 0.0000 0.0000
# 5 0.0000 0.0000 0.0000 0.0000 -21.0794 0.0000
# 6 0.0000 0.0000 0.0000 0.0000 0.0000 6.3788
#
#
#
# Elastic Compliance Matrix: (Units=1/GPa)
#
#
# Indices 1 2 3 4 5 6 
#
# 1 0.007789 -0.003073 -0.000332 0.000000 0.000000 0.000000
# 2 -0.003073 0.015349 -0.002789 0.000000 0.000000 0.000000
# 3 -0.000332 -0.002789 0.015795 0.000000 0.000000 0.000000
# 4 0.000000 0.000000 0.000000 0.023939 0.000000 0.000000
# 5 0.000000 0.000000 0.000000 0.000000 -0.047440 0.000000
# 6 0.000000 0.000000 0.000000 0.000000 0.000000 0.156769
#
#
# Mechanical properties :
#
#
# Convention : Reuss Voigt Hill
#
# Bulk Modulus (GPa) = 37.67133 42.51248 40.09191
# Shear Modulus (GPa) = 25.84792 20.64521 23.24657
#
# Velocity S-wave (km/s) = 3.40184 3.04026 3.22612
# Velocity P-wave (km/s) = 5.68297 5.59980 5.64154
#
# Compressibility (1/GPa) = 0.02654539
#
# Stress axis : x y z
#
# Youngs Moduli (GPa) = 128.38729 65.14982 63.30974
#
# Poissons Ratio (x) = 0.20021 0.02101
# Poissons Ratio (y) = 0.39454 0.17658
# Poissons Ratio (z) = 0.04260 0.18172
#
# Static dielectric constant tensor:
#      x y z
#    x 1.894310 0.000000 0.000000 
#    y 0.000000 1.890310 0.000000 
#    z 0.000000 0.000000 1.887440 
# 
# From -- ./inp_files/5479.got.cif
#   From: 2010.05.17/outbox.cif.g08.bks.cpg/sg26_3_cif.got.tgz:5479.got - 2010.06.04 01:07:29.
