data_PCOD9338511
_publ_section_title
;
Structure prediction by ZEFSAII (Michael W. Deem and Ramdas Pophale) SiO2 
 PCOD9338511
Probable space group: P M C 21
;
_chemical_formula_sum "Si O2"
_cell_formula_units_Z 32
_cell_length_a 7.916710
_cell_length_b 14.912760
_cell_length_c 12.836549
_cell_angle_alpha 90.000000
_cell_angle_beta 90.000000
_cell_angle_gamma 90.000000
_cell_volume 1515.482926
_symmetry_space_group_name_H-M "P M C 21"
_symmetry_group_IT_number 26
_symmetry_cell_setting 'orthorhombic'
loop_
_space_group_symop_operation_xyz
x,y,z
-x,-y,1/2+z
-x,y,z
x,-y,1/2+z
loop_
_atom_site_type_symbol
_atom_site_label
_atom_site_fract_x
_atom_site_fract_y
_atom_site_fract_z
Si Si1 0.702448 0.558371 0.586560
Si Si2 0.699073 0.872969 0.857681
Si Si3 0.295229 0.363914 0.646791
Si Si4 0.807755 0.843566 0.487089
Si Si5 0.201459 0.255741 0.189259
Si Si6 0.298402 0.334833 0.886625
Si Si7 0.197137 0.941973 0.290788
Si Si8 0.297308 0.167949 0.585917
O O1 0.500000 0.554783 0.598891
O O2 0.770674 0.459196 0.607061
O O3 0.759526 0.641707 0.658419
O O4 0.739801 0.587896 0.468836
O O5 0.500000 0.890819 0.860148
O O6 0.729018 0.779339 0.798464
O O7 0.781403 0.951622 0.789623
O O8 0.766417 0.871158 0.976131
O O9 0.500000 0.363770 0.632305
O O10 0.262565 0.360295 0.769518
O O11 0.232475 0.269782 0.600353
O O12 0.730262 0.810404 0.596674
O O13 0.804697 0.751568 0.421453
O O14 0.726695 0.911195 0.403274
O O15 0.000000 0.873851 0.509113
O O16 0.000000 0.246645 0.189663
O O17 0.500000 0.313475 0.894800
O O18 0.264371 0.891238 0.188908
O O19 0.000000 0.919124 0.295086
O O20 0.500000 0.173364 0.576438
#
# Coordination Sequence:
#
# PCOD9338511 Si02
#       8
#     4   4   4   4   4   4   4   4
#     4   9  18  32  54  85 115 153 200 242 292 349
#     4  11  25  41  60  88 121 158 198 245 298 356
#     4   9  17  32  56  84 116 151 193 243 296 349
#     4   9  19  35  56  81 109 145 187 238 289 340
#     4  10  21  39  59  83 118 157 197 242 294 349
#     4   9  16  29  52  79 108 147 191 239 287 338
#     4  11  23  39  61  87 116 153 195 242 297 359
#     4  10  22  41  62  89 121 154 197 249 299 352
#
# _framework density 21.115379999999998
#
# number of rings (size 3 to 8) (size 9 to 14) (size 15 to 20)
#    0.000    2.250    1.250    1.125    1.750    3.000 
#    0.000    5.000    0.000    3.000    0.000    0.000 
#    0.000    0.000    0.000    0.000    0.000    0.000 
#
# Total GULP energy -178476.865455 kJ/mol
# GULP energy per Si atom -5577.402045 kJ/mol
# Density = 2.106732 g / cm^3
# Si number density = 21.115380 Si / 1000 Ang^3
#
#
#
# Elastic Constant Matrix: (Units=GPa)
#
#
# Indices 1 2 3 4 5 6 
#
# 1 18.1442 -0.6261 11.2177 0.0000 0.0000 0.0000
# 2 -0.6261 104.0133 52.5674 0.0000 0.0000 0.0000
# 3 11.2177 52.5674 79.0411 0.0000 0.0000 0.0000
# 4 0.0000 0.0000 0.0000 20.5170 0.0000 0.0000
# 5 0.0000 0.0000 0.0000 0.0000 12.4203 0.0000
# 6 0.0000 0.0000 0.0000 0.0000 0.0000 68.7781
#
#
#
# Elastic Compliance Matrix: (Units=1/GPa)
#
#
# Indices 1 2 3 4 5 6 
#
# 1 0.064081 0.007504 -0.014086 0.000000 0.000000 0.000000
# 2 0.007504 0.015361 -0.011281 0.000000 0.000000 0.000000
# 3 -0.014086 -0.011281 0.022153 0.000000 0.000000 0.000000
# 4 0.000000 0.000000 0.000000 0.048740 0.000000 0.000000
# 5 0.000000 0.000000 0.000000 0.000000 0.080514 0.000000
# 6 0.000000 0.000000 0.000000 0.000000 0.000000 0.014540
#
#
# Mechanical properties :
#
#
# Convention : Reuss Voigt Hill
#
# Bulk Modulus (GPa) = 15.18114 36.39075 25.78594
# Shear Modulus (GPa) = 16.49789 29.54571 23.02180
#
# Velocity S-wave (km/s) = 2.79824 3.74471 3.30553
# Velocity P-wave (km/s) = 4.20065 5.99740 5.17756
#
# Compressibility (1/GPa) = 0.06587120
#
# Stress axis : x y z
#
# Youngs Moduli (GPa) = 15.60517 65.10192 45.14029
#
# Poissons Ratio (x) = -0.48855 0.63582
# Poissons Ratio (y) = -0.11711 0.50922
# Poissons Ratio (z) = 0.21981 0.73440
#
# Static dielectric constant tensor:
#      x y z
#    x 1.774870 0.000000 0.000000 
#    y 0.000000 1.762270 0.000000 
#    z 0.000000 0.000000 1.787240 
# 
# From -- ./inp_files/3066.got.cif
#   From: 2010.05.17/outbox.cif.g08.bks.cpg/sg26_2_cif.got.tgz:3066.got - 2010.06.04 01:07:29.
