data_PCOD9338022
_publ_section_title
;
Structure prediction by ZEFSAII (Michael W. Deem and Ramdas Pophale) SiO2 
 PCOD9338022
Probable space group: P M C 21
;
_chemical_formula_sum "Si O2"
_cell_formula_units_Z 32
_cell_length_a 13.077709
_cell_length_b 15.856300
_cell_length_c 9.241137
_cell_angle_alpha 90.000000
_cell_angle_beta 90.000000
_cell_angle_gamma 90.000000
_cell_volume 1916.279846
_symmetry_space_group_name_H-M "P M C 21"
_symmetry_group_IT_number 26
_symmetry_cell_setting 'orthorhombic'
loop_
_space_group_symop_operation_xyz
x,y,z
-x,-y,1/2+z
-x,y,z
x,-y,1/2+z
loop_
_atom_site_type_symbol
_atom_site_label
_atom_site_fract_x
_atom_site_fract_y
_atom_site_fract_z
Si Si1 0.882037 0.172077 0.073880
Si Si2 0.876880 0.381281 0.714498
Si Si3 0.877481 0.480865 0.420691
Si Si4 0.379289 0.093822 0.510261
Si Si5 0.794655 0.217927 0.566553
Si Si6 0.878284 0.691356 0.789090
Si Si7 0.276382 0.042539 0.217216
Si Si8 0.113055 0.906448 0.271902
O O1 0.864390 0.265996 0.133835
O O2 0.000000 0.149346 0.116916
O O3 0.796750 0.111212 0.141806
O O4 0.878061 0.159910 0.902495
O O5 0.860355 0.448528 0.583186
O O6 0.842170 0.429335 0.859607
O O7 0.815684 0.298086 0.669065
O O8 0.000000 0.361726 0.717541
O O9 0.842149 0.403532 0.318011
O O10 0.000000 0.486588 0.404753
O O11 0.500000 0.103054 0.524654
O O12 0.316631 0.175443 0.566661
O O13 0.340339 0.012826 0.602282
O O14 0.346237 0.080347 0.343514
O O15 0.825794 0.248824 0.407668
O O16 0.867232 0.142855 0.623321
O O17 0.000000 0.691272 0.820463
O O18 0.197787 0.977041 0.290943
O O19 0.000000 0.943491 0.275222
#
# Coordination Sequence:
#
# PCOD9338022 Si02
#       8
#     4   4   4   4   4   4   4   4
#     4  10  19  30  46  71 102 132 160 191 237 294
#     4   9  16  28  45  71 101 133 163 189 229 283
#     4   8  15  25  40  64  97 129 160 187 220 276
#     4  11  23  37  55  71  90 124 169 220 263 292
#     4  10  19  32  50  69  98 128 168 206 243 289
#     4   9  16  28  46  70  99 132 160 193 234 283
#     4  11  20  37  50  70  97 123 163 207 253 299
#     4  10  20  31  45  70 100 131 162 193 238 296
#
# _framework density 16.699021999999999
#
# number of rings (size 3 to 8) (size 9 to 14) (size 15 to 20)
#    0.000    2.250    2.500    2.625    0.000    1.000 
#    0.000    3.750    0.000    0.000    0.000    3.500 
#    0.000    0.000    0.000    0.000    0.000    0.000 
#
# Total GULP energy -178282.934076 kJ/mol
# GULP energy per Si atom -5571.341690 kJ/mol
# Density = 1.666101 g / cm^3
# Si number density = 16.699022 Si / 1000 Ang^3
#
#
#
# Elastic Constant Matrix: (Units=GPa)
#
#
# Indices 1 2 3 4 5 6 
#
# 1 81.3330 24.8019 24.5571 0.0000 0.0000 0.0000
# 2 24.8019 51.9185 16.9838 0.0000 0.0000 0.0000
# 3 24.5571 16.9838 33.3105 0.0000 0.0000 0.0000
# 4 0.0000 0.0000 0.0000 33.9861 0.0000 0.0000
# 5 0.0000 0.0000 0.0000 0.0000 13.9331 0.0000
# 6 0.0000 0.0000 0.0000 0.0000 0.0000 12.6856
#
#
#
# Elastic Compliance Matrix: (Units=1/GPa)
#
#
# Indices 1 2 3 4 5 6 
#
# 1 0.016739 -0.004752 -0.009917 0.000000 0.000000 0.000000
# 2 -0.004752 0.024466 -0.008971 0.000000 0.000000 0.000000
# 3 -0.009917 -0.008971 0.041905 0.000000 0.000000 0.000000
# 4 0.000000 0.000000 0.000000 0.029424 0.000000 0.000000
# 5 0.000000 0.000000 0.000000 0.000000 0.071772 0.000000
# 6 0.000000 0.000000 0.000000 0.000000 0.000000 0.078830
#
#
# Mechanical properties :
#
#
# Convention : Reuss Voigt Hill
#
# Bulk Modulus (GPa) = 27.90976 33.24975 30.57975
# Shear Modulus (GPa) = 15.51072 18.80223 17.15648
#
# Velocity S-wave (km/s) = 3.05099 3.35916 3.20878
# Velocity P-wave (km/s) = 5.40010 5.91605 5.66395
#
# Compressibility (1/GPa) = 0.03582977
#
# Stress axis : x y z
#
# Youngs Moduli (GPa) = 59.74243 40.87371 23.86325
#
# Poissons Ratio (x) = 0.19423 0.23665
# Poissons Ratio (y) = 0.28390 0.21407
# Poissons Ratio (z) = 0.59247 0.36667
#
# Static dielectric constant tensor:
#      x y z
#    x 1.521620 0.000000 0.000000 
#    y 0.000000 1.591160 0.000000 
#    z 0.000000 0.000000 1.606790 
# 
# From -- ./inp_files/2001.got.cif
#   From: 2010.05.17/outbox.cif.g08.bks.cpg/sg26_2_cif.got.tgz:2001.got - 2010.06.04 01:07:29.
