data_PCOD9338214
_publ_section_title
;
Structure prediction by ZEFSAII (Michael W. Deem and Ramdas Pophale) SiO2 
 PCOD9338214
Probable space group: P M C 21
;
_chemical_formula_sum "Si O2"
_cell_formula_units_Z 32
_cell_length_a 9.015235
_cell_length_b 12.825697
_cell_length_c 15.750178
_cell_angle_alpha 90.000000
_cell_angle_beta 90.000000
_cell_angle_gamma 90.000000
_cell_volume 1821.140673
_symmetry_space_group_name_H-M "P M C 21"
_symmetry_group_IT_number 26
_symmetry_cell_setting 'orthorhombic'
loop_
_space_group_symop_operation_xyz
x,y,z
-x,-y,1/2+z
-x,y,z
x,-y,1/2+z
loop_
_atom_site_type_symbol
_atom_site_label
_atom_site_fract_x
_atom_site_fract_y
_atom_site_fract_z
Si Si1 0.828515 0.383877 0.269600
Si Si2 0.821932 0.954309 0.178661
Si Si3 0.676486 0.011891 0.357133
Si Si4 0.827788 0.311146 0.089220
Si Si5 0.172890 0.270676 0.606573
Si Si6 0.325554 0.512495 0.140271
Si Si7 0.677897 0.898887 0.533958
Si Si8 0.826020 0.224208 0.407928
O O1 0.821657 0.299139 0.192427
O O2 0.725060 0.474808 0.234238
O O3 0.786104 0.327826 0.355701
O O4 0.000000 0.419197 0.273533
O O5 0.759806 0.979970 0.271408
O O6 0.786928 0.833850 0.157077
O O7 0.000000 0.967328 0.175487
O O8 0.750277 0.027864 0.106345
O O9 0.500000 0.005562 0.343998
O O10 0.714898 0.942940 0.440301
O O11 0.725625 0.128857 0.379567
O O12 0.757061 0.426650 0.080565
O O13 0.739618 0.217731 0.046627
O O14 0.000000 0.310968 0.064069
O O15 0.269695 0.371554 0.625454
O O16 0.186227 0.242669 0.507556
O O17 0.000000 0.295771 0.624027
O O18 0.500000 0.502922 0.129825
O O19 0.500000 0.900489 0.543603
O O20 0.000000 0.201621 0.388221
#
# Coordination Sequence:
#
# PCOD9338214 Si02
#       8
#     4   4   4   4   4   4   4   4
#     4   8  17  33  55  83 110 143 190 242 287 340
#     4  11  23  39  61  86 118 162 203 246 297 357
#     4  11  24  38  56  87 125 159 196 247 305 368
#     4   9  18  34  58  83 112 150 193 240 289 347
#     4  10  21  38  60  86 118 156 200 247 297 359
#     4  10  20  35  57  83 114 153 193 239 295 357
#     4  11  22  37  58  87 122 155 194 246 303 359
#     4  10  19  36  61  87 115 150 199 249 295 355
#
# _framework density 17.571404000000001
#
# number of rings (size 3 to 8) (size 9 to 14) (size 15 to 20)
#    0.750    1.250    1.250    3.000    0.000    4.500 
#    0.000    1.250    0.000    1.500    0.000    0.000 
#    0.000    0.000    0.000    0.000    0.000    0.000 
#
# Total GULP energy -178385.284458 kJ/mol
# GULP energy per Si atom -5574.540139 kJ/mol
# Density = 1.753141 g / cm^3
# Si number density = 17.571404 Si / 1000 Ang^3
#
#
#
# Elastic Constant Matrix: (Units=GPa)
#
#
# Indices 1 2 3 4 5 6 
#
# 1 70.3889 41.8464 23.5517 0.0000 0.0000 0.0000
# 2 41.8464 77.1168 14.0589 0.0000 0.0000 0.0000
# 3 23.5517 14.0589 55.3256 0.0000 0.0000 0.0000
# 4 0.0000 0.0000 0.0000 11.6547 0.0000 0.0000
# 5 0.0000 0.0000 0.0000 0.0000 11.2716 0.0000
# 6 0.0000 0.0000 0.0000 0.0000 0.0000 22.1476
#
#
#
# Elastic Compliance Matrix: (Units=1/GPa)
#
#
# Indices 1 2 3 4 5 6 
#
# 1 0.023323 -0.011373 -0.007038 0.000000 0.000000 0.000000
# 2 -0.011373 0.019143 -0.000023 0.000000 0.000000 0.000000
# 3 -0.007038 -0.000023 0.021077 0.000000 0.000000 0.000000
# 4 0.000000 0.000000 0.000000 0.085802 0.000000 0.000000
# 5 0.000000 0.000000 0.000000 0.000000 0.088719 0.000000
# 6 0.000000 0.000000 0.000000 0.000000 0.000000 0.045152
#
#
# Mechanical properties :
#
#
# Convention : Reuss Voigt Hill
#
# Bulk Modulus (GPa) = 37.48963 40.19392 38.84177
# Shear Modulus (GPa) = 15.19872 17.23974 16.21923
#
# Velocity S-wave (km/s) = 2.94423 3.13569 3.04146
# Velocity P-wave (km/s) = 5.73933 6.00286 5.87257
#
# Compressibility (1/GPa) = 0.02667405
#
# Stress axis : x y z
#
# Youngs Moduli (GPa) = 42.87627 52.23890 47.44525
#
# Poissons Ratio (x) = 0.59410 0.33394
# Poissons Ratio (y) = 0.48762 0.00110
# Poissons Ratio (z) = 0.30178 0.00121
#
# Static dielectric constant tensor:
#      x y z
#    x 1.595210 0.000000 0.000000 
#    y 0.000000 1.582320 0.000000 
#    z 0.000000 0.000000 1.593270 
# 
# From -- ./inp_files/4284.got.cif
#   From: 2010.05.17/outbox.cif.g08.bks.cpg/sg26_3_cif.got.tgz:4284.got - 2010.06.04 01:07:29.
