data_PCOD9338534
_publ_section_title
;
Structure prediction by ZEFSAII (Michael W. Deem and Ramdas Pophale) SiO2 
 PCOD9338534
Probable space group: P M C 21
;
_chemical_formula_sum "Si O2"
_cell_formula_units_Z 24
_cell_length_a 18.315699
_cell_length_b 7.556854
_cell_length_c 7.067368
_cell_angle_alpha 90.000000
_cell_angle_beta 90.000000
_cell_angle_gamma 90.000000
_cell_volume 978.187785
_symmetry_space_group_name_H-M "P M C 21"
_symmetry_group_IT_number 26
_symmetry_cell_setting 'orthorhombic'
loop_
_space_group_symop_operation_xyz
x,y,z
-x,-y,1/2+z
-x,y,z
x,-y,1/2+z
loop_
_atom_site_type_symbol
_atom_site_label
_atom_site_fract_x
_atom_site_fract_y
_atom_site_fract_z
Si Si1 0.231384 0.036834 0.574520
Si Si2 0.881254 0.986199 0.328739
Si Si3 0.345391 0.734323 0.556309
Si Si4 0.500000 0.749417 0.071766
Si Si5 0.000000 0.277103 0.351731
Si Si6 0.660991 0.657532 0.117911
Si Si7 0.500000 0.161938 0.012359
Si Si8 0.000000 0.700034 0.294264
O O1 0.209290 0.032997 0.832506
O O2 0.292529 0.890228 0.607813
O O3 0.140082 0.039592 0.575924
O O4 0.273988 0.221139 0.538097
O O5 0.929780 0.162375 0.291795
O O6 0.929309 0.809327 0.364360
O O7 0.317599 0.546516 0.626485
O O8 0.347911 0.725448 0.330097
O O9 0.427618 0.775058 0.617024
O O10 0.579591 0.665891 0.025120
O O11 0.500000 0.760261 0.301114
O O12 0.500000 0.950649 0.000139
O O13 0.000000 0.266160 0.574454
O O14 0.000000 0.487397 0.312638
#
# Coordination Sequence:
#
# PCOD9338534 Si02
#       8
#     4   4   4   2   2   4   2   2
#     4  12  24  44  66  97 135 173 216 265 328 384
#     4  11  26  46  68  98 138 169 211 266 319 388
#     4  11  25  41  64  95 131 174 224 274 330 384
#     4  10  21  40  64  91 127 171 227 273 327 384
#     4  11  26  46  73 101 131 171 213 261 318 386
#     4  11  25  41  64  96 130 175 224 273 329 386
#     4  10  21  40  64  91 125 173 225 277 325 382
#     4  11  26  46  73 103 129 171 217 255 320 388
#
# _framework density 24.535166
#
# number of rings (size 3 to 8) (size 9 to 14) (size 15 to 20)
#    0.000    1.000    5.000    0.500    4.667    4.000 
#    0.000    0.000    0.000    0.000    0.000    0.000 
#    0.000    0.000    0.000    0.000    0.000    0.000 
#
# Total GULP energy -133925.848248 kJ/mol
# GULP energy per Si atom -5580.243677 kJ/mol
# Density = 2.447932 g / cm^3
# Si number density = 24.535166 Si / 1000 Ang^3
#
#
#
# Elastic Constant Matrix: (Units=GPa)
#
#
# Indices 1 2 3 4 5 6 
#
# 1 203.6414 111.7984 36.6779 0.0000 0.0000 0.0000
# 2 111.7984 195.9434 -14.3955 0.0000 0.0000 0.0000
# 3 36.6779 -14.3955 113.4530 0.0000 0.0000 0.0000
# 4 0.0000 0.0000 0.0000 49.8827 0.0000 0.0000
# 5 0.0000 0.0000 0.0000 0.0000 -32.8311 0.0000
# 6 0.0000 0.0000 0.0000 0.0000 0.0000 22.4344
#
#
#
# Elastic Compliance Matrix: (Units=1/GPa)
#
#
# Indices 1 2 3 4 5 6 
#
# 1 0.008202 -0.004920 -0.003276 0.000000 0.000000 0.000000
# 2 -0.004920 0.008103 0.002619 0.000000 0.000000 0.000000
# 3 -0.003276 0.002619 0.010206 0.000000 0.000000 0.000000
# 4 0.000000 0.000000 0.000000 0.020047 0.000000 0.000000
# 5 0.000000 0.000000 0.000000 0.000000 -0.030459 0.000000
# 6 0.000000 0.000000 0.000000 0.000000 0.000000 0.044574
#
#
# Mechanical properties :
#
#
# Convention : Reuss Voigt Hill
#
# Bulk Modulus (GPa) = 65.12109 86.79994 75.96052
# Shear Modulus (GPa) = 64.98009 33.16100 49.07055
#
# Velocity S-wave (km/s) = 5.15189 3.68036 4.47700
# Velocity P-wave (km/s) = 7.87330 7.31537 7.59946
#
# Compressibility (1/GPa) = 0.01535601
#
# Stress axis : x y z
#
# Youngs Moduli (GPa) = 121.92316 123.40626 97.98569
#
# Poissons Ratio (x) = 0.60721 0.32099
# Poissons Ratio (y) = 0.59991 -0.25661
# Poissons Ratio (z) = 0.39941 -0.32319
#
# Static dielectric constant tensor:
#      x y z
#    x 1.864690 0.000000 0.000000 
#    y 0.000000 1.868890 0.000000 
#    z 0.000000 0.000000 3.483850 
# 
# From -- ./inp_files/3661.got.cif
#   From: 2010.05.17/outbox.cif.g08.bks.cpg/sg26_2_cif.got.tgz:3661.got - 2010.06.04 01:07:29.
