data_PCOD9338444
_publ_section_title
;
Structure prediction by ZEFSAII (Michael W. Deem and Ramdas Pophale) SiO2 
 PCOD9338444
Probable space group: P M C 21
;
_chemical_formula_sum "Si O2"
_cell_formula_units_Z 32
_cell_length_a 7.301662
_cell_length_b 19.691289
_cell_length_c 8.355552
_cell_angle_alpha 90.000000
_cell_angle_beta 90.000000
_cell_angle_gamma 90.000000
_cell_volume 1201.354053
_symmetry_space_group_name_H-M "P M C 21"
_symmetry_group_IT_number 26
_symmetry_cell_setting 'orthorhombic'
loop_
_space_group_symop_operation_xyz
x,y,z
-x,-y,1/2+z
-x,y,z
x,-y,1/2+z
loop_
_atom_site_type_symbol
_atom_site_label
_atom_site_fract_x
_atom_site_fract_y
_atom_site_fract_z
Si Si1 0.789100 0.518149 0.876770
Si Si2 0.722151 0.850252 0.552305
Si Si3 0.780654 0.399095 0.676274
Si Si4 0.277067 0.023709 0.868728
Si Si5 0.721265 0.356075 0.187550
Si Si6 0.722089 0.229356 0.376257
Si Si7 0.717454 0.722937 0.372140
Si Si8 0.276266 0.103428 0.553042
O O1 0.709249 0.446473 0.821966
O O2 0.783850 0.568220 0.723464
O O3 0.000000 0.505576 0.917695
O O4 0.707599 0.564166 0.017614
O O5 0.500000 0.852833 0.554278
O O6 0.778739 0.926371 0.513736
O O7 0.771355 0.814233 0.717324
O O8 0.781885 0.798889 0.410056
O O9 0.745129 0.320448 0.712321
O O10 0.000000 0.404461 0.672922
O O11 0.500000 0.021593 0.861209
O O12 0.217130 0.063538 0.710983
O O13 0.222953 0.947178 0.908287
O O14 0.500000 0.356422 0.185482
O O15 0.783616 0.305154 0.330745
O O16 0.784925 0.323079 0.021308
O O17 0.500000 0.233278 0.385771
O O18 0.783817 0.180531 0.519924
O O19 0.500000 0.727823 0.388141
O O20 0.500000 0.106112 0.558926
#
# Coordination Sequence:
#
# PCOD9338444 Si02
#       8
#     4   4   4   4   4   4   4   4
#     4  10  21  36  53  72  94 122 156 193 233 277
#     4   8  14  25  39  56  82 114 146 182 224 269
#     4  10  21  36  53  72  94 122 156 193 233 277
#     4   9  15  21  31  49  75 110 150 187 223 265
#     4   9  18  32  50  72  97 125 156 191 234 282
#     4   8  14  25  39  56  82 114 146 182 224 269
#     4   9  18  32  50  72  97 125 156 191 234 282
#     4   9  15  21  31  49  75 110 150 187 223 265
#
# _framework density 26.636610000000001
#
# number of rings (size 3 to 8) (size 9 to 14) (size 15 to 20)
#    0.000    3.000    0.000    3.000    0.000    6.500 
#    0.000    2.500    0.000    0.000    0.000    0.000 
#    0.000    1.000    0.000    3.250    0.000    7.250 
#
# Total GULP energy -178835.836608 kJ/mol
# GULP energy per Si atom -5588.619894 kJ/mol
# Density = 2.657598 g / cm^3
# Si number density = 26.636610 Si / 1000 Ang^3
#
#
#
# Elastic Constant Matrix: (Units=GPa)
#
#
# Indices 1 2 3 4 5 6 
#
# 1 112.1628 -6.6891 -6.3761 0.0000 0.0000 0.0000
# 2 -6.6891 143.4736 -2.1016 0.0000 0.0000 0.0000
# 3 -6.3761 -2.1016 56.3140 0.0000 0.0000 0.0000
# 4 0.0000 0.0000 0.0000 45.6304 0.0000 0.0000
# 5 0.0000 0.0000 0.0000 0.0000 0.0704 0.0000
# 6 0.0000 0.0000 0.0000 0.0000 0.0000 8.5486
#
#
#
# Elastic Compliance Matrix: (Units=1/GPa)
#
#
# Indices 1 2 3 4 5 6 
#
# 1 0.009000 0.000435 0.001035 0.000000 0.000000 0.000000
# 2 0.000435 0.006995 0.000310 0.000000 0.000000 0.000000
# 3 0.001035 0.000310 0.017886 0.000000 0.000000 0.000000
# 4 0.000000 0.000000 0.000000 0.021915 0.000000 0.000000
# 5 0.000000 0.000000 0.000000 0.000000 14.195566 0.000000
# 6 0.000000 0.000000 0.000000 0.000000 0.000000 0.116978
#
#
# Mechanical properties :
#
#
# Convention : Reuss Voigt Hill
#
# Bulk Modulus (GPa) = 26.70783 31.29074 28.99929
# Shear Modulus (GPa) = 0.34777 32.65770 16.50274
#
# Velocity S-wave (km/s) = 0.36172 3.50529 2.49178
# Velocity P-wave (km/s) = 3.19734 5.30618 4.38055
#
# Compressibility (1/GPa) = 0.03744220
#
# Stress axis : x y z
#
# Youngs Moduli (GPa) = 111.10621 142.96457 55.90849
#
# Poissons Ratio (x) = -0.06216 -0.05788
# Poissons Ratio (y) = -0.04831 -0.01735
# Poissons Ratio (z) = -0.11503 -0.04436
#
# Static dielectric constant tensor:
#      x y z
#    x 2.019300 0.000000 0.000000 
#    y 0.000000 2.009540 0.000000 
#    z 0.000000 0.000000 2.162080 
# 
# From -- ./inp_files/2007.got.cif
#   From: 2010.05.17/outbox.cif.g08.bks.cpg/sg26_2_cif.got.tgz:2007.got - 2010.06.04 01:07:29.
