data_PCOD9338804
_publ_section_title
;
Structure prediction by ZEFSAII (Michael W. Deem and Ramdas Pophale) SiO2 
 PCOD9338804
Probable space group: P C C 2
;
_chemical_formula_sum "Si O2"
_cell_formula_units_Z 32
_cell_length_a 7.471179
_cell_length_b 5.156695
_cell_length_c 36.821431
_cell_angle_alpha 90.000000
_cell_angle_beta 90.000000
_cell_angle_gamma 90.000000
_cell_volume 1418.604227
_symmetry_space_group_name_H-M "P C C 2"
_symmetry_group_IT_number 27
_symmetry_cell_setting 'orthorhombic'
loop_
_space_group_symop_operation_xyz
x,y,z
-x,-y,z
-x,y,1/2+z
x,-y,1/2+z
loop_
_atom_site_type_symbol
_atom_site_label
_atom_site_fract_x
_atom_site_fract_y
_atom_site_fract_z
Si Si1 0.707188 0.554669 0.561780
Si Si2 0.282267 0.036488 0.856822
Si Si3 0.711921 0.459177 0.819197
Si Si4 0.872964 0.748452 0.247031
Si Si5 0.127524 0.248692 0.167309
Si Si6 0.701570 0.890899 0.939019
Si Si7 0.710317 0.059004 0.595099
Si Si8 0.803966 0.613865 0.481438
O O1 0.500000 0.500000 0.571525
O O2 0.714541 0.650457 0.520646
O O3 0.806774 0.884388 0.460291
O O4 0.789960 0.773645 0.587929
O O5 0.217777 0.252535 0.827897
O O6 0.238266 0.127767 0.897252
O O7 0.500000 0.000000 0.854633
O O8 0.215081 0.748767 0.848085
O O9 0.500000 0.500000 0.823208
O O10 0.747651 0.320996 0.780803
O O11 0.782035 0.754945 0.207232
O O12 0.000000 0.500000 0.245160
O O13 0.000000 0.000000 0.251935
O O14 0.257428 0.194479 0.133714
O O15 0.000000 0.500000 0.163199
O O16 0.000000 0.000000 0.167566
O O17 0.500000 0.000000 0.938832
O O18 0.709090 0.612908 0.958255
O O19 0.786300 0.267512 0.566470
O O20 0.500000 0.000000 0.590020
O O21 0.000000 0.500000 0.487946
#
# Coordination Sequence:
#
# PCOD9338804 Si02
#       8
#     4   4   4   4   4   4   4   4
#     4  10  21  38  60  85 115 154 194 236 290 354
#     4   9  19  35  59  86 112 146 195 244 288 343
#     4  10  19  36  59  86 114 146 193 246 289 335
#     4  10  21  38  57  82 118 156 192 230 284 353
#     4  10  21  38  59  83 116 156 192 231 286 353
#     4  11  22  41  65  85 114 161 202 237 292 361
#     4  10  21  38  60  87 115 145 194 248 287 334
#     4  12  25  40  59  90 124 152 193 250 296 341
#
# _framework density 22.557385
#
# number of rings (size 3 to 8) (size 9 to 14) (size 15 to 20)
#    0.000    1.750    0.000    4.500    0.000    4.500 
#    0.000   13.750    0.000    0.000    0.000    0.000 
#    0.000    0.000    0.000    0.000    0.000    0.000 
#
# Total GULP energy -178633.274424 kJ/mol
# GULP energy per Si atom -5582.289826 kJ/mol
# Density = 2.250604 g / cm^3
# Si number density = 22.557385 Si / 1000 Ang^3
#
#
#
# Elastic Constant Matrix: (Units=GPa)
#
#
# Indices 1 2 3 4 5 6 
#
# 1 24.5280 19.5055 -10.9496 0.0000 0.0000 0.0000
# 2 19.5055 176.9379 59.4183 0.0000 0.0000 0.0000
# 3 -10.9496 59.4183 117.5512 0.0000 0.0000 0.0000
# 4 0.0000 0.0000 0.0000 39.3781 0.0000 0.0000
# 5 0.0000 0.0000 0.0000 0.0000 22.7925 0.0000
# 6 0.0000 0.0000 0.0000 0.0000 0.0000 16.0273
#
#
#
# Elastic Compliance Matrix: (Units=1/GPa)
#
#
# Indices 1 2 3 4 5 6 
#
# 1 0.051975 -0.008859 0.009319 0.000000 0.000000 0.000000
# 2 -0.008859 0.008317 -0.005029 0.000000 0.000000 0.000000
# 3 0.009319 -0.005029 0.011917 0.000000 0.000000 0.000000
# 4 0.000000 0.000000 0.000000 0.025395 0.000000 0.000000
# 5 0.000000 0.000000 0.000000 0.000000 0.043874 0.000000
# 6 0.000000 0.000000 0.000000 0.000000 0.000000 0.062393
#
#
# Mechanical properties :
#
#
# Convention : Reuss Voigt Hill
#
# Bulk Modulus (GPa) = 15.85505 50.55172 33.20339
# Shear Modulus (GPa) = 21.36440 32.37579 26.87010
#
# Velocity S-wave (km/s) = 3.08086 3.79260 3.45510
# Velocity P-wave (km/s) = 4.43842 6.45270 5.53791
#
# Compressibility (1/GPa) = 0.06307137
#
# Stress axis : x y z
#
# Youngs Moduli (GPa) = 19.23992 120.23180 83.91245
#
# Poissons Ratio (x) = 1.06517 -0.78202
# Poissons Ratio (y) = 0.17045 0.42202
# Poissons Ratio (z) = -0.17931 0.60469
#
# Static dielectric constant tensor:
#      x y z
#    x 1.841820 0.000000 0.000000 
#    y 0.000000 1.849390 0.000000 
#    z 0.000000 0.000000 1.883090 
# 
# From -- ./inp_files/5362.got.cif
#   From: 2010.05.17/outbox.cif.g08.bks.cpg/sg27_3_cif.got.tgz:5362.got - 2010.06.04 01:11:05.
