data_PCOD9338966
_publ_section_title
;
Structure prediction by ZEFSAII (Michael W. Deem and Ramdas Pophale) SiO2 
 PCOD9338966
Probable space group: P C C 2
;
_chemical_formula_sum "Si O2"
_cell_formula_units_Z 24
_cell_length_a 9.204433
_cell_length_b 12.570474
_cell_length_c 9.074342
_cell_angle_alpha 90.000000
_cell_angle_beta 90.000000
_cell_angle_gamma 90.000000
_cell_volume 1049.938445
_symmetry_space_group_name_H-M "P C C 2"
_symmetry_group_IT_number 27
_symmetry_cell_setting 'orthorhombic'
loop_
_space_group_symop_operation_xyz
x,y,z
-x,-y,z
-x,y,1/2+z
x,-y,1/2+z
loop_
_atom_site_type_symbol
_atom_site_label
_atom_site_fract_x
_atom_site_fract_y
_atom_site_fract_z
Si Si1 0.477734 0.282001 0.699440
Si Si2 0.845725 0.264326 0.111519
Si Si3 0.607106 0.594393 0.967986
Si Si4 0.159862 0.049719 0.427238
Si Si5 0.893420 0.683413 0.943092
Si Si6 0.721482 0.869231 0.116140
O O1 0.323047 0.294463 0.619766
O O2 0.443786 0.304067 0.869462
O O3 0.579249 0.375232 0.636596
O O4 0.562982 0.174900 0.661047
O O5 0.902758 0.269569 0.278895
O O6 0.850306 0.148055 0.039748
O O7 0.949721 0.336510 0.011404
O O8 0.500000 0.500000 0.929444
O O9 0.778281 0.586702 0.938816
O O10 0.208111 0.089120 0.267216
O O11 0.268642 0.962296 0.495665
O O12 0.000000 0.000000 0.417294
O O13 0.816509 0.772344 0.047573
#
# Coordination Sequence:
#
# PCOD9338966 Si02
#       6
#     4   4   4   4   4   4
#     4  10  23  42  66  95 133 176 214 286 347 402
#     4  11  22  40  63  92 132 175 226 273 340 394
#     4  10  21  42  70  99 125 167 221 275 350 421
#     4  12  23  36  64  93 133 183 237 286 321 399
#     4  10  22  39  64  95 129 172 220 277 339 408
#     4  11  23  40  61  93 131 178 234 275 341 390
#
# _framework density 22.858481000000001
#
# number of rings (size 3 to 8) (size 9 to 14) (size 15 to 20)
#    0.000    1.333    1.667    4.000    0.000    2.000 
#    0.000    2.500    0.000    4.000    0.000    0.000 
#    0.000    0.000    0.000    0.000    0.000    0.000 
#
# Total GULP energy -134158.873610 kJ/mol
# GULP energy per Si atom -5589.953067 kJ/mol
# Density = 2.280645 g / cm^3
# Si number density = 22.858481 Si / 1000 Ang^3
#
#
#
# Elastic Constant Matrix: (Units=GPa)
#
#
# Indices 1 2 3 4 5 6 
#
# 1 56.8429 18.4845 3.3293 0.0000 0.0000 0.0000
# 2 18.4845 52.3556 10.2130 0.0000 0.0000 0.0000
# 3 3.3293 10.2130 91.1756 0.0000 0.0000 0.0000
# 4 0.0000 0.0000 0.0000 19.4980 0.0000 0.0000
# 5 0.0000 0.0000 0.0000 0.0000 37.4649 0.0000
# 6 0.0000 0.0000 0.0000 0.0000 0.0000 40.3917
#
#
#
# Elastic Compliance Matrix: (Units=1/GPa)
#
#
# Indices 1 2 3 4 5 6 
#
# 1 0.019874 -0.007029 0.000062 0.000000 0.000000 0.000000
# 2 -0.007029 0.022013 -0.002209 0.000000 0.000000 0.000000
# 3 0.000062 -0.002209 0.011213 0.000000 0.000000 0.000000
# 4 0.000000 0.000000 0.000000 0.051287 0.000000 0.000000
# 5 0.000000 0.000000 0.000000 0.000000 0.026692 0.000000
# 6 0.000000 0.000000 0.000000 0.000000 0.000000 0.024758
#
#
# Mechanical properties :
#
#
# Convention : Reuss Voigt Hill
#
# Bulk Modulus (GPa) = 28.77901 29.38084 29.07993
# Shear Modulus (GPa) = 26.91478 30.69410 28.80444
#
# Velocity S-wave (km/s) = 3.43513 3.66838 3.55367
# Velocity P-wave (km/s) = 5.32455 5.55193 5.43943
#
# Compressibility (1/GPa) = 0.03474755
#
# Stress axis : x y z
#
# Youngs Moduli (GPa) = 50.31598 45.42848 89.18181
#
# Poissons Ratio (x) = 0.31931 -0.00550
# Poissons Ratio (y) = 0.35366 0.19701
# Poissons Ratio (z) = -0.00310 0.10036
#
# Static dielectric constant tensor:
#      x y z
#    x 1.878030 0.000000 0.000000 
#    y 0.000000 1.883070 0.000000 
#    z 0.000000 0.000000 1.805530 
# 
# From -- ./inp_files/1157.got.cif
#   From: 2010.05.17/outbox.cif.g08.bks.cpg/sg27_1_cif.got.tgz:1157.got - 2010.06.04 01:11:05.
