data_PCOD9338584
_publ_section_title
;
Structure prediction by ZEFSAII (Michael W. Deem and Ramdas Pophale) SiO2 
 PCOD9338584
Probable space group: P M C 21
;
_chemical_formula_sum "Si O2"
_cell_formula_units_Z 32
_cell_length_a 23.965416
_cell_length_b 4.785017
_cell_length_c 11.362988
_cell_angle_alpha 90.000000
_cell_angle_beta 90.000000
_cell_angle_gamma 90.000000
_cell_volume 1303.049774
_symmetry_space_group_name_H-M "P M C 21"
_symmetry_group_IT_number 26
_symmetry_cell_setting 'orthorhombic'
loop_
_space_group_symop_operation_xyz
x,y,z
-x,-y,1/2+z
-x,y,z
x,-y,1/2+z
loop_
_atom_site_type_symbol
_atom_site_label
_atom_site_fract_x
_atom_site_fract_y
_atom_site_fract_z
Si Si1 0.559926 0.741010 0.673150
Si Si2 0.062617 0.523782 0.995763
Si Si3 0.680054 0.194570 0.160396
Si Si4 0.318417 0.711085 0.011903
Si Si5 0.150625 0.232761 0.828192
Si Si6 0.937373 0.024443 0.151925
Si Si7 0.773658 0.726501 0.840563
Si Si8 0.438746 0.416747 0.426493
O O1 0.500000 0.889504 0.684934
O O2 0.617369 0.905648 0.689895
O O3 0.560897 0.524268 0.785076
O O4 0.561344 0.629478 0.538151
O O5 0.110729 0.404859 0.915193
O O6 0.000000 0.475445 0.947760
O O7 0.066944 0.846613 0.030936
O O8 0.066456 0.347737 0.117213
O O9 0.675604 0.519974 0.127598
O O10 0.727724 0.145984 0.253423
O O11 0.695324 0.025816 0.044581
O O12 0.265370 0.599705 0.941525
O O13 0.377806 0.716152 0.946045
O O14 0.111128 0.082552 0.734153
O O15 0.192052 0.474077 0.781551
O O16 0.186439 0.977529 0.881243
O O17 0.000000 0.973167 0.199421
O O18 0.500000 0.270626 0.442691
#
# Coordination Sequence:
#
# PCOD9338584 Si02
#       8
#     4   4   4   4   4   4   4   4
#     4   9  18  37  66  99 133 172 222 281 344 406
#     4  10  22  41  65  94 127 163 206 259 322 383
#     4  11  24  43  65  89 127 169 214 269 326 392
#     4  11  24  43  65  89 127 169 214 269 326 392
#     4  12  25  40  66  92 129 164 216 264 312 386
#     4  10  22  41  65  94 127 163 206 259 322 383
#     4  12  26  42  60  94 124 170 218 258 318 382
#     4   9  18  37  66  99 133 172 222 281 344 406
#
# _framework density 24.557773999999998
#
# number of rings (size 3 to 8) (size 9 to 14) (size 15 to 20)
#    0.000    1.500    1.250    3.375    0.000    6.500 
#    2.250    5.000    0.000    3.000    0.000    0.000 
#    0.000    0.000    0.000    0.000    0.000    0.000 
#
# Total GULP energy -178529.759772 kJ/mol
# GULP energy per Si atom -5579.054993 kJ/mol
# Density = 2.450188 g / cm^3
# Si number density = 24.557774 Si / 1000 Ang^3
#
#
#
# Elastic Constant Matrix: (Units=GPa)
#
#
# Indices 1 2 3 4 5 6 
#
# 1 153.6029 20.3700 23.3083 0.0000 0.0000 0.0000
# 2 20.3700 71.8470 0.7840 0.0000 0.0000 0.0000
# 3 23.3083 0.7840 46.9443 0.0000 0.0000 0.0000
# 4 0.0000 0.0000 0.0000 22.5589 0.0000 0.0000
# 5 0.0000 0.0000 0.0000 0.0000 44.4880 0.0000
# 6 0.0000 0.0000 0.0000 0.0000 0.0000-1805.4969
#
#
#
# Elastic Compliance Matrix: (Units=1/GPa)
#
#
# Indices 1 2 3 4 5 6 
#
# 1 0.007327 -0.002038 -0.003604 0.000000 0.000000 0.000000
# 2 -0.002038 0.014488 0.000770 0.000000 0.000000 0.000000
# 3 -0.003604 0.000770 0.023078 0.000000 0.000000 0.000000
# 4 0.000000 0.000000 0.000000 0.044328 0.000000 0.000000
# 5 0.000000 0.000000 0.000000 0.000000 0.022478 0.000000
# 6 0.000000 0.000000 0.000000 0.000000 0.000000 -0.000554
#
#
# Mechanical properties :
#
#
# Convention : Reuss Voigt Hill
#
# Bulk Modulus (GPa) = 28.45005 40.14652 34.29828
# Shear Modulus (GPa) = 37.70534 -332.49451 -147.39459
#
# Velocity S-wave (km/s) = 3.92263 -11.64846 -7.75563
# Velocity P-wave (km/s) = 5.66800 12.82702 8.13653
#
# Compressibility (1/GPa) = 0.03514932
#
# Stress axis : x y z
#
# Youngs Moduli (GPa) = 136.47251 69.02303 43.33048
#
# Poissons Ratio (x) = 0.14068 0.15617
# Poissons Ratio (y) = 0.27815 -0.03336
# Poissons Ratio (z) = 0.49186 -0.05315
#
# Static dielectric constant tensor:
#      x y z
#    x 1.945830 0.000000 0.000000 
#    y 0.000000 1.894280 0.000000 
#    z 0.000000 0.000000 1.995580 
# 
# From -- ./inp_files/3729.got.cif
#   From: 2010.05.17/outbox.cif.g08.bks.cpg/sg26_2_cif.got.tgz:3729.got - 2010.06.04 01:07:29.
