data_PCOD9338656
_publ_section_title
;
Structure prediction by ZEFSAII (Michael W. Deem and Ramdas Pophale) SiO2 
 PCOD9338656
Probable space group: P M C 21
;
_chemical_formula_sum "Si O2"
_cell_formula_units_Z 26
_cell_length_a 22.843820
_cell_length_b 4.723019
_cell_length_c 8.508168
_cell_angle_alpha 90.000000
_cell_angle_beta 90.000000
_cell_angle_gamma 90.000000
_cell_volume 917.961525
_symmetry_space_group_name_H-M "P M C 21"
_symmetry_group_IT_number 26
_symmetry_cell_setting 'orthorhombic'
loop_
_space_group_symop_operation_xyz
x,y,z
-x,-y,1/2+z
-x,y,z
x,-y,1/2+z
loop_
_atom_site_type_symbol
_atom_site_label
_atom_site_fract_x
_atom_site_fract_y
_atom_site_fract_z
Si Si1 0.177915 0.134796 0.127050
Si Si2 0.606971 0.635763 0.132052
Si Si3 0.500000 0.014190 0.486092
Si Si4 0.500000 0.367546 0.227960
Si Si5 0.000000 0.192492 0.618124
Si Si6 0.753551 0.307572 0.423016
Si Si7 0.323616 0.193510 0.925019
Si Si8 0.091483 0.881365 0.376540
O O1 0.226466 0.264657 0.243533
O O2 0.129745 0.070095 0.260753
O O3 0.138462 0.277834 0.988454
O O4 0.203937 0.846639 0.047688
O O5 0.561747 0.841593 0.039046
O O6 0.560930 0.505837 0.257579
O O7 0.652832 0.779145 0.249198
O O8 0.635562 0.366998 0.043749
O O9 0.500000 0.058600 0.301469
O O10 0.500000 0.695514 0.542255
O O11 0.949683 0.282235 0.752127
O O12 0.949518 0.065389 0.494432
O O13 0.738156 0.636828 0.438257
O O14 0.692330 0.134235 0.445870
#
# Coordination Sequence:
#
# PCOD9338656 Si02
#       8
#     4   4   2   2   2   4   4   4
#     4   9  18  35  54  82 126 173 218 265 324 382
#     4  11  26  42  64  94 128 164 214 257 342 388
#     4  11  26  44  67  95 129 167 210 267 320 425
#     4  11  26  44  67  95 129 167 210 267 320 425
#     4   8  12  22  44  90 132 168 220 266 324 382
#     4  11  24  41  62  90 126 165 220 267 320 384
#     4  12  26  43  68  94 128 169 210 278 322 388
#     4   8  14  25  50  82 132 173 214 270 322 382
#
# _framework density 28.323630000000001
#
# number of rings (size 3 to 8) (size 9 to 14) (size 15 to 20)
#    0.000    1.846    1.538    1.846    6.462    0.000 
#    0.000    0.000    0.000    0.000    0.000    0.000 
#    0.000 1137.231    0.000    0.000    0.000  142.154 
#
# Total GULP energy -144832.909222 kJ/mol
# GULP energy per Si atom -5570.496509 kJ/mol
# Density = 2.825916 g / cm^3
# Si number density = 28.323630 Si / 1000 Ang^3
#
#
#
# Elastic Constant Matrix: (Units=GPa)
#
#
# Indices 1 2 3 4 5 6 
#
# 1 123.3314 6.9299 39.8189 0.0000 0.0000 0.0000
# 2 6.9299 88.6118 13.8126 0.0000 0.0000 0.0000
# 3 39.8189 13.8126 157.9250 0.0000 0.0000 0.0000
# 4 0.0000 0.0000 0.0000 36.1446 0.0000 0.0000
# 5 0.0000 0.0000 0.0000 0.0000 59.3647 0.0000
# 6 0.0000 0.0000 0.0000 0.0000 0.0000 -10.9622
#
#
#
# Elastic Compliance Matrix: (Units=1/GPa)
#
#
# Indices 1 2 3 4 5 6 
#
# 1 0.008837 -0.000349 -0.002198 0.000000 0.000000 0.000000
# 2 -0.000349 0.011455 -0.000914 0.000000 0.000000 0.000000
# 3 -0.002198 -0.000914 0.006966 0.000000 0.000000 0.000000
# 4 0.000000 0.000000 0.000000 0.027667 0.000000 0.000000
# 5 0.000000 0.000000 0.000000 0.000000 0.016845 0.000000
# 6 0.000000 0.000000 0.000000 0.000000 0.000000 -0.091222
#
#
# Mechanical properties :
#
#
# Convention : Reuss Voigt Hill
#
# Bulk Modulus (GPa) = 49.16931 54.55454 51.86192
# Shear Modulus (GPa) = -869.20406 37.52989 -415.83709
#
# Velocity S-wave (km/s) = -17.53708 3.64406 -12.12992
# Velocity P-wave (km/s) = 19.81586 6.08346 13.33528
#
# Compressibility (1/GPa) = 0.02033789
#
# Stress axis : x y z
#
# Youngs Moduli (GPa) = 113.15559 87.29887 143.55036
#
# Poissons Ratio (x) = 0.03043 0.31549
# Poissons Ratio (y) = 0.03944 0.13120
# Poissons Ratio (z) = 0.24869 0.07979
#
# Static dielectric constant tensor:
#      x y z
#    x 2.215130 0.000000 0.000000 
#    y 0.000000 2.146230 0.000000 
#    z 0.000000 0.000000 2.151850 
# 
# From -- ./inp_files/2509.got.cif
#   From: 2010.05.17/outbox.cif.g08.bks.cpg/sg26_2_cif.got.tgz:2509.got - 2010.06.04 01:07:29.
