data_PCOD9338626
_publ_section_title
;
Structure prediction by ZEFSAII (Michael W. Deem and Ramdas Pophale) SiO2 
 PCOD9338626
Probable space group: P M C 21
;
_chemical_formula_sum "Si O2"
_cell_formula_units_Z 16
_cell_length_a 5.313273
_cell_length_b 9.559025
_cell_length_c 15.774731
_cell_angle_alpha 90.000000
_cell_angle_beta 90.000000
_cell_angle_gamma 90.000000
_cell_volume 801.194004
_symmetry_space_group_name_H-M "P M C 21"
_symmetry_group_IT_number 26
_symmetry_cell_setting 'orthorhombic'
loop_
_space_group_symop_operation_xyz
x,y,z
-x,-y,1/2+z
-x,y,z
x,-y,1/2+z
loop_
_atom_site_type_symbol
_atom_site_label
_atom_site_fract_x
_atom_site_fract_y
_atom_site_fract_z
Si Si1 0.000000 0.358605 0.479190
Si Si2 0.000000 0.940583 0.887447
Si Si3 0.000000 0.495433 0.302801
Si Si4 0.500000 0.883103 0.418544
Si Si5 0.500000 0.253629 0.103181
Si Si6 0.500000 0.331893 0.765631
Si Si7 0.500000 0.588883 0.085911
Si Si8 0.000000 0.198412 0.207085
O O1 0.249318 0.382586 0.533208
O O2 0.000000 0.206900 0.436023
O O3 0.000000 0.467424 0.402386
O O4 0.249272 0.023695 0.914108
O O5 0.000000 0.909889 0.785863
O O6 0.750286 0.578726 0.280646
O O7 0.000000 0.350051 0.252470
O O8 0.500000 0.790698 0.504353
O O9 0.500000 0.790790 0.333379
O O10 0.500000 0.423565 0.110799
O O11 0.250984 0.194337 0.149863
O O12 0.500000 0.306036 0.665565
#
# Coordination Sequence:
#
# PCOD9338626 Si02
#       8
#     2   2   2   2   2   2   2   2
#     4  11  24  41  69  95 130 176 216 275 320 396
#     4  11  26  49  65  93 136 180 237 254 329 400
#     4  11  20  41  67  97 129 169 212 269 346 385
#     4  12  26  46  65  99 136 183 222 277 322 394
#     4  12  23  42  71 102 132 169 228 277 338 394
#     4  12  24  42  65  99 143 164 209 282 339 395
#     4  12  23  42  67 108 131 162 221 276 347 397
#     4  11  22  43  71  95 129 177 221 278 317 405
#
# _framework density 19.970192999999998
#
# number of rings (size 3 to 8) (size 9 to 14) (size 15 to 20)
#    0.000    0.500    2.500    6.750    0.000    4.000 
#   13.500    0.000    0.000    0.000    0.000    0.000 
#    0.000    0.000    0.000    0.000    0.000    0.000 
#
# Total GULP energy -89513.771468 kJ/mol
# GULP energy per Si atom -5594.610717 kJ/mol
# Density = 1.992474 g / cm^3
# Si number density = 19.970193 Si / 1000 Ang^3
#
#
#
# Elastic Constant Matrix: (Units=GPa)
#
#
# Indices 1 2 3 4 5 6 
#
# 1 194.9509 21.2813 60.5933 0.0000 0.0000 0.0000
# 2 21.2813 31.5089 8.3197 0.0000 0.0000 0.0000
# 3 60.5933 8.3197 135.5310 0.0000 0.0000 0.0000
# 4 0.0000 0.0000 0.0000 32.4637 0.0000 0.0000
# 5 0.0000 0.0000 0.0000 0.0000 44.4533 0.0000
# 6 0.0000 0.0000 0.0000 0.0000 0.0000 31.8472
#
#
#
# Elastic Compliance Matrix: (Units=1/GPa)
#
#
# Indices 1 2 3 4 5 6 
#
# 1 0.006333 -0.003588 -0.002611 0.000000 0.000000 0.000000
# 2 -0.003588 0.034293 -0.000501 0.000000 0.000000 0.000000
# 3 -0.002611 -0.000501 0.008576 0.000000 0.000000 0.000000
# 4 0.000000 0.000000 0.000000 0.030804 0.000000 0.000000
# 5 0.000000 0.000000 0.000000 0.000000 0.022496 0.000000
# 6 0.000000 0.000000 0.000000 0.000000 0.000000 0.031400
#
#
# Mechanical properties :
#
#
# Convention : Reuss Voigt Hill
#
# Bulk Modulus (GPa) = 27.93132 60.26437 44.09784
# Shear Modulus (GPa) = 31.40026 39.87260 35.63643
#
# Velocity S-wave (km/s) = 3.96960 4.47319 4.22889
# Velocity P-wave (km/s) = 5.91837 7.54466 6.78045
#
# Compressibility (1/GPa) = 0.03580211
#
# Stress axis : x y z
#
# Youngs Moduli (GPa) = 157.91130 29.16089 116.59814
#
# Poissons Ratio (x) = 0.10462 0.30444
# Poissons Ratio (y) = 0.56654 0.05842
# Poissons Ratio (z) = 0.41230 0.01461
#
# Static dielectric constant tensor:
#      x y z
#    x 1.628160 0.000000 0.000000 
#    y 0.000000 1.681000 0.000000 
#    z 0.000000 0.000000 1.704260 
# 
# From -- ./inp_files/3748.got.cif
#   From: 2010.05.17/outbox.cif.g08.bks.cpg/sg26_2_cif.got.tgz:3748.got - 2010.06.04 01:07:29.
