data_PCOD9338593
_publ_section_title
;
Structure prediction by ZEFSAII (Michael W. Deem and Ramdas Pophale) SiO2 
 PCOD9338593
Probable space group: P M C 21
;
_chemical_formula_sum "Si O2"
_cell_formula_units_Z 32
_cell_length_a 9.039533
_cell_length_b 15.492746
_cell_length_c 12.073977
_cell_angle_alpha 90.000000
_cell_angle_beta 90.000000
_cell_angle_gamma 90.000000
_cell_volume 1690.926536
_symmetry_space_group_name_H-M "P M C 21"
_symmetry_group_IT_number 26
_symmetry_cell_setting 'orthorhombic'
loop_
_space_group_symop_operation_xyz
x,y,z
-x,-y,1/2+z
-x,y,z
x,-y,1/2+z
loop_
_atom_site_type_symbol
_atom_site_label
_atom_site_fract_x
_atom_site_fract_y
_atom_site_fract_z
Si Si1 0.676932 0.602140 0.621800
Si Si2 0.824392 0.897297 0.630238
Si Si3 0.827611 0.333316 0.897616
Si Si4 0.677019 0.757673 0.787618
Si Si5 0.173062 0.579802 0.167221
Si Si6 0.321894 0.743500 0.047985
Si Si7 0.326771 0.077386 0.671812
Si Si8 0.327697 0.159801 0.904340
O O1 0.500000 0.601304 0.607755
O O2 0.754778 0.635222 0.510604
O O3 0.711901 0.669716 0.720418
O O4 0.737160 0.506778 0.643609
O O5 0.756512 0.836685 0.726030
O O6 0.762133 0.864235 0.513123
O O7 0.000000 0.891581 0.632973
O O8 0.769990 0.995363 0.641691
O O9 0.818079 0.401027 0.798226
O O10 0.737160 0.249490 0.860885
O O11 0.000000 0.311915 0.914988
O O12 0.500000 0.771355 0.779374
O O13 0.713780 0.749961 0.917338
O O14 0.239944 0.662334 0.103120
O O15 0.000000 0.569319 0.137501
O O16 0.500000 0.731515 0.059474
O O17 0.285148 0.834292 0.108100
O O18 0.500000 0.060075 0.645463
O O19 0.315145 0.093603 0.803311
O O20 0.500000 0.169523 0.933457
#
# Coordination Sequence:
#
# PCOD9338593 Si02
#       8
#     4   4   4   4   4   4   4   4
#     4  11  24  41  65  93 125 168 215 260 306 368
#     4  12  26  41  63  94 130 167 206 258 317 378
#     4  11  23  41  65  94 128 163 204 260 320 372
#     4  10  23  43  65  92 125 164 212 262 309 367
#     4  11  25  42  63  94 132 166 202 257 319 378
#     4  10  22  43  67  93 124 163 214 260 307 370
#     4  10  23  42  66  93 124 166 212 261 309 367
#     4  11  22  41  68  93 122 163 213 262 309 368
#
# _framework density 18.924534000000001
#
# number of rings (size 3 to 8) (size 9 to 14) (size 15 to 20)
#    0.000    1.250    2.500    2.625    3.500    4.000 
#    0.000    0.000    0.000    0.000    0.000    0.000 
#    0.000    0.000    0.000    0.000    0.000    0.000 
#
# Total GULP energy -178873.140514 kJ/mol
# GULP energy per Si atom -5589.785641 kJ/mol
# Density = 1.888146 g / cm^3
# Si number density = 18.924534 Si / 1000 Ang^3
#
#
#
# Elastic Constant Matrix: (Units=GPa)
#
#
# Indices 1 2 3 4 5 6 
#
# 1 61.3233 40.9017 43.7279 0.0000 0.0000 0.0000
# 2 40.9017 95.7503 31.6991 0.0000 0.0000 0.0000
# 3 43.7279 31.6991 106.2647 0.0000 0.0000 0.0000
# 4 0.0000 0.0000 0.0000 18.5048 0.0000 0.0000
# 5 0.0000 0.0000 0.0000 0.0000 24.9823 0.0000
# 6 0.0000 0.0000 0.0000 0.0000 0.0000 48.5547
#
#
#
# Elastic Compliance Matrix: (Units=1/GPa)
#
#
# Indices 1 2 3 4 5 6 
#
# 1 0.029124 -0.009402 -0.009180 0.000000 0.000000 0.000000
# 2 -0.009402 0.014623 -0.000493 0.000000 0.000000 0.000000
# 3 -0.009180 -0.000493 0.013335 0.000000 0.000000 0.000000
# 4 0.000000 0.000000 0.000000 0.054040 0.000000 0.000000
# 5 0.000000 0.000000 0.000000 0.000000 0.040028 0.000000
# 6 0.000000 0.000000 0.000000 0.000000 0.000000 0.020595
#
#
# Mechanical properties :
#
#
# Convention : Reuss Voigt Hill
#
# Bulk Modulus (GPa) = 52.81983 55.11065 53.96524
# Shear Modulus (GPa) = 23.12605 28.20900 25.66753
#
# Velocity S-wave (km/s) = 3.49952 3.86502 3.68681
# Velocity P-wave (km/s) = 6.65584 7.00731 6.83384
#
# Compressibility (1/GPa) = 0.01893228
#
# Stress axis : x y z
#
# Youngs Moduli (GPa) = 34.33630 68.38394 74.98986
#
# Poissons Ratio (x) = 0.64293 0.68839
# Poissons Ratio (y) = 0.32282 0.03700
# Poissons Ratio (z) = 0.31520 0.03374
#
# Static dielectric constant tensor:
#      x y z
#    x 1.631830 0.000000 0.000000 
#    y 0.000000 1.654750 0.000000 
#    z 0.000000 0.000000 1.645330 
# 
# From -- ./inp_files/3029.got.cif
#   From: 2010.05.17/outbox.cif.g08.bks.cpg/sg26_2_cif.got.tgz:3029.got - 2010.06.04 01:07:29.
