data_PCOD9338124
_publ_section_title
;
Structure prediction by ZEFSAII (Michael W. Deem and Ramdas Pophale) SiO2 
 PCOD9338124
Probable space group: P M C 21
;
_chemical_formula_sum "Si O2"
_cell_formula_units_Z 20
_cell_length_a 27.863408
_cell_length_b 5.228512
_cell_length_c 4.970462
_cell_angle_alpha 90.000000
_cell_angle_beta 90.000000
_cell_angle_gamma 90.000000
_cell_volume 724.117597
_symmetry_space_group_name_H-M "P M C 21"
_symmetry_group_IT_number 26
_symmetry_cell_setting 'orthorhombic'
loop_
_space_group_symop_operation_xyz
x,y,z
-x,-y,1/2+z
-x,y,z
x,-y,1/2+z
loop_
_atom_site_type_symbol
_atom_site_label
_atom_site_fract_x
_atom_site_fract_y
_atom_site_fract_z
Si Si1 0.599990 0.682886 0.786700
Si Si2 0.000000 0.635524 0.823504
Si Si3 0.500000 0.682318 0.648540
Si Si4 0.099355 0.127718 0.119845
Si Si5 0.201666 0.661042 0.799384
Si Si6 0.300574 0.317340 0.146095
O O1 0.599996 0.437987 0.582210
O O2 0.549952 0.819727 0.718020
O O3 0.649809 0.822512 0.717155
O O4 0.049715 0.756002 0.724717
O O5 0.000000 0.377396 0.644231
O O6 0.500000 0.563186 0.352209
O O7 0.149739 0.234980 0.223857
O O8 0.099354 0.867048 0.298073
O O9 0.204474 0.408415 0.610896
O O10 0.249567 0.811929 0.710427
O O11 0.301274 0.561002 0.351649
#
# Coordination Sequence:
#
# PCOD9338124 Si02
#       6
#     4   2   2   4   4   4
#     4   8  12  18  27  44  68 100 137 178 222 270
#     4  12  24  42  64  84 106 138 174 204 236 290
#     4   8  12  16  24  38  64  98 134 170 218 276
#     4  12  24  39  57  82 111 136 163 205 252 290
#     4  10  19  34  53  74  98 132 171 204 239 292
#     4   8  14  23  38  57  80 109 150 193 228 270
#
# _framework density 27.619823
#
# number of rings (size 3 to 8) (size 9 to 14) (size 15 to 20)
#    0.000    2.400    0.000    4.200    0.000    0.000 
#    0.000    0.000    0.000    0.000    0.000    0.000 
#    0.000    0.000    0.000    1.800    0.000    7.000 
#
# Total GULP energy -111779.421893 kJ/mol
# GULP energy per Si atom -5588.971095 kJ/mol
# Density = 2.755696 g / cm^3
# Si number density = 27.619823 Si / 1000 Ang^3
#
#
#
# Elastic Constant Matrix: (Units=GPa)
#
#
# Indices 1 2 3 4 5 6 
#
# 1 303.6757 21.7705 10.5200 0.0000 0.0000 0.0000
# 2 21.7705 34.5554 20.2147 0.0000 0.0000 0.0000
# 3 10.5200 20.2147 134.0565 0.0000 0.0000 0.0000
# 4 0.0000 0.0000 0.0000 44.6869 0.0000 0.0000
# 5 0.0000 0.0000 0.0000 0.0000 51.3263 0.0000
# 6 0.0000 0.0000 0.0000 0.0000 0.0000 -92.5076
#
#
#
# Elastic Compliance Matrix: (Units=1/GPa)
#
#
# Indices 1 2 3 4 5 6 
#
# 1 0.003449 -0.002210 0.000063 0.000000 0.000000 0.000000
# 2 -0.002210 0.033154 -0.004826 0.000000 0.000000 0.000000
# 3 0.000063 -0.004826 0.008182 0.000000 0.000000 0.000000
# 4 0.000000 0.000000 0.000000 0.022378 0.000000 0.000000
# 5 0.000000 0.000000 0.000000 0.000000 0.019483 0.000000
# 6 0.000000 0.000000 0.000000 0.000000 0.000000 -0.010810
#
#
# Mechanical properties :
#
#
# Convention : Reuss Voigt Hill
#
# Bulk Modulus (GPa) = 32.42581 64.14422 48.28501
# Shear Modulus (GPa) = 49.96837 28.68661 39.32749
#
# Velocity S-wave (km/s) = 4.25802 3.22627 3.77754
# Velocity P-wave (km/s) = 5.99499 6.09531 6.04536
#
# Compressibility (1/GPa) = 0.03083963
#
# Stress axis : x y z
#
# Youngs Moduli (GPa) = 289.91973 30.16197 122.21411
#
# Poissons Ratio (x) = 0.06665 -0.00764
# Poissons Ratio (y) = 0.64062 0.58981
# Poissons Ratio (z) = -0.01813 0.14556
#
# Static dielectric constant tensor:
#      x y z
#    x 2.256700 0.000000 0.000000 
#    y 0.000000 2.278650 0.000000 
#    z 0.000000 0.000000 2.106420 
# 
# From -- ./inp_files/1003.got.cif
#   From: 2010.05.17/outbox.cif.g08.bks.cpg/sg26_1_cif.got.tgz:1003.got - 2010.06.04 01:07:29.
