data_PCOD9338043
_publ_section_title
;
Structure prediction by ZEFSAII (Michael W. Deem and Ramdas Pophale) SiO2 
 PCOD9338043
Probable space group: P M C 21
;
_chemical_formula_sum "Si O2"
_cell_formula_units_Z 32
_cell_length_a 11.583646
_cell_length_b 5.024586
_cell_length_c 26.506582
_cell_angle_alpha 90.000000
_cell_angle_beta 90.000000
_cell_angle_gamma 90.000000
_cell_volume 1542.763269
_symmetry_space_group_name_H-M "P M C 21"
_symmetry_group_IT_number 26
_symmetry_cell_setting 'orthorhombic'
loop_
_space_group_symop_operation_xyz
x,y,z
-x,-y,1/2+z
-x,y,z
x,-y,1/2+z
loop_
_atom_site_type_symbol
_atom_site_label
_atom_site_fract_x
_atom_site_fract_y
_atom_site_fract_z
Si Si1 0.372869 0.366106 0.758530
Si Si2 0.374801 0.293616 0.167265
Si Si3 0.128358 0.209231 0.319167
Si Si4 0.744665 0.201367 0.630316
Si Si5 0.634315 0.573891 0.460462
Si Si6 0.635756 0.926263 0.027629
Si Si7 0.128720 0.107383 0.723928
Si Si8 0.744040 0.296596 0.855809
O O1 0.500000 0.244310 0.747170
O O2 0.373684 0.639204 0.726558
O O3 0.360164 0.378060 0.818434
O O4 0.248785 0.243628 0.741911
O O5 0.500000 0.371751 0.146902
O O6 0.352551 0.989615 0.155211
O O7 0.282746 0.490791 0.141650
O O8 0.131297 0.158815 0.258520
O O9 0.155982 0.505159 0.336513
O O10 0.000000 0.134319 0.335632
O O11 0.218154 0.004873 0.344438
O O12 0.854105 0.104951 0.663385
O O13 0.725396 0.142802 0.571805
O O14 0.500000 0.602103 0.445485
O O15 0.652253 0.278773 0.481669
O O16 0.712071 0.649073 0.413107
O O17 0.652324 0.778004 0.506631
O O18 0.500000 0.897336 0.043959
O O19 0.000000 0.222843 0.734199
#
# Coordination Sequence:
#
# PCOD9338043 Si02
#       8
#     4   4   4   4   4   4   4   4
#     4   9  19  34  55  87 121 154 192 236 285 345
#     4  10  19  31  50  80 114 143 179 228 283 337
#     4  10  21  37  59  86 115 151 194 233 280 348
#     4  11  20  34  55  80 108 148 190 234 281 339
#     4  10  21  36  55  82 114 149 189 237 293 349
#     4  10  20  34  53  78 111 149 191 238 290 344
#     4   9  20  38  59  86 120 157 192 232 286 353
#     4  11  20  36  58  83 115 153 188 238 290 341
#
# _framework density 20.742001999999999
#
# number of rings (size 3 to 8) (size 9 to 14) (size 15 to 20)
#    0.000    2.000    0.000    4.125    0.000    2.500 
#    0.000   13.125    0.000    4.500    0.000    0.000 
#    0.000    0.000    0.000    0.000    0.000    0.000 
#
# Total GULP energy -178273.587046 kJ/mol
# GULP energy per Si atom -5571.049595 kJ/mol
# Density = 2.069479 g / cm^3
# Si number density = 20.742002 Si / 1000 Ang^3
#
#
#
# Elastic Constant Matrix: (Units=GPa)
#
#
# Indices 1 2 3 4 5 6 
#
# 1 98.8028 6.1331 26.7631 0.0000 0.0000 0.0000
# 2 6.1331 48.6471 -8.3751 0.0000 0.0000 0.0000
# 3 26.7631 -8.3751 75.8939 0.0000 0.0000 0.0000
# 4 0.0000 0.0000 0.0000 23.5964 0.0000 0.0000
# 5 0.0000 0.0000 0.0000 0.0000 20.4727 0.0000
# 6 0.0000 0.0000 0.0000 0.0000 0.0000 21.5005
#
#
#
# Elastic Compliance Matrix: (Units=1/GPa)
#
#
# Indices 1 2 3 4 5 6 
#
# 1 0.011411 -0.002173 -0.004264 0.000000 0.000000 0.000000
# 2 -0.002173 0.021368 0.003124 0.000000 0.000000 0.000000
# 3 -0.004264 0.003124 0.015025 0.000000 0.000000 0.000000
# 4 0.000000 0.000000 0.000000 0.042379 0.000000 0.000000
# 5 0.000000 0.000000 0.000000 0.000000 0.048845 0.000000
# 6 0.000000 0.000000 0.000000 0.000000 0.000000 0.046511
#
#
# Mechanical properties :
#
#
# Convention : Reuss Voigt Hill
#
# Bulk Modulus (GPa) = 24.28412 30.26511 27.27461
# Shear Modulus (GPa) = 24.28485 26.36877 25.32681
#
# Velocity S-wave (km/s) = 3.42542 3.56936 3.49813
# Velocity P-wave (km/s) = 5.23238 5.62228 5.43083
#
# Compressibility (1/GPa) = 0.04117917
#
# Stress axis : x y z
#
# Youngs Moduli (GPa) = 87.63508 46.79897 66.55762
#
# Poissons Ratio (x) = 0.10168 0.28378
# Poissons Ratio (y) = 0.19040 -0.20794
# Poissons Ratio (z) = 0.37365 -0.14621
#
# Static dielectric constant tensor:
#      x y z
#    x 1.763690 0.000000 0.000000 
#    y 0.000000 1.747130 0.000000 
#    z 0.000000 0.000000 1.811220 
# 
# From -- ./inp_files/5621.got.cif
#   From: 2010.05.17/outbox.cif.g08.bks.cpg/sg26_3_cif.got.tgz:5621.got - 2010.06.04 01:07:29.
