data_PCOD9338351
_publ_section_title
;
Structure prediction by ZEFSAII (Michael W. Deem and Ramdas Pophale) SiO2 
 PCOD9338351
Probable space group: P M C 21
;
_chemical_formula_sum "Si O2"
_cell_formula_units_Z 32
_cell_length_a 8.930124
_cell_length_b 14.774734
_cell_length_c 12.361127
_cell_angle_alpha 90.000000
_cell_angle_beta 90.000000
_cell_angle_gamma 90.000000
_cell_volume 1630.929651
_symmetry_space_group_name_H-M "P M C 21"
_symmetry_group_IT_number 26
_symmetry_cell_setting 'orthorhombic'
loop_
_space_group_symop_operation_xyz
x,y,z
-x,-y,1/2+z
-x,y,z
x,-y,1/2+z
loop_
_atom_site_type_symbol
_atom_site_label
_atom_site_fract_x
_atom_site_fract_y
_atom_site_fract_z
Si Si1 0.818879 0.147523 0.028420
Si Si2 0.823515 0.191411 0.620928
Si Si3 0.678622 0.169963 0.262361
Si Si4 0.177676 0.047049 0.448857
Si Si5 0.671230 0.457295 0.742487
Si Si6 0.825459 0.364821 0.303976
Si Si7 0.668970 0.642432 0.014899
Si Si8 0.821054 0.716070 0.346113
O O1 0.742505 0.143839 0.144784
O O2 0.000000 0.148210 0.041752
O O3 0.776338 0.235400 0.957505
O O4 0.780186 0.057522 0.960438
O O5 0.800369 0.093904 0.566940
O O6 0.720305 0.258608 0.552552
O O7 0.792685 0.213481 0.746402
O O8 0.000000 0.214058 0.603801
O O9 0.500000 0.169209 0.262387
O O10 0.739006 0.103228 0.356091
O O11 0.739526 0.271282 0.283609
O O12 0.000000 0.052495 0.424844
O O13 0.500000 0.474685 0.776421
O O14 0.763062 0.549686 0.739935
O O15 0.670951 0.416912 0.622260
O O16 0.741446 0.378186 0.817198
O O17 0.787196 0.390261 0.427534
O O18 0.000000 0.350610 0.285750
O O19 0.500000 0.643752 0.970651
O O20 0.000000 0.700806 0.348604
#
# Coordination Sequence:
#
# PCOD9338351 Si02
#       8
#     4   4   4   4   4   4   4   4
#     4  10  23  41  65  93 127 169 213 258 310 370
#     4   9  17  32  58  88 117 153 201 255 304 357
#     4  12  26  43  63  91 130 167 207 259 315 375
#     4  10  21  38  65  94 122 161 209 259 307 367
#     4  10  22  39  61  90 123 163 206 254 314 380
#     4  12  24  40  64  90 120 161 209 261 311 368
#     4  10  20  36  58  86 119 155 198 250 310 370
#     4   9  19  37  60  90 124 161 207 258 307 365
#
# _framework density 19.620712000000001
#
# number of rings (size 3 to 8) (size 9 to 14) (size 15 to 20)
#    0.000    1.750    1.250    3.000    1.750    3.500 
#    0.000    0.000    0.000    0.000    0.000    0.000 
#    0.000    0.000    0.000    0.000    0.000    0.000 
#
# Total GULP energy -178663.411872 kJ/mol
# GULP energy per Si atom -5583.231621 kJ/mol
# Density = 1.957605 g / cm^3
# Si number density = 19.620712 Si / 1000 Ang^3
#
#
#
# Elastic Constant Matrix: (Units=GPa)
#
#
# Indices 1 2 3 4 5 6 
#
# 1 77.0829 44.0651 34.5294 0.0000 0.0000 0.0000
# 2 44.0651 95.6797 32.9324 0.0000 0.0000 0.0000
# 3 34.5294 32.9324 67.5891 0.0000 0.0000 0.0000
# 4 0.0000 0.0000 0.0000 20.5442 0.0000 0.0000
# 5 0.0000 0.0000 0.0000 0.0000 26.1823 0.0000
# 6 0.0000 0.0000 0.0000 0.0000 0.0000 5.9335
#
#
#
# Elastic Compliance Matrix: (Units=1/GPa)
#
#
# Indices 1 2 3 4 5 6 
#
# 1 0.019950 -0.006825 -0.006867 0.000000 0.000000 0.000000
# 2 -0.006825 0.014892 -0.003770 0.000000 0.000000 0.000000
# 3 -0.006867 -0.003770 0.020140 0.000000 0.000000 0.000000
# 4 0.000000 0.000000 0.000000 0.048676 0.000000 0.000000
# 5 0.000000 0.000000 0.000000 0.000000 0.038194 0.000000
# 6 0.000000 0.000000 0.000000 0.000000 0.000000 0.168536
#
#
# Mechanical properties :
#
#
# Convention : Reuss Voigt Hill
#
# Bulk Modulus (GPa) = 49.84927 51.48951 50.66939
# Shear Modulus (GPa) = 14.20468 19.12030 16.66249
#
# Velocity S-wave (km/s) = 2.69358 3.12508 2.91732
# Velocity P-wave (km/s) = 5.92751 6.27064 6.10149
#
# Compressibility (1/GPa) = 0.02006047
#
# Stress axis : x y z
#
# Youngs Moduli (GPa) = 50.12427 67.14991 49.65219
#
# Poissons Ratio (x) = 0.45827 0.34096
# Poissons Ratio (y) = 0.34208 0.18717
# Poissons Ratio (z) = 0.34420 0.25313
#
# Static dielectric constant tensor:
#      x y z
#    x 1.665380 0.000000 0.000000 
#    y 0.000000 1.681980 0.000000 
#    z 0.000000 0.000000 1.713530 
# 
# From -- ./inp_files/3104.got.cif
#   From: 2010.05.17/outbox.cif.g08.bks.cpg/sg26_2_cif.got.tgz:3104.got - 2010.06.04 01:07:29.
