data_PCOD9338725
_publ_section_title
;
Structure prediction by ZEFSAII (Michael W. Deem and Ramdas Pophale) SiO2 
 PCOD9338725
Probable space group: P C C 2
;
_chemical_formula_sum "Si O2"
_cell_formula_units_Z 32
_cell_length_a 7.243842
_cell_length_b 5.335238
_cell_length_c 34.969892
_cell_angle_alpha 90.000000
_cell_angle_beta 90.000000
_cell_angle_gamma 90.000000
_cell_volume 1351.503136
_symmetry_space_group_name_H-M "P C C 2"
_symmetry_group_IT_number 27
_symmetry_cell_setting 'orthorhombic'
loop_
_space_group_symop_operation_xyz
x,y,z
-x,-y,z
-x,y,1/2+z
x,-y,1/2+z
loop_
_atom_site_type_symbol
_atom_site_label
_atom_site_fract_x
_atom_site_fract_y
_atom_site_fract_z
Si Si1 0.781244 0.997238 0.962820
Si Si2 0.723619 0.801339 0.615328
Si Si3 0.697605 0.299834 0.587335
Si Si4 0.276900 0.001880 0.699754
Si Si5 0.280533 0.997995 0.872599
Si Si6 0.274746 0.501008 0.242022
Si Si7 0.274448 0.501913 0.830437
Si Si8 0.225004 0.500306 0.504410
O O1 0.750052 0.021484 0.917769
O O2 0.712059 0.232849 0.987735
O O3 0.716877 0.725094 0.976384
O O4 0.000000 0.000000 0.968859
O O5 0.794426 0.517806 0.612019
O O6 0.504797 0.751838 0.605880
O O7 0.763539 0.924460 0.656165
O O8 0.783693 0.021478 0.586307
O O9 0.698472 0.422077 0.545629
O O10 0.213073 0.232374 0.725719
O O11 0.500000 0.000000 0.701696
O O12 0.215635 0.733596 0.715838
O O13 0.209883 0.748961 0.852249
O O14 0.500000 0.000000 0.866744
O O15 0.213059 0.252249 0.852599
O O16 0.500000 0.500000 0.241007
O O17 0.220086 0.481364 0.286164
O O18 0.500000 0.500000 0.830830
O O19 0.000000 0.500000 0.507276
#
# Coordination Sequence:
#
# PCOD9338725 Si02
#       8
#     4   4   4   4   4   4   4   4
#     4  10  21  38  56  77 101 132 176 221 258 307
#     4  10  19  30  46  70 105 137 154 211 254 307
#     4  10  19  32  48  68  99 133 164 202 267 302
#     4  10  16  25  40  62  99 136 163 191 242 293
#     4  10  19  33  52  73 104 137 162 211 258 307
#     4   9  17  24  40  65  94 138 165 191 228 306
#     4   9  17  30  46  69 104 136 161 201 250 295
#     4  10  21  38  56  72  98 132 173 221 259 306
#
# _framework density 23.677340000000001
#
# number of rings (size 3 to 8) (size 9 to 14) (size 15 to 20)
#    0.000    2.250    1.250    3.000    3.500    3.000 
#    6.750    0.000    0.000    0.000    0.000    0.000 
#    0.000   20.000    0.000    0.000    0.000    0.000 
#
# Total GULP energy -178802.890447 kJ/mol
# GULP energy per Si atom -5587.590326 kJ/mol
# Density = 2.362345 g / cm^3
# Si number density = 23.677340 Si / 1000 Ang^3
#
#
#
# Elastic Constant Matrix: (Units=GPa)
#
#
# Indices 1 2 3 4 5 6 
#
# 1 99.4742 3.5541 -6.1181 0.0000 0.0000 0.0000
# 2 3.5541 226.2596 84.5546 0.0000 0.0000 0.0000
# 3 -6.1181 84.5546 174.3846 0.0000 0.0000 0.0000
# 4 0.0000 0.0000 0.0000 56.4719 0.0000 0.0000
# 5 0.0000 0.0000 0.0000 0.0000 41.4941 0.0000
# 6 0.0000 0.0000 0.0000 0.0000 0.0000 -21.2081
#
#
#
# Elastic Compliance Matrix: (Units=1/GPa)
#
#
# Indices 1 2 3 4 5 6 
#
# 1 0.010098 -0.000355 0.000527 0.000000 0.000000 0.000000
# 2 -0.000355 0.005410 -0.002636 0.000000 0.000000 0.000000
# 3 0.000527 -0.002636 0.007031 0.000000 0.000000 0.000000
# 4 0.000000 0.000000 0.000000 0.017708 0.000000 0.000000
# 5 0.000000 0.000000 0.000000 0.000000 0.024100 0.000000
# 6 0.000000 0.000000 0.000000 0.000000 0.000000 -0.047152
#
#
# Mechanical properties :
#
#
# Convention : Reuss Voigt Hill
#
# Bulk Modulus (GPa) = 56.78592 73.78887 65.28739
# Shear Modulus (GPa) = 178.60851 43.22678 110.91764
#
# Velocity S-wave (km/s) = 8.69472 4.27741 6.85180
# Velocity P-wave (km/s) = 11.17286 7.45835 9.49894
#
# Compressibility (1/GPa) = 0.01761000
#
# Stress axis : x y z
#
# Youngs Moduli (GPa) = 99.03008 184.83286 142.22834
#
# Poissons Ratio (x) = 0.06569 -0.07490
# Poissons Ratio (y) = 0.03520 0.37488
# Poissons Ratio (z) = -0.05215 0.48718
#
# Static dielectric constant tensor:
#      x y z
#    x 2.041200 0.000000 0.000000 
#    y 0.000000 1.913070 0.000000 
#    z 0.000000 0.000000 1.858130 
# 
# From -- ./inp_files/5363.got.cif
#   From: 2010.05.17/outbox.cif.g08.bks.cpg/sg27_3_cif.got.tgz:5363.got - 2010.06.04 01:11:05.
