data_PCOD9338886
_publ_section_title
;
Structure prediction by ZEFSAII (Michael W. Deem and Ramdas Pophale) SiO2 
 PCOD9338886
Probable space group: P C C 2
;
_chemical_formula_sum "Si O2"
_cell_formula_units_Z 18
_cell_length_a 5.121489
_cell_length_b 10.736115
_cell_length_c 13.782852
_cell_angle_alpha 90.000000
_cell_angle_beta 90.000000
_cell_angle_gamma 90.000000
_cell_volume 757.848668
_symmetry_space_group_name_H-M "P C C 2"
_symmetry_group_IT_number 27
_symmetry_cell_setting 'orthorhombic'
loop_
_space_group_symop_operation_xyz
x,y,z
-x,-y,z
-x,y,1/2+z
x,-y,1/2+z
loop_
_atom_site_type_symbol
_atom_site_label
_atom_site_fract_x
_atom_site_fract_y
_atom_site_fract_z
Si Si1 0.116381 0.635476 0.152790
Si Si2 0.420733 0.129845 0.410002
Si Si3 0.078709 0.129646 0.041565
Si Si4 0.353031 0.618421 0.344165
Si Si5 0.500000 0.500000 0.030319
O O1 0.973971 0.751755 0.106887
O O2 0.131546 0.650964 0.268368
O O3 0.387976 0.612100 0.094814
O O4 0.000000 0.500000 0.135582
O O5 0.128626 0.132830 0.451799
O O6 0.476540 0.257805 0.354753
O O7 0.631037 0.128526 0.498675
O O8 0.500000 0.000000 0.357353
O O9 0.000000 0.000000 0.092699
O O10 0.500000 0.500000 0.297173
O O11 0.300513 0.563776 0.451681
#
# Coordination Sequence:
#
# PCOD9338886 Si02
#       5
#     4   4   4   4   2
#     4  12  24  39  68 100 135 175 237 288 348 417
#     4  10  21  42  68  97 132 181 226 275 345 414
#     4  10  22  42  70  97 133 183 226 278 346 417
#     4  10  22  39  65  96 133 172 228 282 346 405
#     4  10  20  44  64  90 132 180 222 286 346 414
#
# _framework density 23.751443999999999
#
# number of rings (size 3 to 8) (size 9 to 14) (size 15 to 20)
#    0.667    0.889    3.333    1.333    0.000    4.444 
#    0.000    8.889    0.000    0.000    0.000    0.000 
#    0.000    0.000    0.000    0.000    0.000    0.000 
#
# Total GULP energy -100452.092696 kJ/mol
# GULP energy per Si atom -5580.671816 kJ/mol
# Density = 2.369738 g / cm^3
# Si number density = 23.751444 Si / 1000 Ang^3
#
#
#
# Elastic Constant Matrix: (Units=GPa)
#
#
# Indices 1 2 3 4 5 6 
#
# 1 69.2012 19.1111 19.6707 0.0000 0.0000 0.0000
# 2 19.1111 194.2661 30.9242 0.0000 0.0000 0.0000
# 3 19.6707 30.9242 77.4919 0.0000 0.0000 0.0000
# 4 0.0000 0.0000 0.0000 1.9653 0.0000 0.0000
# 5 0.0000 0.0000 0.0000 0.0000 -0.9811 0.0000
# 6 0.0000 0.0000 0.0000 0.0000 0.0000 35.5746
#
#
#
# Elastic Compliance Matrix: (Units=1/GPa)
#
#
# Indices 1 2 3 4 5 6 
#
# 1 0.015745 -0.000975 -0.003608 0.000000 0.000000 0.000000
# 2 -0.000975 0.005557 -0.001970 0.000000 0.000000 0.000000
# 3 -0.003608 -0.001970 0.014607 0.000000 0.000000 0.000000
# 4 0.000000 0.000000 0.000000 0.508824 0.000000 0.000000
# 5 0.000000 0.000000 0.000000 0.000000 -1.019269 0.000000
# 6 0.000000 0.000000 0.000000 0.000000 0.000000 0.028110
#
#
# Mechanical properties :
#
#
# Convention : Reuss Voigt Hill
#
# Bulk Modulus (GPa) = 43.85279 53.37460 48.61370
# Shear Modulus (GPa) = -11.74485 25.39531 6.82523
#
# Velocity S-wave (km/s) = -2.22613 3.27343 1.69701
# Velocity P-wave (km/s) = 3.44903 6.06696 4.93477
#
# Compressibility (1/GPa) = 0.02280356
#
# Stress axis : x y z
#
# Youngs Moduli (GPa) = 63.51090 179.95033 68.46198
#
# Poissons Ratio (x) = 0.17539 0.24700
# Poissons Ratio (y) = 0.06190 0.13489
# Poissons Ratio (z) = 0.22914 0.35454
#
# Static dielectric constant tensor:
#      x y z
#    x 2.172640 0.000000 0.000000 
#    y 0.000000 1.934580 0.000000 
#    z 0.000000 0.000000 1.866530 
# 
# From -- ./inp_files/2932.got.cif
#   From: 2010.05.17/outbox.cif.g08.bks.cpg/sg27_2_cif.got.tgz:2932.got - 2010.06.04 01:11:05.
