data_PCOD9338379
_publ_section_title
;
Structure prediction by ZEFSAII (Michael W. Deem and Ramdas Pophale) SiO2 
 PCOD9338379
Probable space group: P M C 21
;
_chemical_formula_sum "Si O2"
_cell_formula_units_Z 24
_cell_length_a 8.683198
_cell_length_b 9.747364
_cell_length_c 15.495923
_cell_angle_alpha 90.000000
_cell_angle_beta 90.000000
_cell_angle_gamma 90.000000
_cell_volume 1311.548449
_symmetry_space_group_name_H-M "P M C 21"
_symmetry_group_IT_number 26
_symmetry_cell_setting 'orthorhombic'
loop_
_space_group_symop_operation_xyz
x,y,z
-x,-y,1/2+z
-x,y,z
x,-y,1/2+z
loop_
_atom_site_type_symbol
_atom_site_label
_atom_site_fract_x
_atom_site_fract_y
_atom_site_fract_z
Si Si1 0.814784 0.660820 0.240060
Si Si2 0.314967 0.149400 0.590794
Si Si3 0.685172 0.841895 0.393945
Si Si4 0.315301 0.157690 0.391448
Si Si5 0.185328 0.151799 0.084205
Si Si6 0.814607 0.655364 0.741599
O O1 0.749244 0.740908 0.157566
O O2 0.755174 0.738997 0.324750
O O3 0.763442 0.502386 0.240485
O O4 0.000000 0.665192 0.238009
O O5 0.500000 0.141530 0.596845
O O6 0.273760 0.183744 0.491478
O O7 0.246134 0.999029 0.609430
O O8 0.500000 0.834017 0.393295
O O9 0.746074 0.815036 0.490305
O O10 0.729120 0.999711 0.371787
O O11 0.500000 0.165971 0.384801
O O12 0.242533 0.263049 0.325131
O O13 0.234125 0.261337 0.156294
O O14 0.000000 0.149104 0.079169
O O15 0.000000 0.655473 0.742538
#
# Coordination Sequence:
#
# PCOD9338379 Si02
#       6
#     4   4   4   4   4   4
#     4  11  23  38  55  80 113 150 186 226 276 331
#     4  10  21  38  58  84 113 144 185 233 277 326
#     4  10  21  38  59  85 112 142 183 233 280 330
#     4   9  20  37  58  82 109 140 180 227 276 326
#     4  10  20  37  60  85 111 145 186 230 277 329
#     4  10  23  38  54  80 114 147 184 227 274 328
#
# _framework density 18.29898
#
# number of rings (size 3 to 8) (size 9 to 14) (size 15 to 20)
#    0.000    2.000    0.000    4.000    0.000   10.667 
#    0.000    5.000    0.000    0.000    0.000    0.000 
#    0.000    0.000    0.000    0.000    0.000    0.000 
#
# Total GULP energy -134076.747229 kJ/mol
# GULP energy per Si atom -5586.531135 kJ/mol
# Density = 1.825733 g / cm^3
# Si number density = 18.298980 Si / 1000 Ang^3
#
#
#
# Elastic Constant Matrix: (Units=GPa)
#
#
# Indices 1 2 3 4 5 6 
#
# 1 47.4375 48.3372 40.0347 0.0000 0.0000 0.0000
# 2 48.3372 182.2480 135.1465 0.0000 0.0000 0.0000
# 3 40.0347 135.1465 135.4247 0.0000 0.0000 0.0000
# 4 0.0000 0.0000 0.0000 -19.2618 0.0000 0.0000
# 5 0.0000 0.0000 0.0000 0.0000 15.3618 0.0000
# 6 0.0000 0.0000 0.0000 0.0000 0.0000 -28.4007
#
#
#
# Elastic Compliance Matrix: (Units=1/GPa)
#
#
# Indices 1 2 3 4 5 6 
#
# 1 0.029310 -0.005187 -0.003488 0.000000 0.000000 0.000000
# 2 -0.005187 0.022024 -0.020446 0.000000 0.000000 0.000000
# 3 -0.003488 -0.020446 0.028819 0.000000 0.000000 0.000000
# 4 0.000000 0.000000 0.000000 -0.051916 0.000000 0.000000
# 5 0.000000 0.000000 0.000000 0.000000 0.065097 0.000000
# 6 0.000000 0.000000 0.000000 0.000000 0.000000 -0.035210
#
#
# Mechanical properties :
#
#
# Convention : Reuss Voigt Hill
#
# Bulk Modulus (GPa) = 45.63889 90.23856 67.93873
# Shear Modulus (GPa) = 40.43063 2.97930 21.70497
#
# Velocity S-wave (km/s) = 4.70557 1.27736 3.44776
# Velocity P-wave (km/s) = 7.38364 7.18304 7.28403
#
# Compressibility (1/GPa) = 0.02191114
#
# Stress axis : x y z
#
# Youngs Moduli (GPa) = 34.11846 45.40439 34.69925
#
# Poissons Ratio (x) = 0.23551 0.12104
# Poissons Ratio (y) = 0.17697 0.70945
# Poissons Ratio (z) = 0.11901 0.92832
#
# Static dielectric constant tensor:
#      x y z
#    x 1.626040 0.000000 0.000000 
#    y 0.000000 1.608140 0.000000 
#    z 0.000000 0.000000 1.608530 
# 
# From -- ./inp_files/3913.got.cif
#   From: 2010.05.17/outbox.cif.g08.bks.cpg/sg26_2_cif.got.tgz:3913.got - 2010.06.04 01:07:29.
