data_PCOD9338520
_publ_section_title
;
Structure prediction by ZEFSAII (Michael W. Deem and Ramdas Pophale) SiO2 
 PCOD9338520
Probable space group: P M C 21
;
_chemical_formula_sum "Si O2"
_cell_formula_units_Z 20
_cell_length_a 12.528051
_cell_length_b 15.996313
_cell_length_c 5.081133
_cell_angle_alpha 90.000000
_cell_angle_beta 90.000000
_cell_angle_gamma 90.000000
_cell_volume 1018.272392
_symmetry_space_group_name_H-M "P M C 21"
_symmetry_group_IT_number 26
_symmetry_cell_setting 'orthorhombic'
loop_
_space_group_symop_operation_xyz
x,y,z
-x,-y,1/2+z
-x,y,z
x,-y,1/2+z
loop_
_atom_site_type_symbol
_atom_site_label
_atom_site_fract_x
_atom_site_fract_y
_atom_site_fract_z
Si Si1 0.500000 0.945522 0.928090
Si Si2 0.000000 0.556225 0.430395
Si Si3 0.311698 0.180374 0.578360
Si Si4 0.768490 0.559097 0.531112
Si Si5 0.126127 0.944135 0.016794
Si Si6 0.627658 0.717176 0.586104
O O1 0.602845 0.889770 0.992105
O O2 0.500000 0.976652 0.628811
O O3 0.112824 0.598854 0.493619
O O4 0.000000 0.476340 0.630469
O O5 0.197276 0.136547 0.569395
O O6 0.341193 0.215875 0.863171
O O7 0.324088 0.253433 0.363928
O O8 0.760842 0.511978 0.808583
O O9 0.679054 0.629036 0.507945
O O10 0.000000 0.074249 0.531626
O O11 0.150411 0.985516 0.735641
O O12 0.500000 0.712848 0.607048
#
# Coordination Sequence:
#
# PCOD9338520 Si02
#       6
#     2   2   4   4   4   4
#     4  12  22  36  62  86 110 156 204 236 284 342
#     4   8  16  34  58  84 112 140 184 248 286 330
#     4  12  23  41  58  88 126 156 195 251 298 354
#     4  10  21  39  63  88 115 153 202 240 289 357
#     4  10  21  40  64  88 118 156 199 249 297 355
#     4  12  24  41  59  85 128 162 192 249 303 338
#
# _framework density 19.641110000000001
#
# number of rings (size 3 to 8) (size 9 to 14) (size 15 to 20)
#    0.000    1.200    2.000    4.800    0.000    0.800 
#    3.600    0.000    0.000    0.000    0.000    0.000 
#    0.000    0.000    0.000    0.000    0.000    0.000 
#
# Total GULP energy -111803.585824 kJ/mol
# GULP energy per Si atom -5590.179291 kJ/mol
# Density = 1.959641 g / cm^3
# Si number density = 19.641110 Si / 1000 Ang^3
#
#
#
# Elastic Constant Matrix: (Units=GPa)
#
#
# Indices 1 2 3 4 5 6 
#
# 1 75.8410 31.2042 0.0439 0.0000 0.0000 0.0000
# 2 31.2042 40.7762 -11.3179 0.0000 0.0000 0.0000
# 3 0.0439 -11.3179 61.9627 0.0000 0.0000 0.0000
# 4 0.0000 0.0000 0.0000 28.9354 0.0000 0.0000
# 5 0.0000 0.0000 0.0000 0.0000 19.8525 0.0000
# 6 0.0000 0.0000 0.0000 0.0000 0.0000 30.3271
#
#
#
# Elastic Compliance Matrix: (Units=1/GPa)
#
#
# Indices 1 2 3 4 5 6 
#
# 1 0.019734 -0.015912 -0.002920 0.000000 0.000000 0.000000
# 2 -0.015912 0.038664 0.007074 0.000000 0.000000 0.000000
# 3 -0.002920 0.007074 0.017433 0.000000 0.000000 0.000000
# 4 0.000000 0.000000 0.000000 0.034560 0.000000 0.000000
# 5 0.000000 0.000000 0.000000 0.000000 0.050371 0.000000
# 6 0.000000 0.000000 0.000000 0.000000 0.000000 0.032974
#
#
# Mechanical properties :
#
#
# Convention : Reuss Voigt Hill
#
# Bulk Modulus (GPa) = 19.11567 24.27116 21.69341
# Shear Modulus (GPa) = 21.30449 26.39966 23.85207
#
# Velocity S-wave (km/s) = 3.29703 3.67018 3.48860
# Velocity P-wave (km/s) = 4.92418 5.50858 5.22455
#
# Compressibility (1/GPa) = 0.05231310
#
# Stress axis : x y z
#
# Youngs Moduli (GPa) = 50.67357 25.86357 57.36295
#
# Poissons Ratio (x) = 0.41155 0.16753
# Poissons Ratio (y) = 0.80633 -0.40576
# Poissons Ratio (z) = 0.14799 -0.18295
#
# Static dielectric constant tensor:
#      x y z
#    x 1.698300 0.000000 0.000000 
#    y 0.000000 1.654580 0.000000 
#    z 0.000000 0.000000 1.675250 
# 
# From -- ./inp_files/357.got.cif
#   From: 2010.05.17/outbox.cif.g08.bks.cpg/sg26_1_cif.got.tgz:357.got - 2010.06.04 01:07:29.
