data_PCOD9338558
_publ_section_title
;
Structure prediction by ZEFSAII (Michael W. Deem and Ramdas Pophale) SiO2 
 PCOD9338558
Probable space group: P M C 21
;
_chemical_formula_sum "Si O2"
_cell_formula_units_Z 30
_cell_length_a 17.410768
_cell_length_b 5.027057
_cell_length_c 14.819895
_cell_angle_alpha 90.000000
_cell_angle_beta 90.000000
_cell_angle_gamma 90.000000
_cell_volume 1297.110171
_symmetry_space_group_name_H-M "P M C 21"
_symmetry_group_IT_number 26
_symmetry_cell_setting 'orthorhombic'
loop_
_space_group_symop_operation_xyz
x,y,z
-x,-y,1/2+z
-x,y,z
x,-y,1/2+z
loop_
_atom_site_type_symbol
_atom_site_label
_atom_site_fract_x
_atom_site_fract_y
_atom_site_fract_z
Si Si1 0.677252 0.076933 0.717920
Si Si2 0.356588 0.381758 0.551329
Si Si3 0.377706 0.999679 0.399921
Si Si4 0.913822 0.040781 0.030918
Si Si5 0.771804 0.420617 0.270869
Si Si6 0.231357 0.330006 0.954641
Si Si7 0.914554 0.545433 0.154050
Si Si8 0.500000 0.315203 0.022536
O O1 0.652673 0.123280 0.615023
O O2 0.614064 0.991904 0.792179
O O3 0.705131 0.373335 0.743335
O O4 0.745674 0.864719 0.732964
O O5 0.275605 0.534066 0.539272
O O6 0.430268 0.547110 0.582167
O O7 0.379969 0.279948 0.450967
O O8 0.293647 0.877121 0.416675
O O9 0.435120 0.819203 0.455519
O O10 0.918035 0.251463 0.112554
O O11 0.000000 0.030278 0.989503
O O12 0.896025 0.753570 0.073728
O O13 0.845678 0.166133 0.972824
O O14 0.780976 0.446430 0.378354
O O15 0.849098 0.534429 0.227708
O O16 0.000000 0.618444 0.187317
#
# Coordination Sequence:
#
# PCOD9338558 Si02
#       8
#     4   4   4   4   4   4   4   2
#     4  11  25  41  68 102 135 182 234 295 359 435
#     4  11  23  43  69  98 138 183 238 291 370 439
#     4  10  23  44  64  99 137 176 235 297 359 428
#     4  10  22  39  61  95 134 181 236 293 360 426
#     4  11  23  41  63  98 136 177 244 296 361 428
#     4  10  23  39  66  96 135 183 240 301 358 431
#     4  10  22  38  60  92 134 179 233 297 361 428
#     4  10  24  44  68  98 134 184 222 294 354 436
#
# _framework density 23.128336000000001
#
# number of rings (size 3 to 8) (size 9 to 14) (size 15 to 20)
#    0.000    1.600    1.333    2.000    9.333    1.067 
#    0.000    1.333    0.000    5.600    0.000    0.000 
#    0.000    0.000    0.000    0.000    0.000    0.000 
#
# Total GULP energy -167071.038657 kJ/mol
# GULP energy per Si atom -5569.034622 kJ/mol
# Density = 2.307570 g / cm^3
# Si number density = 23.128336 Si / 1000 Ang^3
#
#
#
# Elastic Constant Matrix: (Units=GPa)
#
#
# Indices 1 2 3 4 5 6 
#
# 1 143.3496 20.6822 32.1719 0.0000 0.0000 0.0000
# 2 20.6822 78.7533 6.4404 0.0000 0.0000 0.0000
# 3 32.1719 6.4404 65.7023 0.0000 0.0000 0.0000
# 4 0.0000 0.0000 0.0000 34.2492 0.0000 0.0000
# 5 0.0000 0.0000 0.0000 0.0000 19.7499 0.0000
# 6 0.0000 0.0000 0.0000 0.0000 0.0000 -1.8290
#
#
#
# Elastic Compliance Matrix: (Units=1/GPa)
#
#
# Indices 1 2 3 4 5 6 
#
# 1 0.008086 -0.001814 -0.003782 0.000000 0.000000 0.000000
# 2 -0.001814 0.013208 -0.000406 0.000000 0.000000 0.000000
# 3 -0.003782 -0.000406 0.017112 0.000000 0.000000 0.000000
# 4 0.000000 0.000000 0.000000 0.029198 0.000000 0.000000
# 5 0.000000 0.000000 0.000000 0.000000 0.050633 0.000000
# 6 0.000000 0.000000 0.000000 0.000000 0.000000 -0.546735
#
#
# Mechanical properties :
#
#
# Convention : Reuss Voigt Hill
#
# Bulk Modulus (GPa) = 37.87727 45.15491 41.51609
# Shear Modulus (GPa) = -12.26412 25.66805 6.70197
#
# Velocity S-wave (km/s) = -2.30524 3.33499 1.70412
# Velocity P-wave (km/s) = 3.05402 5.86478 4.67561
#
# Compressibility (1/GPa) = 0.02640106
#
# Stress axis : x y z
#
# Youngs Moduli (GPa) = 123.66328 75.71395 58.43924
#
# Poissons Ratio (x) = 0.13738 0.22100
# Poissons Ratio (y) = 0.22437 0.02374
# Poissons Ratio (z) = 0.46767 0.03076
#
# Static dielectric constant tensor:
#      x y z
#    x 1.897050 0.000000 0.000000 
#    y 0.000000 1.894360 0.000000 
#    z 0.000000 0.000000 1.960710 
# 
# From -- ./inp_files/4698.got.cif
#   From: 2010.05.17/outbox.cif.g08.bks.cpg/sg26_3_cif.got.tgz:4698.got - 2010.06.04 01:07:29.
