data_PCOD9338734
_publ_section_title
;
Structure prediction by ZEFSAII (Michael W. Deem and Ramdas Pophale) SiO2 
 PCOD9338734
Probable space group: P C C 2
;
_chemical_formula_sum "Si O2"
_cell_formula_units_Z 24
_cell_length_a 6.823039
_cell_length_b 27.041128
_cell_length_c 5.300967
_cell_angle_alpha 90.000000
_cell_angle_beta 90.000000
_cell_angle_gamma 90.000000
_cell_volume 978.042570
_symmetry_space_group_name_H-M "P C C 2"
_symmetry_group_IT_number 27
_symmetry_cell_setting 'orthorhombic'
loop_
_space_group_symop_operation_xyz
x,y,z
-x,-y,z
-x,y,1/2+z
x,-y,1/2+z
loop_
_atom_site_type_symbol
_atom_site_label
_atom_site_fract_x
_atom_site_fract_y
_atom_site_fract_z
Si Si1 0.220726 0.373028 0.381620
Si Si2 0.770783 0.334826 0.381475
Si Si3 0.280996 0.980074 0.602591
Si Si4 0.130891 0.877413 0.455843
Si Si5 0.723746 0.518903 0.611508
Si Si6 0.872144 0.229082 0.546313
O O1 0.305411 0.337091 0.597108
O O2 0.248629 0.427153 0.495549
O O3 0.996438 0.354234 0.345056
O O4 0.307781 0.370346 0.101343
O O5 0.761298 0.279740 0.490226
O O6 0.267380 0.924418 0.504090
O O7 0.500000 0.000000 0.642878
O O8 0.193431 0.985370 0.882344
O O9 0.229118 0.823673 0.496277
O O10 0.966023 0.879611 0.678416
O O11 0.500000 0.500000 0.649237
O O12 0.806700 0.517070 0.894226
O O13 0.956651 0.229908 0.830452
#
# Coordination Sequence:
#
# PCOD9338734 Si02
#       6
#     4   4   4   4   4   4
#     4  10  18  30  51  75 100 136 167 202 254 310
#     4  10  17  30  48  77 110 129 160 207 259 326
#     4  10  21  37  55  77 109 157 197 232 276 335
#     4  10  21  32  53  85 116 146 183 239 285 332
#     4  10  21  37  52  69  95 135 177 218 251 297
#     4  10  16  30  48  75 116 137 164 210 269 319
#
# _framework density 24.538810999999999
#
# number of rings (size 3 to 8) (size 9 to 14) (size 15 to 20)
#    0.000    2.000    3.333    2.000    0.000    2.000 
#    0.000   10.000    0.000    0.000    0.000   28.000 
#    0.000    0.000    0.000    0.000    0.000    0.000 
#
# Total GULP energy -133962.159170 kJ/mol
# GULP energy per Si atom -5581.756632 kJ/mol
# Density = 2.448296 g / cm^3
# Si number density = 24.538811 Si / 1000 Ang^3
#
#
#
# Elastic Constant Matrix: (Units=GPa)
#
#
# Indices 1 2 3 4 5 6 
#
# 1 86.2204 -5.9922 -25.0381 0.0000 0.0000 0.0000
# 2 -5.9922 150.2809 -19.2939 0.0000 0.0000 0.0000
# 3 -25.0381 -19.2939 165.3911 0.0000 0.0000 0.0000
# 4 0.0000 0.0000 0.0000 44.1700 0.0000 0.0000
# 5 0.0000 0.0000 0.0000 0.0000 -5.9066 0.0000
# 6 0.0000 0.0000 0.0000 0.0000 0.0000 21.4656
#
#
#
# Elastic Compliance Matrix: (Units=1/GPa)
#
#
# Indices 1 2 3 4 5 6 
#
# 1 0.012211 0.000735 0.001934 0.000000 0.000000 0.000000
# 2 0.000735 0.006800 0.000905 0.000000 0.000000 0.000000
# 3 0.001934 0.000905 0.006445 0.000000 0.000000 0.000000
# 4 0.000000 0.000000 0.000000 0.022640 0.000000 0.000000
# 5 0.000000 0.000000 0.000000 0.000000 -0.169303 0.000000
# 6 0.000000 0.000000 0.000000 0.000000 0.000000 0.046586
#
#
# Mechanical properties :
#
#
# Convention : Reuss Voigt Hill
#
# Bulk Modulus (GPa) = 30.67151 33.47156 32.07153
# Shear Modulus (GPa) = -70.51973 42.09358 -14.21307
#
# Velocity S-wave (km/s) = -5.36660 4.14622 -2.40928
# Velocity P-wave (km/s) = 5.08667 6.04908 2.31485
#
# Compressibility (1/GPa) = 0.03260355
#
# Stress axis : x y z
#
# Youngs Moduli (GPa) = 81.89328 147.06642 155.16791
#
# Poissons Ratio (x) = -0.10813 -0.30015
# Poissons Ratio (y) = -0.06021 -0.14035
# Poissons Ratio (z) = -0.15841 -0.13303
#
# Static dielectric constant tensor:
#      x y z
#    x 2.047030 0.000000 0.000000 
#    y 0.000000 1.957970 0.000000 
#    z 0.000000 0.000000 2.054840 
# 
# From -- ./inp_files/169.got.cif
#   From: 2010.05.17/outbox.cif.g08.bks.cpg/sg27_1_cif.got.tgz:169.got - 2010.06.04 01:11:05.
