data_PCOD9338034
_publ_section_title
;
Structure prediction by ZEFSAII (Michael W. Deem and Ramdas Pophale) SiO2 
 PCOD9338034
Probable space group: P M C 21
;
_chemical_formula_sum "Si O2"
_cell_formula_units_Z 32
_cell_length_a 9.101282
_cell_length_b 7.578899
_cell_length_c 22.111775
_cell_angle_alpha 90.000000
_cell_angle_beta 90.000000
_cell_angle_gamma 90.000000
_cell_volume 1525.219317
_symmetry_space_group_name_H-M "P M C 21"
_symmetry_group_IT_number 26
_symmetry_cell_setting 'orthorhombic'
loop_
_space_group_symop_operation_xyz
x,y,z
-x,-y,1/2+z
-x,y,z
x,-y,1/2+z
loop_
_atom_site_type_symbol
_atom_site_label
_atom_site_fract_x
_atom_site_fract_y
_atom_site_fract_z
Si Si1 0.665582 0.469033 0.825590
Si Si2 0.325556 0.944469 0.701335
Si Si3 0.666485 0.951888 0.332789
Si Si4 0.829672 0.042568 0.082148
Si Si5 0.324320 0.452831 0.956843
Si Si6 0.176224 0.933598 0.451254
Si Si7 0.830832 0.524969 0.575575
Si Si8 0.825226 0.429865 0.206348
O O1 0.500000 0.531000 0.809120
O O2 0.656223 0.259404 0.835775
O O3 0.706919 0.543991 0.891889
O O4 0.777281 0.493819 0.770740
O O5 0.500000 0.965942 0.700244
O O6 0.258938 0.022388 0.639963
O O7 0.274889 0.742661 0.700961
O O8 0.270563 0.010925 0.766407
O O9 0.500000 0.023362 0.336628
O O10 0.759516 0.014597 0.390024
O O11 0.822152 0.258838 0.079865
O O12 0.000000 0.996688 0.090321
O O13 0.780096 0.981676 0.015611
O O14 0.500000 0.425314 0.959185
O O15 0.239906 0.265353 0.954157
O O16 0.269048 0.535022 0.019811
O O17 0.000000 0.927065 0.449273
O O18 0.796208 0.463307 0.644033
O O19 0.000000 0.480898 0.561814
O O20 0.000000 0.389178 0.205643
#
# Coordination Sequence:
#
# PCOD9338034 Si02
#       8
#     4   4   4   4   4   4   4   4
#     4   9  18  32  48  68  95 123 153 191 231 274
#     4  10  19  31  49  71  95 125 157 190 232 277
#     4   9  19  33  48  70  97 122 154 194 231 274
#     4   8  15  27  42  65  94 119 150 192 229 268
#     4   9  16  26  43  67  92 117 150 192 233 272
#     4   9  16  26  43  66  91 120 153 189 230 272
#     4   8  15  27  42  63  91 118 149 190 230 270
#     4  10  20  32  47  70  97 124 156 192 230 275
#
# _framework density 20.980588999999998
#
# number of rings (size 3 to 8) (size 9 to 14) (size 15 to 20)
#    0.000    3.000    0.000    3.750    0.000    9.000 
#    0.000    0.000    0.000    1.500    0.000    5.250 
#    0.000    0.000    0.000    0.000    0.000    0.000 
#
# Total GULP energy -178227.007585 kJ/mol
# GULP energy per Si atom -5569.593987 kJ/mol
# Density = 2.093284 g / cm^3
# Si number density = 20.980589 Si / 1000 Ang^3
#
#
#
# Elastic Constant Matrix: (Units=GPa)
#
#
# Indices 1 2 3 4 5 6 
#
# 1 49.7165 -1.2476 82.8464 0.0000 0.0000 0.0000
# 2 -1.2476 26.1103 3.9075 0.0000 0.0000 0.0000
# 3 82.8464 3.9075 247.3471 0.0000 0.0000 0.0000
# 4 0.0000 0.0000 0.0000 15.0501 0.0000 0.0000
# 5 0.0000 0.0000 0.0000 0.0000 45.3500 0.0000
# 6 0.0000 0.0000 0.0000 0.0000 0.0000 17.8183
#
#
#
# Elastic Compliance Matrix: (Units=1/GPa)
#
#
# Indices 1 2 3 4 5 6 
#
# 1 0.046047 0.004519 -0.015494 0.000000 0.000000 0.000000
# 2 0.004519 0.038833 -0.002127 0.000000 0.000000 0.000000
# 3 -0.015494 -0.002127 0.009266 0.000000 0.000000 0.000000
# 4 0.000000 0.000000 0.000000 0.066445 0.000000 0.000000
# 5 0.000000 0.000000 0.000000 0.000000 0.022051 0.000000
# 6 0.000000 0.000000 0.000000 0.000000 0.000000 0.056122
#
#
# Mechanical properties :
#
#
# Convention : Reuss Voigt Hill
#
# Bulk Modulus (GPa) = 14.71859 54.90963 34.81411
# Shear Modulus (GPa) = 17.38431 31.48819 24.43625
#
# Velocity S-wave (km/s) = 2.88165 3.87825 3.41648
# Velocity P-wave (km/s) = 4.25469 6.80315 5.67386
#
# Compressibility (1/GPa) = 0.06794131
#
# Stress axis : x y z
#
# Youngs Moduli (GPa) = 21.71706 25.75114 107.91959
#
# Poissons Ratio (x) = -0.11637 1.67214
# Poissons Ratio (y) = -0.09814 0.22955
# Poissons Ratio (z) = 0.33649 0.05477
#
# Static dielectric constant tensor:
#      x y z
#    x 1.706880 0.000000 0.000000 
#    y 0.000000 1.832140 0.000000 
#    z 0.000000 0.000000 1.853410 
# 
# From -- ./inp_files/5019.got.cif
#   From: 2010.05.17/outbox.cif.g08.bks.cpg/sg26_3_cif.got.tgz:5019.got - 2010.06.04 01:07:29.
