data_PCOD9338322
_publ_section_title
;
Structure prediction by ZEFSAII (Michael W. Deem and Ramdas Pophale) SiO2 
 PCOD9338322
Probable space group: P M C 21
;
_chemical_formula_sum "Si O2"
_cell_formula_units_Z 32
_cell_length_a 8.571543
_cell_length_b 14.800192
_cell_length_c 12.512478
_cell_angle_alpha 90.000000
_cell_angle_beta 90.000000
_cell_angle_gamma 90.000000
_cell_volume 1587.338992
_symmetry_space_group_name_H-M "P M C 21"
_symmetry_group_IT_number 26
_symmetry_cell_setting 'orthorhombic'
loop_
_space_group_symop_operation_xyz
x,y,z
-x,-y,1/2+z
-x,y,z
x,-y,1/2+z
loop_
_atom_site_type_symbol
_atom_site_label
_atom_site_fract_x
_atom_site_fract_y
_atom_site_fract_z
Si Si1 0.183922 0.866856 0.353770
Si Si2 0.181561 0.329805 0.179896
Si Si3 0.187605 0.774847 0.888470
Si Si4 0.812240 0.336429 0.787936
Si Si5 0.685087 0.357338 0.553992
Si Si6 0.810634 0.454560 0.994687
Si Si7 0.677107 0.835777 0.574953
Si Si8 0.319237 0.952483 0.785343
O O1 0.225387 0.769265 0.305505
O O2 0.280107 0.876908 0.462371
O O3 0.000000 0.865121 0.376572
O O4 0.225710 0.954564 0.286026
O O5 0.246268 0.292514 0.292399
O O6 0.202703 0.244013 0.101785
O O7 0.000000 0.350251 0.199316
O O8 0.246097 0.410884 0.107399
O O9 0.251585 0.874581 0.863095
O O10 0.000000 0.777605 0.883601
O O11 0.242819 0.731595 0.998887
O O12 0.737753 0.366366 0.676751
O O13 0.763388 0.394546 0.892055
O O14 0.000000 0.345253 0.779073
O O15 0.500000 0.353683 0.546828
O O16 0.750119 0.443997 0.490425
O O17 0.000000 0.454433 0.996728
O O18 0.500000 0.799175 0.575548
O O19 0.688766 0.908261 0.668510
O O20 0.500000 0.969110 0.811919
#
# Coordination Sequence:
#
# PCOD9338322 Si02
#       8
#     4   4   4   4   4   4   4   4
#     4  11  22  39  64  92 121 161 212 262 307 368
#     4   9  18  36  63  90 114 149 203 258 304 360
#     4  10  21  40  65  91 122 165 213 259 307 368
#     4  10  23  44  67  91 123 164 214 262 309 371
#     4  12  27  42  60  92 133 170 207 260 320 381
#     4  10  21  41  66  91 120 160 209 260 309 372
#     4  10  20  35  57  86 122 159 197 250 314 374
#     4  10  22  39  60  91 127 166 207 255 318 378
#
# _framework density 20.159524999999999
#
# number of rings (size 3 to 8) (size 9 to 14) (size 15 to 20)
#    0.000    1.750    1.250    2.625    1.750    5.000 
#    0.000    2.500    0.000    0.000    0.000    0.000 
#    0.000    0.000    0.000    0.000    0.000    0.000 
#
# Total GULP energy -178664.237600 kJ/mol
# GULP energy per Si atom -5583.257425 kJ/mol
# Density = 2.011364 g / cm^3
# Si number density = 20.159525 Si / 1000 Ang^3
#
#
#
# Elastic Constant Matrix: (Units=GPa)
#
#
# Indices 1 2 3 4 5 6 
#
# 1 25.1649 21.1193 20.2732 0.0000 0.0000 0.0000
# 2 21.1193 100.5073 25.5119 0.0000 0.0000 0.0000
# 3 20.2732 25.5119 55.6226 0.0000 0.0000 0.0000
# 4 0.0000 0.0000 0.0000 14.6867 0.0000 0.0000
# 5 0.0000 0.0000 0.0000 0.0000 19.7142 0.0000
# 6 0.0000 0.0000 0.0000 0.0000 0.0000 -3.0474
#
#
#
# Elastic Compliance Matrix: (Units=1/GPa)
#
#
# Indices 1 2 3 4 5 6 
#
# 1 0.061719 -0.008215 -0.018727 0.000000 0.000000 0.000000
# 2 -0.008215 0.012354 -0.002672 0.000000 0.000000 0.000000
# 3 -0.018727 -0.002672 0.026030 0.000000 0.000000 0.000000
# 4 0.000000 0.000000 0.000000 0.068089 0.000000 0.000000
# 5 0.000000 0.000000 0.000000 0.000000 0.050725 0.000000
# 6 0.000000 0.000000 0.000000 0.000000 0.000000 -0.328147
#
#
# Mechanical properties :
#
#
# Convention : Reuss Voigt Hill
#
# Bulk Modulus (GPa) = 24.46562 35.01151 29.73857
# Shear Modulus (GPa) = -137.45062 13.89673 -61.77695
#
# Velocity S-wave (km/s) = -8.26617 2.62837 -5.54171
# Velocity P-wave (km/s) = 8.88502 5.15908 5.11506
#
# Compressibility (1/GPa) = 0.04087368
#
# Stress axis : x y z
#
# Youngs Moduli (GPa) = 16.20237 80.94534 38.41794
#
# Poissons Ratio (x) = 0.66499 0.71946
# Poissons Ratio (y) = 0.13311 0.10265
# Poissons Ratio (z) = 0.30343 0.21629
#
# Static dielectric constant tensor:
#      x y z
#    x 1.695860 0.000000 0.000000 
#    y 0.000000 1.698450 0.000000 
#    z 0.000000 0.000000 1.722800 
# 
# From -- ./inp_files/2982.got.cif
#   From: 2010.05.17/outbox.cif.g08.bks.cpg/sg26_2_cif.got.tgz:2982.got - 2010.06.04 01:07:29.
