data_PCOD9338917
_publ_section_title
;
Structure prediction by ZEFSAII (Michael W. Deem and Ramdas Pophale) SiO2 
 PCOD9338917
Probable space group: P C C 2
;
_chemical_formula_sum "Si O2"
_cell_formula_units_Z 22
_cell_length_a 6.240618
_cell_length_b 10.296988
_cell_length_c 14.494860
_cell_angle_alpha 90.000000
_cell_angle_beta 90.000000
_cell_angle_gamma 90.000000
_cell_volume 931.433451
_symmetry_space_group_name_H-M "P C C 2"
_symmetry_group_IT_number 27
_symmetry_cell_setting 'orthorhombic'
loop_
_space_group_symop_operation_xyz
x,y,z
-x,-y,z
-x,y,1/2+z
x,-y,1/2+z
loop_
_atom_site_type_symbol
_atom_site_label
_atom_site_fract_x
_atom_site_fract_y
_atom_site_fract_z
Si Si1 0.100001 0.793357 0.188010
Si Si2 0.725881 0.339575 0.576202
Si Si3 0.166244 0.769879 0.858288
Si Si4 0.482031 0.633153 0.260266
Si Si5 0.000000 0.500000 0.439175
Si Si6 0.370755 0.872657 0.030901
O O1 0.253045 0.677832 0.224728
O O2 0.256945 0.886189 0.130655
O O3 0.929763 0.741572 0.113238
O O4 0.974674 0.836579 0.279098
O O5 0.631097 0.392847 0.671503
O O6 0.810369 0.447544 0.505948
O O7 0.539722 0.246866 0.536376
O O8 0.402734 0.746819 0.816322
O O9 0.071554 0.626327 0.881348
O O10 0.195638 0.844501 0.953057
O O11 0.500000 0.500000 0.316340
O O12 0.500000 0.000000 0.007698
#
# Coordination Sequence:
#
# PCOD9338917 Si02
#       6
#     4   4   4   4   2   4
#     4  10  22  48  66 100 142 188 241 289 368 426
#     4  10  23  41  69 101 138 187 236 287 366 428
#     4  11  25  40  70 108 139 187 244 299 360 434
#     4  10  21  37  65  99 148 184 229 294 359 431
#     4  12  22  40  72 106 144 186 236 300 376 436
#     4  11  26  48  73 102 144 192 248 300 355 430
#
# _framework density 23.619506999999999
#
# number of rings (size 3 to 8) (size 9 to 14) (size 15 to 20)
#    0.000    1.455    1.818    2.182    7.636    3.636 
#    0.000   10.000    4.000    0.000    0.000    0.000 
#    0.000    0.000    0.000    0.000    0.000    0.000 
#
# Total GULP energy -123028.410515 kJ/mol
# GULP energy per Si atom -5592.200478 kJ/mol
# Density = 2.356575 g / cm^3
# Si number density = 23.619507 Si / 1000 Ang^3
#
#
#
# Elastic Constant Matrix: (Units=GPa)
#
#
# Indices 1 2 3 4 5 6 
#
# 1 82.9267 5.2914 50.4806 0.0000 0.0000 0.0000
# 2 5.2914 54.8247 33.1978 0.0000 0.0000 0.0000
# 3 50.4806 33.1978 140.8685 0.0000 0.0000 0.0000
# 4 0.0000 0.0000 0.0000 -0.0847 0.0000 0.0000
# 5 0.0000 0.0000 0.0000 0.0000 15.0275 0.0000
# 6 0.0000 0.0000 0.0000 0.0000 0.0000 24.7607
#
#
#
# Elastic Compliance Matrix: (Units=1/GPa)
#
#
# Indices 1 2 3 4 5 6 
#
# 1 0.015647 0.002199 -0.006125 0.000000 0.000000 0.000000
# 2 0.002199 0.021585 -0.005875 0.000000 0.000000 0.000000
# 3 -0.006125 -0.005875 0.010678 0.000000 0.000000 0.000000
# 4 0.000000 0.000000 0.000000-11.805745 0.000000 0.000000
# 5 0.000000 0.000000 0.000000 0.000000 0.066545 0.000000
# 6 0.000000 0.000000 0.000000 0.000000 0.000000 0.040387
#
#
# Mechanical properties :
#
#
# Convention : Reuss Voigt Hill
#
# Bulk Modulus (GPa) = 35.32562 50.72884 43.02723
# Shear Modulus (GPa) = -0.43022 20.58405 10.07691
#
# Velocity S-wave (km/s) = -0.42725 2.95530 2.06776
# Velocity P-wave (km/s) = 3.83995 5.75927 4.89461
#
# Compressibility (1/GPa) = 0.02830807
#
# Stress axis : x y z
#
# Youngs Moduli (GPa) = 63.90862 46.32821 93.64692
#
# Poissons Ratio (x) = -0.10187 0.57363
# Poissons Ratio (y) = -0.14053 0.55016
# Poissons Ratio (z) = 0.39147 0.27217
#
# Static dielectric constant tensor:
#      x y z
#    x 1.913100 0.000000 0.000000 
#    y 0.000000 1.907180 0.000000 
#    z 0.000000 0.000000 1.864540 
# 
# From -- ./inp_files/2995.got.cif
#   From: 2010.05.17/outbox.cif.g08.bks.cpg/sg27_2_cif.got.tgz:2995.got - 2010.06.04 01:11:05.
