data_PCOD9338441
_publ_section_title
;
Structure prediction by ZEFSAII (Michael W. Deem and Ramdas Pophale) SiO2 
 PCOD9338441
Probable space group: P M C 21
;
_chemical_formula_sum "Si O2"
_cell_formula_units_Z 32
_cell_length_a 7.786751
_cell_length_b 12.864152
_cell_length_c 14.173689
_cell_angle_alpha 90.000000
_cell_angle_beta 90.000000
_cell_angle_gamma 90.000000
_cell_volume 1419.777696
_symmetry_space_group_name_H-M "P M C 21"
_symmetry_group_IT_number 26
_symmetry_cell_setting 'orthorhombic'
loop_
_space_group_symop_operation_xyz
x,y,z
-x,-y,1/2+z
-x,y,z
x,-y,1/2+z
loop_
_atom_site_type_symbol
_atom_site_label
_atom_site_fract_x
_atom_site_fract_y
_atom_site_fract_z
Si Si1 0.198336 0.913967 0.724340
Si Si2 0.297059 0.736600 0.391864
Si Si3 0.803620 0.565564 0.532808
Si Si4 0.290876 0.061046 0.007981
Si Si5 0.703339 0.162173 0.500576
Si Si6 0.201864 0.682703 0.717928
Si Si7 0.205924 0.140940 0.718229
Si Si8 0.702034 0.627803 0.914234
O O1 0.209624 0.923567 0.610555
O O2 0.275491 0.798600 0.741919
O O3 0.000000 0.912015 0.755852
O O4 0.274495 0.027085 0.753184
O O5 0.500000 0.719760 0.404539
O O6 0.204708 0.643130 0.443839
O O7 0.243716 0.841725 0.445222
O O8 0.259951 0.764135 0.284247
O O9 0.726930 0.626296 0.623859
O O10 0.723747 0.460167 0.493100
O O11 0.000000 0.541250 0.557193
O O12 0.500000 0.059184 0.018312
O O13 0.232762 0.950183 0.966874
O O14 0.500000 0.164623 0.482698
O O15 0.730834 0.160705 0.612635
O O16 0.778436 0.264370 0.453783
O O17 0.219438 0.611688 0.810558
O O18 0.000000 0.701076 0.698204
O O19 0.000000 0.133748 0.716769
O O20 0.500000 0.637925 0.897154
#
# Coordination Sequence:
#
# PCOD9338441 Si02
#       8
#     4   4   4   4   4   4   4   4
#     4   9  18  35  57  86 122 159 203 250 300 358
#     4  11  22  36  59  90 124 162 204 250 303 365
#     4  11  24  44  67  88 121 162 207 258 305 361
#     4   9  18  33  56  85 118 157 198 245 302 360
#     4   9  20  40  59  84 123 163 203 251 305 362
#     4  10  22  41  64  90 120 159 204 253 307 363
#     4  10  21  35  57  90 127 168 207 250 307 366
#     4  11  25  42  65  93 123 160 206 255 307 365
#
# _framework density 22.538739
#
# number of rings (size 3 to 8) (size 9 to 14) (size 15 to 20)
#    0.000    2.000    1.250    1.500    1.750    4.500 
#    0.000    2.500    0.000    0.000    0.000    0.000 
#    0.000    0.000    0.000    0.000    0.000    0.000 
#
# Total GULP energy -178637.880846 kJ/mol
# GULP energy per Si atom -5582.433776 kJ/mol
# Density = 2.248744 g / cm^3
# Si number density = 22.538739 Si / 1000 Ang^3
#
#
#
# Elastic Constant Matrix: (Units=GPa)
#
#
# Indices 1 2 3 4 5 6 
#
# 1 38.0025 9.5595 -11.5670 0.0000 0.0000 0.0000
# 2 9.5595 87.6088 29.1559 0.0000 0.0000 0.0000
# 3 -11.5670 29.1559 65.9904 0.0000 0.0000 0.0000
# 4 0.0000 0.0000 0.0000 25.0995 0.0000 0.0000
# 5 0.0000 0.0000 0.0000 0.0000 21.8099 0.0000
# 6 0.0000 0.0000 0.0000 0.0000 0.0000 13.8414
#
#
#
# Elastic Compliance Matrix: (Units=1/GPa)
#
#
# Indices 1 2 3 4 5 6 
#
# 1 0.030216 -0.005932 0.007917 0.000000 0.000000 0.000000
# 2 -0.005932 0.014547 -0.007467 0.000000 0.000000 0.000000
# 3 0.007917 -0.007467 0.019840 0.000000 0.000000 0.000000
# 4 0.000000 0.000000 0.000000 0.039841 0.000000 0.000000
# 5 0.000000 0.000000 0.000000 0.000000 0.045851 0.000000
# 6 0.000000 0.000000 0.000000 0.000000 0.000000 0.072247
#
#
# Mechanical properties :
#
#
# Convention : Reuss Voigt Hill
#
# Bulk Modulus (GPa) = 18.64275 27.32205 22.98240
# Shear Modulus (GPa) = 19.88981 23.11372 21.50177
#
# Velocity S-wave (km/s) = 2.97387 3.20583 3.09203
# Velocity P-wave (km/s) = 4.48121 5.08446 4.79234
#
# Compressibility (1/GPa) = 0.05364017
#
# Stress axis : x y z
#
# Youngs Moduli (GPa) = 33.09508 68.74488 50.40215
#
# Poissons Ratio (x) = 0.40778 -0.39904
# Poissons Ratio (y) = 0.19632 0.37634
# Poissons Ratio (z) = -0.26202 0.51330
#
# Static dielectric constant tensor:
#      x y z
#    x 1.823030 0.000000 0.000000 
#    y 0.000000 1.871040 0.000000 
#    z 0.000000 0.000000 1.858640 
# 
# From -- ./inp_files/4173.got.cif
#   From: 2010.05.17/outbox.cif.g08.bks.cpg/sg26_3_cif.got.tgz:4173.got - 2010.06.04 01:07:29.
