data_PCOD9338039
_publ_section_title
;
Structure prediction by ZEFSAII (Michael W. Deem and Ramdas Pophale) SiO2 
 PCOD9338039
Probable space group: P M C 21
;
_chemical_formula_sum "Si O2"
_cell_formula_units_Z 32
_cell_length_a 7.373420
_cell_length_b 10.951735
_cell_length_c 14.618350
_cell_angle_alpha 90.000000
_cell_angle_beta 90.000000
_cell_angle_gamma 90.000000
_cell_volume 1180.457226
_symmetry_space_group_name_H-M "P M C 21"
_symmetry_group_IT_number 26
_symmetry_cell_setting 'orthorhombic'
loop_
_space_group_symop_operation_xyz
x,y,z
-x,-y,1/2+z
-x,y,z
x,-y,1/2+z
loop_
_atom_site_type_symbol
_atom_site_label
_atom_site_fract_x
_atom_site_fract_y
_atom_site_fract_z
Si Si1 0.217711 0.696632 0.719760
Si Si2 0.717276 0.305111 0.559140
Si Si3 0.290844 0.571855 0.235998
Si Si4 0.722120 0.797523 0.447301
Si Si5 0.707045 0.082419 0.775668
Si Si6 0.786187 0.154258 0.390362
Si Si7 0.289937 0.058111 0.108995
Si Si8 0.278857 0.466983 0.940861
O O1 0.287504 0.563903 0.691763
O O2 0.271901 0.732679 0.824474
O O3 0.286875 0.811059 0.661234
O O4 0.000000 0.694952 0.714256
O O5 0.500000 0.313732 0.565686
O O6 0.783880 0.331314 0.662273
O O7 0.751979 0.186982 0.496077
O O8 0.787112 0.418123 0.497820
O O9 0.500000 0.605780 0.252879
O O10 0.212406 0.544555 0.336204
O O11 0.500000 0.803338 0.446646
O O12 0.791674 0.905159 0.512148
O O13 0.771638 0.664267 0.482575
O O14 0.784246 0.816529 0.343183
O O15 0.500000 0.115980 0.754137
O O16 0.701016 0.964026 0.842828
O O17 0.791704 0.037259 0.680961
O O18 0.000000 0.139365 0.378227
O O19 0.500000 0.023925 0.094640
O O20 0.500000 0.475136 0.939772
#
# Coordination Sequence:
#
# PCOD9338039 Si02
#       8
#     4   4   4   4   4   4   4   4
#     4  10  19  31  50  75 103 137 174 215 255 304
#     4  10  19  32  52  78 104 135 172 209 259 317
#     4  10  19  31  50  77 105 138 172 208 260 317
#     4   9  17  32  52  78 108 136 171 216 265 311
#     4   9  18  33  54  78 103 133 172 219 263 307
#     4  10  20  34  52  73 101 136 174 216 260 303
#     4   9  17  31  53  78 102 135 176 218 261 306
#     4   9  17  30  49  75 108 136 163 211 263 309
#
# _framework density 27.108139999999999
#
# number of rings (size 3 to 8) (size 9 to 14) (size 15 to 20)
#    0.000    2.500    1.250    1.500    0.000    3.500 
#    2.250    0.625    0.000    1.500    0.000    0.000 
#    0.000    0.000    0.000    0.000    0.000    0.000 
#
# Total GULP energy -178975.404261 kJ/mol
# GULP energy per Si atom -5592.981383 kJ/mol
# Density = 2.704644 g / cm^3
# Si number density = 27.108140 Si / 1000 Ang^3
#
#
#
# Elastic Constant Matrix: (Units=GPa)
#
#
# Indices 1 2 3 4 5 6 
#
# 1 118.4462 -3.0250 -0.4291 0.0000 0.0000 0.0000
# 2 -3.0250 110.8435 16.0677 0.0000 0.0000 0.0000
# 3 -0.4291 16.0677 154.2707 0.0000 0.0000 0.0000
# 4 0.0000 0.0000 0.0000 53.9250 0.0000 0.0000
# 5 0.0000 0.0000 0.0000 0.0000 -16.6638 0.0000
# 6 0.0000 0.0000 0.0000 0.0000 0.0000 -117.2536
#
#
#
# Elastic Compliance Matrix: (Units=1/GPa)
#
#
# Indices 1 2 3 4 5 6 
#
# 1 0.008449 0.000231 -0.000001 0.000000 0.000000 0.000000
# 2 0.000231 0.009166 -0.000954 0.000000 0.000000 0.000000
# 3 -0.000001 -0.000954 0.006581 0.000000 0.000000 0.000000
# 4 0.000000 0.000000 0.000000 0.018544 0.000000 0.000000
# 5 0.000000 0.000000 0.000000 0.000000 -0.060010 0.000000
# 6 0.000000 0.000000 0.000000 0.000000 0.000000 -0.008529
#
#
# Mechanical properties :
#
#
# Convention : Reuss Voigt Hill
#
# Bulk Modulus (GPa) = 43.95899 45.42083 44.68991
# Shear Modulus (GPa) = -298.19533 8.73131 -144.73201
#
# Velocity S-wave (km/s) = -10.49957 1.79664 -7.31481
# Velocity P-wave (km/s) = 11.43401 4.59300 7.40408
#
# Compressibility (1/GPa) = 0.02274847
#
# Stress axis : x y z
#
# Youngs Moduli (GPa) = 118.36363 109.09505 151.94157
#
# Poissons Ratio (x) = -0.02516 0.00008
# Poissons Ratio (y) = -0.02730 0.14496
# Poissons Ratio (z) = 0.00006 0.10408
#
# Static dielectric constant tensor:
#      x y z
#    x 2.020690 0.000000 0.000000 
#    y 0.000000 2.130850 0.000000 
#    z 0.000000 0.000000 2.160350 
# 
# From -- ./inp_files/4161.got.cif
#   From: 2010.05.17/outbox.cif.g08.bks.cpg/sg26_3_cif.got.tgz:4161.got - 2010.06.04 01:07:29.
