data_PCOD9338496
_publ_section_title
;
Structure prediction by ZEFSAII (Michael W. Deem and Ramdas Pophale) SiO2 
 PCOD9338496
Probable space group: P M C 21
;
_chemical_formula_sum "Si O2"
_cell_formula_units_Z 28
_cell_length_a 11.399805
_cell_length_b 14.217793
_cell_length_c 9.095691
_cell_angle_alpha 90.000000
_cell_angle_beta 90.000000
_cell_angle_gamma 90.000000
_cell_volume 1474.230213
_symmetry_space_group_name_H-M "P M C 21"
_symmetry_group_IT_number 26
_symmetry_cell_setting 'orthorhombic'
loop_
_space_group_symop_operation_xyz
x,y,z
-x,-y,1/2+z
-x,y,z
x,-y,1/2+z
loop_
_atom_site_type_symbol
_atom_site_label
_atom_site_fract_x
_atom_site_fract_y
_atom_site_fract_z
Si Si1 0.861511 0.428484 0.623090
Si Si2 0.500000 0.564705 0.839290
Si Si3 0.140088 0.725328 0.868554
Si Si4 0.138056 0.076062 0.490015
Si Si5 0.278015 0.303222 0.831151
Si Si6 0.500000 0.631706 0.177289
Si Si7 0.138438 0.111279 0.835805
Si Si8 0.717157 0.620131 0.641622
O O1 0.837461 0.356486 0.489086
O O2 0.821958 0.373360 0.769206
O O3 0.783479 0.521553 0.614530
O O4 0.000000 0.450333 0.625239
O O5 0.500000 0.455557 0.791722
O O6 0.614001 0.605918 0.758556
O O7 0.500000 0.588391 0.012577
O O8 0.186113 0.826708 0.922447
O O9 0.193392 0.692763 0.715742
O O10 0.000000 0.731441 0.857738
O O11 0.144290 0.082696 0.664828
O O12 0.000000 0.074278 0.449176
O O13 0.183531 0.977270 0.429641
O O14 0.383450 0.309106 0.713519
O O15 0.217730 0.202954 0.852205
O O16 0.324287 0.340759 0.986276
O O17 0.000000 0.131222 0.869945
#
# Coordination Sequence:
#
# PCOD9338496 Si02
#       8
#     4   2   4   4   4   2   4   4
#     4  11  22  38  58  88 130 172 205 247 308 370
#     4  12  26  44  66  89 118 167 223 261 306 368
#     4  10  21  38  59  89 130 168 204 247 310 374
#     4   9  19  36  59  89 125 164 203 251 310 373
#     4  12  24  40  64  91 125 164 211 262 313 369
#     4  12  26  46  66  87 120 165 217 267 314 366
#     4  10  21  38  64  95 128 163 207 260 316 378
#     4  12  25  38  60  92 124 168 211 260 300 369
#
# _framework density 18.992964000000001
#
# number of rings (size 3 to 8) (size 9 to 14) (size 15 to 20)
#    0.000    1.143    2.857    3.857    2.000    3.429 
#    0.000    0.000    0.000    1.714    0.000    0.000 
#    0.000    0.000    0.000    0.000    0.000    0.000 
#
# Total GULP energy -156441.394724 kJ/mol
# GULP energy per Si atom -5587.192669 kJ/mol
# Density = 1.894973 g / cm^3
# Si number density = 18.992964 Si / 1000 Ang^3
#
#
#
# Elastic Constant Matrix: (Units=GPa)
#
#
# Indices 1 2 3 4 5 6 
#
# 1 78.1107 48.1701 36.8743 0.0000 0.0000 0.0000
# 2 48.1701 117.9267 38.1083 0.0000 0.0000 0.0000
# 3 36.8743 38.1083 90.2590 0.0000 0.0000 0.0000
# 4 0.0000 0.0000 0.0000 27.6981 0.0000 0.0000
# 5 0.0000 0.0000 0.0000 0.0000 26.4900 0.0000
# 6 0.0000 0.0000 0.0000 0.0000 0.0000 9.3508
#
#
#
# Elastic Compliance Matrix: (Units=1/GPa)
#
#
# Indices 1 2 3 4 5 6 
#
# 1 0.019008 -0.006085 -0.005196 0.000000 0.000000 0.000000
# 2 -0.006085 0.011768 -0.002482 0.000000 0.000000 0.000000
# 3 -0.005196 -0.002482 0.014250 0.000000 0.000000 0.000000
# 4 0.000000 0.000000 0.000000 0.036104 0.000000 0.000000
# 5 0.000000 0.000000 0.000000 0.000000 0.037750 0.000000
# 6 0.000000 0.000000 0.000000 0.000000 0.000000 0.106943
#
#
# Mechanical properties :
#
#
# Convention : Reuss Voigt Hill
#
# Bulk Modulus (GPa) = 57.14868 59.17798 58.16333
# Shear Modulus (GPa) = 19.29142 23.58403 21.43772
#
# Velocity S-wave (km/s) = 3.19048 3.52763 3.36329
# Velocity P-wave (km/s) = 6.61264 6.91504 6.76553
#
# Compressibility (1/GPa) = 0.01749822
#
# Stress axis : x y z
#
# Youngs Moduli (GPa) = 52.60930 84.97860 70.17431
#
# Poissons Ratio (x) = 0.51710 0.36465
# Poissons Ratio (y) = 0.32013 0.17420
# Poissons Ratio (z) = 0.27337 0.21095
#
# Static dielectric constant tensor:
#      x y z
#    x 1.673690 0.000000 0.000000 
#    y 0.000000 1.659030 0.000000 
#    z 0.000000 0.000000 1.679430 
# 
# From -- ./inp_files/1920.got.cif
#   From: 2010.05.17/outbox.cif.g08.bks.cpg/sg26_1_cif.got.tgz:1920.got - 2010.06.04 01:07:29.
