data_PCOD9338476
_publ_section_title
;
Structure prediction by ZEFSAII (Michael W. Deem and Ramdas Pophale) SiO2 
 PCOD9338476
Probable space group: P M C 21
;
_chemical_formula_sum "Si O2"
_cell_formula_units_Z 32
_cell_length_a 8.889078
_cell_length_b 16.059181
_cell_length_c 11.493536
_cell_angle_alpha 90.000000
_cell_angle_beta 90.000000
_cell_angle_gamma 90.000000
_cell_volume 1640.717350
_symmetry_space_group_name_H-M "P M C 21"
_symmetry_group_IT_number 26
_symmetry_cell_setting 'orthorhombic'
loop_
_space_group_symop_operation_xyz
x,y,z
-x,-y,1/2+z
-x,y,z
x,-y,1/2+z
loop_
_atom_site_type_symbol
_atom_site_label
_atom_site_fract_x
_atom_site_fract_y
_atom_site_fract_z
Si Si1 0.681457 0.654340 0.136460
Si Si2 0.319804 0.352221 0.904466
Si Si3 0.181737 0.945936 0.639579
Si Si4 0.327488 0.208508 0.469001
Si Si5 0.319485 0.232263 0.093272
Si Si6 0.177689 0.476678 0.459910
Si Si7 0.819844 0.961696 0.901379
Si Si8 0.672013 0.360367 0.285037
O O1 0.500000 0.648884 0.124045
O O2 0.722506 0.647208 0.270003
O O3 0.725019 0.744839 0.085553
O O4 0.752804 0.581323 0.060218
O O5 0.500000 0.363362 0.914817
O O6 0.242242 0.430924 0.963592
O O7 0.285230 0.263696 0.963736
O O8 0.236871 0.850701 0.631886
O O9 0.231870 0.981394 0.767467
O O10 0.000000 0.948935 0.639679
O O11 0.234375 0.989122 0.517987
O O12 0.500000 0.178732 0.481440
O O13 0.226413 0.133600 0.425593
O O14 0.329342 0.284559 0.377686
O O15 0.500000 0.220235 0.107773
O O16 0.277242 0.312774 0.170251
O O17 0.229697 0.433369 0.338851
O O18 0.000000 0.476588 0.468439
O O19 0.000000 0.970313 0.900086
O O20 0.500000 0.390553 0.270458
#
# Coordination Sequence:
#
# PCOD9338476 Si02
#       8
#     4   4   4   4   4   4   4   4
#     4   9  20  39  58  79 112 150 190 236 290 350
#     4  10  22  39  59  82 113 153 193 236 293 354
#     4  10  22  39  58  83 119 157 196 240 296 359
#     4   9  17  33  58  83 106 138 181 232 282 330
#     4  10  21  38  61  87 112 147 194 241 291 346
#     4  11  23  36  55  85 116 148 191 239 286 338
#     4  10  21  37  57  83 115 154 193 234 289 358
#     4   9  18  35  58  82 111 145 186 232 283 341
#
# _framework density 19.503665999999999
#
# number of rings (size 3 to 8) (size 9 to 14) (size 15 to 20)
#    0.000    2.250    1.250    1.875    1.750    5.000 
#    0.000    0.000    0.000    0.000    0.000    0.000 
#    0.000    0.000    0.000    0.000    0.000    0.000 
#
# Total GULP energy -178417.528521 kJ/mol
# GULP energy per Si atom -5575.547766 kJ/mol
# Density = 1.945927 g / cm^3
# Si number density = 19.503666 Si / 1000 Ang^3
#
#
#
# Elastic Constant Matrix: (Units=GPa)
#
#
# Indices 1 2 3 4 5 6 
#
# 1 1.0016 7.9560 26.3452 0.0000 0.0000 0.0000
# 2 7.9560 53.3313 45.0080 0.0000 0.0000 0.0000
# 3 26.3452 45.0080 133.7852 0.0000 0.0000 0.0000
# 4 0.0000 0.0000 0.0000 22.8137 0.0000 0.0000
# 5 0.0000 0.0000 0.0000 0.0000 11.8871 0.0000
# 6 0.0000 0.0000 0.0000 0.0000 0.0000 29.4706
#
#
#
# Elastic Compliance Matrix: (Units=1/GPa)
#
#
# Indices 1 2 3 4 5 6 
#
# 1 -0.237651 -0.005644 0.048697 0.000000 0.000000 0.000000
# 2 -0.005644 0.026051 -0.007653 0.000000 0.000000 0.000000
# 3 0.048697 -0.007653 0.000460 0.000000 0.000000 0.000000
# 4 0.000000 0.000000 0.000000 0.043833 0.000000 0.000000
# 5 0.000000 0.000000 0.000000 0.000000 0.084125 0.000000
# 6 0.000000 0.000000 0.000000 0.000000 0.000000 0.033932
#
#
# Mechanical properties :
#
#
# Convention : Reuss Voigt Hill
#
# Bulk Modulus (GPa) = -7.12559 38.52627 15.70034
# Shear Modulus (GPa) = -29.97048 20.08822 -4.94113
#
# Velocity S-wave (km/s) = -3.92428 3.21280 -1.59340
# Velocity P-wave (km/s) = 4.91881 5.79301 2.16383
#
# Compressibility (1/GPa) = -0.14033922
#
# Stress axis : x y z
#
# Youngs Moduli (GPa) = -4.20786 38.38626 2176.02063
#
# Poissons Ratio (x) = 0.21667 -105.96665
# Poissons Ratio (y) = -0.02375 16.65210
# Poissons Ratio (z) = 0.20491 0.29375
#
# Static dielectric constant tensor:
#      x y z
#    x 1.657440 0.000000 0.000000 
#    y 0.000000 1.641000 0.000000 
#    z 0.000000 0.000000 1.782490 
# 
# From -- ./inp_files/3102.got.cif
#   From: 2010.05.17/outbox.cif.g08.bks.cpg/sg26_2_cif.got.tgz:3102.got - 2010.06.04 01:07:29.
