data_PCOD9338993
_publ_section_title
;
Structure prediction by ZEFSAII (Michael W. Deem and Ramdas Pophale) SiO2 
 PCOD9338993
Probable space group: P C C 2
;
_chemical_formula_sum "Si O2"
_cell_formula_units_Z 32
_cell_length_a 22.461188
_cell_length_b 5.161530
_cell_length_c 9.616579
_cell_angle_alpha 90.000000
_cell_angle_beta 90.000000
_cell_angle_gamma 90.000000
_cell_volume 1114.889390
_symmetry_space_group_name_H-M "P C C 2"
_symmetry_group_IT_number 27
_symmetry_cell_setting 'orthorhombic'
loop_
_space_group_symop_operation_xyz
x,y,z
-x,-y,z
-x,y,1/2+z
x,-y,1/2+z
loop_
_atom_site_type_symbol
_atom_site_label
_atom_site_fract_x
_atom_site_fract_y
_atom_site_fract_z
Si Si1 0.312828 0.544504 0.039170
Si Si2 0.937651 0.949629 0.889033
Si Si3 0.308585 0.845575 0.297652
Si Si4 0.184746 0.922151 0.888565
Si Si5 0.561645 0.066634 0.326779
Si Si6 0.185327 0.414559 0.067332
Si Si7 0.440357 0.573865 0.647322
Si Si8 0.937229 0.550818 0.579765
O O1 0.315110 0.811824 0.130660
O O2 0.378762 0.447238 0.070589
O O3 0.304842 0.428462 0.883035
O O4 0.253123 0.436787 0.115520
O O5 0.876491 0.010947 0.809534
O O6 0.937108 0.664586 0.955833
O O7 0.938247 0.166121 0.011511
O O8 0.000000 0.000000 0.812711
O O9 0.247660 0.997289 0.325082
O O10 0.368245 0.980089 0.361871
O O11 0.179001 0.122712 0.016599
O O12 0.185033 0.630463 0.943833
O O13 0.561100 0.360299 0.270771
O O14 0.444939 0.139232 0.203147
O O15 0.500000 0.000000 0.408752
O O16 0.126527 0.499331 0.151452
O O17 0.500000 0.500000 0.565860
O O18 0.000000 0.500000 0.655125
#
# Coordination Sequence:
#
# PCOD9338993 Si02
#       8
#     4   4   4   4   4   4   4   4
#     4  10  22  41  62  91 124 164 208 258 314 372
#     4   8  13  23  42  70 104 143 188 238 292 350
#     4  10  22  39  64  93 128 168 212 260 314 376
#     4   9  18  32  51  80 115 154 199 248 302 362
#     4   9  19  38  62  89 120 157 201 250 304 364
#     4   9  18  32  51  79 115 153 197 248 302 361
#     4   9  19  38  62  88 119 155 199 250 304 363
#     4   8  13  23  42  70 103 142 188 238 292 350
#
# _framework density 28.702400999999998
#
# number of rings (size 3 to 8) (size 9 to 14) (size 15 to 20)
#    0.000    3.000    0.000    0.000    0.000    8.000 
#    0.000    8.125    0.000    0.000    0.000   34.125 
#    0.000    0.000    0.000   21.875    0.000    1.250 
#
# Total GULP energy -178635.153414 kJ/mol
# GULP energy per Si atom -5582.348544 kJ/mol
# Density = 2.863707 g / cm^3
# Si number density = 28.702401 Si / 1000 Ang^3
#
#
#
# Elastic Constant Matrix: (Units=GPa)
#
#
# Indices 1 2 3 4 5 6 
#
# 1 317.9575 26.6008 51.2996 0.0000 0.0000 0.0000
# 2 26.6008 149.8357 62.7192 0.0000 0.0000 0.0000
# 3 51.2996 62.7192 108.6037 0.0000 0.0000 0.0000
# 4 0.0000 0.0000 0.0000 80.8398 0.0000 0.0000
# 5 0.0000 0.0000 0.0000 0.0000 35.6826 0.0000
# 6 0.0000 0.0000 0.0000 0.0000 0.0000 46.2698
#
#
#
# Elastic Compliance Matrix: (Units=1/GPa)
#
#
# Indices 1 2 3 4 5 6 
#
# 1 0.003405 0.000091 -0.001661 0.000000 0.000000 0.000000
# 2 0.000091 0.008804 -0.005127 0.000000 0.000000 0.000000
# 3 -0.001661 -0.005127 0.012953 0.000000 0.000000 0.000000
# 4 0.000000 0.000000 0.000000 0.012370 0.000000 0.000000
# 5 0.000000 0.000000 0.000000 0.000000 0.028025 0.000000
# 6 0.000000 0.000000 0.000000 0.000000 0.000000 0.021612
#
#
# Mechanical properties :
#
#
# Convention : Reuss Voigt Hill
#
# Bulk Modulus (GPa) = 84.97714 95.29289 90.13501
# Shear Modulus (GPa) = 47.85245 61.61027 54.73136
#
# Velocity S-wave (km/s) = 4.08756 4.63808 4.37149
# Velocity P-wave (km/s) = 7.20750 7.87114 7.54662
#
# Compressibility (1/GPa) = 0.01176787
#
# Stress axis : x y z
#
# Youngs Moduli (GPa) = 293.64527 113.58389 77.20010
#
# Poissons Ratio (x) = -0.01030 0.12823
# Poissons Ratio (y) = -0.02662 0.39582
# Poissons Ratio (z) = 0.48773 0.58237
#
# Static dielectric constant tensor:
#      x y z
#    x 2.332350 0.000000 0.000000 
#    y 0.000000 2.066600 0.000000 
#    z 0.000000 0.000000 2.266990 
# 
# From -- ./inp_files/2875.got.cif
#   From: 2010.05.17/outbox.cif.g08.bks.cpg/sg27_2_cif.got.tgz:2875.got - 2010.06.04 01:11:05.
