data_PCOD9338825
_publ_section_title
;
Structure prediction by ZEFSAII (Michael W. Deem and Ramdas Pophale) SiO2 
 PCOD9338825
Probable space group: P C C 2
;
_chemical_formula_sum "Si O2"
_cell_formula_units_Z 24
_cell_length_a 12.317958
_cell_length_b 4.880021
_cell_length_c 17.355537
_cell_angle_alpha 90.000000
_cell_angle_beta 90.000000
_cell_angle_gamma 90.000000
_cell_volume 1043.274196
_symmetry_space_group_name_H-M "P C C 2"
_symmetry_group_IT_number 27
_symmetry_cell_setting 'orthorhombic'
loop_
_space_group_symop_operation_xyz
x,y,z
-x,-y,z
-x,y,1/2+z
x,-y,1/2+z
loop_
_atom_site_type_symbol
_atom_site_label
_atom_site_fract_x
_atom_site_fract_y
_atom_site_fract_z
Si Si1 0.802644 0.185385 0.813990
Si Si2 0.430350 0.752917 0.067705
Si Si3 0.744044 0.063954 0.468245
Si Si4 0.120160 0.933467 0.161972
Si Si5 0.119216 0.582004 0.961964
Si Si6 0.257521 0.575075 0.665895
O O1 0.740601 0.998126 0.876133
O O2 0.872008 0.010262 0.753446
O O3 0.875521 0.374105 0.869461
O O4 0.728281 0.364469 0.756672
O O5 0.500000 0.500000 0.032429
O O6 0.355544 0.585341 0.127504
O O7 0.500000 0.000000 0.105762
O O8 0.360330 0.926309 0.006247
O O9 0.846501 0.875905 0.493808
O O10 0.782757 0.373317 0.480359
O O11 0.218558 0.131947 0.132778
O O12 0.153639 0.620372 0.154769
O O13 0.000000 0.000000 0.135108
O O14 0.000000 0.500000 0.986081
#
# Coordination Sequence:
#
# PCOD9338825 Si02
#       6
#     4   4   4   4   4   4
#     4   8  22  32  67  88 147 143 222 231 330 357
#     4  12  26  48  70  80 116 177 230 273 339 372
#     4  10  22  38  62  94 124 164 210 265 303 384
#     4  10  20  34  63  98 134 167 195 239 317 388
#     4  10  20  34  63  98 133 167 195 240 317 387
#     4  10  22  38  62  94 122 164 213 264 301 384
#
# _framework density 23.004501000000001
#
# number of rings (size 3 to 8) (size 9 to 14) (size 15 to 20)
#    2.000    0.000    0.000    4.000    4.667    0.000 
#    0.000    4.167    0.000    0.000    0.000    0.000 
#    0.000    0.000    0.000    0.000    0.000    0.000 
#
# Total GULP energy -133808.995523 kJ/mol
# GULP energy per Si atom -5575.374813 kJ/mol
# Density = 2.295214 g / cm^3
# Si number density = 23.004501 Si / 1000 Ang^3
#
#
#
# Elastic Constant Matrix: (Units=GPa)
#
#
# Indices 1 2 3 4 5 6 
#
# 1 79.9845 24.7739 21.7277 0.0000 0.0000 0.0000
# 2 24.7739 119.1237 16.1286 0.0000 0.0000 0.0000
# 3 21.7277 16.1286 86.6727 0.0000 0.0000 0.0000
# 4 0.0000 0.0000 0.0000 38.1505 0.0000 0.0000
# 5 0.0000 0.0000 0.0000 0.0000 10.7974 0.0000
# 6 0.0000 0.0000 0.0000 0.0000 0.0000 35.1967
#
#
#
# Elastic Compliance Matrix: (Units=1/GPa)
#
#
# Indices 1 2 3 4 5 6 
#
# 1 0.014117 -0.002520 -0.003070 0.000000 0.000000 0.000000
# 2 -0.002520 0.009062 -0.001054 0.000000 0.000000 0.000000
# 3 -0.003070 -0.001054 0.012503 0.000000 0.000000 0.000000
# 4 0.000000 0.000000 0.000000 0.026212 0.000000 0.000000
# 5 0.000000 0.000000 0.000000 0.000000 0.092615 0.000000
# 6 0.000000 0.000000 0.000000 0.000000 0.000000 0.028412
#
#
# Mechanical properties :
#
#
# Convention : Reuss Voigt Hill
#
# Bulk Modulus (GPa) = 44.65738 45.67127 45.16432
# Shear Modulus (GPa) = 24.54904 31.70564 28.12734
#
# Velocity S-wave (km/s) = 3.27026 3.71649 3.50049
# Velocity P-wave (km/s) = 5.80638 6.18972 6.00111
#
# Compressibility (1/GPa) = 0.02239272
#
# Stress axis : x y z
#
# Youngs Moduli (GPa) = 70.83671 110.35673 79.97777
#
# Poissons Ratio (x) = 0.27812 0.24553
# Poissons Ratio (y) = 0.17852 0.08433
# Poissons Ratio (z) = 0.21747 0.11636
#
# Static dielectric constant tensor:
#      x y z
#    x 1.873260 0.000000 0.000000 
#    y 0.000000 1.845920 0.000000 
#    z 0.000000 0.000000 1.985010 
# 
# From -- ./inp_files/5064.got.cif
#   From: 2010.05.17/outbox.cif.g08.bks.cpg/sg27_3_cif.got.tgz:5064.got - 2010.06.04 01:11:05.
