data_PCOD9338017
_publ_section_title
;
Structure prediction by ZEFSAII (Michael W. Deem and Ramdas Pophale) SiO2 
 PCOD9338017
Probable space group: P M C 21
;
_chemical_formula_sum "Si O2"
_cell_formula_units_Z 32
_cell_length_a 15.940768
_cell_length_b 14.730154
_cell_length_c 8.276843
_cell_angle_alpha 90.000000
_cell_angle_beta 90.000000
_cell_angle_gamma 90.000000
_cell_volume 1943.485236
_symmetry_space_group_name_H-M "P M C 21"
_symmetry_group_IT_number 26
_symmetry_cell_setting 'orthorhombic'
loop_
_space_group_symop_operation_xyz
x,y,z
-x,-y,1/2+z
-x,y,z
x,-y,1/2+z
loop_
_atom_site_type_symbol
_atom_site_label
_atom_site_fract_x
_atom_site_fract_y
_atom_site_fract_z
Si Si1 0.092212 0.434625 0.002690
Si Si2 0.600918 0.953004 0.922959
Si Si3 0.908704 0.633833 0.872744
Si Si4 0.266203 0.636762 0.960336
Si Si5 0.596631 0.312669 0.928593
Si Si6 0.404399 0.769814 0.067890
Si Si7 0.602454 0.131372 0.085785
Si Si8 0.736888 0.557775 0.322690
O O1 0.097983 0.402495 0.187923
O O2 0.000000 0.403867 0.940267
O O3 0.090749 0.543950 0.985837
O O4 0.175148 0.410313 0.902350
O O5 0.500000 0.962214 0.911081
O O6 0.629326 0.906841 0.758167
O O7 0.617107 0.876457 0.058259
O O8 0.631772 0.053502 0.961779
O O9 0.823192 0.683207 0.920944
O O10 0.000000 0.678995 0.889350
O O11 0.272557 0.550806 0.839979
O O12 0.341569 0.707911 0.965071
O O13 0.264747 0.590863 0.138346
O O14 0.500000 0.338079 0.965969
O O15 0.596492 0.265750 0.751051
O O16 0.659681 0.395979 0.916453
O O17 0.628337 0.233322 0.046481
O O18 0.500000 0.760648 0.005826
O O19 0.500000 0.134174 0.080611
#
# Coordination Sequence:
#
# PCOD9338017 Si02
#       8
#     4   4   4   4   4   4   4   4
#     4   9  16  26  41  59  78 101 130 167 210 251
#     4   9  16  26  42  62  81 103 132 168 210 250
#     4   9  16  26  41  59  78 101 130 167 210 251
#     4  10  19  29  42  59  81 111 143 175 208 241
#     4   9  18  31  43  57  81 112 144 175 205 239
#     4   9  18  31  43  57  81 112 144 175 205 239
#     4   9  16  26  42  62  81 103 132 168 210 250
#     4  10  19  29  42  59  81 111 143 175 208 241
#
# _framework density 16.465266
#
# number of rings (size 3 to 8) (size 9 to 14) (size 15 to 20)
#    0.000    2.750    0.000    3.750    0.000    7.000 
#    0.000    0.000    0.000    0.000    0.000    0.000 
#    0.000    1.000    0.000    3.250    0.000    5.250 
#
# Total GULP energy -178164.970692 kJ/mol
# GULP energy per Si atom -5567.655334 kJ/mol
# Density = 1.642779 g / cm^3
# Si number density = 16.465266 Si / 1000 Ang^3
#
#
#
# Elastic Constant Matrix: (Units=GPa)
#
#
# Indices 1 2 3 4 5 6 
#
# 1 64.3568 10.0038 2.4795 0.0000 0.0000 0.0000
# 2 10.0038 20.5425 -5.1955 0.0000 0.0000 0.0000
# 3 2.4795 -5.1955 26.3271 0.0000 0.0000 0.0000
# 4 0.0000 0.0000 0.0000 19.1825 0.0000 0.0000
# 5 0.0000 0.0000 0.0000 0.0000 18.8173 0.0000
# 6 0.0000 0.0000 0.0000 0.0000 0.0000 0.5668
#
#
#
# Elastic Compliance Matrix: (Units=1/GPa)
#
#
# Indices 1 2 3 4 5 6 
#
# 1 0.017099 -0.009193 -0.003425 0.000000 0.000000 0.000000
# 2 -0.009193 0.056180 0.011953 0.000000 0.000000 0.000000
# 3 -0.003425 0.011953 0.040665 0.000000 0.000000 0.000000
# 4 0.000000 0.000000 0.000000 0.052131 0.000000 0.000000
# 5 0.000000 0.000000 0.000000 0.000000 0.053143 0.000000
# 6 0.000000 0.000000 0.000000 0.000000 0.000000 1.764215
#
#
# Mechanical properties :
#
#
# Convention : Reuss Voigt Hill
#
# Bulk Modulus (GPa) = 8.87993 13.97798 11.42896
# Shear Modulus (GPa) = 2.47243 14.64255 8.55749
#
# Velocity S-wave (km/s) = 1.22673 2.98535 2.28223
# Velocity P-wave (km/s) = 2.72237 4.51562 3.72842
#
# Compressibility (1/GPa) = 0.11261345
#
# Stress axis : x y z
#
# Youngs Moduli (GPa) = 58.48181 17.80005 24.59114
#
# Poissons Ratio (x) = 0.16364 0.08422
# Poissons Ratio (y) = 0.53764 -0.29393
# Poissons Ratio (z) = 0.20028 -0.21276
#
# Static dielectric constant tensor:
#      x y z
#    x 1.587300 0.000000 0.000000 
#    y 0.000000 1.536970 0.000000 
#    z 0.000000 0.000000 1.617300 
# 
# From -- ./inp_files/2289.got.cif
#   From: 2010.05.17/outbox.cif.g08.bks.cpg/sg26_2_cif.got.tgz:2289.got - 2010.06.04 01:07:29.
