data_PCOD9338349
_publ_section_title
;
Structure prediction by ZEFSAII (Michael W. Deem and Ramdas Pophale) SiO2 
 PCOD9338349
Probable space group: P M C 21
;
_chemical_formula_sum "Si O2"
_cell_formula_units_Z 32
_cell_length_a 7.899260
_cell_length_b 12.199418
_cell_length_c 15.841025
_cell_angle_alpha 90.000000
_cell_angle_beta 90.000000
_cell_angle_gamma 90.000000
_cell_volume 1526.542150
_symmetry_space_group_name_H-M "P M C 21"
_symmetry_group_IT_number 26
_symmetry_cell_setting 'orthorhombic'
loop_
_space_group_symop_operation_xyz
x,y,z
-x,-y,1/2+z
-x,y,z
x,-y,1/2+z
loop_
_atom_site_type_symbol
_atom_site_label
_atom_site_fract_x
_atom_site_fract_y
_atom_site_fract_z
Si Si1 0.201860 0.495039 0.787830
Si Si2 0.298136 0.722589 0.551002
Si Si3 0.795225 0.495508 0.480768
Si Si4 0.699619 0.096722 0.381643
Si Si5 0.302209 0.728126 0.213814
Si Si6 0.802831 0.747266 0.027636
Si Si7 0.294702 0.258629 0.236776
Si Si8 0.291769 0.152443 0.884341
O O1 0.259688 0.479478 0.884793
O O2 0.279831 0.401554 0.729287
O O3 0.244867 0.618190 0.761581
O O4 0.000000 0.481212 0.784794
O O5 0.500000 0.738647 0.551447
O O6 0.264038 0.593487 0.540145
O O7 0.233495 0.763033 0.641528
O O8 0.231544 0.784437 0.468131
O O9 0.734309 0.374523 0.506269
O O10 0.000000 0.494243 0.482937
O O11 0.500000 0.085426 0.364784
O O12 0.719934 0.161154 0.469282
O O13 0.769780 0.173189 0.306639
O O14 0.766466 0.973337 0.384949
O O15 0.500000 0.753605 0.205216
O O16 0.216400 0.764051 0.127204
O O17 0.237416 0.787173 0.298547
O O18 0.000000 0.747237 0.004728
O O19 0.500000 0.254689 0.236967
O O20 0.500000 0.155710 0.885260
#
# Coordination Sequence:
#
# PCOD9338349 Si02
#       8
#     4   4   4   4   4   4   4   4
#     4  11  21  36  58  84 117 154 188 234 291 347
#     4  10  20  36  58  85 115 147 187 239 288 340
#     4  10  21  36  56  82 114 152 188 229 287 346
#     4  10  21  39  61  85 113 152 197 242 287 339
#     4  11  22  38  61  90 118 152 193 239 290 346
#     4  11  23  40  59  86 120 155 192 237 290 349
#     4  10  21  35  57  87 115 147 191 238 286 341
#     4   9  20  38  60  85 114 149 192 240 289 334
#
# _framework density 20.962409000000001
#
# number of rings (size 3 to 8) (size 9 to 14) (size 15 to 20)
#    0.000    1.750    2.500    1.875    0.000    5.000 
#    0.000    5.625    0.000    1.500    0.000    0.000 
#    0.000    0.000    0.000    0.000    0.000    0.000 
#
# Total GULP energy -178827.634634 kJ/mol
# GULP energy per Si atom -5588.363582 kJ/mol
# Density = 2.091470 g / cm^3
# Si number density = 20.962409 Si / 1000 Ang^3
#
#
#
# Elastic Constant Matrix: (Units=GPa)
#
#
# Indices 1 2 3 4 5 6 
#
# 1 17.4094 -10.0534 -6.4015 0.0000 0.0000 0.0000
# 2 -10.0534 120.0558 32.7345 0.0000 0.0000 0.0000
# 3 -6.4015 32.7345 105.6488 0.0000 0.0000 0.0000
# 4 0.0000 0.0000 0.0000 3.4311 0.0000 0.0000
# 5 0.0000 0.0000 0.0000 0.0000 13.1386 0.0000
# 6 0.0000 0.0000 0.0000 0.0000 0.0000 -106.6502
#
#
#
# Elastic Compliance Matrix: (Units=1/GPa)
#
#
# Indices 1 2 3 4 5 6 
#
# 1 0.060868 0.004469 0.002303 0.000000 0.000000 0.000000
# 2 0.004469 0.009426 -0.002650 0.000000 0.000000 0.000000
# 3 0.002303 -0.002650 0.010426 0.000000 0.000000 0.000000
# 4 0.000000 0.000000 0.000000 0.291453 0.000000 0.000000
# 5 0.000000 0.000000 0.000000 0.000000 0.076112 0.000000
# 6 0.000000 0.000000 0.000000 0.000000 0.000000 -0.009376
#
#
# Mechanical properties :
#
#
# Convention : Reuss Voigt Hill
#
# Bulk Modulus (GPa) = 11.24034 30.63035 20.93535
# Shear Modulus (GPa) = 10.86205 -2.89382 3.98411
#
# Velocity S-wave (km/s) = 2.27880 -1.17621 1.38012
# Velocity P-wave (km/s) = 3.50681 3.57759 3.54237
#
# Compressibility (1/GPa) = 0.08896525
#
# Stress axis : x y z
#
# Youngs Moduli (GPa) = 16.42901 106.08726 95.91473
#
# Poissons Ratio (x) = -0.47410 -0.22093
# Poissons Ratio (y) = -0.07342 0.25416
# Poissons Ratio (z) = -0.03784 0.28112
#
# Static dielectric constant tensor:
#      x y z
#    x 1.748580 0.000000 0.000000 
#    y 0.000000 1.716170 0.000000 
#    z 0.000000 0.000000 1.754920 
# 
# From -- ./inp_files/4213.got.cif
#   From: 2010.05.17/outbox.cif.g08.bks.cpg/sg26_3_cif.got.tgz:4213.got - 2010.06.04 01:07:29.
