data_PCOD9338139
_publ_section_title
;
Structure prediction by ZEFSAII (Michael W. Deem and Ramdas Pophale) SiO2 
 PCOD9338139
Probable space group: P M C 21
;
_chemical_formula_sum "Si O2"
_cell_formula_units_Z 32
_cell_length_a 13.893694
_cell_length_b 15.137402
_cell_length_c 8.550828
_cell_angle_alpha 90.000000
_cell_angle_beta 90.000000
_cell_angle_gamma 90.000000
_cell_volume 1798.362528
_symmetry_space_group_name_H-M "P M C 21"
_symmetry_group_IT_number 26
_symmetry_cell_setting 'orthorhombic'
loop_
_space_group_symop_operation_xyz
x,y,z
-x,-y,1/2+z
-x,y,z
x,-y,1/2+z
loop_
_atom_site_type_symbol
_atom_site_label
_atom_site_fract_x
_atom_site_fract_y
_atom_site_fract_z
Si Si1 0.886242 0.042454 0.964840
Si Si2 0.191497 0.790291 0.642707
Si Si3 0.197132 0.883817 0.141997
Si Si4 0.390457 0.125025 0.144360
Si Si5 0.883921 0.453109 0.636462
Si Si6 0.883505 0.627464 0.473211
Si Si7 0.390672 0.064125 0.784276
Si Si8 0.115100 0.720084 0.969736
O O1 0.857397 0.079895 0.795746
O O2 0.000000 0.026496 0.973212
O O3 0.854655 0.116810 0.089855
O O4 0.829805 0.952931 0.005428
O O5 0.304464 0.806875 0.668297
O O6 0.168358 0.719011 0.508750
O O7 0.143985 0.752109 0.798510
O O8 0.309282 0.887420 0.184648
O O9 0.161400 0.788092 0.092027
O O10 0.500000 0.157862 0.163575
O O11 0.376984 0.040325 0.256059
O O12 0.380738 0.089040 0.966141
O O13 0.852880 0.552125 0.597184
O O14 0.854685 0.380009 0.508747
O O15 0.000000 0.457881 0.630563
O O16 0.859861 0.413919 0.805082
O O17 0.000000 0.641289 0.481352
O O18 0.500000 0.084803 0.734487
O O19 0.000000 0.724842 0.985948
#
# Coordination Sequence:
#
# PCOD9338139 Si02
#       8
#     4   4   4   4   4   4   4   4
#     4  12  23  34  49  72 109 149 185 216 261 331
#     4  12  22  35  54  80 108 145 183 227 275 331
#     4  12  22  37  51  75 105 149 185 224 277 322
#     4  10  22  39  58  80 105 140 185 241 289 326
#     4   9  19  35  55  80 111 147 185 228 267 314
#     4  10  19  34  56  82 113 146 183 224 272 323
#     4  10  20  38  58  77 102 137 186 239 281 318
#     4  11  23  36  52  78 115 151 187 225 265 323
#
# _framework density 17.793965
#
# number of rings (size 3 to 8) (size 9 to 14) (size 15 to 20)
#    0.000    1.250    2.500    4.500    1.750    3.000 
#    0.000    0.000    0.000    0.000    0.000    4.375 
#    0.000    0.000    0.000    0.000    0.000    0.000 
#
# Total GULP energy -178863.376199 kJ/mol
# GULP energy per Si atom -5589.480506 kJ/mol
# Density = 1.775347 g / cm^3
# Si number density = 17.793965 Si / 1000 Ang^3
#
#
#
# Elastic Constant Matrix: (Units=GPa)
#
#
# Indices 1 2 3 4 5 6 
#
# 1 74.0161 21.9447 -5.8998 0.0000 0.0000 0.0000
# 2 21.9447 57.6952 -7.2475 0.0000 0.0000 0.0000
# 3 -5.8998 -7.2475 25.4151 0.0000 0.0000 0.0000
# 4 0.0000 0.0000 0.0000 29.5694 0.0000 0.0000
# 5 0.0000 0.0000 0.0000 0.0000 20.7414 0.0000
# 6 0.0000 0.0000 0.0000 0.0000 0.0000 5.9649
#
#
#
# Elastic Compliance Matrix: (Units=1/GPa)
#
#
# Indices 1 2 3 4 5 6 
#
# 1 0.015322 -0.005581 0.001965 0.000000 0.000000 0.000000
# 2 -0.005581 0.020009 0.004410 0.000000 0.000000 0.000000
# 3 0.001965 0.004410 0.041061 0.000000 0.000000 0.000000
# 4 0.000000 0.000000 0.000000 0.033819 0.000000 0.000000
# 5 0.000000 0.000000 0.000000 0.000000 0.048213 0.000000
# 6 0.000000 0.000000 0.000000 0.000000 0.000000 0.167647
#
#
# Mechanical properties :
#
#
# Convention : Reuss Voigt Hill
#
# Bulk Modulus (GPa) = 12.82357 19.41344 16.11850
# Shear Modulus (GPa) = 14.26640 21.14376 17.70508
#
# Velocity S-wave (km/s) = 2.83460 3.45085 3.15779
# Velocity P-wave (km/s) = 4.23505 5.17799 4.73007
#
# Compressibility (1/GPa) = 0.07798143
#
# Stress axis : x y z
#
# Youngs Moduli (GPa) = 65.26612 49.97700 24.35424
#
# Poissons Ratio (x) = 0.27892 -0.04786
# Poissons Ratio (y) = 0.36424 -0.10741
# Poissons Ratio (z) = -0.12827 -0.22042
#
# Static dielectric constant tensor:
#      x y z
#    x 1.596770 0.000000 0.000000 
#    y 0.000000 1.587560 0.000000 
#    z 0.000000 0.000000 1.662150 
# 
# From -- ./inp_files/2249.got.cif
#   From: 2010.05.17/outbox.cif.g08.bks.cpg/sg26_2_cif.got.tgz:2249.got - 2010.06.04 01:07:29.
