data_PCOD9338067
_publ_section_title
;
Structure prediction by ZEFSAII (Michael W. Deem and Ramdas Pophale) SiO2 
 PCOD9338067
Probable space group: P M C 21
;
_chemical_formula_sum "Si O2"
_cell_formula_units_Z 32
_cell_length_a 13.939843
_cell_length_b 8.888949
_cell_length_c 13.515829
_cell_angle_alpha 90.000000
_cell_angle_beta 90.000000
_cell_angle_gamma 90.000000
_cell_volume 1674.753852
_symmetry_space_group_name_H-M "P M C 21"
_symmetry_group_IT_number 26
_symmetry_cell_setting 'orthorhombic'
loop_
_space_group_symop_operation_xyz
x,y,z
-x,-y,1/2+z
-x,y,z
x,-y,1/2+z
loop_
_atom_site_type_symbol
_atom_site_label
_atom_site_fract_x
_atom_site_fract_y
_atom_site_fract_z
Si Si1 0.388041 0.240357 0.443750
Si Si2 0.234985 0.187770 0.856111
Si Si3 0.737825 0.008724 0.053587
Si Si4 0.107412 0.185314 0.672630
Si Si5 0.702812 0.905520 0.762938
Si Si6 0.240275 0.498494 0.439400
Si Si7 0.895057 0.534051 0.609945
Si Si8 0.110951 0.722929 0.811656
O O1 0.500000 0.251169 0.462942
O O2 0.337983 0.109317 0.508322
O O3 0.366581 0.194980 0.329398
O O4 0.330653 0.394203 0.462109
O O5 0.141993 0.186413 0.786096
O O6 0.264401 0.360680 0.869759
O O7 0.307764 0.079245 0.796286
O O8 0.225630 0.109604 0.962890
O O9 0.822638 0.912798 0.104464
O O10 0.694920 0.103151 0.145268
O O11 0.110227 0.358155 0.637754
O O12 0.000000 0.126508 0.664323
O O13 0.811201 0.855355 0.796115
O O14 0.191059 0.565343 0.536567
O O15 0.159411 0.389071 0.391130
O O16 0.889954 0.632443 0.708571
O O17 0.000000 0.562297 0.563343
O O18 0.000000 0.763436 0.835884
#
# Coordination Sequence:
#
# PCOD9338067 Si02
#       8
#     4   4   4   4   4   4   4   4
#     4  10  22  40  62  86 112 149 196 248 304 358
#     4  10  21  36  58  84 116 155 194 238 292 346
#     4  10  20  40  60  87 116 159 193 240 301 349
#     4  10  20  35  55  86 124 158 197 237 279 337
#     4   9  21  38  59  85 119 151 189 241 300 349
#     4  11  20  36  58  81 114 152 196 246 289 348
#     4  10  19  32  54  82 114 154 196 235 279 332
#     4  10  20  35  55  83 117 158 198 237 287 343
#
# _framework density 19.107285999999998
#
# number of rings (size 3 to 8) (size 9 to 14) (size 15 to 20)
#    0.000    2.000    2.500    1.125    0.000    3.500 
#    0.000    2.500    0.000   15.750    0.000    0.000 
#    0.000    0.000    0.000    0.000    0.000    0.000 
#
# Total GULP energy -178516.777373 kJ/mol
# GULP energy per Si atom -5578.649293 kJ/mol
# Density = 1.906380 g / cm^3
# Si number density = 19.107286 Si / 1000 Ang^3
#
#
#
# Elastic Constant Matrix: (Units=GPa)
#
#
# Indices 1 2 3 4 5 6 
#
# 1 121.4833 32.6892 31.4843 0.0000 0.0000 0.0000
# 2 32.6892 64.5804 9.8580 0.0000 0.0000 0.0000
# 3 31.4843 9.8580 90.8770 0.0000 0.0000 0.0000
# 4 0.0000 0.0000 0.0000 29.4204 0.0000 0.0000
# 5 0.0000 0.0000 0.0000 0.0000 13.8453 0.0000
# 6 0.0000 0.0000 0.0000 0.0000 0.0000 8.2519
#
#
#
# Elastic Compliance Matrix: (Units=1/GPa)
#
#
# Indices 1 2 3 4 5 6 
#
# 1 0.010301 -0.004748 -0.003054 0.000000 0.000000 0.000000
# 2 -0.004748 0.017934 -0.000301 0.000000 0.000000 0.000000
# 3 -0.003054 -0.000301 0.012094 0.000000 0.000000 0.000000
# 4 0.000000 0.000000 0.000000 0.033990 0.000000 0.000000
# 5 0.000000 0.000000 0.000000 0.000000 0.072226 0.000000
# 6 0.000000 0.000000 0.000000 0.000000 0.000000 0.121185
#
#
# Mechanical properties :
#
#
# Convention : Reuss Voigt Hill
#
# Bulk Modulus (GPa) = 41.45108 47.22264 44.33686
# Shear Modulus (GPa) = 17.12475 23.83081 20.47778
#
# Velocity S-wave (km/s) = 2.99698 3.53542 3.27727
# Velocity P-wave (km/s) = 5.80662 6.43690 6.12986
#
# Compressibility (1/GPa) = 0.02412483
#
# Stress axis : x y z
#
# Youngs Moduli (GPa) = 97.08239 55.76101 82.68295
#
# Poissons Ratio (x) = 0.26474 0.25248
# Poissons Ratio (y) = 0.46093 0.02485
# Poissons Ratio (z) = 0.29645 0.01676
#
# Static dielectric constant tensor:
#      x y z
#    x 1.645990 0.000000 0.000000 
#    y 0.000000 1.687550 0.000000 
#    z 0.000000 0.000000 1.691530 
# 
# From -- ./inp_files/4562.got.cif
#   From: 2010.05.17/outbox.cif.g08.bks.cpg/sg26_3_cif.got.tgz:4562.got - 2010.06.04 01:07:29.
