data_PCOD9338389
_publ_section_title
;
Structure prediction by ZEFSAII (Michael W. Deem and Ramdas Pophale) SiO2 
 PCOD9338389
Probable space group: P M C 21
;
_chemical_formula_sum "Si O2"
_cell_formula_units_Z 32
_cell_length_a 8.331797
_cell_length_b 15.796686
_cell_length_c 11.500005
_cell_angle_alpha 90.000000
_cell_angle_beta 90.000000
_cell_angle_gamma 90.000000
_cell_volume 1513.570640
_symmetry_space_group_name_H-M "P M C 21"
_symmetry_group_IT_number 26
_symmetry_cell_setting 'orthorhombic'
loop_
_space_group_symop_operation_xyz
x,y,z
-x,-y,1/2+z
-x,y,z
x,-y,1/2+z
loop_
_atom_site_type_symbol
_atom_site_label
_atom_site_fract_x
_atom_site_fract_y
_atom_site_fract_z
Si Si1 0.809024 0.990397 0.125000
Si Si2 0.813975 0.161205 0.456954
Si Si3 0.806323 0.555875 0.435313
Si Si4 0.692046 0.741468 0.492096
Si Si5 0.187235 0.471924 0.676000
Si Si6 0.187923 0.156562 0.792511
Si Si7 0.317707 0.293962 0.619466
Si Si8 0.686078 0.838505 0.707276
O O1 0.785172 0.937263 0.244572
O O2 0.000000 0.008283 0.111845
O O3 0.711259 0.075889 0.134097
O O4 0.760642 0.923910 0.024375
O O5 0.721470 0.243916 0.501677
O O6 0.792727 0.153083 0.320785
O O7 0.000000 0.172467 0.489602
O O8 0.762276 0.654857 0.442046
O O9 0.747920 0.518696 0.309590
O O10 0.745392 0.516968 0.558676
O O11 0.000000 0.546988 0.433941
O O12 0.500000 0.740957 0.479562
O O13 0.764910 0.820123 0.421689
O O14 0.730106 0.758842 0.626740
O O15 0.204748 0.372587 0.646857
O O16 0.000000 0.496283 0.681822
O O17 0.289138 0.221613 0.715089
O O18 0.000000 0.174435 0.774343
O O19 0.500000 0.324369 0.622375
O O20 0.500000 0.831280 0.741187
#
# Coordination Sequence:
#
# PCOD9338389 Si02
#       8
#     4   4   4   4   4   4   4   4
#     4   9  21  39  60  87 115 154 205 255 304 361
#     4  10  22  41  62  86 118 159 208 256 302 367
#     4  10  22  40  64  91 124 164 213 265 317 381
#     4  11  24  40  59  89 125 163 204 252 314 378
#     4  10  21  39  62  92 124 162 210 261 314 381
#     4  10  20  37  62  88 116 155 203 252 296 357
#     4  11  21  36  62  92 120 155 195 247 312 367
#     4  11  25  40  57  87 126 162 200 254 317 376
#
# _framework density 21.142060000000001
#
# number of rings (size 3 to 8) (size 9 to 14) (size 15 to 20)
#    0.000    1.750    1.250    3.375    1.750    6.500 
#    0.000    1.250    0.000    0.000    0.000    0.000 
#    0.000    0.000    0.000    0.000    0.000    0.000 
#
# Total GULP energy -178583.610332 kJ/mol
# GULP energy per Si atom -5580.737823 kJ/mol
# Density = 2.109394 g / cm^3
# Si number density = 21.142060 Si / 1000 Ang^3
#
#
#
# Elastic Constant Matrix: (Units=GPa)
#
#
# Indices 1 2 3 4 5 6 
#
# 1 16.6788 -2.4497 15.7382 0.0000 0.0000 0.0000
# 2 -2.4497 32.5459 32.7651 0.0000 0.0000 0.0000
# 3 15.7382 32.7651 136.7184 0.0000 0.0000 0.0000
# 4 0.0000 0.0000 0.0000 25.0067 0.0000 0.0000
# 5 0.0000 0.0000 0.0000 0.0000 22.0281 0.0000
# 6 0.0000 0.0000 0.0000 0.0000 0.0000 466.4119
#
#
#
# Elastic Compliance Matrix: (Units=1/GPa)
#
#
# Indices 1 2 3 4 5 6 
#
# 1 0.075190 0.018944 -0.013195 0.000000 0.000000 0.000000
# 2 0.018944 0.045269 -0.013030 0.000000 0.000000 0.000000
# 3 -0.013195 -0.013030 0.011956 0.000000 0.000000 0.000000
# 4 0.000000 0.000000 0.000000 0.039989 0.000000 0.000000
# 5 0.000000 0.000000 0.000000 0.000000 0.045396 0.000000
# 6 0.000000 0.000000 0.000000 0.000000 0.000000 0.002144
#
#
# Mechanical properties :
#
#
# Convention : Reuss Voigt Hill
#
# Bulk Modulus (GPa) = 8.48517 30.89447 19.68982
# Shear Modulus (GPa) = 18.26209 112.01533 65.13871
#
# Velocity S-wave (km/s) = 2.94220 7.28679 5.55670
# Velocity P-wave (km/s) = 3.94515 9.24342 7.10651
#
# Compressibility (1/GPa) = 0.11785263
#
# Stress axis : x y z
#
# Youngs Moduli (GPa) = 13.29965 22.09009 83.64088
#
# Poissons Ratio (x) = -0.41847 1.10367
# Poissons Ratio (y) = -0.25195 1.08981
# Poissons Ratio (z) = 0.17549 0.28783
#
# Static dielectric constant tensor:
#      x y z
#    x 1.730150 0.000000 0.000000 
#    y 0.000000 1.720580 0.000000 
#    z 0.000000 0.000000 1.844550 
# 
# From -- ./inp_files/3028.got.cif
#   From: 2010.05.17/outbox.cif.g08.bks.cpg/sg26_2_cif.got.tgz:3028.got - 2010.06.04 01:07:29.
