data_PCOD9338653
_publ_section_title
;
Structure prediction by ZEFSAII (Michael W. Deem and Ramdas Pophale) SiO2 
 PCOD9338653
Probable space group: P M C 21
;
_chemical_formula_sum "Si O2"
_cell_formula_units_Z 24
_cell_length_a 8.779503
_cell_length_b 13.434744
_cell_length_c 10.216336
_cell_angle_alpha 90.000000
_cell_angle_beta 90.000000
_cell_angle_gamma 90.000000
_cell_volume 1205.020665
_symmetry_space_group_name_H-M "P M C 21"
_symmetry_group_IT_number 26
_symmetry_cell_setting 'orthorhombic'
loop_
_space_group_symop_operation_xyz
x,y,z
-x,-y,1/2+z
-x,y,z
x,-y,1/2+z
loop_
_atom_site_type_symbol
_atom_site_label
_atom_site_fract_x
_atom_site_fract_y
_atom_site_fract_z
Si Si1 0.819471 0.574254 0.461060
Si Si2 0.819306 0.079948 0.083022
Si Si3 0.678964 0.559670 0.738111
Si Si4 0.680087 0.209865 0.315032
Si Si5 0.181042 0.843117 0.093217
Si Si6 0.681423 0.217722 0.867388
O O1 0.737800 0.538259 0.592939
O O2 0.773229 0.502553 0.342883
O O3 0.757933 0.683866 0.426919
O O4 0.000000 0.576989 0.479965
O O5 0.758132 0.136150 0.211333
O O6 0.000000 0.097502 0.069823
O O7 0.794159 0.962188 0.093913
O O8 0.735900 0.125879 0.957064
O O9 0.500000 0.535478 0.750271
O O10 0.698465 0.677204 0.765063
O O11 0.500000 0.188116 0.321442
O O12 0.753674 0.198156 0.457476
O O13 0.262986 0.797375 0.219342
O O14 0.000000 0.824613 0.101563
O O15 0.500000 0.227116 0.873570
#
# Coordination Sequence:
#
# PCOD9338653 Si02
#       6
#     4   4   4   4   4   4
#     4  12  26  45  71 100 131 172 218 266 324 389
#     4  11  23  42  67  95 131 174 219 269 325 386
#     4  11  25  46  70  98 134 171 213 269 328 386
#     4  11  24  42  67  97 131 172 215 266 326 385
#     4  11  25  42  64  96 134 175 219 269 323 384
#     4  12  25  43  67  96 133 174 218 271 326 384
#
# _framework density 19.916671999999998
#
# number of rings (size 3 to 8) (size 9 to 14) (size 15 to 20)
#    0.000    0.667    1.667    6.000    2.333    8.667 
#    0.000    0.000    0.000    0.000    0.000    0.000 
#    0.000    0.000    0.000    0.000    0.000    0.000 
#
# Total GULP energy -134421.675731 kJ/mol
# GULP energy per Si atom -5600.903155 kJ/mol
# Density = 1.987134 g / cm^3
# Si number density = 19.916672 Si / 1000 Ang^3
#
#
#
# Elastic Constant Matrix: (Units=GPa)
#
#
# Indices 1 2 3 4 5 6 
#
# 1 60.6596 7.5304 -10.9025 0.0000 0.0000 0.0000
# 2 7.5304 14.4772 -12.1472 0.0000 0.0000 0.0000
# 3 -10.9025 -12.1472 104.6887 0.0000 0.0000 0.0000
# 4 0.0000 0.0000 0.0000 37.6230 0.0000 0.0000
# 5 0.0000 0.0000 0.0000 0.0000 43.4953 0.0000
# 6 0.0000 0.0000 0.0000 0.0000 0.0000 12.7885
#
#
#
# Elastic Compliance Matrix: (Units=1/GPa)
#
#
# Indices 1 2 3 4 5 6 
#
# 1 0.017693 -0.008483 0.000858 0.000000 0.000000 0.000000
# 2 -0.008483 0.080591 0.008468 0.000000 0.000000 0.000000
# 3 0.000858 0.008468 0.010624 0.000000 0.000000 0.000000
# 4 0.000000 0.000000 0.000000 0.026580 0.000000 0.000000
# 5 0.000000 0.000000 0.000000 0.000000 0.022991 0.000000
# 6 0.000000 0.000000 0.000000 0.000000 0.000000 0.078195
#
#
# Mechanical properties :
#
#
# Convention : Reuss Voigt Hill
#
# Bulk Modulus (GPa) = 9.04204 16.53188 12.78696
# Shear Modulus (GPa) = 18.39232 31.80433 25.09833
#
# Velocity S-wave (km/s) = 3.04215 4.00042 3.55373
# Velocity P-wave (km/s) = 4.10967 5.44577 4.82420
#
# Compressibility (1/GPa) = 0.11059454
#
# Stress axis : x y z
#
# Youngs Moduli (GPa) = 56.52029 12.40827 94.12624
#
# Poissons Ratio (x) = 0.10526 -0.08079
# Poissons Ratio (y) = 0.47945 -0.79703
# Poissons Ratio (z) = -0.04851 -0.10507
#
# Static dielectric constant tensor:
#      x y z
#    x 1.662990 0.000000 0.000000 
#    y 0.000000 1.683520 0.000000 
#    z 0.000000 0.000000 1.662830 
# 
# From -- ./inp_files/1422.got.cif
#   From: 2010.05.17/outbox.cif.g08.bks.cpg/sg26_1_cif.got.tgz:1422.got - 2010.06.04 01:07:29.
