data_PCOD9338927
_publ_section_title
;
Structure prediction by ZEFSAII (Michael W. Deem and Ramdas Pophale) SiO2 
 PCOD9338927
Probable space group: P C C 2
;
_chemical_formula_sum "Si O2"
_cell_formula_units_Z 30
_cell_length_a 10.498950
_cell_length_b 6.630090
_cell_length_c 19.751898
_cell_angle_alpha 90.000000
_cell_angle_beta 90.000000
_cell_angle_gamma 90.000000
_cell_volume 1374.909540
_symmetry_space_group_name_H-M "P C C 2"
_symmetry_group_IT_number 27
_symmetry_cell_setting 'orthorhombic'
loop_
_space_group_symop_operation_xyz
x,y,z
-x,-y,z
-x,y,1/2+z
x,-y,1/2+z
loop_
_atom_site_type_symbol
_atom_site_label
_atom_site_fract_x
_atom_site_fract_y
_atom_site_fract_z
Si Si1 0.666001 0.275186 0.610860
Si Si2 0.500000 0.000000 0.360385
Si Si3 0.610182 0.666282 0.959140
Si Si4 0.759615 0.188532 0.809629
Si Si5 0.373072 0.517742 0.235873
Si Si6 0.777452 0.093027 0.193018
Si Si7 0.860769 0.395474 0.938552
Si Si8 0.126445 0.625584 0.087836
O O1 0.608525 0.252229 0.536579
O O2 0.589239 0.367218 0.673797
O O3 0.766310 0.457919 0.601621
O O4 0.719119 0.067672 0.640309
O O5 0.572733 0.160328 0.407451
O O6 0.384275 0.104716 0.320184
O O7 0.500000 0.500000 0.955765
O O8 0.746607 0.562612 0.941651
O O9 0.742808 0.403230 0.772246
O O10 0.828771 0.237449 0.879579
O O11 0.823089 0.030815 0.758180
O O12 0.500000 0.500000 0.280980
O O13 0.325303 0.739044 0.216760
O O14 0.877232 0.216311 0.148257
O O15 0.000000 0.500000 0.930117
O O16 0.854073 0.289130 0.012394
O O17 0.000000 0.500000 0.085255
#
# Coordination Sequence:
#
# PCOD9338927 Si02
#       8
#     4   2   4   4   4   4   4   4
#     4   9  21  37  60  99 127 168 224 280 349 397
#     4  12  26  38  70 102 136 182 234 286 354 420
#     4  11  23  41  69 102 138 179 230 292 342 420
#     4  11  24  40  64 101 131 181 230 281 351 415
#     4  10  21  38  61  86 131 176 212 277 349 403
#     4  10  22  40  66  93 132 173 229 291 341 418
#     4  10  23  46  70  97 144 186 225 286 356 417
#     4   9  20  42  68  92 129 179 227 285 349 411
#
# _framework density 21.819616
#
# number of rings (size 3 to 8) (size 9 to 14) (size 15 to 20)
#    0.000    1.867    1.333    1.200    5.600    4.267 
#    0.000    8.000    2.933    0.000    0.000    0.000 
#    0.000    0.000    0.000    0.000    0.000    0.000 
#
# Total GULP energy -167427.987677 kJ/mol
# GULP energy per Si atom -5580.932923 kJ/mol
# Density = 2.176995 g / cm^3
# Si number density = 21.819616 Si / 1000 Ang^3
#
#
#
# Elastic Constant Matrix: (Units=GPa)
#
#
# Indices 1 2 3 4 5 6 
#
# 1 61.7451 6.8895 30.7233 0.0000 0.0000 0.0000
# 2 6.8895 88.5542 69.3228 0.0000 0.0000 0.0000
# 3 30.7233 69.3228 147.3496 0.0000 0.0000 0.0000
# 4 0.0000 0.0000 0.0000 50.9982 0.0000 0.0000
# 5 0.0000 0.0000 0.0000 0.0000 16.2799 0.0000
# 6 0.0000 0.0000 0.0000 0.0000 0.0000 11.0625
#
#
#
# Elastic Compliance Matrix: (Units=1/GPa)
#
#
# Indices 1 2 3 4 5 6 
#
# 1 0.018411 0.002490 -0.005010 0.000000 0.000000 0.000000
# 2 0.002490 0.018213 -0.009088 0.000000 0.000000 0.000000
# 3 -0.005010 -0.009088 0.012107 0.000000 0.000000 0.000000
# 4 0.000000 0.000000 0.000000 0.019609 0.000000 0.000000
# 5 0.000000 0.000000 0.000000 0.000000 0.061425 0.000000
# 6 0.000000 0.000000 0.000000 0.000000 0.000000 0.090396
#
#
# Mechanical properties :
#
#
# Convention : Reuss Voigt Hill
#
# Bulk Modulus (GPa) = 39.19384 56.83555 48.01470
# Shear Modulus (GPa) = 19.85068 28.38235 24.11652
#
# Velocity S-wave (km/s) = 3.01950 3.61053 3.32816
# Velocity P-wave (km/s) = 5.49165 6.59437 6.06811
#
# Compressibility (1/GPa) = 0.02551421
#
# Stress axis : x y z
#
# Youngs Moduli (GPa) = 54.31612 54.90623 82.59954
#
# Poissons Ratio (x) = -0.13670 0.41383
# Poissons Ratio (y) = -0.13523 0.75063
# Poissons Ratio (z) = 0.27213 0.49897
#
# Static dielectric constant tensor:
#      x y z
#    x 1.781900 0.000000 0.000000 
#    y 0.000000 1.846520 0.000000 
#    z 0.000000 0.000000 1.855310 
# 
# From -- ./inp_files/4858.got.cif
#   From: 2010.05.17/outbox.cif.g08.bks.cpg/sg27_3_cif.got.tgz:4858.got - 2010.06.04 01:11:05.
