data_PCOD9338781
_publ_section_title
;
Structure prediction by ZEFSAII (Michael W. Deem and Ramdas Pophale) SiO2 
 PCOD9338781
Probable space group: P C C 2
;
_chemical_formula_sum "Si O2"
_cell_formula_units_Z 24
_cell_length_a 5.207686
_cell_length_b 7.249151
_cell_length_c 30.259125
_cell_angle_alpha 90.000000
_cell_angle_beta 90.000000
_cell_angle_gamma 90.000000
_cell_volume 1142.321371
_symmetry_space_group_name_H-M "P C C 2"
_symmetry_group_IT_number 27
_symmetry_cell_setting 'orthorhombic'
loop_
_space_group_symop_operation_xyz
x,y,z
-x,-y,z
-x,y,1/2+z
x,-y,1/2+z
loop_
_atom_site_type_symbol
_atom_site_label
_atom_site_fract_x
_atom_site_fract_y
_atom_site_fract_z
Si Si1 0.558765 0.777575 0.005000
Si Si2 0.750059 0.370161 0.875802
Si Si3 0.250368 0.130608 0.095846
Si Si4 0.750908 0.872401 0.192194
Si Si5 0.749215 0.627332 0.279009
Si Si6 0.059112 0.785418 0.964182
O O1 0.690370 0.749880 0.052580
O O2 0.500000 0.000000 0.000606
O O3 0.271877 0.703945 0.997635
O O4 0.771050 0.707989 0.969854
O O5 0.500000 0.500000 0.881088
O O6 0.737603 0.276455 0.827319
O O7 0.806161 0.236822 0.916781
O O8 0.000000 0.500000 0.875177
O O9 0.234617 0.225399 0.143950
O O10 0.500000 0.000000 0.098623
O O11 0.000000 0.000000 0.089169
O O12 0.750728 0.750250 0.235653
O O13 0.500000 0.000000 0.193281
O O14 0.000000 0.000000 0.193515
O O15 0.500000 0.500000 0.277214
O O16 0.000000 0.500000 0.278206
O O17 0.000000 0.000000 0.973244
#
# Coordination Sequence:
#
# PCOD9338781 Si02
#       6
#     4   4   4   4   4   4
#     4   9  16  28  47  74 104 131 162 203 252 303
#     4  10  21  37  54  72 100 140 175 205 257 322
#     4   9  16  28  48  75 105 134 165 205 256 310
#     4  10  20  34  56  84 107 133 176 226 264 300
#     4  10  21  38  57  76 105 145 178 210 266 330
#     4  10  19  31  51  77 100 127 169 215 250 287
#
# _framework density 21.009848999999999
#
# number of rings (size 3 to 8) (size 9 to 14) (size 15 to 20)
#    0.000    2.333    0.000    4.500    0.000    0.667 
#    0.000    2.500    0.000    6.000    0.000    0.000 
#    0.000    0.000    0.000    0.000    0.000    0.000 
#
# Total GULP energy -133737.032403 kJ/mol
# GULP energy per Si atom -5572.376350 kJ/mol
# Density = 2.096203 g / cm^3
# Si number density = 21.009849 Si / 1000 Ang^3
#
#
#
# Elastic Constant Matrix: (Units=GPa)
#
#
# Indices 1 2 3 4 5 6 
#
# 1 181.8034 20.1191 55.3025 0.0000 0.0000 0.0000
# 2 20.1191 17.5299 17.7469 0.0000 0.0000 0.0000
# 3 55.3025 17.7469 188.0063 0.0000 0.0000 0.0000
# 4 0.0000 0.0000 0.0000 -4.0376 0.0000 0.0000
# 5 0.0000 0.0000 0.0000 0.0000 33.9509 0.0000
# 6 0.0000 0.0000 0.0000 0.0000 0.0000 9.7979
#
#
#
# Elastic Compliance Matrix: (Units=1/GPa)
#
#
# Indices 1 2 3 4 5 6 
#
# 1 0.006599 -0.006201 -0.001356 0.000000 0.000000 0.000000
# 2 -0.006201 0.068900 -0.004680 0.000000 0.000000 0.000000
# 3 -0.001356 -0.004680 0.006160 0.000000 0.000000 0.000000
# 4 0.000000 0.000000 0.000000 -0.247672 0.000000 0.000000
# 5 0.000000 0.000000 0.000000 0.000000 0.029454 0.000000
# 6 0.000000 0.000000 0.000000 0.000000 0.000000 0.102063
#
#
# Mechanical properties :
#
#
# Convention : Reuss Voigt Hill
#
# Bulk Modulus (GPa) = 17.48695 63.74182 40.61439
# Shear Modulus (GPa) = 553.12290 27.55364 290.33827
#
# Velocity S-wave (km/s) = 16.24315 3.62534 11.76824
# Velocity P-wave (km/s) = 18.97703 6.92308 14.28385
#
# Compressibility (1/GPa) = 0.05718549
#
# Stress axis : x y z
#
# Youngs Moduli (GPa) = 151.53551 14.51370 162.35020
#
# Poissons Ratio (x) = 0.09000 0.22011
# Poissons Ratio (y) = 0.93971 0.75976
# Poissons Ratio (z) = 0.20545 0.06792
#
# Static dielectric constant tensor:
#      x y z
#    x 1.751810 0.000000 0.000000 
#    y 0.000000 1.828650 0.000000 
#    z 0.000000 0.000000 1.859180 
# 
# From -- ./inp_files/4970.got.cif
#   From: 2010.05.17/outbox.cif.g08.bks.cpg/sg27_3_cif.got.tgz:4970.got - 2010.06.04 01:11:05.
