data_PCOD9338340
_publ_section_title
;
Structure prediction by ZEFSAII (Michael W. Deem and Ramdas Pophale) SiO2 
 PCOD9338340
Probable space group: P M C 21
;
_chemical_formula_sum "Si O2"
_cell_formula_units_Z 32
_cell_length_a 7.788834
_cell_length_b 12.725669
_cell_length_c 14.879225
_cell_angle_alpha 90.000000
_cell_angle_beta 90.000000
_cell_angle_gamma 90.000000
_cell_volume 1474.800859
_symmetry_space_group_name_H-M "P M C 21"
_symmetry_group_IT_number 26
_symmetry_cell_setting 'orthorhombic'
loop_
_space_group_symop_operation_xyz
x,y,z
-x,-y,1/2+z
-x,y,z
x,-y,1/2+z
loop_
_atom_site_type_symbol
_atom_site_label
_atom_site_fract_x
_atom_site_fract_y
_atom_site_fract_z
Si Si1 0.699918 0.298422 0.636230
Si Si2 0.701941 0.003121 0.336716
Si Si3 0.804104 0.227511 0.826137
Si Si4 0.800117 0.351362 0.355800
Si Si5 0.797202 0.488308 0.512293
Si Si6 0.789582 0.276984 0.024150
Si Si7 0.291496 0.157059 0.482555
Si Si8 0.790847 0.802676 0.710388
O O1 0.500000 0.308475 0.616523
O O2 0.723943 0.286101 0.741598
O O3 0.779480 0.400383 0.589186
O O4 0.758138 0.192306 0.582939
O O5 0.500000 0.978874 0.341962
O O6 0.795303 0.897041 0.310342
O O7 0.762706 0.050165 0.433177
O O8 0.727412 0.095945 0.264431
O O9 0.000000 0.263995 0.829157
O O10 0.728845 0.245619 0.925110
O O11 0.723167 0.443693 0.417583
O O12 0.784477 0.250763 0.421891
O O13 0.730698 0.303135 0.263257
O O14 0.000000 0.376619 0.339352
O O15 0.733696 0.602637 0.539269
O O16 0.000000 0.500312 0.496440
O O17 0.734639 0.205195 0.107409
O O18 0.000000 0.272097 0.024755
O O19 0.500000 0.158485 0.474832
O O20 0.000000 0.804106 0.714840
#
# Coordination Sequence:
#
# PCOD9338340 Si02
#       8
#     4   4   4   4   4   4   4   4
#     4  10  20  36  56  81 110 143 183 225 266 318
#     4  10  20  36  56  79 106 139 176 222 276 327
#     4  11  23  38  54  77 109 146 183 222 266 318
#     4   8  14  25  48  78 104 130 168 213 257 305
#     4   9  17  33  56  82 109 141 177 218 267 318
#     4   9  20  36  55  80 111 143 181 224 267 316
#     4   8  16  31  52  75 102 133 169 213 263 314
#     4   9  17  33  55  80 107 139 179 223 266 318
#
# _framework density 21.697845000000001
#
# number of rings (size 3 to 8) (size 9 to 14) (size 15 to 20)
#    0.000    2.750    0.000    1.125    0.000    3.000 
#    0.000    9.375    0.000    6.000    0.000    0.000 
#    0.000    0.000    0.000    0.000    0.000    0.000 
#
# Total GULP energy -178348.238626 kJ/mol
# GULP energy per Si atom -5573.382457 kJ/mol
# Density = 2.164846 g / cm^3
# Si number density = 21.697845 Si / 1000 Ang^3
#
#
#
# Elastic Constant Matrix: (Units=GPa)
#
#
# Indices 1 2 3 4 5 6 
#
# 1 26.0388 -7.5184 -6.8174 0.0000 0.0000 0.0000
# 2 -7.5184 62.2481 27.2663 0.0000 0.0000 0.0000
# 3 -6.8174 27.2663 127.0888 0.0000 0.0000 0.0000
# 4 0.0000 0.0000 0.0000 21.4777 0.0000 0.0000
# 5 0.0000 0.0000 0.0000 0.0000 7.9264 0.0000
# 6 0.0000 0.0000 0.0000 0.0000 0.0000 44.1668
#
#
#
# Elastic Compliance Matrix: (Units=1/GPa)
#
#
# Indices 1 2 3 4 5 6 
#
# 1 0.039964 0.004291 0.001223 0.000000 0.000000 0.000000
# 2 0.004291 0.018192 -0.003673 0.000000 0.000000 0.000000
# 3 0.001223 -0.003673 0.008722 0.000000 0.000000 0.000000
# 4 0.000000 0.000000 0.000000 0.046560 0.000000 0.000000
# 5 0.000000 0.000000 0.000000 0.000000 0.126160 0.000000
# 6 0.000000 0.000000 0.000000 0.000000 0.000000 0.022641
#
#
# Mechanical properties :
#
#
# Convention : Reuss Voigt Hill
#
# Bulk Modulus (GPa) = 14.17227 26.80407 20.48817
# Shear Modulus (GPa) = 17.72571 28.21053 22.96812
#
# Velocity S-wave (km/s) = 2.86131 3.60968 3.25706
# Velocity P-wave (km/s) = 4.17875 5.45465 4.85876
#
# Compressibility (1/GPa) = 0.07056034
#
# Stress axis : x y z
#
# Youngs Moduli (GPa) = 25.02281 54.96982 114.65129
#
# Poissons Ratio (x) = -0.23588 -0.14023
# Poissons Ratio (y) = -0.10738 0.42109
# Poissons Ratio (z) = -0.03061 0.20189
#
# Static dielectric constant tensor:
#      x y z
#    x 1.803480 0.000000 0.000000 
#    y 0.000000 1.807030 0.000000 
#    z 0.000000 0.000000 1.824560 
# 
# From -- ./inp_files/4263.got.cif
#   From: 2010.05.17/outbox.cif.g08.bks.cpg/sg26_3_cif.got.tgz:4263.got - 2010.06.04 01:07:29.
