data_PCOD9338232
_publ_section_title
;
Structure prediction by ZEFSAII (Michael W. Deem and Ramdas Pophale) SiO2 
 PCOD9338232
Probable space group: P M C 21
;
_chemical_formula_sum "Si O2"
_cell_formula_units_Z 28
_cell_length_a 9.975538
_cell_length_b 14.279782
_cell_length_c 10.257602
_cell_angle_alpha 90.000000
_cell_angle_beta 90.000000
_cell_angle_gamma 90.000000
_cell_volume 1461.180100
_symmetry_space_group_name_H-M "P M C 21"
_symmetry_group_IT_number 26
_symmetry_cell_setting 'orthorhombic'
loop_
_space_group_symop_operation_xyz
x,y,z
-x,-y,1/2+z
-x,y,z
x,-y,1/2+z
loop_
_atom_site_type_symbol
_atom_site_label
_atom_site_fract_x
_atom_site_fract_y
_atom_site_fract_z
Si Si1 0.663193 0.077375 0.586860
Si Si2 0.357720 0.396401 0.416782
Si Si3 0.847028 0.249348 0.502016
Si Si4 0.717684 0.459013 0.143413
Si Si5 0.337949 0.303232 0.955632
Si Si6 0.140943 0.380490 0.752355
Si Si7 0.661281 0.909032 0.391792
O O1 0.500000 0.092654 0.579511
O O2 0.750423 0.161314 0.526077
O O3 0.699977 0.069730 0.741178
O O4 0.697213 0.986362 0.499695
O O5 0.500000 0.346119 0.438431
O O6 0.234124 0.324690 0.416158
O O7 0.342379 0.472285 0.532452
O O8 0.359811 0.446423 0.278021
O O9 0.858467 0.303574 0.639490
O O10 0.000000 0.228082 0.459152
O O11 0.847296 0.517326 0.187861
O O12 0.721541 0.356660 0.080273
O O13 0.500000 0.310303 0.958002
O O14 0.270650 0.358577 0.836801
O O15 0.297673 0.195117 0.936442
O O16 0.000000 0.374077 0.827040
O O17 0.500000 0.907468 0.389389
#
# Coordination Sequence:
#
# PCOD9338232 Si02
#       7
#     4   4   4   4   4   4   4
#     4  10  19  38  64  90 119 156 199 250 310 366
#     4  11  22  37  59  89 120 158 201 250 309 365
#     4  10  22  39  59  85 117 157 205 250 296 358
#     4  11  23  37  59  91 125 157 201 256 305 363
#     4  11  21  37  62  93 125 157 204 259 308 365
#     4  10  22  39  59  84 118 162 205 245 298 365
#     4   9  20  35  60  94 122 153 197 252 308 366
#
# _framework density 19.162592
#
# number of rings (size 3 to 8) (size 9 to 14) (size 15 to 20)
#    0.000    1.714    2.857    1.714    0.000    5.143 
#    0.000    4.286    0.000    0.000    0.000    0.000 
#    0.000    0.000    0.000    0.000    0.000    0.000 
#
# Total GULP energy -155901.661087 kJ/mol
# GULP energy per Si atom -5567.916467 kJ/mol
# Density = 1.911898 g / cm^3
# Si number density = 19.162592 Si / 1000 Ang^3
#
#
#
# Elastic Constant Matrix: (Units=GPa)
#
#
# Indices 1 2 3 4 5 6 
#
# 1 72.9789 58.0026 26.1537 0.0000 0.0000 0.0000
# 2 58.0026 144.9087 70.2647 0.0000 0.0000 0.0000
# 3 26.1537 70.2647 98.6450 0.0000 0.0000 0.0000
# 4 0.0000 0.0000 0.0000 29.5628 0.0000 0.0000
# 5 0.0000 0.0000 0.0000 0.0000 2.2928 0.0000
# 6 0.0000 0.0000 0.0000 0.0000 0.0000 -57.3818
#
#
#
# Elastic Compliance Matrix: (Units=1/GPa)
#
#
# Indices 1 2 3 4 5 6 
#
# 1 0.020120 -0.008351 0.000614 0.000000 0.000000 0.000000
# 2 -0.008351 0.014008 -0.007764 0.000000 0.000000 0.000000
# 3 0.000614 -0.007764 0.015505 0.000000 0.000000 0.000000
# 4 0.000000 0.000000 0.000000 0.033826 0.000000 0.000000
# 5 0.000000 0.000000 0.000000 0.000000 0.436154 0.000000
# 6 0.000000 0.000000 0.000000 0.000000 0.000000 -0.017427
#
#
# Mechanical properties :
#
#
# Convention : Reuss Voigt Hill
#
# Bulk Modulus (GPa) = 53.67390 69.48607 61.57999
# Shear Modulus (GPa) = 9.26959 5.70219 7.48589
#
# Velocity S-wave (km/s) = 2.20178 1.72689 1.97863
# Velocity P-wave (km/s) = 5.87659 6.34951 6.11762
#
# Compressibility (1/GPa) = 0.01863103
#
# Stress axis : x y z
#
# Youngs Moduli (GPa) = 49.70206 71.38631 64.49624
#
# Poissons Ratio (x) = 0.59616 -0.03961
# Poissons Ratio (y) = 0.41507 0.50075
# Poissons Ratio (z) = -0.03053 0.55424
#
# Static dielectric constant tensor:
#      x y z
#    x 1.479700 0.000000 0.000000 
#    y 0.000000 1.678180 0.000000 
#    z 0.000000 0.000000 1.689330 
# 
# From -- ./inp_files/3318.got.cif
#   From: 2010.05.17/outbox.cif.g08.bks.cpg/sg26_2_cif.got.tgz:3318.got - 2010.06.04 01:07:29.
