data_PCOD9338461
_publ_section_title
;
Structure prediction by ZEFSAII (Michael W. Deem and Ramdas Pophale) SiO2 
 PCOD9338461
Probable space group: P M C 21
;
_chemical_formula_sum "Si O2"
_cell_formula_units_Z 32
_cell_length_a 8.104168
_cell_length_b 16.162293
_cell_length_c 11.431120
_cell_angle_alpha 90.000000
_cell_angle_beta 90.000000
_cell_angle_gamma 90.000000
_cell_volume 1497.270248
_symmetry_space_group_name_H-M "P M C 21"
_symmetry_group_IT_number 26
_symmetry_cell_setting 'orthorhombic'
loop_
_space_group_symop_operation_xyz
x,y,z
-x,-y,1/2+z
-x,y,z
x,-y,1/2+z
loop_
_atom_site_type_symbol
_atom_site_label
_atom_site_fract_x
_atom_site_fract_y
_atom_site_fract_z
Si Si1 0.689457 0.136460 0.729450
Si Si2 0.303374 0.266540 0.557013
Si Si3 0.302961 0.448572 0.616511
Si Si4 0.304034 0.990954 0.411615
Si Si5 0.195750 0.141326 0.099860
Si Si6 0.803696 0.731018 0.407165
Si Si7 0.803180 0.459373 0.877259
Si Si8 0.193951 0.166642 0.358024
O O1 0.500000 0.115189 0.698228
O O2 0.770387 0.186892 0.624197
O O3 0.762319 0.057114 0.795464
O O4 0.696572 0.208570 0.826921
O O5 0.500000 0.266883 0.578729
O O6 0.237368 0.353962 0.602017
O O7 0.273357 0.244537 0.422814
O O8 0.500000 0.445755 0.622423
O O9 0.259079 0.493229 0.493612
O O10 0.246219 0.483701 0.743441
O O11 0.500000 0.001033 0.399175
O O12 0.272152 0.930720 0.520755
O O13 0.224301 0.079912 0.423287
O O14 0.264054 0.149479 0.229305
O O15 0.000000 0.123357 0.105246
O O16 0.214283 0.229302 0.034914
O O17 0.752291 0.636707 0.393073
O O18 0.000000 0.738413 0.376410
O O19 0.000000 0.463621 0.882028
O O20 0.000000 0.182945 0.349033
#
# Coordination Sequence:
#
# PCOD9338461 Si02
#       8
#     4   4   4   4   4   4   4   4
#     4   9  18  35  59  85 112 147 192 243 292 348
#     4  10  22  40  61  87 120 158 204 252 303 366
#     4  11  24  43  67  95 131 172 218 270 326 391
#     4  10  21  36  58  85 114 152 197 246 301 357
#     4   9  20  39  57  81 116 152 196 247 300 363
#     4   9  18  35  61  87 113 149 193 242 299 359
#     4  11  23  40  65  98 132 169 214 269 328 391
#     4  11  24  38  56  84 120 159 200 249 305 365
#
# _framework density 21.372229000000001
#
# number of rings (size 3 to 8) (size 9 to 14) (size 15 to 20)
#    0.000    2.000    1.250    1.500    1.750    4.500 
#    0.000    1.250    0.000    0.000    0.000    0.000 
#    0.000    0.000    0.000    0.000    0.000    0.000 
#
# Total GULP energy -178466.613034 kJ/mol
# GULP energy per Si atom -5577.081657 kJ/mol
# Density = 2.132358 g / cm^3
# Si number density = 21.372229 Si / 1000 Ang^3
#
#
#
# Elastic Constant Matrix: (Units=GPa)
#
#
# Indices 1 2 3 4 5 6 
#
# 1 26.1328 5.3100 8.2529 0.0000 0.0000 0.0000
# 2 5.3100 58.9365 39.9330 0.0000 0.0000 0.0000
# 3 8.2529 39.9330 123.5971 0.0000 0.0000 0.0000
# 4 0.0000 0.0000 0.0000 25.6791 0.0000 0.0000
# 5 0.0000 0.0000 0.0000 0.0000 26.2310 0.0000
# 6 0.0000 0.0000 0.0000 0.0000 0.0000 12.3207
#
#
#
# Elastic Compliance Matrix: (Units=1/GPa)
#
#
# Indices 1 2 3 4 5 6 
#
# 1 0.039324 -0.002258 -0.001896 0.000000 0.000000 0.000000
# 2 -0.002258 0.021853 -0.006910 0.000000 0.000000 0.000000
# 3 -0.001896 -0.006910 0.010450 0.000000 0.000000 0.000000
# 4 0.000000 0.000000 0.000000 0.038942 0.000000 0.000000
# 5 0.000000 0.000000 0.000000 0.000000 0.038123 0.000000
# 6 0.000000 0.000000 0.000000 0.000000 0.000000 0.081164
#
#
# Mechanical properties :
#
#
# Convention : Reuss Voigt Hill
#
# Bulk Modulus (GPa) = 20.20272 35.07312 27.63792
# Shear Modulus (GPa) = 18.62320 23.19086 20.90703
#
# Velocity S-wave (km/s) = 2.95511 3.29765 3.13107
# Velocity P-wave (km/s) = 4.59531 5.56287 5.10208
#
# Compressibility (1/GPa) = 0.04949829
#
# Stress axis : x y z
#
# Youngs Moduli (GPa) = 25.42998 45.76133 95.69539
#
# Poissons Ratio (x) = 0.10334 0.18145
# Poissons Ratio (y) = 0.05743 0.66121
# Poissons Ratio (z) = 0.04822 0.31619
#
# Static dielectric constant tensor:
#      x y z
#    x 1.765350 0.000000 0.000000 
#    y 0.000000 1.767130 0.000000 
#    z 0.000000 0.000000 1.861560 
# 
# From -- ./inp_files/3051.got.cif
#   From: 2010.05.17/outbox.cif.g08.bks.cpg/sg26_2_cif.got.tgz:3051.got - 2010.06.04 01:07:29.
