data_PCOD9338958
_publ_section_title
;
Structure prediction by ZEFSAII (Michael W. Deem and Ramdas Pophale) SiO2 
 PCOD9338958
Probable space group: P C C 2
;
_chemical_formula_sum "Si O2"
_cell_formula_units_Z 32
_cell_length_a 7.336561
_cell_length_b 14.727921
_cell_length_c 13.247131
_cell_angle_alpha 90.000000
_cell_angle_beta 90.000000
_cell_angle_gamma 90.000000
_cell_volume 1431.382851
_symmetry_space_group_name_H-M "P C C 2"
_symmetry_group_IT_number 27
_symmetry_cell_setting 'orthorhombic'
loop_
_space_group_symop_operation_xyz
x,y,z
-x,-y,z
-x,y,1/2+z
x,-y,1/2+z
loop_
_atom_site_type_symbol
_atom_site_label
_atom_site_fract_x
_atom_site_fract_y
_atom_site_fract_z
Si Si1 0.704736 0.540959 0.579250
Si Si2 0.191618 0.236883 0.274337
Si Si3 0.395002 0.708741 0.966777
Si Si4 0.108944 0.083791 0.417128
Si Si5 0.527144 0.097222 0.011888
Si Si6 0.850994 0.168991 0.557441
Si Si7 0.195036 0.359196 0.988576
Si Si8 0.078524 0.399818 0.763894
O O1 0.500000 0.500000 0.587649
O O2 0.721943 0.619443 0.494346
O O3 0.821382 0.451567 0.551771
O O4 0.765765 0.592751 0.679652
O O5 0.356264 0.265911 0.349558
O O6 0.078055 0.170939 0.347578
O O7 0.221813 0.179881 0.171911
O O8 0.077474 0.325483 0.244689
O O9 0.379502 0.802234 0.032654
O O10 0.595734 0.673159 0.990782
O O11 0.325031 0.067025 0.427496
O O12 0.017793 0.104632 0.526523
O O13 0.000000 0.000000 0.373058
O O14 0.500000 0.000000 0.070606
O O15 0.321025 0.130907 0.993671
O O16 0.909019 0.270660 0.526901
O O17 0.154053 0.378097 0.873404
O O18 0.000000 0.500000 0.767965
#
# Coordination Sequence:
#
# PCOD9338958 Si02
#       8
#     4   4   4   4   4   4   4   4
#     4  10  23  42  64  93 130 181 223 278 337 402
#     4  11  25  41  65 102 132 173 227 284 334 414
#     4   9  22  42  65  92 126 176 222 277 339 397
#     4  11  23  45  72  95 139 176 228 283 351 416
#     4  10  21  41  69  95 124 183 216 278 345 397
#     4  11  23  44  66  99 138 175 228 278 346 411
#     4  10  22  42  66  89 134 176 220 277 333 401
#     4  12  25  37  63  98 129 173 222 271 334 405
#
# _framework density 22.356003999999999
#
# number of rings (size 3 to 8) (size 9 to 14) (size 15 to 20)
#    0.000    1.500    2.500    1.500    3.500    8.500 
#    0.000    2.500    0.000    0.000    0.000    0.000 
#    0.000    0.000    0.000    0.000    0.000    0.000 
#
# Total GULP energy -178159.216556 kJ/mol
# GULP energy per Si atom -5567.475517 kJ/mol
# Density = 2.230512 g / cm^3
# Si number density = 22.356004 Si / 1000 Ang^3
#
#
#
# Elastic Constant Matrix: (Units=GPa)
#
#
# Indices 1 2 3 4 5 6 
#
# 1 64.5111 33.6501 -7.1870 0.0000 0.0000 0.0000
# 2 33.6501 143.2687 26.2268 0.0000 0.0000 0.0000
# 3 -7.1870 26.2268 78.7973 0.0000 0.0000 0.0000
# 4 0.0000 0.0000 0.0000 12.3525 0.0000 0.0000
# 5 0.0000 0.0000 0.0000 0.0000 19.3776 0.0000
# 6 0.0000 0.0000 0.0000 0.0000 0.0000 38.1389
#
#
#
# Elastic Compliance Matrix: (Units=1/GPa)
#
#
# Indices 1 2 3 4 5 6 
#
# 1 0.018450 -0.004943 0.003328 0.000000 0.000000 0.000000
# 2 -0.004943 0.008757 -0.003365 0.000000 0.000000 0.000000
# 3 0.003328 -0.003365 0.014114 0.000000 0.000000 0.000000
# 4 0.000000 0.000000 0.000000 0.080955 0.000000 0.000000
# 5 0.000000 0.000000 0.000000 0.000000 0.051606 0.000000
# 6 0.000000 0.000000 0.000000 0.000000 0.000000 0.026220
#
#
# Mechanical properties :
#
#
# Convention : Reuss Voigt Hill
#
# Bulk Modulus (GPa) = 31.88663 43.55079 37.71871
# Shear Modulus (GPa) = 22.67404 29.56629 26.12017
#
# Velocity S-wave (km/s) = 3.18815 3.64059 3.42186
# Velocity P-wave (km/s) = 5.27697 6.09875 5.70268
#
# Compressibility (1/GPa) = 0.03136110
#
# Stress axis : x y z
#
# Youngs Moduli (GPa) = 54.20013 114.19598 70.84926
#
# Poissons Ratio (x) = 0.56443 -0.23578
# Poissons Ratio (y) = 0.26789 0.23844
# Poissons Ratio (z) = -0.18037 0.38432
#
# Static dielectric constant tensor:
#      x y z
#    x 1.934290 0.000000 0.000000 
#    y 0.000000 1.891080 0.000000 
#    z 0.000000 0.000000 1.852690 
# 
# From -- ./inp_files/2455.got.cif
#   From: 2010.05.17/outbox.cif.g08.bks.cpg/sg27_2_cif.got.tgz:2455.got - 2010.06.04 01:11:05.
