data_PCOD9338503
_publ_section_title
;
Structure prediction by ZEFSAII (Michael W. Deem and Ramdas Pophale) SiO2 
 PCOD9338503
Probable space group: P M C 21
;
_chemical_formula_sum "Si O2"
_cell_formula_units_Z 24
_cell_length_a 15.497793
_cell_length_b 12.759390
_cell_length_c 4.960861
_cell_angle_alpha 90.000000
_cell_angle_beta 90.000000
_cell_angle_gamma 90.000000
_cell_volume 980.972486
_symmetry_space_group_name_H-M "P M C 21"
_symmetry_group_IT_number 26
_symmetry_cell_setting 'orthorhombic'
loop_
_space_group_symop_operation_xyz
x,y,z
-x,-y,1/2+z
-x,y,z
x,-y,1/2+z
loop_
_atom_site_type_symbol
_atom_site_label
_atom_site_fract_x
_atom_site_fract_y
_atom_site_fract_z
Si Si1 0.830012 0.559456 0.390620
Si Si2 0.592373 0.245830 0.627258
Si Si3 0.216220 0.234953 0.585381
Si Si4 0.376233 0.559165 0.489723
Si Si5 0.099757 0.923212 0.794422
Si Si6 0.682663 0.930571 0.396861
O O1 0.864264 0.530150 0.685922
O O2 0.832836 0.669130 0.229308
O O3 0.727295 0.555669 0.458450
O O4 0.500000 0.246647 0.481950
O O5 0.686008 0.263064 0.479275
O O6 0.593573 0.334789 0.855568
O O7 0.602053 0.136111 0.788296
O O8 0.242264 0.149741 0.811925
O O9 0.158719 0.175687 0.367790
O O10 0.404391 0.534268 0.789534
O O11 0.000000 0.889172 0.802033
O O12 0.113034 0.011188 0.024142
O O13 0.685983 0.967682 0.702925
#
# Coordination Sequence:
#
# PCOD9338503 Si02
#       6
#     4   4   4   4   4   4
#     4   9  18  32  52  80 110 143 185 227 276 334
#     4   9  21  38  55  83 112 151 195 232 279 337
#     4   9  20  37  59  85 112 155 184 238 282 338
#     4   9  18  34  54  76 105 140 184 238 285 324
#     4  10  21  38  62  91 118 146 187 237 285 335
#     4  10  22  37  53  75 104 141 183 224 270 324
#
# _framework density 24.465516999999998
#
# number of rings (size 3 to 8) (size 9 to 14) (size 15 to 20)
#    1.000    1.667    0.000    1.000    0.000    5.333 
#    0.000    1.667    0.000    1.000    0.000    0.000 
#    0.000    0.000    0.000    0.000    0.000    0.000 
#
# Total GULP energy -133922.757004 kJ/mol
# GULP energy per Si atom -5580.114875 kJ/mol
# Density = 2.440983 g / cm^3
# Si number density = 24.465517 Si / 1000 Ang^3
#
#
#
# Elastic Constant Matrix: (Units=GPa)
#
#
# Indices 1 2 3 4 5 6 
#
# 1 65.4486 13.4553 11.2651 0.0000 0.0000 0.0000
# 2 13.4553 89.4211 7.9004 0.0000 0.0000 0.0000
# 3 11.2651 7.9004 101.8033 0.0000 0.0000 0.0000
# 4 0.0000 0.0000 0.0000 18.0918 0.0000 0.0000
# 5 0.0000 0.0000 0.0000 0.0000 0.2814 0.0000
# 6 0.0000 0.0000 0.0000 0.0000 0.0000 -84.7595
#
#
#
# Elastic Compliance Matrix: (Units=1/GPa)
#
#
# Indices 1 2 3 4 5 6 
#
# 1 0.016021 -0.002270 -0.001597 0.000000 0.000000 0.000000
# 2 -0.002270 0.011582 -0.000648 0.000000 0.000000 0.000000
# 3 -0.001597 -0.000648 0.010050 0.000000 0.000000 0.000000
# 4 0.000000 0.000000 0.000000 0.055274 0.000000 0.000000
# 5 0.000000 0.000000 0.000000 0.000000 3.554037 0.000000
# 6 0.000000 0.000000 0.000000 0.000000 0.000000 -0.011798
#
#
# Mechanical properties :
#
#
# Convention : Reuss Voigt Hill
#
# Bulk Modulus (GPa) = 34.93522 35.76830 35.35176
# Shear Modulus (GPa) = 1.36846 1.65955 1.51401
#
# Velocity S-wave (km/s) = 0.74870 0.82450 0.78751
# Velocity P-wave (km/s) = 3.88044 3.94436 3.91253
#
# Compressibility (1/GPa) = 0.02862441
#
# Stress axis : x y z
#
# Youngs Moduli (GPa) = 62.41976 86.34260 99.50445
#
# Poissons Ratio (x) = 0.19596 0.15887
# Poissons Ratio (y) = 0.14167 0.06444
# Poissons Ratio (z) = 0.09966 0.05592
#
# Static dielectric constant tensor:
#      x y z
#    x 2.046230 0.000000 0.000000 
#    y 0.000000 1.995910 0.000000 
#    z 0.000000 0.000000 1.931160 
# 
# From -- ./inp_files/742.got.cif
#   From: 2010.05.17/outbox.cif.g08.bks.cpg/sg26_1_cif.got.tgz:742.got - 2010.06.04 01:07:29.
