data_PCOD9338695
_publ_section_title
;
Structure prediction by ZEFSAII (Michael W. Deem and Ramdas Pophale) SiO2 
 PCOD9338695
Probable space group: P M C 21
;
_chemical_formula_sum "Si O2"
_cell_formula_units_Z 32
_cell_length_a 9.000000
_cell_length_b 15.000000
_cell_length_c 12.000000
_cell_angle_alpha 90.000000
_cell_angle_beta 90.000000
_cell_angle_gamma 90.000000
_cell_volume 1620.000000
_symmetry_space_group_name_H-M "P M C 21"
_symmetry_group_IT_number 26
_symmetry_cell_setting 'orthorhombic'
loop_
_space_group_symop_operation_xyz
x,y,z
-x,-y,1/2+z
-x,y,z
x,-y,1/2+z
loop_
_atom_site_type_symbol
_atom_site_label
_atom_site_fract_x
_atom_site_fract_y
_atom_site_fract_z
Si Si1 0.679769 0.949734 0.863240
Si Si2 0.319766 0.143060 0.910111
Si Si3 0.681336 0.829036 0.656719
Si Si4 0.830939 0.449952 0.640378
Si Si5 0.326836 0.373433 0.190852
Si Si6 0.835550 0.354236 0.403471
Si Si7 0.678215 0.280768 0.733872
Si Si8 0.173494 0.826377 0.032646
O O1 0.500000 0.944215 0.871517
O O2 0.729693 0.890226 0.758911
O O3 0.722651 0.052584 0.847481
O O4 0.748662 0.910643 0.976477
O O5 0.500000 0.145152 0.911661
O O6 0.274053 0.233000 0.848108
O O7 0.269290 0.136563 0.036923
O O8 0.500000 0.829345 0.659929
O O9 0.727679 0.726173 0.665386
O O10 0.759408 0.546483 0.634750
O O11 0.830947 0.408245 0.517567
O O12 0.741853 0.379250 0.715611
O O13 0.000000 0.454360 0.680469
O O14 0.500000 0.378990 0.164747
O O15 0.293457 0.383565 0.321826
O O16 0.819290 0.251780 0.439544
O O17 0.000000 0.366297 0.352124
O O18 0.500000 0.283588 0.726827
O O19 0.741107 0.215946 0.637204
O O20 0.000000 0.840984 0.059011
#
# Coordination Sequence:
#
# PCOD9338695 Si02
#       8
#     4   4   4   4   4   4   4   4
#     4  10  19  34  60  87 112 150 195 240 288 346
#     4   9  20  35  57  88 122 154 191 241 296 348
#     4   9  19  35  54  86 123 148 187 245 297 341
#     4  10  22  39  58  83 116 156 197 241 296 357
#     4  11  21  34  57  86 116 151 191 244 295 345
#     4   9  19  36  55  76 107 147 191 240 290 342
#     4  10  20  36  59  87 115 152 199 245 295 350
#     4  10  20  35  56  81 113 150 189 244 295 343
#
# _framework density 19.753086
#
# number of rings (size 3 to 8) (size 9 to 14) (size 15 to 20)
#    0.000    2.250    1.250    2.250    1.750    3.500 
#    0.000    2.500    0.000    5.250    0.000    0.000 
#    0.000    0.000    0.000    0.000    0.000    0.000 
#
# Total GULP energy -178431.696793 kJ/mol
# GULP energy per Si atom -5575.990525 kJ/mol
# Density = 1.970813 g / cm^3
# Si number density = 19.753086 Si / 1000 Ang^3
#
#
#
# Elastic Constant Matrix: (Units=GPa)
#
#
# Indices 1 2 3 4 5 6 
#
# 1 46.5281 24.3254 8.0082 0.0000 0.0000 0.0000
# 2 24.3254 107.6670 29.8237 0.0000 0.0000 0.0000
# 3 8.0082 29.8237 48.0716 0.0000 0.0000 0.0000
# 4 0.0000 0.0000 0.0000 10.1266 0.0000 0.0000
# 5 0.0000 0.0000 0.0000 0.0000 -7.5593 0.0000
# 6 0.0000 0.0000 0.0000 0.0000 0.0000 4.5273
#
#
#
# Elastic Compliance Matrix: (Units=1/GPa)
#
#
# Indices 1 2 3 4 5 6 
#
# 1 0.024395 -0.005296 -0.000778 0.000000 0.000000 0.000000
# 2 -0.005296 0.012365 -0.006789 0.000000 0.000000 0.000000
# 3 -0.000778 -0.006789 0.025144 0.000000 0.000000 0.000000
# 4 0.000000 0.000000 0.000000 0.098749 0.000000 0.000000
# 5 0.000000 0.000000 0.000000 0.000000 -0.132287 0.000000
# 6 0.000000 0.000000 0.000000 0.000000 0.000000 0.220882
#
#
# Mechanical properties :
#
#
# Convention : Reuss Voigt Hill
#
# Bulk Modulus (GPa) = 27.64162 36.28682 31.96422
# Shear Modulus (GPa) = 17.41950 10.75955 14.08953
#
# Velocity S-wave (km/s) = 2.97284 2.33642 2.67363
# Velocity P-wave (km/s) = 5.08012 5.06839 5.07426
#
# Compressibility (1/GPa) = 0.03617733
#
# Stress axis : x y z
#
# Youngs Moduli (GPa) = 40.99170 80.87346 39.77117
#
# Poissons Ratio (x) = 0.42831 0.03095
# Poissons Ratio (y) = 0.21709 0.27001
# Poissons Ratio (z) = 0.03190 0.54905
#
# Static dielectric constant tensor:
#      x y z
#    x 1.683320 0.000000 0.000000 
#    y 0.000000 1.697920 0.000000 
#    z 0.000000 0.000000 1.709410 
# 
# From -- ./inp_files/3013.got.cif
#   From: 2010.05.17/outbox.ucp.g08.bks.cvg/sg26_2_cif.got.tgz:3013.got - 2010.06.11 15:23:25.
