data_PCOD9338680
_publ_section_title
;
Structure prediction by ZEFSAII (Michael W. Deem and Ramdas Pophale) SiO2 
 PCOD9338680
Probable space group: P M C 21
;
_chemical_formula_sum "Si O2"
_cell_formula_units_Z 24
_cell_length_a 11.197780
_cell_length_b 10.460810
_cell_length_c 8.757358
_cell_angle_alpha 90.000000
_cell_angle_beta 90.000000
_cell_angle_gamma 90.000000
_cell_volume 1025.818079
_symmetry_space_group_name_H-M "P M C 21"
_symmetry_group_IT_number 26
_symmetry_cell_setting 'orthorhombic'
loop_
_space_group_symop_operation_xyz
x,y,z
-x,-y,1/2+z
-x,y,z
x,-y,1/2+z
loop_
_atom_site_type_symbol
_atom_site_label
_atom_site_fract_x
_atom_site_fract_y
_atom_site_fract_z
Si Si1 0.369020 0.220245 0.017960
Si Si2 0.873390 0.813363 0.607536
Si Si3 0.643830 0.663505 0.912843
Si Si4 0.359626 0.416627 0.742214
Si Si5 0.635963 0.082829 0.553887
Si Si6 0.130531 0.075194 0.761047
O O1 0.500000 0.253275 0.083042
O O2 0.253135 0.254718 0.115947
O O3 0.354701 0.303949 0.866607
O O4 0.367841 0.065728 0.003797
O O5 0.000000 0.742202 0.614639
O O6 0.876103 0.922961 0.735294
O O7 0.868316 0.879870 0.437367
O O8 0.500000 0.647120 0.910724
O O9 0.691887 0.626415 0.081590
O O10 0.690389 0.547407 0.809960
O O11 0.655455 0.818088 0.915064
O O12 0.500000 0.437236 0.713282
O O13 0.500000 0.109419 0.616469
O O14 0.747463 0.102993 0.668291
O O15 0.000000 0.122993 0.699003
#
# Coordination Sequence:
#
# PCOD9338680 Si02
#       6
#     4   4   4   4   4   4
#     4   9  17  30  50  75  99 123 157 203 248 285
#     4   9  17  29  45  66  93 125 158 191 233 287
#     4   9  17  30  47  67  94 128 162 195 235 286
#     4   9  17  30  47  67  94 128 162 195 235 286
#     4   9  17  30  50  75  99 123 157 203 248 285
#     4   9  17  29  45  66  93 125 158 191 233 287
#
# _framework density 23.395959999999999
#
# number of rings (size 3 to 8) (size 9 to 14) (size 15 to 20)
#    0.000    3.000    0.000    1.000    0.000    2.000 
#    0.000    8.333    0.000   27.000    0.000    0.000 
#    0.000    0.000    0.000    0.000    0.000    0.000 
#
# Total GULP energy -133674.284843 kJ/mol
# GULP energy per Si atom -5569.761868 kJ/mol
# Density = 2.334271 g / cm^3
# Si number density = 23.395960 Si / 1000 Ang^3
#
#
#
# Elastic Constant Matrix: (Units=GPa)
#
#
# Indices 1 2 3 4 5 6 
#
# 1 175.6770 21.6997 14.2054 0.0000 0.0000 0.0000
# 2 21.6997 138.3773 60.7555 0.0000 0.0000 0.0000
# 3 14.2054 60.7555 65.0647 0.0000 0.0000 0.0000
# 4 0.0000 0.0000 0.0000 29.4982 0.0000 0.0000
# 5 0.0000 0.0000 0.0000 0.0000 9.4884 0.0000
# 6 0.0000 0.0000 0.0000 0.0000 0.0000 6.4097
#
#
#
# Elastic Compliance Matrix: (Units=1/GPa)
#
#
# Indices 1 2 3 4 5 6 
#
# 1 0.005824 -0.000602 -0.000710 0.000000 0.000000 0.000000
# 2 -0.000602 0.012310 -0.011364 0.000000 0.000000 0.000000
# 3 -0.000710 -0.011364 0.026135 0.000000 0.000000 0.000000
# 4 0.000000 0.000000 0.000000 0.033900 0.000000 0.000000
# 5 0.000000 0.000000 0.000000 0.000000 0.105391 0.000000
# 6 0.000000 0.000000 0.000000 0.000000 0.000000 0.156013
#
#
# Mechanical properties :
#
#
# Convention : Reuss Voigt Hill
#
# Bulk Modulus (GPa) = 52.85545 63.60446 58.22996
# Shear Modulus (GPa) = 13.46873 27.90984 20.68929
#
# Velocity S-wave (km/s) = 2.40195 3.45763 2.97696
# Velocity P-wave (km/s) = 5.50756 6.57156 6.06295
#
# Compressibility (1/GPa) = 0.01891953
#
# Stress axis : x y z
#
# Youngs Moduli (GPa) = 171.70415 81.23337 38.26261
#
# Poissons Ratio (x) = 0.04888 0.02715
# Poissons Ratio (y) = 0.10331 0.43480
# Poissons Ratio (z) = 0.12186 0.92310
#
# Static dielectric constant tensor:
#      x y z
#    x 1.970950 0.000000 0.000000 
#    y 0.000000 1.884840 0.000000 
#    z 0.000000 0.000000 1.973440 
# 
# From -- ./inp_files/1815.got.cif
#   From: 2010.05.17/outbox.cif.g08.bks.cpg/sg26_1_cif.got.tgz:1815.got - 2010.06.04 01:07:29.
