data_PCOD9338134
_publ_section_title
;
Structure prediction by ZEFSAII (Michael W. Deem and Ramdas Pophale) SiO2 
 PCOD9338134
Probable space group: P M C 21
;
_chemical_formula_sum "Si O2"
_cell_formula_units_Z 24
_cell_length_a 7.546167
_cell_length_b 25.889687
_cell_length_c 5.050894
_cell_angle_alpha 90.000000
_cell_angle_beta 90.000000
_cell_angle_gamma 90.000000
_cell_volume 986.782562
_symmetry_space_group_name_H-M "P M C 21"
_symmetry_group_IT_number 26
_symmetry_cell_setting 'orthorhombic'
loop_
_space_group_symop_operation_xyz
x,y,z
-x,-y,1/2+z
-x,y,z
x,-y,1/2+z
loop_
_atom_site_type_symbol
_atom_site_label
_atom_site_fract_x
_atom_site_fract_y
_atom_site_fract_z
Si Si1 0.283861 0.529938 0.385630
Si Si2 0.216780 0.803657 0.885059
Si Si3 0.787355 0.862203 0.384280
Si Si4 0.711015 0.973235 0.628210
Si Si5 0.703055 0.635376 0.645262
Si Si6 0.202966 0.301981 0.645400
O O1 0.500000 0.532272 0.380760
O O2 0.230190 0.484971 0.590371
O O3 0.221826 0.583894 0.507920
O O4 0.275625 0.818753 0.592308
O O5 0.277062 0.749611 0.008263
O O6 0.000000 0.801495 0.876533
O O7 0.273009 0.848394 0.090029
O O8 0.740624 0.917538 0.502080
O O9 0.000000 0.859741 0.377609
O O10 0.500000 0.979728 0.654292
O O11 0.783176 0.984683 0.919304
O O12 0.500000 0.624514 0.721931
O O13 0.792034 0.655620 0.911775
O O14 0.707751 0.677806 0.411759
O O15 0.000000 0.291219 0.722499
#
# Coordination Sequence:
#
# PCOD9338134 Si02
#       6
#     4   4   4   4   4   4
#     4   9  17  31  53  79 107 144 187 229 279 337
#     4   9  19  35  55  78 105 140 179 220 265 321
#     4  10  19  34  56  79 101 130 177 227 262 300
#     4  10  21  36  52  73 105 140 169 203 258 324
#     4  11  22  37  59  88 117 144 189 248 287 323
#     4  11  22  39  61  83 115 158 193 223 283 359
#
# _framework density 24.321467999999999
#
# number of rings (size 3 to 8) (size 9 to 14) (size 15 to 20)
#    0.000    2.000    0.000    4.000    0.000    6.000 
#    0.000    5.000    0.000   10.000    0.000    0.000 
#    0.000    0.000    0.000    0.000    0.000    0.000 
#
# Total GULP energy -134232.894740 kJ/mol
# GULP energy per Si atom -5593.037281 kJ/mol
# Density = 2.426611 g / cm^3
# Si number density = 24.321468 Si / 1000 Ang^3
#
#
#
# Elastic Constant Matrix: (Units=GPa)
#
#
# Indices 1 2 3 4 5 6 
#
# 1 58.8846 -12.8774 -1.1268 0.0000 0.0000 0.0000
# 2 -12.8774 53.5616 -19.7713 0.0000 0.0000 0.0000
# 3 -1.1268 -19.7713 89.9066 0.0000 0.0000 0.0000
# 4 0.0000 0.0000 0.0000 39.5582 0.0000 0.0000
# 5 0.0000 0.0000 0.0000 0.0000 16.6872 0.0000
# 6 0.0000 0.0000 0.0000 0.0000 0.0000 35.1730
#
#
#
# Elastic Compliance Matrix: (Units=1/GPa)
#
#
# Indices 1 2 3 4 5 6 
#
# 1 0.018060 0.004817 0.001286 0.000000 0.000000 0.000000
# 2 0.004817 0.021604 0.004811 0.000000 0.000000 0.000000
# 3 0.001286 0.004811 0.012197 0.000000 0.000000 0.000000
# 4 0.000000 0.000000 0.000000 0.025279 0.000000 0.000000
# 5 0.000000 0.000000 0.000000 0.000000 0.059926 0.000000
# 6 0.000000 0.000000 0.000000 0.000000 0.000000 0.028431
#
#
# Mechanical properties :
#
#
# Convention : Reuss Voigt Hill
#
# Bulk Modulus (GPa) = 13.57065 14.97797 14.27431
# Shear Modulus (GPa) = 29.72062 34.02556 31.87309
#
# Velocity S-wave (km/s) = 3.49949 3.74437 3.62400
# Velocity P-wave (km/s) = 4.68192 4.98653 4.83662
#
# Compressibility (1/GPa) = 0.07368842
#
# Stress axis : x y z
#
# Youngs Moduli (GPa) = 55.36998 46.28739 81.98858
#
# Poissons Ratio (x) = -0.22295 -0.10540
# Poissons Ratio (y) = -0.26670 -0.39447
# Poissons Ratio (z) = -0.07118 -0.22270
#
# Static dielectric constant tensor:
#      x y z
#    x 1.911920 0.000000 0.000000 
#    y 0.000000 1.953130 0.000000 
#    z 0.000000 0.000000 1.910390 
# 
# From -- ./inp_files/187.got.cif
#   From: 2010.05.17/outbox.cif.g08.bks.cpg/sg26_1_cif.got.tgz:187.got - 2010.06.04 01:07:29.
