data_PCOD9338684
_publ_section_title
;
Structure prediction by ZEFSAII (Michael W. Deem and Ramdas Pophale) SiO2 
 PCOD9338684
Probable space group: P M C 21
;
_chemical_formula_sum "Si O2"
_cell_formula_units_Z 32
_cell_length_a 9.000000
_cell_length_b 12.000000
_cell_length_c 15.000000
_cell_angle_alpha 90.000000
_cell_angle_beta 90.000000
_cell_angle_gamma 90.000000
_cell_volume 1620.000000
_symmetry_space_group_name_H-M "P M C 21"
_symmetry_group_IT_number 26
_symmetry_cell_setting 'orthorhombic'
loop_
_space_group_symop_operation_xyz
x,y,z
-x,-y,1/2+z
-x,y,z
x,-y,1/2+z
loop_
_atom_site_type_symbol
_atom_site_label
_atom_site_fract_x
_atom_site_fract_y
_atom_site_fract_z
Si Si1 0.181143 0.682739 0.563280
Si Si2 0.177923 0.138987 0.456908
Si Si3 0.820900 0.475961 0.209747
Si Si4 0.822858 0.289312 0.615705
Si Si5 0.674338 0.198230 0.784695
Si Si6 0.179526 0.067268 0.086630
Si Si7 0.821037 0.403530 0.880431
Si Si8 0.675494 0.057439 0.282441
O O1 0.234003 0.632125 0.657188
O O2 0.223075 0.810976 0.548883
O O3 0.230040 0.602847 0.482306
O O4 0.000000 0.680418 0.564113
O O5 0.208498 0.250099 0.515247
O O6 0.255419 0.131401 0.361255
O O7 0.000000 0.131867 0.443399
O O8 0.222273 0.034321 0.521066
O O9 0.793408 0.584158 0.146764
O O10 0.765161 0.505415 0.308905
O O11 0.000000 0.465998 0.216718
O O12 0.728843 0.213363 0.683046
O O13 0.000000 0.269633 0.630484
O O14 0.500000 0.226195 0.792157
O O15 0.772963 0.285226 0.839142
O O16 0.696266 0.071212 0.812669
O O17 0.247063 0.064270 0.185937
O O18 0.000000 0.062461 0.094375
O O19 0.000000 0.411128 0.881307
O O20 0.500000 0.078132 0.272697
#
# Coordination Sequence:
#
# PCOD9338684 Si02
#       8
#     4   4   4   4   4   4   4   4
#     4   9  17  31  51  79 108 136 175 218 266 312
#     4  10  20  34  54  80 106 138 179 219 265 318
#     4   8  15  29  50  79 106 129 167 217 265 310
#     4   9  17  32  54  77 101 131 169 216 263 305
#     4  10  19  31  50  75 103 136 173 215 257 308
#     4  10  20  35  55  78 108 142 177 223 267 315
#     4   9  17  31  54  78 102 137 176 221 264 305
#     4  11  23  35  50  76 110 145 176 213 267 325
#
# _framework density 19.753086
#
# number of rings (size 3 to 8) (size 9 to 14) (size 15 to 20)
#    0.000    2.500    1.250    2.250    0.000    3.500 
#    2.250    0.625    0.000    6.000    0.000    0.000 
#    0.000    0.000    0.000    0.000    0.000    0.000 
#
# Total GULP energy -178390.521931 kJ/mol
# GULP energy per Si atom -5574.703810 kJ/mol
# Density = 1.970813 g / cm^3
# Si number density = 19.753086 Si / 1000 Ang^3
#
#
#
# Elastic Constant Matrix: (Units=GPa)
#
#
# Indices 1 2 3 4 5 6 
#
# 1 -1.5154 -7.4025 -0.7014 0.0000 0.0000 0.0000
# 2 -7.4025 13.9300 -11.5448 0.0000 0.0000 0.0000
# 3 -0.7014 -11.5448 79.8281 0.0000 0.0000 0.0000
# 4 0.0000 0.0000 0.0000 24.1880 0.0000 0.0000
# 5 0.0000 0.0000 0.0000 0.0000 9.1982 0.0000
# 6 0.0000 0.0000 0.0000 0.0000 0.0000 9.9007
#
#
#
# Elastic Compliance Matrix: (Units=1/GPa)
#
#
# Indices 1 2 3 4 5 6 
#
# 1 -0.163551 -0.100100 -0.015913 0.000000 0.000000 0.000000
# 2 -0.100100 0.020297 0.002056 0.000000 0.000000 0.000000
# 3 -0.015913 0.002056 0.012684 0.000000 0.000000 0.000000
# 4 0.000000 0.000000 0.000000 0.041343 0.000000 0.000000
# 5 0.000000 0.000000 0.000000 0.000000 0.108717 0.000000
# 6 0.000000 0.000000 0.000000 0.000000 0.000000 0.101003
#
#
# Mechanical properties :
#
#
# Convention : Reuss Voigt Hill
#
# Bulk Modulus (GPa) = -2.78951 5.88284 1.54666
# Shear Modulus (GPa) = 21.84227 16.11680 18.97954
#
# Velocity S-wave (km/s) = 3.32891 2.85952 3.10310
# Velocity P-wave (km/s) = 3.65517 3.72654 3.69103
#
# Compressibility (1/GPa) = -0.35848528
#
# Stress axis : x y z
#
# Youngs Moduli (GPa) = -6.11429 49.26742 78.83677
#
# Poissons Ratio (x) = 4.93169 1.25457
# Poissons Ratio (y) = -0.61204 -0.16208
# Poissons Ratio (z) = -0.09730 -0.10129
#
# Static dielectric constant tensor:
#      x y z
#    x 1.650230 0.000000 0.000000 
#    y 0.000000 1.717770 0.000000 
#    z 0.000000 0.000000 1.728900 
# 
# From -- ./inp_files/4308.got.cif
#   From: 2010.05.17/outbox.ucp.g08.bks.cvg/sg26_3_cif.got.tgz:4308.got - 2010.06.11 15:23:25.
