data_PCOD9338008
_publ_section_title
;
Structure prediction by ZEFSAII (Michael W. Deem and Ramdas Pophale) SiO2 
 PCOD9338008
Probable space group: P M C 21
;
_chemical_formula_sum "Si O2"
_cell_formula_units_Z 32
_cell_length_a 8.730034
_cell_length_b 11.254791
_cell_length_c 14.488868
_cell_angle_alpha 90.000000
_cell_angle_beta 90.000000
_cell_angle_gamma 90.000000
_cell_volume 1423.599496
_symmetry_space_group_name_H-M "P M C 21"
_symmetry_group_IT_number 26
_symmetry_cell_setting 'orthorhombic'
loop_
_space_group_symop_operation_xyz
x,y,z
-x,-y,1/2+z
-x,y,z
x,-y,1/2+z
loop_
_atom_site_type_symbol
_atom_site_label
_atom_site_fract_x
_atom_site_fract_y
_atom_site_fract_z
Si Si1 0.185564 0.672979 0.168690
Si Si2 0.820053 0.169645 0.828792
Si Si3 0.178721 0.691989 0.512823
Si Si4 0.183821 0.053505 0.450089
Si Si5 0.182551 0.183033 0.276143
Si Si6 0.815557 0.444556 0.291073
Si Si7 0.319094 0.925618 0.608618
Si Si8 0.680893 0.442796 0.496528
O O1 0.242462 0.782885 0.231819
O O2 0.228988 0.555132 0.227640
O O3 0.247359 0.653380 0.066276
O O4 0.000000 0.678837 0.164620
O O5 0.000000 0.142928 0.813600
O O6 0.760320 0.056897 0.885615
O O7 0.812842 0.276866 0.903437
O O8 0.240808 0.809328 0.562543
O O9 0.271148 0.573510 0.533326
O O10 0.000000 0.674366 0.536645
O O11 0.216295 0.164527 0.384486
O O12 0.000000 0.043879 0.462864
O O13 0.259577 0.036369 0.548874
O O14 0.225304 0.316403 0.248169
O O15 0.264082 0.085439 0.213389
O O16 0.000000 0.167869 0.264694
O O17 0.745976 0.443439 0.393036
O O18 0.000000 0.447987 0.300411
O O19 0.500000 0.917876 0.602257
O O20 0.500000 0.429184 0.494958
#
# Coordination Sequence:
#
# PCOD9338008 Si02
#       8
#     4   4   4   4   4   4   4   4
#     4  10  19  35  58  82 111 151 198 240 288 352
#     4   8  15  31  57  82 102 134 184 242 290 327
#     4  10  18  35  60  83 111 149 197 244 280 336
#     4   9  19  38  62  87 114 149 201 254 294 342
#     4  10  21  39  63  88 116 156 206 253 292 344
#     4  10  21  39  61  85 113 154 200 245 294 344
#     4  11  22  36  59  92 123 155 194 243 307 362
#     4  12  24  35  52  85 124 158 188 233 299 361
#
# _framework density 22.478231999999998
#
# number of rings (size 3 to 8) (size 9 to 14) (size 15 to 20)
#    0.000    2.000    1.250    4.125    0.000    2.500 
#    2.250    0.625    0.000    0.000    0.000    0.000 
#    0.000    0.000    0.000    0.000    0.000    0.000 
#
# Total GULP energy -178815.162279 kJ/mol
# GULP energy per Si atom -5587.973821 kJ/mol
# Density = 2.242707 g / cm^3
# Si number density = 22.478232 Si / 1000 Ang^3
#
#
#
# Elastic Constant Matrix: (Units=GPa)
#
#
# Indices 1 2 3 4 5 6 
#
# 1 15.2962 3.3781 25.1063 0.0000 0.0000 0.0000
# 2 3.3781 45.1592 6.3239 0.0000 0.0000 0.0000
# 3 25.1063 6.3239 118.3534 0.0000 0.0000 0.0000
# 4 0.0000 0.0000 0.0000 35.3578 0.0000 0.0000
# 5 0.0000 0.0000 0.0000 0.0000 -6.9981 0.0000
# 6 0.0000 0.0000 0.0000 0.0000 0.0000 7.7124
#
#
#
# Elastic Compliance Matrix: (Units=1/GPa)
#
#
# Indices 1 2 3 4 5 6 
#
# 1 0.101237 -0.004600 -0.021230 0.000000 0.000000 0.000000
# 2 -0.004600 0.022520 -0.000227 0.000000 0.000000 0.000000
# 3 -0.021230 -0.000227 0.012965 0.000000 0.000000 0.000000
# 4 0.000000 0.000000 0.000000 0.028282 0.000000 0.000000
# 5 0.000000 0.000000 0.000000 0.000000 -0.142895 0.000000
# 6 0.000000 0.000000 0.000000 0.000000 0.000000 0.129661
#
#
# Mechanical properties :
#
#
# Convention : Reuss Voigt Hill
#
# Bulk Modulus (GPa) = 11.81933 27.60283 19.71108
# Shear Modulus (GPa) = 21.54373 16.81446 19.17909
#
# Velocity S-wave (km/s) = 3.09920 2.73799 2.92418
# Velocity P-wave (km/s) = 4.25162 4.72249 4.49323
#
# Compressibility (1/GPa) = 0.08460715
#
# Stress axis : x y z
#
# Youngs Moduli (GPa) = 9.87784 44.40529 77.13168
#
# Poissons Ratio (x) = 0.20427 1.63747
# Poissons Ratio (y) = 0.04544 0.01754
# Poissons Ratio (z) = 0.20970 0.01010
#
# Static dielectric constant tensor:
#      x y z
#    x 1.749150 0.000000 0.000000 
#    y 0.000000 1.885450 0.000000 
#    z 0.000000 0.000000 1.877660 
# 
# From -- ./inp_files/4278.got.cif
#   From: 2010.05.17/outbox.cif.g08.bks.cpg/sg26_3_cif.got.tgz:4278.got - 2010.06.04 01:07:29.
