data_PCOD9338472
_publ_section_title
;
Structure prediction by ZEFSAII (Michael W. Deem and Ramdas Pophale) SiO2 
 PCOD9338472
Probable space group: P M C 21
;
_chemical_formula_sum "Si O2"
_cell_formula_units_Z 32
_cell_length_a 13.848331
_cell_length_b 14.464755
_cell_length_c 9.100241
_cell_angle_alpha 90.000000
_cell_angle_beta 90.000000
_cell_angle_gamma 90.000000
_cell_volume 1822.893983
_symmetry_space_group_name_H-M "P M C 21"
_symmetry_group_IT_number 26
_symmetry_cell_setting 'orthorhombic'
loop_
_space_group_symop_operation_xyz
x,y,z
-x,-y,1/2+z
-x,y,z
x,-y,1/2+z
loop_
_atom_site_type_symbol
_atom_site_label
_atom_site_fract_x
_atom_site_fract_y
_atom_site_fract_z
Si Si1 0.613408 0.276022 0.144410
Si Si2 0.890000 0.565537 0.670420
Si Si3 0.281690 0.617639 0.878063
Si Si4 0.614129 0.422426 0.897754
Si Si5 0.284904 0.294891 0.685304
Si Si6 0.616834 0.106414 0.596872
Si Si7 0.617345 0.915565 0.753198
Si Si8 0.109380 0.373597 0.833868
O O1 0.500000 0.266743 0.116901
O O2 0.634268 0.324103 0.299368
O O3 0.653498 0.172274 0.158074
O O4 0.645925 0.349059 0.022171
O O5 0.808258 0.614285 0.766852
O O6 0.877104 0.583875 0.497202
O O7 0.882689 0.458249 0.717981
O O8 0.000000 0.594460 0.708144
O O9 0.323726 0.515368 0.905086
O O10 0.254241 0.668230 0.026561
O O11 0.500000 0.442362 0.912072
O O12 0.637705 0.368963 0.747471
O O13 0.333103 0.195409 0.668164
O O14 0.192433 0.301981 0.791514
O O15 0.500000 0.116758 0.605298
O O16 0.643409 0.096395 0.424457
O O17 0.644917 0.013206 0.683185
O O18 0.500000 0.913088 0.749347
O O19 0.000000 0.336958 0.826640
#
# Coordination Sequence:
#
# PCOD9338472 Si02
#       8
#     4   4   4   4   4   4   4   4
#     4  10  21  37  54  76 112 154 193 231 272 326
#     4  10  21  38  58  79 108 148 192 236 277 324
#     4  12  22  35  54  80 115 152 192 225 276 331
#     4  11  24  35  49  76 115 161 195 223 265 328
#     4  12  23  35  55  84 114 147 188 233 282 335
#     4  10  21  37  57  82 111 145 188 239 287 330
#     4   9  19  37  58  78 105 145 192 240 283 321
#     4  10  21  38  58  81 110 146 189 235 281 331
#
# _framework density 17.554504999999999
#
# number of rings (size 3 to 8) (size 9 to 14) (size 15 to 20)
#    0.000    1.500    2.500    3.000    1.750    4.000 
#    0.000    0.000    0.000    0.000    0.000    1.750 
#    0.000    0.000    0.000    0.000    0.000    0.000 
#
# Total GULP energy -178584.108623 kJ/mol
# GULP energy per Si atom -5580.753394 kJ/mol
# Density = 1.751455 g / cm^3
# Si number density = 17.554505 Si / 1000 Ang^3
#
#
#
# Elastic Constant Matrix: (Units=GPa)
#
#
# Indices 1 2 3 4 5 6 
#
# 1 63.6395 32.0209 27.1456 0.0000 0.0000 0.0000
# 2 32.0209 126.7121 37.8090 0.0000 0.0000 0.0000
# 3 27.1456 37.8090 76.7922 0.0000 0.0000 0.0000
# 4 0.0000 0.0000 0.0000 23.8872 0.0000 0.0000
# 5 0.0000 0.0000 0.0000 0.0000 19.7164 0.0000
# 6 0.0000 0.0000 0.0000 0.0000 0.0000 15.2367
#
#
#
# Elastic Compliance Matrix: (Units=1/GPa)
#
#
# Indices 1 2 3 4 5 6 
#
# 1 0.019676 -0.003396 -0.005283 0.000000 0.000000 0.000000
# 2 -0.003396 0.009837 -0.003643 0.000000 0.000000 0.000000
# 3 -0.005283 -0.003643 0.016683 0.000000 0.000000 0.000000
# 4 0.000000 0.000000 0.000000 0.041863 0.000000 0.000000
# 5 0.000000 0.000000 0.000000 0.000000 0.050719 0.000000
# 6 0.000000 0.000000 0.000000 0.000000 0.000000 0.065631
#
#
# Mechanical properties :
#
#
# Convention : Reuss Voigt Hill
#
# Bulk Modulus (GPa) = 46.39908 51.23275 48.81592
# Shear Modulus (GPa) = 21.16512 23.11263 22.13887
#
# Velocity S-wave (km/s) = 3.47606 3.63246 3.55512
# Velocity P-wave (km/s) = 6.52683 6.84408 6.68733
#
# Compressibility (1/GPa) = 0.02155215
#
# Stress axis : x y z
#
# Youngs Moduli (GPa) = 50.82407 101.65682 59.93974
#
# Poissons Ratio (x) = 0.34519 0.31668
# Poissons Ratio (y) = 0.17258 0.21836
# Poissons Ratio (z) = 0.26852 0.37033
#
# Static dielectric constant tensor:
#      x y z
#    x 1.611550 0.000000 0.000000 
#    y 0.000000 1.591480 0.000000 
#    z 0.000000 0.000000 1.651260 
# 
# From -- ./inp_files/2240.got.cif
#   From: 2010.05.17/outbox.cif.g08.bks.cpg/sg26_2_cif.got.tgz:2240.got - 2010.06.04 01:07:29.
