data_PCOD9338787
_publ_section_title
;
Structure prediction by ZEFSAII (Michael W. Deem and Ramdas Pophale) SiO2 
 PCOD9338787
Probable space group: P C C 2
;
_chemical_formula_sum "Si O2"
_cell_formula_units_Z 22
_cell_length_a 8.066975
_cell_length_b 13.708113
_cell_length_c 9.394504
_cell_angle_alpha 90.000000
_cell_angle_beta 90.000000
_cell_angle_gamma 90.000000
_cell_volume 1038.872482
_symmetry_space_group_name_H-M "P C C 2"
_symmetry_group_IT_number 27
_symmetry_cell_setting 'orthorhombic'
loop_
_space_group_symop_operation_xyz
x,y,z
-x,-y,z
-x,y,1/2+z
x,-y,1/2+z
loop_
_atom_site_type_symbol
_atom_site_label
_atom_site_fract_x
_atom_site_fract_y
_atom_site_fract_z
Si Si1 0.499952 0.106229 0.449790
Si Si2 0.667461 0.203953 0.697486
Si Si3 0.500000 0.500000 0.366692
Si Si4 0.011545 0.118034 0.362307
Si Si5 0.580780 0.635532 0.622176
Si Si6 0.799016 0.175608 0.122189
O O1 0.641720 0.136533 0.559102
O O2 0.465001 0.181194 0.323698
O O3 0.339280 0.106001 0.553748
O O4 0.500000 0.000000 0.383159
O O5 0.836993 0.170887 0.774685
O O6 0.599393 0.310036 0.644581
O O7 0.584407 0.574890 0.476272
O O8 0.393121 0.564684 0.256664
O O9 0.043868 0.156608 0.520479
O O10 0.847848 0.151896 0.281642
O O11 0.000000 0.000000 0.359538
O O12 0.719188 0.718353 0.611948
#
# Coordination Sequence:
#
# PCOD9338787 Si02
#       6
#     4   4   2   4   4   4
#     4  10  19  33  52  80 112 152 198 245 282 337
#     4  10  21  35  56  83 118 148 197 244 295 349
#     4  10  20  38  70  90 114 136 194 254 320 378
#     4  11  22  37  56  85 124 170 202 232 275 343
#     4  10  21  40  63  93 112 149 190 254 312 359
#     4  10  23  37  55  82 120 156 201 238 290 347
#
# _framework density 21.176805000000002
#
# number of rings (size 3 to 8) (size 9 to 14) (size 15 to 20)
#    0.000    1.818    0.000    5.455    0.000   10.182 
#    0.000    0.000    0.000   18.545    0.000    0.000 
#    0.000    0.000    0.000    0.000    0.000    0.000 
#
# Total GULP energy -122673.254112 kJ/mol
# GULP energy per Si atom -5576.057005 kJ/mol
# Density = 2.112861 g / cm^3
# Si number density = 21.176805 Si / 1000 Ang^3
#
#
#
# Elastic Constant Matrix: (Units=GPa)
#
#
# Indices 1 2 3 4 5 6 
#
# 1 53.5923 19.2770 24.7590 0.0000 0.0000 0.0000
# 2 19.2770 122.7251 26.0285 0.0000 0.0000 0.0000
# 3 24.7590 26.0285 115.8074 0.0000 0.0000 0.0000
# 4 0.0000 0.0000 0.0000 35.5730 0.0000 0.0000
# 5 0.0000 0.0000 0.0000 0.0000 38.2749 0.0000
# 6 0.0000 0.0000 0.0000 0.0000 0.0000 9.8958
#
#
#
# Elastic Compliance Matrix: (Units=1/GPa)
#
#
# Indices 1 2 3 4 5 6 
#
# 1 0.021418 -0.002513 -0.004014 0.000000 0.000000 0.000000
# 2 -0.002513 0.008851 -0.001452 0.000000 0.000000 0.000000
# 3 -0.004014 -0.001452 0.009820 0.000000 0.000000 0.000000
# 4 0.000000 0.000000 0.000000 0.028111 0.000000 0.000000
# 5 0.000000 0.000000 0.000000 0.000000 0.026127 0.000000
# 6 0.000000 0.000000 0.000000 0.000000 0.000000 0.101053
#
#
# Mechanical properties :
#
#
# Convention : Reuss Voigt Hill
#
# Bulk Modulus (GPa) = 41.44208 48.02822 44.73515
# Shear Modulus (GPa) = 22.79137 31.55275 27.17206
#
# Velocity S-wave (km/s) = 3.28417 3.86420 3.58593
# Velocity P-wave (km/s) = 5.83036 6.52980 6.18996
#
# Compressibility (1/GPa) = 0.02413006
#
# Stress axis : x y z
#
# Youngs Moduli (GPa) = 46.69021 112.98204 101.83706
#
# Poissons Ratio (x) = 0.28390 0.40880
# Poissons Ratio (y) = 0.11732 0.14788
# Poissons Ratio (z) = 0.18742 0.16406
#
# Static dielectric constant tensor:
#      x y z
#    x 1.751290 0.000000 0.000000 
#    y 0.000000 1.766950 0.000000 
#    z 0.000000 0.000000 1.783120 
# 
# From -- ./inp_files/1118.got.cif
#   From: 2010.05.17/outbox.cif.g08.bks.cpg/sg27_1_cif.got.tgz:1118.got - 2010.06.04 01:11:05.
