data_PCOD9338608
_publ_section_title
;
Structure prediction by ZEFSAII (Michael W. Deem and Ramdas Pophale) SiO2 
 PCOD9338608
Probable space group: P M C 21
;
_chemical_formula_sum "Si O2"
_cell_formula_units_Z 24
_cell_length_a 11.582724
_cell_length_b 10.576163
_cell_length_c 9.001900
_cell_angle_alpha 90.000000
_cell_angle_beta 90.000000
_cell_angle_gamma 90.000000
_cell_volume 1102.739745
_symmetry_space_group_name_H-M "P M C 21"
_symmetry_group_IT_number 26
_symmetry_cell_setting 'orthorhombic'
loop_
_space_group_symop_operation_xyz
x,y,z
-x,-y,1/2+z
-x,y,z
x,-y,1/2+z
loop_
_atom_site_type_symbol
_atom_site_label
_atom_site_fract_x
_atom_site_fract_y
_atom_site_fract_z
Si Si1 0.867171 0.733888 0.097810
Si Si2 0.330373 0.842748 0.264278
Si Si3 0.370188 0.905946 0.607395
Si Si4 0.222753 0.446978 0.122793
Si Si5 0.132226 0.797111 0.753368
Si Si6 0.374477 0.571684 0.343106
O O1 0.800961 0.818705 0.217044
O O2 0.827257 0.587579 0.104333
O O3 0.000000 0.736210 0.133009
O O4 0.850336 0.785765 0.930795
O O5 0.352375 0.887304 0.431716
O O6 0.380772 0.701755 0.251473
O O7 0.376101 0.947788 0.153236
O O8 0.500000 0.851114 0.643894
O O9 0.250903 0.857457 0.685937
O O10 0.135314 0.344218 0.184556
O O11 0.326711 0.460987 0.240572
O O12 0.279828 0.405408 0.969284
O O13 0.000000 0.848658 0.726804
O O14 0.500000 0.542881 0.406575
#
# Coordination Sequence:
#
# PCOD9338608 Si02
#       6
#     4   4   4   4   4   4
#     4  10  23  44  67  97 137 176 227 281 338 410
#     4  11  25  43  68  98 133 179 228 279 341 401
#     4  12  25  45  70  99 137 180 230 284 341 405
#     4  11  21  40  63  98 134 177 223 275 339 406
#     4  11  24  43  68  98 134 180 230 280 338 405
#     4  11  22  39  64  98 139 178 224 277 339 407
#
# _framework density 21.763977000000001
#
# number of rings (size 3 to 8) (size 9 to 14) (size 15 to 20)
#    0.000    1.000    3.333    3.500    0.000    2.000 
#    0.000    1.667    0.000    0.000    0.000    0.000 
#    0.000    0.000    0.000    0.000    0.000    0.000 
#
# Total GULP energy -133898.096378 kJ/mol
# GULP energy per Si atom -5579.087349 kJ/mol
# Density = 2.171444 g / cm^3
# Si number density = 21.763977 Si / 1000 Ang^3
#
#
#
# Elastic Constant Matrix: (Units=GPa)
#
#
# Indices 1 2 3 4 5 6 
#
# 1 185.0131 37.5316 46.4255 0.0000 0.0000 0.0000
# 2 37.5316 55.8090 10.2978 0.0000 0.0000 0.0000
# 3 46.4255 10.2978 36.7054 0.0000 0.0000 0.0000
# 4 0.0000 0.0000 0.0000 34.9021 0.0000 0.0000
# 5 0.0000 0.0000 0.0000 0.0000 15.4600 0.0000
# 6 0.0000 0.0000 0.0000 0.0000 0.0000 -227.4472
#
#
#
# Elastic Compliance Matrix: (Units=1/GPa)
#
#
# Indices 1 2 3 4 5 6 
#
# 1 0.008700 -0.004029 -0.009873 0.000000 0.000000 0.000000
# 2 -0.004029 0.020762 -0.000729 0.000000 0.000000 0.000000
# 3 -0.009873 -0.000729 0.039936 0.000000 0.000000 0.000000
# 4 0.000000 0.000000 0.000000 0.028652 0.000000 0.000000
# 5 0.000000 0.000000 0.000000 0.000000 0.064683 0.000000
# 6 0.000000 0.000000 0.000000 0.000000 0.000000 -0.004397
#
#
# Mechanical properties :
#
#
# Convention : Reuss Voigt Hill
#
# Bulk Modulus (GPa) = 24.91542 51.78190 38.34866
# Shear Modulus (GPa) = 24.87837 -23.19884 0.83977
#
# Velocity S-wave (km/s) = 3.38464 -3.26840 0.62184
# Velocity P-wave (km/s) = 5.17178 3.09853 4.26311
#
# Compressibility (1/GPa) = 0.04013578
#
# Stress axis : x y z
#
# Youngs Moduli (GPa) = 114.94460 48.16449 25.03978
#
# Poissons Ratio (x) = 0.19405 0.24723
# Poissons Ratio (y) = 0.46309 0.01826
# Poissons Ratio (z) = 1.13489 0.03512
#
# Static dielectric constant tensor:
#      x y z
#    x 1.870540 0.000000 0.000000 
#    y 0.000000 1.814530 0.000000 
#    z 0.000000 0.000000 1.770180 
# 
# From -- ./inp_files/1801.got.cif
#   From: 2010.05.17/outbox.cif.g08.bks.cpg/sg26_1_cif.got.tgz:1801.got - 2010.06.04 01:07:29.
