data_PCOD9338185
_publ_section_title
;
Structure prediction by ZEFSAII (Michael W. Deem and Ramdas Pophale) SiO2 
 PCOD9338185
Probable space group: P M C 21
;
_chemical_formula_sum "Si O2"
_cell_formula_units_Z 32
_cell_length_a 8.833942
_cell_length_b 16.335298
_cell_length_c 11.427574
_cell_angle_alpha 90.000000
_cell_angle_beta 90.000000
_cell_angle_gamma 90.000000
_cell_volume 1649.056924
_symmetry_space_group_name_H-M "P M C 21"
_symmetry_group_IT_number 26
_symmetry_cell_setting 'orthorhombic'
loop_
_space_group_symop_operation_xyz
x,y,z
-x,-y,1/2+z
-x,y,z
x,-y,1/2+z
loop_
_atom_site_type_symbol
_atom_site_label
_atom_site_fract_x
_atom_site_fract_y
_atom_site_fract_z
Si Si1 0.828041 0.148405 0.054300
Si Si2 0.319057 0.845867 0.914885
Si Si3 0.317735 0.852794 0.185309
Si Si4 0.685072 0.447169 0.926932
Si Si5 0.317364 0.455807 0.191142
Si Si6 0.827126 0.284884 0.258418
Si Si7 0.319779 0.264770 0.873907
Si Si8 0.818554 0.977596 0.740663
O O1 0.832213 0.215762 0.157776
O O2 0.774339 0.065409 0.116762
O O3 0.000000 0.136734 0.010471
O O4 0.725582 0.190568 0.958253
O O5 0.500000 0.847197 0.902256
O O6 0.255860 0.760830 0.864086
O O7 0.249398 0.920425 0.841247
O O8 0.277424 0.853550 0.049807
O O9 0.500000 0.860607 0.195571
O O10 0.272429 0.767784 0.246806
O O11 0.241511 0.930925 0.245091
O O12 0.500000 0.448810 0.926988
O O13 0.732551 0.493296 0.806951
O O14 0.739406 0.352848 0.914341
O O15 0.731037 0.479201 0.057183
O O16 0.500000 0.458399 0.190759
O O17 0.261508 0.363600 0.213253
O O18 0.000000 0.306729 0.287660
O O19 0.500000 0.273145 0.874701
O O20 0.000000 0.974584 0.746957
#
# Coordination Sequence:
#
# PCOD9338185 Si02
#       8
#     4   4   4   4   4   4   4   4
#     4   9  19  35  55  80 107 141 184 231 278 337
#     4  10  21  38  58  82 113 149 192 240 293 351
#     4  10  23  38  55  83 116 150 192 243 293 344
#     4   9  19  34  57  87 116 147 196 245 295 353
#     4  10  19  35  59  87 115 153 195 244 299 355
#     4  10  20  36  58  84 112 145 189 236 285 346
#     4  10  20  36  57  83 113 148 189 239 289 343
#     4  10  22  38  57  82 114 151 191 238 290 345
#
# _framework density 19.40503
#
# number of rings (size 3 to 8) (size 9 to 14) (size 15 to 20)
#    0.000    2.250    1.250    1.875    1.750    5.000 
#    0.000    5.000    0.000    0.000    0.000    0.000 
#    0.000    0.000    0.000    0.000    0.000    0.000 
#
# Total GULP energy -178415.334239 kJ/mol
# GULP energy per Si atom -5575.479195 kJ/mol
# Density = 1.936086 g / cm^3
# Si number density = 19.405030 Si / 1000 Ang^3
#
#
#
# Elastic Constant Matrix: (Units=GPa)
#
#
# Indices 1 2 3 4 5 6 
#
# 1 1.0198 5.2357 24.9677 0.0000 0.0000 0.0000
# 2 5.2357 64.0253 47.1646 0.0000 0.0000 0.0000
# 3 24.9677 47.1646 128.9941 0.0000 0.0000 0.0000
# 4 0.0000 0.0000 0.0000 23.0324 0.0000 0.0000
# 5 0.0000 0.0000 0.0000 0.0000 -61.6659 0.0000
# 6 0.0000 0.0000 0.0000 0.0000 0.0000 7.8126
#
#
#
# Elastic Compliance Matrix: (Units=1/GPa)
#
#
# Indices 1 2 3 4 5 6 
#
# 1 -0.241725 -0.020118 0.054143 0.000000 0.000000 0.000000
# 2 -0.020118 0.019702 -0.003310 0.000000 0.000000 0.000000
# 3 0.054143 -0.003310 -0.001517 0.000000 0.000000 0.000000
# 4 0.000000 0.000000 0.000000 0.043417 0.000000 0.000000
# 5 0.000000 0.000000 0.000000 0.000000 -0.016216 0.000000
# 6 0.000000 0.000000 0.000000 0.000000 0.000000 0.127999
#
#
# Mechanical properties :
#
#
# Convention : Reuss Voigt Hill
#
# Bulk Modulus (GPa) = -6.16870 38.75278 16.29204
# Shear Modulus (GPa) = -27.20229 1.61389 -12.79420
#
# Velocity S-wave (km/s) = -3.74815 0.91296 -2.57052
# Velocity P-wave (km/s) = 4.68159 4.59621 0.62934
#
# Compressibility (1/GPa) = -0.16210869
#
# Stress axis : x y z
#
# Youngs Moduli (GPa) = -4.13694 50.75584 -659.03396
#
# Poissons Ratio (x) = 1.02110 35.68232
# Poissons Ratio (y) = -0.08323 -2.18127
# Poissons Ratio (z) = 0.22399 0.16799
#
# Static dielectric constant tensor:
#      x y z
#    x 1.653070 0.000000 0.000000 
#    y 0.000000 1.657860 0.000000 
#    z 0.000000 0.000000 1.723440 
# 
# From -- ./inp_files/3023.got.cif
#   From: 2010.05.17/outbox.cif.g08.bks.cpg/sg26_2_cif.got.tgz:3023.got - 2010.06.04 01:07:29.
