data_PCOD9338157
_publ_section_title
;
Structure prediction by ZEFSAII (Michael W. Deem and Ramdas Pophale) SiO2 
 PCOD9338157
Probable space group: P M C 21
;
_chemical_formula_sum "Si O2"
_cell_formula_units_Z 32
_cell_length_a 8.629706
_cell_length_b 12.896161
_cell_length_c 14.563503
_cell_angle_alpha 90.000000
_cell_angle_beta 90.000000
_cell_angle_gamma 90.000000
_cell_volume 1620.773384
_symmetry_space_group_name_H-M "P M C 21"
_symmetry_group_IT_number 26
_symmetry_cell_setting 'orthorhombic'
loop_
_space_group_symop_operation_xyz
x,y,z
-x,-y,1/2+z
-x,y,z
x,-y,1/2+z
loop_
_atom_site_type_symbol
_atom_site_label
_atom_site_fract_x
_atom_site_fract_y
_atom_site_fract_z
Si Si1 0.187248 0.679768 0.246370
Si Si2 0.320587 0.040163 0.513878
Si Si3 0.188632 0.379922 0.945595
Si Si4 0.183312 0.169439 0.045222
Si Si5 0.188943 0.417177 0.551776
Si Si6 0.318516 0.090233 0.731078
Si Si7 0.815386 0.762893 0.912800
Si Si8 0.684547 0.139869 0.246032
O O1 0.238548 0.619905 0.338904
O O2 0.241718 0.625203 0.151434
O O3 0.237196 0.800702 0.252122
O O4 0.000000 0.678854 0.244437
O O5 0.500000 0.019271 0.493923
O O6 0.307413 0.071296 0.621193
O O7 0.259725 0.137090 0.458728
O O8 0.223180 0.937407 0.494777
O O9 0.000000 0.385580 0.944046
O O10 0.231572 0.269130 0.987711
O O11 0.241755 0.471573 0.013294
O O12 0.272329 0.162317 0.141272
O O13 0.000000 0.175415 0.062936
O O14 0.233076 0.335425 0.472711
O O15 0.000000 0.419831 0.556520
O O16 0.500000 0.100351 0.755191
O O17 0.260665 0.978605 0.769488
O O18 0.760447 0.772283 0.808652
O O19 0.000000 0.768829 0.916958
O O20 0.500000 0.139977 0.257330
#
# Coordination Sequence:
#
# PCOD9338157 Si02
#       8
#     4   4   4   4   4   4   4   4
#     4  10  19  34  58  84 111 148 189 240 289 339
#     4  10  20  35  55  80 118 160 189 234 299 355
#     4   9  20  36  57  87 117 149 193 244 300 347
#     4  10  20  36  57  85 117 151 197 249 291 346
#     4   9  19  36  57  85 118 151 193 243 297 346
#     4   9  19  35  54  78 111 151 191 231 283 345
#     4  11  21  34  57  89 116 151 201 246 286 343
#     4  10  22  38  55  82 120 163 195 233 301 363
#
# _framework density 19.743662
#
# number of rings (size 3 to 8) (size 9 to 14) (size 15 to 20)
#    0.000    2.250    1.250    2.250    1.750    3.500 
#    0.000    4.375    0.000    8.250    0.000    0.000 
#    0.000    0.000    0.000    0.000    0.000    0.000 
#
# Total GULP energy -178521.688991 kJ/mol
# GULP energy per Si atom -5578.802781 kJ/mol
# Density = 1.969872 g / cm^3
# Si number density = 19.743662 Si / 1000 Ang^3
#
#
#
# Elastic Constant Matrix: (Units=GPa)
#
#
# Indices 1 2 3 4 5 6 
#
# 1 33.3371 23.7589 10.2928 0.0000 0.0000 0.0000
# 2 23.7589 115.6100 36.4358 0.0000 0.0000 0.0000
# 3 10.2928 36.4358 65.7598 0.0000 0.0000 0.0000
# 4 0.0000 0.0000 0.0000 26.0491 0.0000 0.0000
# 5 0.0000 0.0000 0.0000 0.0000 12.0263 0.0000
# 6 0.0000 0.0000 0.0000 0.0000 0.0000 -2.1812
#
#
#
# Elastic Compliance Matrix: (Units=1/GPa)
#
#
# Indices 1 2 3 4 5 6 
#
# 1 0.035324 -0.006684 -0.001825 0.000000 0.000000 0.000000
# 2 -0.006684 0.011745 -0.005461 0.000000 0.000000 0.000000
# 3 -0.001825 -0.005461 0.018518 0.000000 0.000000 0.000000
# 4 0.000000 0.000000 0.000000 0.038389 0.000000 0.000000
# 5 0.000000 0.000000 0.000000 0.000000 0.083151 0.000000
# 6 0.000000 0.000000 0.000000 0.000000 0.000000 -0.458469
#
#
# Mechanical properties :
#
#
# Convention : Reuss Voigt Hill
#
# Bulk Modulus (GPa) = 26.56361 39.52021 33.04191
# Shear Modulus (GPa) = -21.65890 16.79346 -2.43272
#
# Velocity S-wave (km/s) = -3.31570 2.91963 -1.11123
# Velocity P-wave (km/s) = 1.08399 5.60587 3.88913
#
# Compressibility (1/GPa) = 0.03764549
#
# Stress axis : x y z
#
# Youngs Moduli (GPa) = 28.30950 85.14591 54.00012
#
# Poissons Ratio (x) = 0.56912 0.09858
# Poissons Ratio (y) = 0.18922 0.29490
# Poissons Ratio (z) = 0.05168 0.46500
#
# Static dielectric constant tensor:
#      x y z
#    x 1.670750 0.000000 0.000000 
#    y 0.000000 1.680190 0.000000 
#    z 0.000000 0.000000 1.724320 
# 
# From -- ./inp_files/4264.got.cif
#   From: 2010.05.17/outbox.cif.g08.bks.cpg/sg26_3_cif.got.tgz:4264.got - 2010.06.04 01:07:29.
