data_PCOD9338933
_publ_section_title
;
Structure prediction by ZEFSAII (Michael W. Deem and Ramdas Pophale) SiO2 
 PCOD9338933
Probable space group: P C C 2
;
_chemical_formula_sum "Si O2"
_cell_formula_units_Z 32
_cell_length_a 14.178051
_cell_length_b 6.087183
_cell_length_c 18.743825
_cell_angle_alpha 90.000000
_cell_angle_beta 90.000000
_cell_angle_gamma 90.000000
_cell_volume 1617.674402
_symmetry_space_group_name_H-M "P C C 2"
_symmetry_group_IT_number 27
_symmetry_cell_setting 'orthorhombic'
loop_
_space_group_symop_operation_xyz
x,y,z
-x,-y,z
-x,y,1/2+z
x,-y,1/2+z
loop_
_atom_site_type_symbol
_atom_site_label
_atom_site_fract_x
_atom_site_fract_y
_atom_site_fract_z
Si Si1 0.395532 0.005692 0.335330
Si Si2 0.769150 0.696858 0.893116
Si Si3 0.234013 0.742179 0.619081
Si Si4 0.888555 0.019250 0.498349
Si Si5 0.600939 0.049580 0.066654
Si Si6 0.246786 0.360908 0.513141
Si Si7 0.419247 0.321751 0.707090
Si Si8 0.265316 0.619918 0.769949
O O1 0.314890 0.861989 0.373181
O O2 0.418194 0.874148 0.262890
O O3 0.500000 0.000000 0.370756
O O4 0.341275 0.230333 0.313265
O O5 0.852704 0.834671 0.930977
O O6 0.790658 0.532075 0.826758
O O7 0.730300 0.540789 0.954876
O O8 0.158913 0.875478 0.569917
O O9 0.232424 0.496782 0.586007
O O10 0.216413 0.754296 0.704704
O O11 0.336362 0.851808 0.600264
O O12 0.845349 0.775737 0.492362
O O13 0.000000 0.000000 0.502837
O O14 0.671183 0.181947 0.016478
O O15 0.575429 0.215851 0.130285
O O16 0.500000 0.000000 0.033651
O O17 0.500000 0.500000 0.718750
O O18 0.324098 0.449797 0.722665
#
# Coordination Sequence:
#
# PCOD9338933 Si02
#       8
#     4   4   4   4   4   4   4   4
#     4  11  21  36  58  89 132 178 223 257 299 375
#     4  10  24  39  62  90 124 171 212 259 323 389
#     4  10  21  38  64  95 120 161 210 270 320 370
#     4  10  23  46  72  91 116 162 214 268 337 413
#     4  11  21  33  57  90 130 165 216 261 304 367
#     4  10  22  43  60  87 122 161 210 259 323 385
#     4  11  19  30  55  89 120 171 223 254 304 366
#     4  11  20  36  60  90 127 167 210 266 316 371
#
# _framework density 19.781486000000001
#
# number of rings (size 3 to 8) (size 9 to 14) (size 15 to 20)
#    0.000    1.500    3.750    1.875    0.000    2.000 
#    0.000   15.000    0.000   11.250    0.000    0.000 
#    0.000    0.000    0.000    0.000    0.000    0.000 
#
# Total GULP energy -178403.405904 kJ/mol
# GULP energy per Si atom -5575.106435 kJ/mol
# Density = 1.973646 g / cm^3
# Si number density = 19.781486 Si / 1000 Ang^3
#
#
#
# Elastic Constant Matrix: (Units=GPa)
#
#
# Indices 1 2 3 4 5 6 
#
# 1 120.8586 28.5003 33.5695 0.0000 0.0000 0.0000
# 2 28.5003 81.9905 23.0909 0.0000 0.0000 0.0000
# 3 33.5695 23.0909 100.6096 0.0000 0.0000 0.0000
# 4 0.0000 0.0000 0.0000 28.2151 0.0000 0.0000
# 5 0.0000 0.0000 0.0000 0.0000 20.7296 0.0000
# 6 0.0000 0.0000 0.0000 0.0000 0.0000 14.7539
#
#
#
# Elastic Compliance Matrix: (Units=1/GPa)
#
#
# Indices 1 2 3 4 5 6 
#
# 1 0.009614 -0.002607 -0.002609 0.000000 0.000000 0.000000
# 2 -0.002607 0.013746 -0.002285 0.000000 0.000000 0.000000
# 3 -0.002609 -0.002285 0.011335 0.000000 0.000000 0.000000
# 4 0.000000 0.000000 0.000000 0.035442 0.000000 0.000000
# 5 0.000000 0.000000 0.000000 0.000000 0.048240 0.000000
# 6 0.000000 0.000000 0.000000 0.000000 0.000000 0.067779
#
#
# Mechanical properties :
#
#
# Convention : Reuss Voigt Hill
#
# Bulk Modulus (GPa) = 50.78284 52.64225 51.71254
# Shear Modulus (GPa) = 24.07064 27.29292 25.68178
#
# Velocity S-wave (km/s) = 3.49209 3.71849 3.60707
# Velocity P-wave (km/s) = 6.47975 6.71609 6.59898
#
# Compressibility (1/GPa) = 0.01969169
#
# Stress axis : x y z
#
# Youngs Moduli (GPa) = 104.01873 72.74713 88.22609
#
# Poissons Ratio (x) = 0.18964 0.23022
# Poissons Ratio (y) = 0.27116 0.20160
# Poissons Ratio (z) = 0.27143 0.16623
#
# Static dielectric constant tensor:
#      x y z
#    x 1.699170 0.000000 0.000000 
#    y 0.000000 1.767370 0.000000 
#    z 0.000000 0.000000 1.770840 
# 
# From -- ./inp_files/4091.got.cif
#   From: 2010.05.17/outbox.cif.g08.bks.cpg/sg27_3_cif.got.tgz:4091.got - 2010.06.04 01:11:05.
