data_PCOD9338156
_publ_section_title
;
Structure prediction by ZEFSAII (Michael W. Deem and Ramdas Pophale) SiO2 
 PCOD9338156
Probable space group: P M C 21
;
_chemical_formula_sum "Si O2"
_cell_formula_units_Z 32
_cell_length_a 9.832316
_cell_length_b 16.045495
_cell_length_c 11.199821
_cell_angle_alpha 90.000000
_cell_angle_beta 90.000000
_cell_angle_gamma 90.000000
_cell_volume 1766.932785
_symmetry_space_group_name_H-M "P M C 21"
_symmetry_group_IT_number 26
_symmetry_cell_setting 'orthorhombic'
loop_
_space_group_symop_operation_xyz
x,y,z
-x,-y,1/2+z
-x,y,z
x,-y,1/2+z
loop_
_atom_site_type_symbol
_atom_site_label
_atom_site_fract_x
_atom_site_fract_y
_atom_site_fract_z
Si Si1 0.335397 0.052362 0.347390
Si Si2 0.340499 0.637710 0.372767
Si Si3 0.842691 0.349050 0.102533
Si Si4 0.152371 0.208840 0.292192
Si Si5 0.847745 0.350892 0.495727
Si Si6 0.340689 0.248873 0.661814
Si Si7 0.158340 0.510676 0.805109
Si Si8 0.664878 0.059757 0.619301
O O1 0.500000 0.059237 0.345128
O O2 0.264625 0.140474 0.320096
O O3 0.297110 0.028704 0.485205
O O4 0.293545 0.992093 0.237238
O O5 0.500000 0.618874 0.385206
O O6 0.263365 0.644018 0.497159
O O7 0.328114 0.723647 0.299035
O O8 0.262756 0.564491 0.302277
O O9 0.824365 0.261985 0.172468
O O10 0.824741 0.424176 0.197042
O O11 0.000000 0.353218 0.060732
O O12 0.150367 0.279373 0.394337
O O13 0.000000 0.171408 0.287984
O O14 0.739263 0.318154 0.588151
O O15 0.818745 0.436698 0.427080
O O16 0.000000 0.356793 0.547783
O O17 0.500000 0.251773 0.629758
O O18 0.289871 0.155914 0.633996
O O19 0.000000 0.483775 0.804985
O O20 0.500000 0.059854 0.621935
#
# Coordination Sequence:
#
# PCOD9338156 Si02
#       8
#     4   4   4   4   4   4   4   4
#     4  10  19  34  58  84 110 149 193 235 284 346
#     4  11  24  36  52  82 117 146 182 238 291 333
#     4   9  20  39  58  77 108 148 189 229 276 344
#     4   9  18  35  58  83 108 136 180 234 279 325
#     4   9  18  34  58  82 103 136 183 228 270 328
#     4  10  21  37  54  79 115 149 183 231 282 333
#     4   9  20  38  58  79 105 144 190 232 275 334
#     4   9  19  35  56  82 112 148 194 235 281 347
#
# _framework density 18.110479000000002
#
# number of rings (size 3 to 8) (size 9 to 14) (size 15 to 20)
#    0.000    2.500    1.250    1.875    1.750    3.500 
#    0.000    6.250    0.000    0.000    0.000    0.000 
#    0.000    0.000    0.000    0.000    0.000    0.000 
#
# Total GULP energy -178363.689031 kJ/mol
# GULP energy per Si atom -5573.865282 kJ/mol
# Density = 1.806926 g / cm^3
# Si number density = 18.110479 Si / 1000 Ang^3
#
#
#
# Elastic Constant Matrix: (Units=GPa)
#
#
# Indices 1 2 3 4 5 6 
#
# 1 53.3769 30.9827 50.7909 0.0000 0.0000 0.0000
# 2 30.9827 62.3241 45.8441 0.0000 0.0000 0.0000
# 3 50.7909 45.8441 109.5339 0.0000 0.0000 0.0000
# 4 0.0000 0.0000 0.0000 19.6886 0.0000 0.0000
# 5 0.0000 0.0000 0.0000 0.0000 155.5130 0.0000
# 6 0.0000 0.0000 0.0000 0.0000 0.0000 25.2103
#
#
#
# Elastic Compliance Matrix: (Units=1/GPa)
#
#
# Indices 1 2 3 4 5 6 
#
# 1 0.036189 -0.008158 -0.013366 0.000000 0.000000 0.000000
# 2 -0.008158 0.025021 -0.006689 0.000000 0.000000 0.000000
# 3 -0.013366 -0.006689 0.018127 0.000000 0.000000 0.000000
# 4 0.000000 0.000000 0.000000 0.050791 0.000000 0.000000
# 5 0.000000 0.000000 0.000000 0.000000 0.006430 0.000000
# 6 0.000000 0.000000 0.000000 0.000000 0.000000 0.039666
#
#
# Mechanical properties :
#
#
# Convention : Reuss Voigt Hill
#
# Bulk Modulus (GPa) = 43.64979 53.38558 48.51768
# Shear Modulus (GPa) = 20.80823 46.59019 33.69921
#
# Velocity S-wave (km/s) = 3.39331 5.07754 4.31833
# Velocity P-wave (km/s) = 6.28546 7.99481 7.19110
#
# Compressibility (1/GPa) = 0.02290962
#
# Stress axis : x y z
#
# Youngs Moduli (GPa) = 27.63279 39.96576 55.16564
#
# Poissons Ratio (x) = 0.32606 0.73735
# Poissons Ratio (y) = 0.22544 0.36902
# Poissons Ratio (z) = 0.36934 0.26734
#
# Static dielectric constant tensor:
#      x y z
#    x 1.542170 0.000000 0.000000 
#    y 0.000000 1.612830 0.000000 
#    z 0.000000 0.000000 1.658460 
# 
# From -- ./inp_files/3025.got.cif
#   From: 2010.05.17/outbox.cif.g08.bks.cpg/sg26_2_cif.got.tgz:3025.got - 2010.06.04 01:07:29.
