data_PCOD9338032
_publ_section_title
;
Structure prediction by ZEFSAII (Michael W. Deem and Ramdas Pophale) SiO2 
 PCOD9338032
Probable space group: P M C 21
;
_chemical_formula_sum "Si O2"
_cell_formula_units_Z 32
_cell_length_a 13.797871
_cell_length_b 16.948017
_cell_length_c 7.821781
_cell_angle_alpha 90.000000
_cell_angle_beta 90.000000
_cell_angle_gamma 90.000000
_cell_volume 1829.096519
_symmetry_space_group_name_H-M "P M C 21"
_symmetry_group_IT_number 26
_symmetry_cell_setting 'orthorhombic'
loop_
_space_group_symop_operation_xyz
x,y,z
-x,-y,1/2+z
-x,y,z
x,-y,1/2+z
loop_
_atom_site_type_symbol
_atom_site_label
_atom_site_fract_x
_atom_site_fract_y
_atom_site_fract_z
Si Si1 0.892885 0.679243 0.315210
Si Si2 0.332125 0.734047 0.949671
Si Si3 0.806701 0.436741 0.097886
Si Si4 0.837365 0.609244 0.967620
Si Si5 0.612998 0.100302 0.340049
Si Si6 0.311282 0.235268 0.823095
Si Si7 0.387491 0.075400 0.935111
Si Si8 0.393551 0.655352 0.617583
O O1 0.860511 0.610472 0.446733
O O2 0.802173 0.739981 0.322202
O O3 0.000000 0.709700 0.362251
O O4 0.899078 0.644244 0.123493
O O5 0.358827 0.732132 0.148714
O O6 0.236402 0.681102 0.935841
O O7 0.324532 0.826159 0.903391
O O8 0.397293 0.695384 0.803886
O O9 0.863651 0.418496 0.275271
O O10 0.696538 0.404696 0.114257
O O11 0.798259 0.528373 0.051408
O O12 0.500000 0.113771 0.392064
O O13 0.615539 0.095272 0.135369
O O14 0.643602 0.014815 0.408814
O O15 0.327499 0.141972 0.837378
O O16 0.363994 0.277258 0.981783
O O17 0.500000 0.079850 0.876726
O O18 0.500000 0.622513 0.576405
#
# Coordination Sequence:
#
# PCOD9338032 Si02
#       8
#     4   4   4   4   4   4   4   4
#     4  10  22  38  58  84 108 137 178 230 288 334
#     4  10  20  33  53  73 106 145 184 224 271 314
#     4  10  20  37  56  78 112 140 179 231 271 324
#     4  10  20  37  58  75 108 144 179 230 279 330
#     4  10  19  31  48  78 113 143 185 230 264 315
#     4  10  20  35  55  77 107 145 178 221 274 333
#     4  10  19  31  51  79 113 147 180 224 269 316
#     4  10  20  34  52  74 107 149 186 220 257 314
#
# _framework density 17.494976000000001
#
# number of rings (size 3 to 8) (size 9 to 14) (size 15 to 20)
#    0.000    2.000    2.500    1.500    0.000    4.000 
#    0.000    3.125    0.000    0.000    0.000    7.875 
#    0.000    0.000    0.000    0.000    0.000    0.000 
#
# Total GULP energy -178177.422716 kJ/mol
# GULP energy per Si atom -5568.044460 kJ/mol
# Density = 1.745516 g / cm^3
# Si number density = 17.494976 Si / 1000 Ang^3
#
#
#
# Elastic Constant Matrix: (Units=GPa)
#
#
# Indices 1 2 3 4 5 6 
#
# 1 81.8165 34.1888 36.6625 0.0000 0.0000 0.0000
# 2 34.1888 108.1421 19.3449 0.0000 0.0000 0.0000
# 3 36.6625 19.3449 85.0106 0.0000 0.0000 0.0000
# 4 0.0000 0.0000 0.0000 29.4796 0.0000 0.0000
# 5 0.0000 0.0000 0.0000 0.0000 22.9589 0.0000
# 6 0.0000 0.0000 0.0000 0.0000 0.0000 -2.1891
#
#
#
# Elastic Compliance Matrix: (Units=1/GPa)
#
#
# Indices 1 2 3 4 5 6 
#
# 1 0.016788 -0.004183 -0.006288 0.000000 0.000000 0.000000
# 2 -0.004183 0.010682 -0.000627 0.000000 0.000000 0.000000
# 3 -0.006288 -0.000627 0.014618 0.000000 0.000000 0.000000
# 4 0.000000 0.000000 0.000000 0.033922 0.000000 0.000000
# 5 0.000000 0.000000 0.000000 0.000000 0.043556 0.000000
# 6 0.000000 0.000000 0.000000 0.000000 0.000000 -0.456805
#
#
# Mechanical properties :
#
#
# Convention : Reuss Voigt Hill
#
# Bulk Modulus (GPa) = 50.27194 50.59571 50.43383
# Shear Modulus (GPa) = -16.21201 22.36808 3.07804
#
# Velocity S-wave (km/s) = -3.04742 3.57955 1.32786
# Velocity P-wave (km/s) = 4.05155 6.78728 5.58938
#
# Compressibility (1/GPa) = 0.01989181
#
# Stress axis : x y z
#
# Youngs Moduli (GPa) = 59.56584 93.61941 68.40939
#
# Poissons Ratio (x) = 0.39157 0.43019
# Poissons Ratio (y) = 0.24914 0.04288
# Poissons Ratio (z) = 0.37457 0.05868
#
# Static dielectric constant tensor:
#      x y z
#    x 1.366790 0.000000 0.000000 
#    y 0.000000 1.586570 0.000000 
#    z 0.000000 0.000000 1.642800 
# 
# From -- ./inp_files/2297.got.cif
#   From: 2010.05.17/outbox.cif.g08.bks.cpg/sg26_2_cif.got.tgz:2297.got - 2010.06.04 01:07:29.
