data_PCOD9338921
_publ_section_title
;
Structure prediction by ZEFSAII (Michael W. Deem and Ramdas Pophale) SiO2 
 PCOD9338921
Probable space group: P C C 2
;
_chemical_formula_sum "Si O2"
_cell_formula_units_Z 20
_cell_length_a 8.123290
_cell_length_b 20.783795
_cell_length_c 5.263708
_cell_angle_alpha 90.000000
_cell_angle_beta 90.000000
_cell_angle_gamma 90.000000
_cell_volume 888.686529
_symmetry_space_group_name_H-M "P C C 2"
_symmetry_group_IT_number 27
_symmetry_cell_setting 'orthorhombic'
loop_
_space_group_symop_operation_xyz
x,y,z
-x,-y,z
-x,y,1/2+z
x,-y,1/2+z
loop_
_atom_site_type_symbol
_atom_site_label
_atom_site_fract_x
_atom_site_fract_y
_atom_site_fract_z
Si Si1 0.612200 0.361783 0.970920
Si Si2 0.069869 0.427991 0.353948
Si Si3 0.097438 0.895915 0.979772
Si Si4 0.438275 0.928073 0.188141
Si Si5 0.106141 0.255888 0.515374
O O1 0.490902 0.362967 0.730254
O O2 0.257379 0.420688 0.440455
O O3 0.734124 0.300079 0.973007
O O4 0.000000 0.500000 0.320279
O O5 0.959571 0.398010 0.577650
O O6 0.257768 0.932119 0.074028
O O7 0.142599 0.820288 0.999222
O O8 0.959263 0.909531 0.193614
O O9 0.452605 0.895855 0.465123
O O10 0.500000 0.000000 0.240652
O O11 0.975050 0.267187 0.289946
#
# Coordination Sequence:
#
# PCOD9338921 Si02
#       5
#     4   4   4   4   4
#     4  12  24  38  60  94 123 148 193 250 294 340
#     4  10  21  41  63  82 113 163 201 230 287 350
#     4  10  21  38  61  87 114 151 202 244 279 344
#     4  10  21  38  56  81 116 154 190 235 299 348
#     4  10  21  39  62  86 117 158 194 233 293 358
#
# _framework density 22.505123999999999
#
# number of rings (size 3 to 8) (size 9 to 14) (size 15 to 20)
#    0.000    1.600    0.000    4.800    0.000    1.600 
#    0.000   24.000    0.000    0.000    0.000    0.000 
#    0.000    0.000    0.000    0.000    0.000    0.000 
#
# Total GULP energy -111733.224410 kJ/mol
# GULP energy per Si atom -5586.661220 kJ/mol
# Density = 2.245390 g / cm^3
# Si number density = 22.505124 Si / 1000 Ang^3
#
#
#
# Elastic Constant Matrix: (Units=GPa)
#
#
# Indices 1 2 3 4 5 6 
#
# 1 113.9933 25.2456 20.0878 0.0000 0.0000 0.0000
# 2 25.2456 51.2879 3.9940 0.0000 0.0000 0.0000
# 3 20.0878 3.9940 157.1655 0.0000 0.0000 0.0000
# 4 0.0000 0.0000 0.0000 16.0287 0.0000 0.0000
# 5 0.0000 0.0000 0.0000 0.0000 42.8007 0.0000
# 6 0.0000 0.0000 0.0000 0.0000 0.0000 -64.3016
#
#
#
# Elastic Compliance Matrix: (Units=1/GPa)
#
#
# Indices 1 2 3 4 5 6 
#
# 1 0.010053 -0.004858 -0.001161 0.000000 0.000000 0.000000
# 2 -0.004858 0.021884 0.000065 0.000000 0.000000 0.000000
# 3 -0.001161 0.000065 0.006510 0.000000 0.000000 0.000000
# 4 0.000000 0.000000 0.000000 0.062388 0.000000 0.000000
# 5 0.000000 0.000000 0.000000 0.000000 0.023364 0.000000
# 6 0.000000 0.000000 0.000000 0.000000 0.000000 -0.015552
#
#
# Mechanical properties :
#
#
# Convention : Reuss Voigt Hill
#
# Bulk Modulus (GPa) = 37.68290 46.78905 42.23597
# Shear Modulus (GPa) = 38.63920 17.11348 27.87634
#
# Velocity S-wave (km/s) = 4.14805 2.76057 3.52329
# Velocity P-wave (km/s) = 6.30256 5.56746 5.94638
#
# Compressibility (1/GPa) = 0.02653724
#
# Stress axis : x y z
#
# Youngs Moduli (GPa) = 99.47286 45.69547 153.62110
#
# Poissons Ratio (x) = 0.22199 0.17842
# Poissons Ratio (y) = 0.48324 -0.00995
# Poissons Ratio (z) = 0.11553 -0.00296
#
# Static dielectric constant tensor:
#      x y z
#    x 1.834620 0.000000 0.000000 
#    y 0.000000 2.212650 0.000000 
#    z 0.000000 0.000000 1.924200 
# 
# From -- ./inp_files/59.got.cif
#   From: 2010.05.17/outbox.cif.g08.bks.cpg/sg27_1_cif.got.tgz:59.got - 2010.06.04 01:11:05.
