data_PCOD9338809
_publ_section_title
;
Structure prediction by ZEFSAII (Michael W. Deem and Ramdas Pophale) SiO2 
 PCOD9338809
Probable space group: P C C 2
;
_chemical_formula_sum "Si O2"
_cell_formula_units_Z 32
_cell_length_a 11.251215
_cell_length_b 14.154189
_cell_length_c 8.269616
_cell_angle_alpha 90.000000
_cell_angle_beta 90.000000
_cell_angle_gamma 90.000000
_cell_volume 1316.951428
_symmetry_space_group_name_H-M "P C C 2"
_symmetry_group_IT_number 27
_symmetry_cell_setting 'orthorhombic'
loop_
_space_group_symop_operation_xyz
x,y,z
-x,-y,z
-x,y,1/2+z
x,-y,1/2+z
loop_
_atom_site_type_symbol
_atom_site_label
_atom_site_fract_x
_atom_site_fract_y
_atom_site_fract_z
Si Si1 0.618698 0.269146 0.462580
Si Si2 0.229404 0.470196 0.493208
Si Si3 0.831007 0.188633 0.245243
Si Si4 0.771914 0.987780 0.348620
Si Si5 0.185637 0.646129 0.686917
Si Si6 0.594683 0.427305 0.255135
Si Si7 0.918827 0.806940 0.387939
Si Si8 0.602269 0.077347 0.607988
O O1 0.718585 0.235496 0.333177
O O2 0.688037 0.323083 0.607407
O O3 0.540981 0.338441 0.351224
O O4 0.559450 0.177393 0.540257
O O5 0.153464 0.557863 0.566774
O O6 0.170550 0.404804 0.360372
O O7 0.335874 0.516777 0.393126
O O8 0.298652 0.410561 0.629130
O O9 0.940485 0.203295 0.368014
O O10 0.807294 0.076244 0.236388
O O11 0.867339 0.221317 0.064596
O O12 0.879834 0.916160 0.369734
O O13 0.711228 0.042645 0.496755
O O14 0.664103 0.922454 0.281857
O O15 0.128886 0.746413 0.734900
O O16 0.500000 0.500000 0.185540
O O17 0.500000 0.000000 0.608930
#
# Coordination Sequence:
#
# PCOD9338809 Si02
#       8
#     4   4   4   4   4   4   4   4
#     4  10  22  42  67  98 138 178 232 292 348 415
#     4   9  20  37  61  91 132 169 219 280 346 393
#     4  11  25  40  68 103 141 181 229 294 348 422
#     4  11  23  42  65  96 142 182 232 288 343 403
#     4  10  20  40  68  95 133 179 217 286 345 416
#     4  10  19  37  60  92 127 171 227 289 340 399
#     4  12  23  40  69 102 135 181 234 283 358 422
#     4  11  23  44  64  95 140 191 235 279 345 415
#
# _framework density 24.298542999999999
#
# number of rings (size 3 to 8) (size 9 to 14) (size 15 to 20)
#    0.000    1.500    2.500    2.625    1.750    1.000 
#    4.500    6.875    0.000   25.500    0.000    0.000 
#    0.000    0.000    0.000    0.000    0.000    0.000 
#
# Total GULP energy -178445.337196 kJ/mol
# GULP energy per Si atom -5576.416787 kJ/mol
# Density = 2.424324 g / cm^3
# Si number density = 24.298543 Si / 1000 Ang^3
#
#
#
# Elastic Constant Matrix: (Units=GPa)
#
#
# Indices 1 2 3 4 5 6 
#
# 1 26.5025 -3.4643 -1.2807 0.0000 0.0000 0.0000
# 2 -3.4643 60.6996 20.7471 0.0000 0.0000 0.0000
# 3 -1.2807 20.7471 85.3210 0.0000 0.0000 0.0000
# 4 0.0000 0.0000 0.0000 25.1924 0.0000 0.0000
# 5 0.0000 0.0000 0.0000 0.0000 25.4813 0.0000
# 6 0.0000 0.0000 0.0000 0.0000 0.0000 6.5185
#
#
#
# Elastic Compliance Matrix: (Units=1/GPa)
#
#
# Indices 1 2 3 4 5 6 
#
# 1 0.038016 0.002154 0.000047 0.000000 0.000000 0.000000
# 2 0.002154 0.018090 -0.004367 0.000000 0.000000 0.000000
# 3 0.000047 -0.004367 0.012783 0.000000 0.000000 0.000000
# 4 0.000000 0.000000 0.000000 0.039694 0.000000 0.000000
# 5 0.000000 0.000000 0.000000 0.000000 0.039244 0.000000
# 6 0.000000 0.000000 0.000000 0.000000 0.000000 0.153410
#
#
# Mechanical properties :
#
#
# Convention : Reuss Voigt Hill
#
# Bulk Modulus (GPa) = 15.49015 22.72524 19.10770
# Shear Modulus (GPa) = 15.28639 21.87317 18.57978
#
# Velocity S-wave (km/s) = 2.51092 3.00356 2.76822
# Velocity P-wave (km/s) = 3.84644 4.62616 4.25420
#
# Compressibility (1/GPa) = 0.06455714
#
# Stress axis : x y z
#
# Youngs Moduli (GPa) = 26.30464 55.27927 78.22927
#
# Poissons Ratio (x) = -0.11905 -0.00367
# Poissons Ratio (y) = -0.05665 0.34159
# Poissons Ratio (z) = -0.00123 0.24138
#
# Static dielectric constant tensor:
#      x y z
#    x 1.930690 0.000000 0.000000 
#    y 0.000000 2.028730 0.000000 
#    z 0.000000 0.000000 1.990220 
# 
# From -- ./inp_files/1475.got.cif
#   From: 2010.05.17/outbox.cif.g08.bks.cpg/sg27_1_cif.got.tgz:1475.got - 2010.06.04 01:11:05.
