data_PCOD9338018
_publ_section_title
;
Structure prediction by ZEFSAII (Michael W. Deem and Ramdas Pophale) SiO2 
 PCOD9338018
Probable space group: P M C 21
;
_chemical_formula_sum "Si O2"
_cell_formula_units_Z 22
_cell_length_a 16.208199
_cell_length_b 7.573716
_cell_length_c 6.881229
_cell_angle_alpha 90.000000
_cell_angle_beta 90.000000
_cell_angle_gamma 90.000000
_cell_volume 844.714185
_symmetry_space_group_name_H-M "P M C 21"
_symmetry_group_IT_number 26
_symmetry_cell_setting 'orthorhombic'
loop_
_space_group_symop_operation_xyz
x,y,z
-x,-y,1/2+z
-x,y,z
x,-y,1/2+z
loop_
_atom_site_type_symbol
_atom_site_label
_atom_site_fract_x
_atom_site_fract_y
_atom_site_fract_z
Si Si1 0.000000 0.323616 0.003101
Si Si2 0.677569 0.138775 0.306960
Si Si3 0.678150 0.261315 0.747113
Si Si4 0.500000 0.366880 0.699275
Si Si5 0.857235 0.259500 0.734536
Si Si6 0.858720 0.834883 0.785346
Si Si7 0.500000 0.237958 0.260370
O O1 0.927163 0.246406 0.147984
O O2 0.928767 0.365770 0.836967
O O3 0.674858 0.236132 0.513590
O O4 0.764198 0.197282 0.214318
O O5 0.587677 0.153593 0.210287
O O6 0.685958 0.931304 0.339610
O O7 0.588672 0.335004 0.799612
O O8 0.767758 0.343053 0.782554
O O9 0.500000 0.260536 0.495875
O O10 0.500000 0.572876 0.663663
O O11 0.866636 0.242143 0.502226
O O12 0.866840 0.050333 0.796416
#
# Coordination Sequence:
#
# PCOD9338018 Si02
#       7
#     2   4   4   2   4   4   2
#     4  12  20  28  46  72 110 140 190 212 282 320
#     4   9  19  34  53  78 114 144 180 221 275 329
#     4   9  19  34  53  78 114 144 180 221 275 329
#     4  10  21  38  56  82 110 142 183 226 272 328
#     4  10  19  29  44  72 108 145 177 222 270 324
#     4  10  19  29  44  72 108 145 177 222 270 324
#     4  10  21  38  56  82 110 142 183 226 272 328
#
# _framework density 26.044309999999999
#
# number of rings (size 3 to 8) (size 9 to 14) (size 15 to 20)
#    0.000    2.182    1.818    1.636    2.545    1.455 
#    0.000    0.000    0.000    0.000    0.000    1.273 
#    0.000    0.000    0.000    0.000    0.000    0.000 
#
# Total GULP energy -122509.115267 kJ/mol
# GULP energy per Si atom -5568.596149 kJ/mol
# Density = 2.598503 g / cm^3
# Si number density = 26.044310 Si / 1000 Ang^3
#
#
#
# Elastic Constant Matrix: (Units=GPa)
#
#
# Indices 1 2 3 4 5 6 
#
# 1 336.1175 34.9182 63.3224 0.0000 0.0000 0.0000
# 2 34.9182 47.0325 3.0328 0.0000 0.0000 0.0000
# 3 63.3224 3.0328 102.5480 0.0000 0.0000 0.0000
# 4 0.0000 0.0000 0.0000 8.4733 0.0000 0.0000
# 5 0.0000 0.0000 0.0000 0.0000 50.6808 0.0000
# 6 0.0000 0.0000 0.0000 0.0000 0.0000 -35.9909
#
#
#
# Elastic Compliance Matrix: (Units=1/GPa)
#
#
# Indices 1 2 3 4 5 6 
#
# 1 0.003653 -0.002571 -0.002180 0.000000 0.000000 0.000000
# 2 -0.002571 0.023113 0.000904 0.000000 0.000000 0.000000
# 3 -0.002180 0.000904 0.011071 0.000000 0.000000 0.000000
# 4 0.000000 0.000000 0.000000 0.118017 0.000000 0.000000
# 5 0.000000 0.000000 0.000000 0.000000 0.019731 0.000000
# 6 0.000000 0.000000 0.000000 0.000000 0.000000 -0.027785
#
#
# Mechanical properties :
#
#
# Convention : Reuss Voigt Hill
#
# Bulk Modulus (GPa) = 33.17542 76.47165 54.82354
# Shear Modulus (GPa) = 30.20393 30.26094 30.23243
#
# Velocity S-wave (km/s) = 3.40915 3.41237 3.41076
# Velocity P-wave (km/s) = 5.31621 6.70459 6.05036
#
# Compressibility (1/GPa) = 0.03014280
#
# Stress axis : x y z
#
# Youngs Moduli (GPa) = 273.75409 43.26621 90.32883
#
# Poissons Ratio (x) = 0.11126 0.19688
# Poissons Ratio (y) = 0.70395 -0.08169
# Poissons Ratio (z) = 0.59667 -0.03913
#
# Static dielectric constant tensor:
#      x y z
#    x 2.063790 0.000000 0.000000 
#    y 0.000000 2.038130 0.000000 
#    z 0.000000 0.000000 2.081490 
# 
# From -- ./inp_files/2138.got.cif
#   From: 2010.05.17/outbox.cif.g08.bks.cpg/sg26_2_cif.got.tgz:2138.got - 2010.06.04 01:07:29.
