data_PCOD9338755
_publ_section_title
;
Structure prediction by ZEFSAII (Michael W. Deem and Ramdas Pophale) SiO2 
 PCOD9338755
Probable space group: P C C 2
;
_chemical_formula_sum "Si O2"
_cell_formula_units_Z 26
_cell_length_a 5.422110
_cell_length_b 7.074555
_cell_length_c 28.603779
_cell_angle_alpha 90.000000
_cell_angle_beta 90.000000
_cell_angle_gamma 90.000000
_cell_volume 1097.212799
_symmetry_space_group_name_H-M "P C C 2"
_symmetry_group_IT_number 27
_symmetry_cell_setting 'orthorhombic'
loop_
_space_group_symop_operation_xyz
x,y,z
-x,-y,z
-x,y,1/2+z
x,-y,1/2+z
loop_
_atom_site_type_symbol
_atom_site_label
_atom_site_fract_x
_atom_site_fract_y
_atom_site_fract_z
Si Si1 0.500000 0.000000 0.245430
Si Si2 0.272005 0.305818 0.021926
Si Si3 0.265811 0.758528 0.627213
Si Si4 0.501940 0.727187 0.330723
Si Si5 0.218371 0.266939 0.485384
Si Si6 0.761383 0.838535 0.661895
Si Si7 0.005337 0.727504 0.883568
O O1 0.493746 0.823107 0.280311
O O2 0.273906 0.954921 0.210116
O O3 0.506900 0.204539 0.998833
O O4 0.246672 0.505173 0.994256
O O5 0.006002 0.209529 0.018431
O O6 0.303965 0.333285 0.076951
O O7 0.511951 0.720944 0.656590
O O8 0.005906 0.721090 0.652388
O O9 0.252443 0.989785 0.624161
O O10 0.500000 0.500000 0.327852
O O11 0.768657 0.785497 0.350635
O O12 0.266256 0.781881 0.363914
O O13 0.107008 0.218362 0.434796
O O14 0.000000 0.500000 0.884532
#
# Coordination Sequence:
#
# PCOD9338755 Si02
#       7
#     2   4   4   4   4   4   4
#     4  10  22  44  68  94 124 170 216 258 336 390
#     4  10  18  28  53  80 113 144 209 242 285 390
#     4   9  17  33  52  84 105 145 203 242 303 363
#     4  10  23  37  66  94 123 166 209 269 307 392
#     4  10  19  30  51  84 110 164 197 242 312 359
#     4   9  20  35  61  77 110 162 191 252 324 371
#     4  10  19  36  56  89 124 162 209 257 320 365
#
# _framework density 23.696404000000001
#
# number of rings (size 3 to 8) (size 9 to 14) (size 15 to 20)
#    0.000    2.462    1.538    1.846    4.308    5.538 
#    0.000    0.000   27.077   18.462    0.000    0.000 
#    0.000    0.000    0.000    0.000    0.000    0.000 
#
# Total GULP energy -144855.436161 kJ/mol
# GULP energy per Si atom -5571.362929 kJ/mol
# Density = 2.364247 g / cm^3
# Si number density = 23.696404 Si / 1000 Ang^3
#
#
#
# Elastic Constant Matrix: (Units=GPa)
#
#
# Indices 1 2 3 4 5 6 
#
# 1 252.3455 16.7177 58.3204 0.0000 0.0000 0.0000
# 2 16.7177 103.0548 10.2372 0.0000 0.0000 0.0000
# 3 58.3204 10.2372 131.7405 0.0000 0.0000 0.0000
# 4 0.0000 0.0000 0.0000 60.9548 0.0000 0.0000
# 5 0.0000 0.0000 0.0000 0.0000 13.4084 0.0000
# 6 0.0000 0.0000 0.0000 0.0000 0.0000 -18.1929
#
#
#
# Elastic Compliance Matrix: (Units=1/GPa)
#
#
# Indices 1 2 3 4 5 6 
#
# 1 0.004443 -0.000529 -0.001926 0.000000 0.000000 0.000000
# 2 -0.000529 0.009842 -0.000530 0.000000 0.000000 0.000000
# 3 -0.001926 -0.000530 0.008484 0.000000 0.000000 0.000000
# 4 0.000000 0.000000 0.000000 0.016406 0.000000 0.000000
# 5 0.000000 0.000000 0.000000 0.000000 0.074580 0.000000
# 6 0.000000 0.000000 0.000000 0.000000 0.000000 -0.054966
#
#
# Mechanical properties :
#
#
# Convention : Reuss Voigt Hill
#
# Bulk Modulus (GPa) = 59.52975 73.07683 66.30329
# Shear Modulus (GPa) = 71.06339 38.02507 54.54423
#
# Velocity S-wave (km/s) = 5.48217 4.01019 4.80291
# Velocity P-wave (km/s) = 8.07766 7.23518 7.66800
#
# Compressibility (1/GPa) = 0.01679832
#
# Stress axis : x y z
#
# Youngs Moduli (GPa) = 225.07547 101.60373 117.86346
#
# Poissons Ratio (x) = 0.05379 0.22697
# Poissons Ratio (y) = 0.11917 0.06252
# Poissons Ratio (z) = 0.43343 0.05389
#
# Static dielectric constant tensor:
#      x y z
#    x 1.982610 0.000000 0.000000 
#    y 0.000000 1.910060 0.000000 
#    z 0.000000 0.000000 1.894250 
# 
# From -- ./inp_files/5213.got.cif
#   From: 2010.05.17/outbox.cif.g08.bks.cpg/sg27_3_cif.got.tgz:5213.got - 2010.06.04 01:11:05.
