data_PCOD9338377
_publ_section_title
;
Structure prediction by ZEFSAII (Michael W. Deem and Ramdas Pophale) SiO2 
 PCOD9338377
Probable space group: P M C 21
;
_chemical_formula_sum "Si O2"
_cell_formula_units_Z 32
_cell_length_a 14.274334
_cell_length_b 8.263031
_cell_length_c 13.618480
_cell_angle_alpha 90.000000
_cell_angle_beta 90.000000
_cell_angle_gamma 90.000000
_cell_volume 1606.289698
_symmetry_space_group_name_H-M "P M C 21"
_symmetry_group_IT_number 26
_symmetry_cell_setting 'orthorhombic'
loop_
_space_group_symop_operation_xyz
x,y,z
-x,-y,1/2+z
-x,y,z
x,-y,1/2+z
loop_
_atom_site_type_symbol
_atom_site_label
_atom_site_fract_x
_atom_site_fract_y
_atom_site_fract_z
Si Si1 0.392235 0.414779 0.402930
Si Si2 0.254759 0.899476 0.364687
Si Si3 0.277019 0.760097 0.057917
Si Si4 0.393113 0.749877 0.520862
Si Si5 0.106294 0.137914 0.443193
Si Si6 0.106035 0.292493 0.226752
Si Si7 0.723567 0.907731 0.673418
Si Si8 0.747095 0.431050 0.747000
O O1 0.500000 0.381613 0.375513
O O2 0.343742 0.273753 0.465871
O O3 0.391965 0.569588 0.476539
O O4 0.327023 0.467735 0.311958
O O5 0.333910 0.852486 0.442062
O O6 0.230405 0.734310 0.306580
O O7 0.165270 0.975771 0.419207
O O8 0.289748 0.031166 0.284745
O O9 0.291748 0.628676 0.142781
O O10 0.291102 0.932619 0.108711
O O11 0.170458 0.761183 0.018157
O O12 0.500000 0.804744 0.526580
O O13 0.344096 0.774619 0.626029
O O14 0.103048 0.231627 0.339445
O O15 0.000000 0.109915 0.476374
O O16 0.171477 0.164178 0.169678
O O17 0.162004 0.460259 0.228170
O O18 0.000000 0.302912 0.189792
#
# Coordination Sequence:
#
# PCOD9338377 Si02
#       8
#     4   4   4   4   4   4   4   4
#     4  10  22  40  61  88 125 167 208 259 316 368
#     4   9  20  38  59  87 125 163 200 262 314 367
#     4  11  21  38  62  90 124 164 209 261 310 376
#     4  10  20  37  59  85 121 164 208 254 308 368
#     4  10  20  37  60  86 119 161 205 255 317 374
#     4  10  21  39  61  86 121 158 200 254 314 373
#     4  10  21  37  59  89 122 158 204 254 311 371
#     4  10  21  38  65  91 125 163 210 259 314 377
#
# _framework density 19.921686999999999
#
# number of rings (size 3 to 8) (size 9 to 14) (size 15 to 20)
#    0.000    2.000    2.500    0.750    0.000    3.000 
#    0.000    5.625    0.000    0.000    0.000    0.000 
#    0.000    0.000    0.000    0.000    0.000    0.000 
#
# Total GULP energy -178605.379278 kJ/mol
# GULP energy per Si atom -5581.418102 kJ/mol
# Density = 1.987634 g / cm^3
# Si number density = 19.921687 Si / 1000 Ang^3
#
#
#
# Elastic Constant Matrix: (Units=GPa)
#
#
# Indices 1 2 3 4 5 6 
#
# 1 105.7461 36.1031 29.7766 0.0000 0.0000 0.0000
# 2 36.1031 69.5765 40.9114 0.0000 0.0000 0.0000
# 3 29.7766 40.9114 66.9410 0.0000 0.0000 0.0000
# 4 0.0000 0.0000 0.0000 40.5045 0.0000 0.0000
# 5 0.0000 0.0000 0.0000 0.0000 23.5088 0.0000
# 6 0.0000 0.0000 0.0000 0.0000 0.0000 26.4560
#
#
#
# Elastic Compliance Matrix: (Units=1/GPa)
#
#
# Indices 1 2 3 4 5 6 
#
# 1 0.011722 -0.004709 -0.002336 0.000000 0.000000 0.000000
# 2 -0.004709 0.024327 -0.012773 0.000000 0.000000 0.000000
# 3 -0.002336 -0.012773 0.023784 0.000000 0.000000 0.000000
# 4 0.000000 0.000000 0.000000 0.024689 0.000000 0.000000
# 5 0.000000 0.000000 0.000000 0.000000 0.042537 0.000000
# 6 0.000000 0.000000 0.000000 0.000000 0.000000 0.037799
#
#
# Mechanical properties :
#
#
# Convention : Reuss Voigt Hill
#
# Bulk Modulus (GPa) = 49.51302 50.64955 50.08128
# Shear Modulus (GPa) = 23.67140 27.12534 25.39837
#
# Velocity S-wave (km/s) = 3.45080 3.69399 3.57446
# Velocity P-wave (km/s) = 6.38632 6.60860 6.49841
#
# Compressibility (1/GPa) = 0.02019671
#
# Stress axis : x y z
#
# Youngs Moduli (GPa) = 85.30849 41.10742 42.04512
#
# Poissons Ratio (x) = 0.19356 0.09824
# Poissons Ratio (y) = 0.40170 0.53703
# Poissons Ratio (z) = 0.19932 0.52506
#
# Static dielectric constant tensor:
#      x y z
#    x 1.674160 0.000000 0.000000 
#    y 0.000000 1.732110 0.000000 
#    z 0.000000 0.000000 1.711090 
# 
# From -- ./inp_files/4572.got.cif
#   From: 2010.05.17/outbox.cif.g08.bks.cpg/sg26_3_cif.got.tgz:4572.got - 2010.06.04 01:07:29.
