data_PCOD9338982
_publ_section_title
;
Structure prediction by ZEFSAII (Michael W. Deem and Ramdas Pophale) SiO2 
 PCOD9338982
Probable space group: P C C 2
;
_chemical_formula_sum "Si O2"
_cell_formula_units_Z 28
_cell_length_a 8.834782
_cell_length_b 18.379696
_cell_length_c 8.508740
_cell_angle_alpha 90.000000
_cell_angle_beta 90.000000
_cell_angle_gamma 90.000000
_cell_volume 1381.654369
_symmetry_space_group_name_H-M "P C C 2"
_symmetry_group_IT_number 27
_symmetry_cell_setting 'orthorhombic'
loop_
_space_group_symop_operation_xyz
x,y,z
-x,-y,z
-x,y,1/2+z
x,-y,1/2+z
loop_
_atom_site_type_symbol
_atom_site_label
_atom_site_fract_x
_atom_site_fract_y
_atom_site_fract_z
Si Si1 0.847791 0.906108 0.555340
Si Si2 0.662919 0.190245 0.238929
Si Si3 0.500000 0.500000 0.814306
Si Si4 0.000000 0.000000 0.314306
Si Si5 0.837081 0.309755 0.738929
Si Si6 0.451635 0.728504 0.945875
Si Si7 0.048365 0.228504 0.945875
Si Si8 0.652209 0.406108 0.555340
O O1 0.690200 0.881647 0.633883
O O2 0.945683 0.936321 0.700425
O O3 0.865910 0.969040 0.424933
O O4 0.925514 0.834530 0.479260
O O5 0.534624 0.201419 0.369878
O O6 0.820822 0.204229 0.327160
O O7 0.624458 0.251833 0.111073
O O8 0.554317 0.436321 0.700424
O O9 0.365910 0.469040 0.924933
O O10 0.679178 0.295771 0.827160
O O11 0.875542 0.248167 0.611073
O O12 0.809800 0.381647 0.633883
O O13 0.965376 0.298581 0.869878
O O14 0.574487 0.665470 0.979259
#
# Coordination Sequence:
#
# PCOD9338982 Si02
#       8
#     4   4   2   2   4   4   4   4
#     4  11  21  38  62  92 118 158 210 249 305 357
#     4  12  22  38  61  97 129 155 203 258 324 368
#     4  10  22  38  60  90 120 166 210 254 274 382
#     4  10  22  38  60  90 120 166 210 254 274 382
#     4  12  22  38  61  97 129 155 203 258 324 368
#     4  12  22  38  63  96 125 159 199 266 324 365
#     4  12  22  38  63  96 125 159 199 266 324 365
#     4  11  21  38  62  92 118 158 210 249 305 357
#
# _framework density 20.265561000000002
#
# number of rings (size 3 to 8) (size 9 to 14) (size 15 to 20)
#    0.000    0.571    8.571    0.000    0.000    0.000 
#    0.000    0.000    0.000    5.143    0.000    0.000 
#    0.000    0.000    0.000    0.000    0.000    0.000 
#
# Total GULP energy -156029.788246 kJ/mol
# GULP energy per Si atom -5572.492437 kJ/mol
# Density = 2.021944 g / cm^3
# Si number density = 20.265561 Si / 1000 Ang^3
#
#
#
# Elastic Constant Matrix: (Units=GPa)
#
#
# Indices 1 2 3 4 5 6 
#
# 1 29.7379 1.3105 20.3268 0.0000 0.0000 0.0000
# 2 1.3105 42.8465 20.2366 0.0000 0.0000 0.0000
# 3 20.3268 20.2366 110.9645 0.0000 0.0000 0.0000
# 4 0.0000 0.0000 0.0000 31.2509 0.0000 0.0000
# 5 0.0000 0.0000 0.0000 0.0000 34.2261 0.0000
# 6 0.0000 0.0000 0.0000 0.0000 0.0000 26.1461
#
#
#
# Elastic Compliance Matrix: (Units=1/GPa)
#
#
# Indices 1 2 3 4 5 6 
#
# 1 0.038658 0.002366 -0.007513 0.000000 0.000000 0.000000
# 2 0.002366 0.025684 -0.005117 0.000000 0.000000 0.000000
# 3 -0.007513 -0.005117 0.011321 0.000000 0.000000 0.000000
# 4 0.000000 0.000000 0.000000 0.031999 0.000000 0.000000
# 5 0.000000 0.000000 0.000000 0.000000 0.029217 0.000000
# 6 0.000000 0.000000 0.000000 0.000000 0.000000 0.038247
#
#
# Mechanical properties :
#
#
# Convention : Reuss Voigt Hill
#
# Bulk Modulus (GPa) = 18.13739 29.69962 23.91851
# Shear Modulus (GPa) = 23.36083 27.76961 25.56522
#
# Velocity S-wave (km/s) = 3.39888 3.70575 3.55563
# Velocity P-wave (km/s) = 4.93685 5.74432 5.35582
#
# Compressibility (1/GPa) = 0.05513471
#
# Stress axis : x y z
#
# Youngs Moduli (GPa) = 25.86768 38.93518 88.32827
#
# Poissons Ratio (x) = -0.09212 0.66361
# Poissons Ratio (y) = -0.06120 0.45201
# Poissons Ratio (z) = 0.19434 0.19925
#
# Static dielectric constant tensor:
#      x y z
#    x 1.719450 0.000000 0.000000 
#    y 0.000000 1.746290 0.000000 
#    z 0.000000 0.000000 1.762890 
# 
# From -- ./inp_files/1233.got.cif
#   From: 2010.05.17/outbox.cif.g08.bks.cpg/sg27_1_cif.got.tgz:1233.got - 2010.06.04 01:11:05.
