data_PCOD9338879
_publ_section_title
;
Structure prediction by ZEFSAII (Michael W. Deem and Ramdas Pophale) SiO2 
 PCOD9338879
Probable space group: P C C 2
;
_chemical_formula_sum "Si O2"
_cell_formula_units_Z 18
_cell_length_a 9.992951
_cell_length_b 6.804991
_cell_length_c 12.724700
_cell_angle_alpha 90.000000
_cell_angle_beta 90.000000
_cell_angle_gamma 90.000000
_cell_volume 865.304307
_symmetry_space_group_name_H-M "P C C 2"
_symmetry_group_IT_number 27
_symmetry_cell_setting 'orthorhombic'
loop_
_space_group_symop_operation_xyz
x,y,z
-x,-y,z
-x,y,1/2+z
x,-y,1/2+z
loop_
_atom_site_type_symbol
_atom_site_label
_atom_site_fract_x
_atom_site_fract_y
_atom_site_fract_z
Si Si1 0.220060 0.203358 0.682800
Si Si2 0.000000 0.500000 0.718804
Si Si3 0.123866 0.876016 0.821255
Si Si4 0.358340 0.761382 0.971329
Si Si5 0.391051 0.364958 0.870867
O O1 0.326016 0.188238 0.590181
O O2 0.287902 0.276724 0.790780
O O3 0.105592 0.363992 0.656384
O O4 0.159196 0.994003 0.714645
O O5 0.922512 0.341683 0.790592
O O6 0.251657 0.866716 0.896329
O O7 0.000000 0.000000 0.868968
O O8 0.334136 0.526068 0.951642
O O9 0.512005 0.781634 0.934001
O O10 0.500000 0.500000 0.807325
#
# Coordination Sequence:
#
# PCOD9338879 Si02
#       5
#     4   2   4   4   4
#     4  11  21  40  65  92 128 167 215 258 324 387
#     4  10  20  42  62  92 134 164 204 278 312 376
#     4  10  22  39  62  92 132 161 213 270 315 385
#     4   9  21  40  62  94 122 173 210 254 327 378
#     4   8  20  38  64  85 130 160 211 260 320 374
#
# _framework density 20.801932000000001
#
# number of rings (size 3 to 8) (size 9 to 14) (size 15 to 20)
#    1.333    0.889    2.222    0.000    3.111    4.444 
#    4.000    2.222    0.000    0.000    0.000    0.000 
#    0.000    0.000    0.000    0.000    0.000    0.000 
#
# Total GULP energy -100236.795642 kJ/mol
# GULP energy per Si atom -5568.710869 kJ/mol
# Density = 2.075459 g / cm^3
# Si number density = 20.801932 Si / 1000 Ang^3
#
#
#
# Elastic Constant Matrix: (Units=GPa)
#
#
# Indices 1 2 3 4 5 6 
#
# 1 79.7201 22.2677 24.4843 0.0000 0.0000 0.0000
# 2 22.2677 110.4299 22.3078 0.0000 0.0000 0.0000
# 3 24.4843 22.3078 54.9062 0.0000 0.0000 0.0000
# 4 0.0000 0.0000 0.0000 13.5885 0.0000 0.0000
# 5 0.0000 0.0000 0.0000 0.0000 12.1598 0.0000
# 6 0.0000 0.0000 0.0000 0.0000 0.0000 38.0599
#
#
#
# Elastic Compliance Matrix: (Units=1/GPa)
#
#
# Indices 1 2 3 4 5 6 
#
# 1 0.014858 -0.001806 -0.005892 0.000000 0.000000 0.000000
# 2 -0.001806 0.010085 -0.003292 0.000000 0.000000 0.000000
# 3 -0.005892 -0.003292 0.022178 0.000000 0.000000 0.000000
# 4 0.000000 0.000000 0.000000 0.073592 0.000000 0.000000
# 5 0.000000 0.000000 0.000000 0.000000 0.082238 0.000000
# 6 0.000000 0.000000 0.000000 0.000000 0.000000 0.026274
#
#
# Mechanical properties :
#
#
# Convention : Reuss Voigt Hill
#
# Bulk Modulus (GPa) = 39.77590 42.57509 41.17550
# Shear Modulus (GPa) = 19.26156 24.49473 21.87815
#
# Velocity S-wave (km/s) = 3.04625 3.43523 3.24657
# Velocity P-wave (km/s) = 5.61565 6.02044 5.82157
#
# Compressibility (1/GPa) = 0.02514085
#
# Stress axis : x y z
#
# Youngs Moduli (GPa) = 67.30445 99.16040 45.09021
#
# Poissons Ratio (x) = 0.17906 0.26567
# Poissons Ratio (y) = 0.12154 0.14844
# Poissons Ratio (z) = 0.39655 0.32644
#
# Static dielectric constant tensor:
#      x y z
#    x 1.805340 0.000000 0.000000 
#    y 0.000000 1.786250 0.000000 
#    z 0.000000 0.000000 1.665280 
# 
# From -- ./inp_files/1899.got.cif
#   From: 2010.05.17/outbox.cif.g08.bks.cpg/sg27_1_cif.got.tgz:1899.got - 2010.06.04 01:11:05.
