data_PCOD9338342
_publ_section_title
;
Structure prediction by ZEFSAII (Michael W. Deem and Ramdas Pophale) SiO2 
 PCOD9338342
Probable space group: P M C 21
;
_chemical_formula_sum "Si O2"
_cell_formula_units_Z 24
_cell_length_a 7.972159
_cell_length_b 14.547226
_cell_length_c 8.139697
_cell_angle_alpha 90.000000
_cell_angle_beta 90.000000
_cell_angle_gamma 90.000000
_cell_volume 943.983442
_symmetry_space_group_name_H-M "P M C 21"
_symmetry_group_IT_number 26
_symmetry_cell_setting 'orthorhombic'
loop_
_space_group_symop_operation_xyz
x,y,z
-x,-y,1/2+z
-x,y,z
x,-y,1/2+z
loop_
_atom_site_type_symbol
_atom_site_label
_atom_site_fract_x
_atom_site_fract_y
_atom_site_fract_z
Si Si1 0.192772 0.865377 0.608390
Si Si2 0.694395 0.361701 0.373211
Si Si3 0.303704 0.805276 0.063584
Si Si4 0.195614 0.477204 0.064305
Si Si5 0.795971 0.296372 0.892714
Si Si6 0.697784 0.035304 0.783160
O O1 0.258275 0.766606 0.548307
O O2 0.207576 0.924295 0.439185
O O3 0.000000 0.857173 0.655852
O O4 0.281989 0.928129 0.743233
O O5 0.500000 0.350530 0.329205
O O6 0.769022 0.262375 0.424417
O O7 0.706259 0.429622 0.530836
O O8 0.781800 0.420194 0.231298
O O9 0.500000 0.816178 0.025794
O O10 0.283361 0.746531 0.231432
O O11 0.241882 0.904582 0.125245
O O12 0.244636 0.401494 0.927519
O O13 0.000000 0.500449 0.048414
O O14 0.000000 0.288791 0.880811
O O15 0.500000 0.053601 0.809042
#
# Coordination Sequence:
#
# PCOD9338342 Si02
#       6
#     4   4   4   4   4   4
#     4  10  20  36  56  81 111 146 184 226 273 324
#     4  11  23  39  58  83 112 145 182 224 271 324
#     4   9  20  37  57  80 109 143 182 224 272 324
#     4  11  23  39  58  83 112 145 182 224 271 324
#     4   9  20  37  57  80 109 143 182 224 272 324
#     4  10  20  36  56  81 111 146 184 226 273 324
#
# _framework density 25.424174000000001
#
# number of rings (size 3 to 8) (size 9 to 14) (size 15 to 20)
#    0.000    2.000    0.000    3.000    0.000    8.000 
#    0.000    3.333    0.000    0.000    0.000    0.000 
#    0.000    0.000    0.000    0.000    0.000    0.000 
#
# Total GULP energy -134252.719462 kJ/mol
# GULP energy per Si atom -5593.863311 kJ/mol
# Density = 2.536631 g / cm^3
# Si number density = 25.424174 Si / 1000 Ang^3
#
#
#
# Elastic Constant Matrix: (Units=GPa)
#
#
# Indices 1 2 3 4 5 6 
#
# 1 48.8649 16.8771 2.5253 0.0000 0.0000 0.0000
# 2 16.8771 129.2345 -1.9566 0.0000 0.0000 0.0000
# 3 2.5253 -1.9566 73.2673 0.0000 0.0000 0.0000
# 4 0.0000 0.0000 0.0000 49.5493 0.0000 0.0000
# 5 0.0000 0.0000 0.0000 0.0000 40.5315 0.0000
# 6 0.0000 0.0000 0.0000 0.0000 0.0000 21.1714
#
#
#
# Elastic Compliance Matrix: (Units=1/GPa)
#
#
# Indices 1 2 3 4 5 6 
#
# 1 0.021480 -0.002817 -0.000816 0.000000 0.000000 0.000000
# 2 -0.002817 0.008111 0.000314 0.000000 0.000000 0.000000
# 3 -0.000816 0.000314 0.013685 0.000000 0.000000 0.000000
# 4 0.000000 0.000000 0.000000 0.020182 0.000000 0.000000
# 5 0.000000 0.000000 0.000000 0.000000 0.024672 0.000000
# 6 0.000000 0.000000 0.000000 0.000000 0.000000 0.047234
#
#
# Mechanical properties :
#
#
# Convention : Reuss Voigt Hill
#
# Bulk Modulus (GPa) = 27.29491 31.80647 29.55069
# Shear Modulus (GPa) = 32.42244 37.84516 35.13380
#
# Velocity S-wave (km/s) = 3.57495 3.86236 3.72143
# Velocity P-wave (km/s) = 5.27252 5.69455 5.48760
#
# Compressibility (1/GPa) = 0.03663686
#
# Stress axis : x y z
#
# Youngs Moduli (GPa) = 46.55534 123.29610 73.07195
#
# Poissons Ratio (x) = 0.34738 0.05960
# Poissons Ratio (y) = 0.13117 -0.02292
# Poissons Ratio (z) = 0.03797 -0.03868
#
# Static dielectric constant tensor:
#      x y z
#    x 1.831070 0.000000 0.000000 
#    y 0.000000 1.999280 0.000000 
#    z 0.000000 0.000000 2.117760 
# 
# From -- ./inp_files/1408.got.cif
#   From: 2010.05.17/outbox.cif.g08.bks.cpg/sg26_1_cif.got.tgz:1408.got - 2010.06.04 01:07:29.
