data_PCOD9338789
_publ_section_title
;
Structure prediction by ZEFSAII (Michael W. Deem and Ramdas Pophale) SiO2 
 PCOD9338789
Probable space group: P C C 2
;
_chemical_formula_sum "Si O2"
_cell_formula_units_Z 28
_cell_length_a 9.107919
_cell_length_b 9.190479
_cell_length_c 18.952973
_cell_angle_alpha 90.000000
_cell_angle_beta 90.000000
_cell_angle_gamma 90.000000
_cell_volume 1586.480179
_symmetry_space_group_name_H-M "P C C 2"
_symmetry_group_IT_number 27
_symmetry_cell_setting 'orthorhombic'
loop_
_space_group_symop_operation_xyz
x,y,z
-x,-y,z
-x,y,1/2+z
x,-y,1/2+z
loop_
_atom_site_type_symbol
_atom_site_label
_atom_site_fract_x
_atom_site_fract_y
_atom_site_fract_z
Si Si1 0.277402 0.312819 0.669690
Si Si2 0.348442 0.576900 0.771204
Si Si3 0.098378 0.641658 0.880359
Si Si4 0.937715 0.337587 0.036822
Si Si5 0.963903 0.830302 0.759282
Si Si6 0.570027 0.151212 0.681669
Si Si7 0.884337 0.135929 0.622403
O O1 0.290855 0.469774 0.708343
O O2 0.179878 0.319395 0.599514
O O3 0.196057 0.209595 0.728038
O O4 0.435126 0.245236 0.649824
O O5 0.500000 0.500000 0.793012
O O6 0.239195 0.592634 0.836085
O O7 0.377302 0.738812 0.742311
O O8 0.000000 0.500000 0.888891
O O9 0.007262 0.750270 0.830406
O O10 0.125627 0.696989 0.959539
O O11 0.000000 0.500000 0.039868
O O12 0.073002 0.231825 0.055762
O O13 0.067649 0.780209 0.694190
O O14 0.000000 0.000000 0.768302
O O15 0.711031 0.111401 0.632819
O O16 0.500000 0.000000 0.706683
O O17 0.000000 0.000000 0.620240
#
# Coordination Sequence:
#
# PCOD9338789 Si02
#       7
#     4   4   4   4   4   4   4
#     4  10  21  36  58  83 116 148 196 240 293 354
#     4  10  21  36  56  82 116 153 190 245 295 346
#     4  11  21  37  58  83 117 152 195 241 296 349
#     4  10  22  36  57  86 112 152 194 239 288 354
#     4  10  19  33  57  86 109 149 195 242 286 338
#     4  11  20  34  59  89 114 146 196 245 294 348
#     4  10  20  36  59  85 115 146 190 245 286 339
#
# _framework density 17.649134
#
# number of rings (size 3 to 8) (size 9 to 14) (size 15 to 20)
#    0.000    1.714    2.857    3.429    2.000    0.571 
#    0.000    5.000    0.000    0.857    0.000    0.000 
#    0.000    0.000    0.000    0.000    0.000    0.000 
#
# Total GULP energy -155933.269556 kJ/mol
# GULP energy per Si atom -5569.045341 kJ/mol
# Density = 1.760896 g / cm^3
# Si number density = 17.649134 Si / 1000 Ang^3
#
#
#
# Elastic Constant Matrix: (Units=GPa)
#
#
# Indices 1 2 3 4 5 6 
#
# 1 125.9135 34.8127 51.8866 0.0000 0.0000 0.0000
# 2 34.8127 96.1795 42.0262 0.0000 0.0000 0.0000
# 3 51.8866 42.0262 120.9885 0.0000 0.0000 0.0000
# 4 0.0000 0.0000 0.0000 57.6920 0.0000 0.0000
# 5 0.0000 0.0000 0.0000 0.0000 17.3525 0.0000
# 6 0.0000 0.0000 0.0000 0.0000 0.0000 29.6951
#
#
#
# Elastic Compliance Matrix: (Units=1/GPa)
#
#
# Indices 1 2 3 4 5 6 
#
# 1 0.009979 -0.002054 -0.003566 0.000000 0.000000 0.000000
# 2 -0.002054 0.012680 -0.003524 0.000000 0.000000 0.000000
# 3 -0.003566 -0.003524 0.011019 0.000000 0.000000 0.000000
# 4 0.000000 0.000000 0.000000 0.017333 0.000000 0.000000
# 5 0.000000 0.000000 0.000000 0.000000 0.057629 0.000000
# 6 0.000000 0.000000 0.000000 0.000000 0.000000 0.033676
#
#
# Mechanical properties :
#
#
# Convention : Reuss Voigt Hill
#
# Bulk Modulus (GPa) = 64.97472 66.72583 65.85027
# Shear Modulus (GPa) = 30.16879 35.23831 32.70355
#
# Velocity S-wave (km/s) = 4.13893 4.47318 4.30930
# Velocity P-wave (km/s) = 7.72888 8.03543 7.88364
#
# Compressibility (1/GPa) = 0.01539060
#
# Stress axis : x y z
#
# Youngs Moduli (GPa) = 100.20631 78.86206 90.75461
#
# Poissons Ratio (x) = 0.16196 0.32366
# Poissons Ratio (y) = 0.20580 0.31980
# Poissons Ratio (z) = 0.35737 0.27790
#
# Static dielectric constant tensor:
#      x y z
#    x 1.661980 0.000000 0.000000 
#    y 0.000000 1.647870 0.000000 
#    z 0.000000 0.000000 1.591660 
# 
# From -- ./inp_files/4758.got.cif
#   From: 2010.05.17/outbox.cif.g08.bks.cpg/sg27_3_cif.got.tgz:4758.got - 2010.06.04 01:11:05.
