data_PCOD9338803
_publ_section_title
;
Structure prediction by ZEFSAII (Michael W. Deem and Ramdas Pophale) SiO2 
 PCOD9338803
Probable space group: P C C 2
;
_chemical_formula_sum "Si O2"
_cell_formula_units_Z 32
_cell_length_a 17.346501
_cell_length_b 9.071274
_cell_length_c 8.909688
_cell_angle_alpha 90.000000
_cell_angle_beta 90.000000
_cell_angle_gamma 90.000000
_cell_volume 1401.982739
_symmetry_space_group_name_H-M "P C C 2"
_symmetry_group_IT_number 27
_symmetry_cell_setting 'orthorhombic'
loop_
_space_group_symop_operation_xyz
x,y,z
-x,-y,z
-x,y,1/2+z
x,-y,1/2+z
loop_
_atom_site_type_symbol
_atom_site_label
_atom_site_fract_x
_atom_site_fract_y
_atom_site_fract_z
Si Si1 0.042704 0.669836 0.806980
Si Si2 0.814508 0.930987 0.708765
Si Si3 0.660848 0.114871 0.322568
Si Si4 0.514903 0.177947 0.475554
Si Si5 0.386974 0.225720 0.269512
Si Si6 0.246115 0.761934 0.601790
Si Si7 0.082304 0.043702 0.443071
Si Si8 0.895769 0.419353 0.486132
O O1 0.058374 0.841295 0.816495
O O2 0.061555 0.610372 0.643362
O O3 0.099149 0.586292 0.925651
O O4 0.955222 0.647095 0.862564
O O5 0.798078 0.106214 0.686360
O O6 0.863119 0.923886 0.862725
O O7 0.731430 0.852137 0.710617
O O8 0.867081 0.884697 0.572363
O O9 0.579004 0.193137 0.342545
O O10 0.702280 0.150006 0.480214
O O11 0.639773 0.944457 0.294676
O O12 0.437207 0.256386 0.418279
O O13 0.554502 0.230920 0.628235
O O14 0.500000 0.000000 0.992117
O O15 0.308464 0.306699 0.218456
O O16 0.188412 0.648461 0.519699
O O17 0.000000 0.000000 0.509340
#
# Coordination Sequence:
#
# PCOD9338803 Si02
#       8
#     4   4   4   4   4   4   4   4
#     4  11  25  41  64  84 114 159 214 268 326 376
#     4  11  21  36  52  82 117 155 196 250 312 376
#     4   9  18  29  51  76 114 165 195 243 306 374
#     4   9  15  28  44  73 111 160 196 230 292 381
#     4   9  18  29  50  78 118 163 200 240 307 383
#     4  10  19  36  55  80 118 160 204 256 311 370
#     4  12  25  38  57  86 117 159 204 257 326 393
#     4  11  23  43  61  86 115 160 216 275 318 379
#
# _framework density 22.824816999999999
#
# number of rings (size 3 to 8) (size 9 to 14) (size 15 to 20)
#    0.000    1.750    2.500    3.750    1.750    2.000 
#    0.000    0.000    0.000    0.000    0.000    0.000 
#    0.000   21.000    0.500    0.000    0.000    0.000 
#
# Total GULP energy -178288.414833 kJ/mol
# GULP energy per Si atom -5571.512964 kJ/mol
# Density = 2.277287 g / cm^3
# Si number density = 22.824817 Si / 1000 Ang^3
#
#
#
# Elastic Constant Matrix: (Units=GPa)
#
#
# Indices 1 2 3 4 5 6 
#
# 1 114.4257 9.4192 15.4806 0.0000 0.0000 0.0000
# 2 9.4192 17.4254 -6.4717 0.0000 0.0000 0.0000
# 3 15.4806 -6.4717 63.0681 0.0000 0.0000 0.0000
# 4 0.0000 0.0000 0.0000 6.0675 0.0000 0.0000
# 5 0.0000 0.0000 0.0000 0.0000 51.8368 0.0000
# 6 0.0000 0.0000 0.0000 0.0000 0.0000 21.7629
#
#
#
# Elastic Compliance Matrix: (Units=1/GPa)
#
#
# Indices 1 2 3 4 5 6 
#
# 1 0.009671 -0.006352 -0.003026 0.000000 0.000000 0.000000
# 2 -0.006352 0.063832 0.008109 0.000000 0.000000 0.000000
# 3 -0.003026 0.008109 0.017431 0.000000 0.000000 0.000000
# 4 0.000000 0.000000 0.000000 0.164814 0.000000 0.000000
# 5 0.000000 0.000000 0.000000 0.000000 0.019291 0.000000
# 6 0.000000 0.000000 0.000000 0.000000 0.000000 0.045950
#
#
# Mechanical properties :
#
#
# Convention : Reuss Voigt Hill
#
# Bulk Modulus (GPa) = 11.31243 25.75282 18.53262
# Shear Modulus (GPa) = 14.16464 27.69951 20.93207
#
# Velocity S-wave (km/s) = 2.49385 3.48741 3.03161
# Velocity P-wave (km/s) = 3.64134 5.24627 4.51568
#
# Compressibility (1/GPa) = 0.08839837
#
# Stress axis : x y z
#
# Youngs Moduli (GPa) = 103.39669 15.66602 57.37011
#
# Poissons Ratio (x) = 0.09950 0.17359
# Poissons Ratio (y) = 0.65674 -0.46523
# Poissons Ratio (z) = 0.31285 -0.12704
#
# Static dielectric constant tensor:
#      x y z
#    x 1.950300 0.000000 0.000000 
#    y 0.000000 1.877460 0.000000 
#    z 0.000000 0.000000 1.886740 
# 
# From -- ./inp_files/1715.got.cif
#   From: 2010.05.17/outbox.cif.g08.bks.cpg/sg27_1_cif.got.tgz:1715.got - 2010.06.04 01:11:05.
