data_PCOD9338998
_publ_section_title
;
Structure prediction by ZEFSAII (Michael W. Deem and Ramdas Pophale) SiO2 
 PCOD9338998
Probable space group: P C C 2
;
_chemical_formula_sum "Si O2"
_cell_formula_units_Z 32
_cell_length_a 5.394054
_cell_length_b 19.195987
_cell_length_c 13.871746
_cell_angle_alpha 90.000000
_cell_angle_beta 90.000000
_cell_angle_gamma 90.000000
_cell_volume 1436.338710
_symmetry_space_group_name_H-M "P C C 2"
_symmetry_group_IT_number 27
_symmetry_cell_setting 'orthorhombic'
loop_
_space_group_symop_operation_xyz
x,y,z
-x,-y,z
-x,y,1/2+z
x,-y,1/2+z
loop_
_atom_site_type_symbol
_atom_site_label
_atom_site_fract_x
_atom_site_fract_y
_atom_site_fract_z
Si Si1 0.749989 0.041765 0.798320
Si Si2 0.723042 0.799973 0.375374
Si Si3 0.037787 0.424535 0.670515
Si Si4 0.965814 0.343813 0.843643
Si Si5 0.221726 0.807962 0.491162
Si Si6 0.280493 0.668350 0.541851
Si Si7 0.250920 0.038483 0.067269
Si Si8 0.666943 0.431749 0.972874
O O1 0.744379 0.123372 0.827266
O O2 0.752492 0.040939 0.682653
O O3 0.500000 0.000000 0.827608
O O4 0.000000 0.000000 0.828493
O O5 0.815109 0.727909 0.323860
O O6 0.438243 0.793295 0.411585
O O7 0.935969 0.804531 0.457877
O O8 0.184110 0.442932 0.572041
O O9 0.000000 0.500000 0.715356
O O10 0.127609 0.370460 0.752863
O O11 0.803770 0.383495 0.625367
O O12 0.798411 0.410334 0.873890
O O13 0.111522 0.335098 0.944958
O O14 0.270380 0.748414 0.570450
O O15 0.264008 0.884407 0.528132
O O16 0.535145 0.640314 0.501855
O O17 0.500000 0.000000 0.037390
O O18 0.000000 0.000000 0.036903
O O19 0.500000 0.500000 0.958954
#
# Coordination Sequence:
#
# PCOD9338998 Si02
#       8
#     4   4   4   4   4   4   4   4
#     4  10  22  40  61  91 130 168 209 267 329 386
#     4  11  23  42  63  94 129 168 217 265 327 398
#     4  11  24  41  64  98 127 168 230 269 330 416
#     4  10  25  42  64  95 133 171 218 273 338 399
#     4  11  23  41  66  92 127 169 218 266 329 391
#     4  10  23  44  62  93 132 169 212 279 335 389
#     4  10  22  40  62  93 125 165 215 261 323 392
#     4  11  22  44  67  89 133 173 213 282 336 389
#
# _framework density 22.278865
#
# number of rings (size 3 to 8) (size 9 to 14) (size 15 to 20)
#    0.000    1.500    2.500    1.500    3.500    4.000 
#    0.000    1.250    0.000    0.000    0.000    0.000 
#    0.000    0.000    0.000    0.000    0.000    0.000 
#
# Total GULP energy -178334.101232 kJ/mol
# GULP energy per Si atom -5572.940663 kJ/mol
# Density = 2.222816 g / cm^3
# Si number density = 22.278865 Si / 1000 Ang^3
#
#
#
# Elastic Constant Matrix: (Units=GPa)
#
#
# Indices 1 2 3 4 5 6 
#
# 1 79.2346 32.7680 -2.0000 0.0000 0.0000 0.0000
# 2 32.7680 185.6520 33.8658 0.0000 0.0000 0.0000
# 3 -2.0000 33.8658 65.2589 0.0000 0.0000 0.0000
# 4 0.0000 0.0000 0.0000 33.6196 0.0000 0.0000
# 5 0.0000 0.0000 0.0000 0.0000 11.8329 0.0000
# 6 0.0000 0.0000 0.0000 0.0000 0.0000 39.1778
#
#
#
# Elastic Compliance Matrix: (Units=1/GPa)
#
#
# Indices 1 2 3 4 5 6 
#
# 1 0.013817 -0.002779 0.001866 0.000000 0.000000 0.000000
# 2 -0.002779 0.006509 -0.003463 0.000000 0.000000 0.000000
# 3 0.001866 -0.003463 0.017178 0.000000 0.000000 0.000000
# 4 0.000000 0.000000 0.000000 0.029745 0.000000 0.000000
# 5 0.000000 0.000000 0.000000 0.000000 0.084510 0.000000
# 6 0.000000 0.000000 0.000000 0.000000 0.000000 0.025525
#
#
# Mechanical properties :
#
#
# Convention : Reuss Voigt Hill
#
# Bulk Modulus (GPa) = 34.78131 51.04590 42.91360
# Shear Modulus (GPa) = 25.55992 34.62685 30.09338
#
# Velocity S-wave (km/s) = 3.39081 3.94667 3.67925
# Velocity P-wave (km/s) = 5.56560 6.61289 6.11172
#
# Compressibility (1/GPa) = 0.02875107
#
# Stress axis : x y z
#
# Youngs Moduli (GPa) = 72.37382 153.64284 58.21486
#
# Poissons Ratio (x) = 0.42699 -0.10861
# Poissons Ratio (y) = 0.20113 0.20159
# Poissons Ratio (z) = -0.13502 0.53203
#
# Static dielectric constant tensor:
#      x y z
#    x 1.882740 0.000000 0.000000 
#    y 0.000000 1.894200 0.000000 
#    z 0.000000 0.000000 1.853030 
# 
# From -- ./inp_files/3154.got.cif
#   From: 2010.05.17/outbox.cif.g08.bks.cpg/sg27_2_cif.got.tgz:3154.got - 2010.06.04 01:11:05.
