data_PCOD9338791
_publ_section_title
;
Structure prediction by ZEFSAII (Michael W. Deem and Ramdas Pophale) SiO2 
 PCOD9338791
Probable space group: P C C 2
;
_chemical_formula_sum "Si O2"
_cell_formula_units_Z 32
_cell_length_a 15.482296
_cell_length_b 11.811111
_cell_length_c 8.515136
_cell_angle_alpha 90.000000
_cell_angle_beta 90.000000
_cell_angle_gamma 90.000000
_cell_volume 1557.104307
_symmetry_space_group_name_H-M "P C C 2"
_symmetry_group_IT_number 27
_symmetry_cell_setting 'orthorhombic'
loop_
_space_group_symop_operation_xyz
x,y,z
-x,-y,z
-x,y,1/2+z
x,-y,1/2+z
loop_
_atom_site_type_symbol
_atom_site_label
_atom_site_fract_x
_atom_site_fract_y
_atom_site_fract_z
Si Si1 0.269872 0.917338 0.015820
Si Si2 0.553506 0.392057 0.359634
Si Si3 0.774721 0.853010 0.870285
Si Si4 0.339532 0.457706 0.581500
Si Si5 0.115507 0.803311 0.817551
Si Si6 0.249617 0.327747 0.121490
Si Si7 0.039486 0.876292 0.487610
Si Si8 0.616783 0.258520 0.860479
O O1 0.258593 0.879171 0.195901
O O2 0.188737 0.871498 0.913307
O O3 0.354537 0.856163 0.945150
O O4 0.265990 0.051498 0.986281
O O5 0.500000 0.500000 0.300195
O O6 0.594484 0.444811 0.516528
O O7 0.626995 0.386414 0.229249
O O8 0.484821 0.290531 0.368323
O O9 0.878025 0.866905 0.874931
O O10 0.759980 0.731749 0.952130
O O11 0.259114 0.537179 0.614632
O O12 0.336156 0.364482 0.447257
O O13 0.169614 0.703824 0.734140
O O14 0.074493 0.864192 0.664729
O O15 0.035395 0.788729 0.936295
O O16 0.335262 0.266993 0.194544
O O17 0.000000 0.000000 0.470157
#
# Coordination Sequence:
#
# PCOD9338791 Si02
#       8
#     4   4   4   4   4   4   4   4
#     4  11  22  39  54  89 127 170 205 255 313 376
#     4  10  19  33  59  92 118 153 192 262 313 359
#     4  11  23  37  60  86 129 169 209 252 316 373
#     4  11  20  37  61  92 126 152 206 264 322 366
#     4  10  21  33  54  86 124 156 205 255 313 361
#     4  10  22  37  53  92 128 163 201 260 315 380
#     4  11  19  31  56  86 117 161 208 266 299 357
#     4  10  22  35  59  90 125 160 202 261 312 372
#
# _framework density 20.550965999999999
#
# number of rings (size 3 to 8) (size 9 to 14) (size 15 to 20)
#    0.000    1.500    3.750    4.500    1.750    0.000 
#    0.000    0.000    0.000    0.750    0.000   49.875 
#    0.000    0.000    0.000    0.000    0.000    0.000 
#
# Total GULP energy -178357.973178 kJ/mol
# GULP energy per Si atom -5573.686662 kJ/mol
# Density = 2.050419 g / cm^3
# Si number density = 20.550966 Si / 1000 Ang^3
#
#
#
# Elastic Constant Matrix: (Units=GPa)
#
#
# Indices 1 2 3 4 5 6 
#
# 1 71.2547 37.4620 24.4579 0.0000 0.0000 0.0000
# 2 37.4620 58.8965 9.3687 0.0000 0.0000 0.0000
# 3 24.4579 9.3687 93.3256 0.0000 0.0000 0.0000
# 4 0.0000 0.0000 0.0000 20.6842 0.0000 0.0000
# 5 0.0000 0.0000 0.0000 0.0000 26.9957 0.0000
# 6 0.0000 0.0000 0.0000 0.0000 0.0000 33.2860
#
#
#
# Elastic Compliance Matrix: (Units=1/GPa)
#
#
# Indices 1 2 3 4 5 6 
#
# 1 0.022883 -0.013822 -0.004609 0.000000 0.000000 0.000000
# 2 -0.013822 0.025603 0.001052 0.000000 0.000000 0.000000
# 3 -0.004609 0.001052 0.011818 0.000000 0.000000 0.000000
# 4 0.000000 0.000000 0.000000 0.048346 0.000000 0.000000
# 5 0.000000 0.000000 0.000000 0.000000 0.037043 0.000000
# 6 0.000000 0.000000 0.000000 0.000000 0.000000 0.030043
#
#
# Mechanical properties :
#
#
# Convention : Reuss Voigt Hill
#
# Bulk Modulus (GPa) = 39.14611 40.67267 39.90939
# Shear Modulus (GPa) = 22.83005 26.33906 24.58456
#
# Velocity S-wave (km/s) = 3.33663 3.58389 3.46247
# Velocity P-wave (km/s) = 5.82527 6.07946 5.95372
#
# Compressibility (1/GPa) = 0.02554533
#
# Stress axis : x y z
#
# Youngs Moduli (GPa) = 43.70013 39.05754 84.61986
#
# Poissons Ratio (x) = 0.53985 0.39005
# Poissons Ratio (y) = 0.60402 -0.08903
# Poissons Ratio (z) = 0.20143 -0.04109
#
# Static dielectric constant tensor:
#      x y z
#    x 1.825630 0.000000 0.000000 
#    y 0.000000 1.734490 0.000000 
#    z 0.000000 0.000000 1.814470 
# 
# From -- ./inp_files/1611.got.cif
#   From: 2010.05.17/outbox.cif.g08.bks.cpg/sg27_1_cif.got.tgz:1611.got - 2010.06.04 01:11:05.
