data_PCOD9338815
_publ_section_title
;
Structure prediction by ZEFSAII (Michael W. Deem and Ramdas Pophale) SiO2 
 PCOD9338815
Probable space group: P C C 2
;
_chemical_formula_sum "Si O2"
_cell_formula_units_Z 32
_cell_length_a 10.921626
_cell_length_b 9.426720
_cell_length_c 15.282644
_cell_angle_alpha 90.000000
_cell_angle_beta 90.000000
_cell_angle_gamma 90.000000
_cell_volume 1573.426298
_symmetry_space_group_name_H-M "P C C 2"
_symmetry_group_IT_number 27
_symmetry_cell_setting 'orthorhombic'
loop_
_space_group_symop_operation_xyz
x,y,z
-x,-y,z
-x,y,1/2+z
x,-y,1/2+z
loop_
_atom_site_type_symbol
_atom_site_label
_atom_site_fract_x
_atom_site_fract_y
_atom_site_fract_z
Si Si1 0.897554 0.726985 0.089940
Si Si2 0.872152 0.751663 0.462776
Si Si3 0.725916 0.023635 0.524924
Si Si4 0.359384 0.030936 0.834720
Si Si5 0.583476 0.378278 0.686458
Si Si6 0.645680 0.192191 0.172100
Si Si7 0.187448 0.229003 0.273388
Si Si8 0.748533 0.547260 0.575359
O O1 0.902827 0.780892 0.190239
O O2 0.856592 0.563400 0.090701
O O3 0.793126 0.832457 0.052247
O O4 0.013202 0.734034 0.026645
O O5 0.821232 0.906256 0.488409
O O6 0.890357 0.736590 0.359635
O O7 0.771394 0.630862 0.486033
O O8 0.645814 0.052538 0.438704
O O9 0.665275 0.942801 0.607932
O O10 0.267403 0.907621 0.802535
O O11 0.500000 0.000000 0.811384
O O12 0.325002 0.160556 0.772455
O O13 0.500000 0.500000 0.730749
O O14 0.493714 0.248328 0.666534
O O15 0.703446 0.335112 0.741362
O O16 0.631650 0.450074 0.596678
O O17 0.732218 0.320314 0.140654
#
# Coordination Sequence:
#
# PCOD9338815 Si02
#       8
#     4   4   4   4   4   4   4   4
#     4  11  21  43  65  89 124 170 218 272 321 372
#     4  10  22  43  60  90 129 165 219 277 312 371
#     4  10  23  39  62  98 129 168 216 264 316 388
#     4  11  21  36  63  98 132 166 209 257 323 389
#     4   9  18  36  64  94 128 172 204 252 328 396
#     4  10  19  40  65  91 135 170 202 261 321 390
#     4  10  21  39  64  93 125 167 213 264 317 386
#     4   9  21  39  62  88 127 165 212 259 318 381
#
# _framework density 20.337781
#
# number of rings (size 3 to 8) (size 9 to 14) (size 15 to 20)
#    0.000    2.000    2.500    0.750    0.000    2.500 
#   11.250    9.375    0.000    0.000    0.000    0.000 
#    0.000    0.000    0.000    0.000    0.000    0.000 
#
# Total GULP energy -178178.982801 kJ/mol
# GULP energy per Si atom -5568.093213 kJ/mol
# Density = 2.029149 g / cm^3
# Si number density = 20.337781 Si / 1000 Ang^3
#
#
#
# Elastic Constant Matrix: (Units=GPa)
#
#
# Indices 1 2 3 4 5 6 
#
# 1 72.2442 21.8315 42.2673 0.0000 0.0000 0.0000
# 2 21.8315 78.7412 38.1052 0.0000 0.0000 0.0000
# 3 42.2673 38.1052 133.8527 0.0000 0.0000 0.0000
# 4 0.0000 0.0000 0.0000 2.7386 0.0000 0.0000
# 5 0.0000 0.0000 0.0000 0.0000 32.3530 0.0000
# 6 0.0000 0.0000 0.0000 0.0000 0.0000 25.6464
#
#
#
# Elastic Compliance Matrix: (Units=1/GPa)
#
#
# Indices 1 2 3 4 5 6 
#
# 1 0.017396 -0.002511 -0.004779 0.000000 0.000000 0.000000
# 2 -0.002511 0.015091 -0.003503 0.000000 0.000000 0.000000
# 3 -0.004779 -0.003503 0.009977 0.000000 0.000000 0.000000
# 4 0.000000 0.000000 0.000000 0.365153 0.000000 0.000000
# 5 0.000000 0.000000 0.000000 0.000000 0.030909 0.000000
# 6 0.000000 0.000000 0.000000 0.000000 0.000000 0.038992
#
#
# Mechanical properties :
#
#
# Convention : Reuss Voigt Hill
#
# Bulk Modulus (GPa) = 47.89380 54.36067 51.12723
# Shear Modulus (GPa) = 9.88018 24.32319 17.10168
#
# Velocity S-wave (km/s) = 2.20649 3.46202 2.90294
# Velocity P-wave (km/s) = 5.48559 6.53970 6.03570
#
# Compressibility (1/GPa) = 0.02087953
#
# Stress axis : x y z
#
# Youngs Moduli (GPa) = 57.48298 66.26320 100.22858
#
# Poissons Ratio (x) = 0.16637 0.47895
# Poissons Ratio (y) = 0.14433 0.35114
# Poissons Ratio (z) = 0.27469 0.23214
#
# Static dielectric constant tensor:
#      x y z
#    x 1.767170 0.000000 0.000000 
#    y 0.000000 1.746380 0.000000 
#    z 0.000000 0.000000 1.731630 
# 
# From -- ./inp_files/3461.got.cif
#   From: 2010.05.17/outbox.cif.g08.bks.cpg/sg27_2_cif.got.tgz:3461.got - 2010.06.04 01:11:05.
