data_PCOD9338434
_publ_section_title
;
Structure prediction by ZEFSAII (Michael W. Deem and Ramdas Pophale) SiO2 
 PCOD9338434
Probable space group: P M C 21
;
_chemical_formula_sum "Si O2"
_cell_formula_units_Z 24
_cell_length_a 16.540310
_cell_length_b 8.792633
_cell_length_c 7.046128
_cell_angle_alpha 90.000000
_cell_angle_beta 90.000000
_cell_angle_gamma 90.000000
_cell_volume 1024.738656
_symmetry_space_group_name_H-M "P M C 21"
_symmetry_group_IT_number 26
_symmetry_cell_setting 'orthorhombic'
loop_
_space_group_symop_operation_xyz
x,y,z
-x,-y,1/2+z
-x,y,z
x,-y,1/2+z
loop_
_atom_site_type_symbol
_atom_site_label
_atom_site_fract_x
_atom_site_fract_y
_atom_site_fract_z
Si Si1 0.500000 0.226014 0.777710
Si Si2 0.824846 0.874048 0.712596
Si Si3 0.174967 0.772579 0.274855
Si Si4 0.500000 0.122135 0.213700
Si Si5 0.337253 0.377525 0.836650
Si Si6 0.662534 0.725418 0.773054
Si Si7 0.000000 0.872434 0.706998
Si Si8 0.000000 0.227441 0.770089
O O1 0.418210 0.317281 0.735744
O O2 0.500000 0.058249 0.692612
O O3 0.500000 0.196746 0.005216
O O4 0.826769 0.803548 0.502068
O O5 0.746280 0.810075 0.817118
O O6 0.913239 0.836773 0.799411
O O7 0.817521 0.056160 0.694789
O O8 0.253799 0.672403 0.237445
O O9 0.087380 0.702865 0.221833
O O10 0.417556 0.177221 0.312979
O O11 0.341352 0.557736 0.857493
O O12 0.336416 0.302869 0.045252
O O13 0.000000 0.799767 0.497940
O O14 0.000000 0.055646 0.687169
#
# Coordination Sequence:
#
# PCOD9338434 Si02
#       8
#     2   4   4   2   4   4   2   2
#     4  10  21  36  54  76  98 122 157 198 238 282
#     4   9  17  30  49  72  96 124 160 199 238 281
#     4   9  17  30  49  72  96 124 160 199 238 281
#     4  10  21  36  54  76  98 122 157 198 238 282
#     4  10  21  35  50  71  99 129 160 194 235 283
#     4  10  21  35  50  71  99 129 160 194 235 283
#     4   8  14  26  45  68  94 122 154 196 239 276
#     4   8  14  26  45  68  94 122 154 196 239 276
#
# _framework density 23.420604999999998
#
# number of rings (size 3 to 8) (size 9 to 14) (size 15 to 20)
#    0.000    2.667    0.000    1.500    0.000    2.667 
#    0.000    0.833    0.000    0.000    0.000    0.000 
#    0.000    0.000    0.000    0.000    0.000    0.000 
#
# Total GULP energy -134102.074078 kJ/mol
# GULP energy per Si atom -5587.586420 kJ/mol
# Density = 2.336730 g / cm^3
# Si number density = 23.420605 Si / 1000 Ang^3
#
#
#
# Elastic Constant Matrix: (Units=GPa)
#
#
# Indices 1 2 3 4 5 6 
#
# 1 299.7055 104.2276 24.8446 0.0000 0.0000 0.0000
# 2 104.2276 88.4223 -1.0228 0.0000 0.0000 0.0000
# 3 24.8446 -1.0228 62.5040 0.0000 0.0000 0.0000
# 4 0.0000 0.0000 0.0000 583.1587 0.0000 0.0000
# 5 0.0000 0.0000 0.0000 0.0000 -4.9424 0.0000
# 6 0.0000 0.0000 0.0000 0.0000 0.0000 -299.4765
#
#
#
# Elastic Compliance Matrix: (Units=1/GPa)
#
#
# Indices 1 2 3 4 5 6 
#
# 1 0.006025 -0.007130 -0.002511 0.000000 0.000000 0.000000
# 2 -0.007130 0.019751 0.003157 0.000000 0.000000 0.000000
# 3 -0.002511 0.003157 0.017049 0.000000 0.000000 0.000000
# 4 0.000000 0.000000 0.000000 0.001715 0.000000 0.000000
# 5 0.000000 0.000000 0.000000 0.000000 -0.202330 0.000000
# 6 0.000000 0.000000 0.000000 0.000000 0.000000 -0.003339
#
#
# Mechanical properties :
#
#
# Convention : Reuss Voigt Hill
#
# Bulk Modulus (GPa) = 33.49457 78.52563 56.01010
# Shear Modulus (GPa) = -36.17696 77.25345 20.53825
#
# Velocity S-wave (km/s) = -3.93448 5.74951 2.96451
# Velocity P-wave (km/s) = 2.51154 8.81346 5.97366
#
# Compressibility (1/GPa) = 0.02985558
#
# Stress axis : x y z
#
# Youngs Moduli (GPa) = 165.98842 50.63073 58.65487
#
# Poissons Ratio (x) = 0.36102 0.14730
# Poissons Ratio (y) = 1.18357 -0.18520
# Poissons Ratio (z) = 0.41686 -0.15986
#
# Static dielectric constant tensor:
#      x y z
#    x 1.915950 0.000000 0.000000 
#    y 0.000000 1.760240 0.000000 
#    z 0.000000 0.000000 1.940580 
# 
# From -- ./inp_files/2159.got.cif
#   From: 2010.05.17/outbox.cif.g08.bks.cpg/sg26_2_cif.got.tgz:2159.got - 2010.06.04 01:07:29.
