data_PCOD9338976
_publ_section_title
;
Structure prediction by ZEFSAII (Michael W. Deem and Ramdas Pophale) SiO2 
 PCOD9338976
Probable space group: P C C 2
;
_chemical_formula_sum "Si O2"
_cell_formula_units_Z 22
_cell_length_a 7.995835
_cell_length_b 8.111990
_cell_length_c 14.085340
_cell_angle_alpha 90.000000
_cell_angle_beta 90.000000
_cell_angle_gamma 90.000000
_cell_volume 913.605204
_symmetry_space_group_name_H-M "P C C 2"
_symmetry_group_IT_number 27
_symmetry_cell_setting 'orthorhombic'
loop_
_space_group_symop_operation_xyz
x,y,z
-x,-y,z
-x,y,1/2+z
x,-y,1/2+z
loop_
_atom_site_type_symbol
_atom_site_label
_atom_site_fract_x
_atom_site_fract_y
_atom_site_fract_z
Si Si1 0.747824 0.909878 0.021920
Si Si2 0.189132 0.988313 0.322251
Si Si3 0.420337 0.822327 0.710308
Si Si4 0.240381 0.332220 0.721074
Si Si5 0.101678 0.737294 0.033707
Si Si6 0.000000 0.500000 0.368101
O O1 0.622047 0.837362 0.099117
O O2 0.919441 0.817170 0.049002
O O3 0.773532 0.106948 0.029849
O O4 0.711772 0.900182 0.909104
O O5 0.259011 0.158854 0.278564
O O6 0.179034 0.856953 0.237370
O O7 0.000000 0.000000 0.360236
O O8 0.559260 0.684280 0.726556
O O9 0.500000 0.000000 0.735988
O O10 0.171345 0.377921 0.617676
O O11 0.147347 0.433053 0.801452
O O12 0.079078 0.635658 0.937901
#
# Coordination Sequence:
#
# PCOD9338976 Si02
#       6
#     4   4   4   4   4   2
#     4  11  20  39  69 107 132 177 256 314 369 431
#     4  11  19  36  66 104 139 184 246 307 369 430
#     4  10  22  36  63 106 147 177 231 325 383 412
#     4  11  23  43  64 104 145 196 241 310 375 444
#     4  11  22  40  70 101 133 195 251 305 363 448
#     4  12  24  44  70 102 150 202 258 288 372 496
#
# _framework density 24.080423
#
# number of rings (size 3 to 8) (size 9 to 14) (size 15 to 20)
#    0.000    1.091    7.273    1.636    0.000    2.182 
#    0.000    0.000    0.000   24.000    0.000    0.000 
#    0.000    0.000    0.000    0.000    0.000    0.000 
#
# Total GULP energy -122891.439532 kJ/mol
# GULP energy per Si atom -5585.974524 kJ/mol
# Density = 2.402562 g / cm^3
# Si number density = 24.080423 Si / 1000 Ang^3
#
#
#
# Elastic Constant Matrix: (Units=GPa)
#
#
# Indices 1 2 3 4 5 6 
#
# 1 121.4117 46.2334 74.3692 0.0000 0.0000 0.0000
# 2 46.2334 83.5820 40.9373 0.0000 0.0000 0.0000
# 3 74.3692 40.9373 174.3312 0.0000 0.0000 0.0000
# 4 0.0000 0.0000 0.0000 -6.2117 0.0000 0.0000
# 5 0.0000 0.0000 0.0000 0.0000 30.0678 0.0000
# 6 0.0000 0.0000 0.0000 0.0000 0.0000 29.9869
#
#
#
# Elastic Compliance Matrix: (Units=1/GPa)
#
#
# Indices 1 2 3 4 5 6 
#
# 1 0.012739 -0.004955 -0.004271 0.000000 0.000000 0.000000
# 2 -0.004955 0.015446 -0.001513 0.000000 0.000000 0.000000
# 3 -0.004271 -0.001513 0.007914 0.000000 0.000000 0.000000
# 4 0.000000 0.000000 0.000000 -0.160986 0.000000 0.000000
# 5 0.000000 0.000000 0.000000 0.000000 0.033258 0.000000
# 6 0.000000 0.000000 0.000000 0.000000 0.000000 0.033348
#
#
# Mechanical properties :
#
#
# Convention : Reuss Voigt Hill
#
# Bulk Modulus (GPa) = 68.39669 78.04496 73.22082
# Shear Modulus (GPa) = -156.60274 25.28760 -65.65757
#
# Velocity S-wave (km/s) = -8.07307 3.24409 -5.22735
# Velocity P-wave (km/s) = 7.64422 6.82002 2.44146
#
# Compressibility (1/GPa) = 0.01462059
#
# Stress axis : x y z
#
# Youngs Moduli (GPa) = 78.49627 64.74013 126.36424
#
# Poissons Ratio (x) = 0.32078 0.53971
# Poissons Ratio (y) = 0.38894 0.19124
# Poissons Ratio (z) = 0.33526 0.09798
#
# Static dielectric constant tensor:
#      x y z
#    x 2.056300 0.000000 0.000000 
#    y 0.000000 1.945390 0.000000 
#    z 0.000000 0.000000 1.936950 
# 
# From -- ./inp_files/3306.got.cif
#   From: 2010.05.17/outbox.cif.g08.bks.cpg/sg27_2_cif.got.tgz:3306.got - 2010.06.04 01:11:05.
