data_PCOD9338863
_publ_section_title
;
Structure prediction by ZEFSAII (Michael W. Deem and Ramdas Pophale) SiO2 
 PCOD9338863
Probable space group: P C C 2
;
_chemical_formula_sum "Si O2"
_cell_formula_units_Z 24
_cell_length_a 8.295850
_cell_length_b 8.479910
_cell_length_c 14.309519
_cell_angle_alpha 90.000000
_cell_angle_beta 90.000000
_cell_angle_gamma 90.000000
_cell_volume 1006.646921
_symmetry_space_group_name_H-M "P C C 2"
_symmetry_group_IT_number 27
_symmetry_cell_setting 'orthorhombic'
loop_
_space_group_symop_operation_xyz
x,y,z
-x,-y,z
-x,y,1/2+z
x,-y,1/2+z
loop_
_atom_site_type_symbol
_atom_site_label
_atom_site_fract_x
_atom_site_fract_y
_atom_site_fract_z
Si Si1 0.084869 0.161277 0.237020
Si Si2 0.260615 0.657958 0.899852
Si Si3 0.238101 0.292227 0.943173
Si Si4 0.941887 0.317344 0.064037
Si Si5 0.446727 0.181515 0.798898
Si Si6 0.583489 0.163544 0.615291
O O1 0.137582 0.267377 0.324489
O O2 0.963008 0.246591 0.165465
O O3 0.250370 0.135257 0.175491
O O4 0.000000 0.000000 0.263998
O O5 0.238666 0.470564 0.906070
O O6 0.431322 0.713840 0.860609
O O7 0.221738 0.707789 0.006573
O O8 0.280836 0.189700 0.853501
O O9 0.074031 0.244789 0.993643
O O10 0.366492 0.266649 0.027018
O O11 0.000000 0.500000 0.069673
O O12 0.464003 0.238240 0.692625
O O13 0.500000 0.000000 0.799221
O O14 0.500000 0.000000 0.584747
#
# Coordination Sequence:
#
# PCOD9338863 Si02
#       6
#     4   4   4   4   4   4
#     4  10  22  39  61  89 122 161 206 255 308 371
#     4  10  22  40  60  88 122 160 204 253 311 371
#     4  10  20  39  62  87 122 160 202 258 312 369
#     4   9  21  39  59  86 119 157 202 251 307 369
#     4  10  21  38  61  90 123 161 206 255 307 368
#     4   9  20  39  61  90 124 161 209 256 308 370
#
# _framework density 23.841526000000002
#
# number of rings (size 3 to 8) (size 9 to 14) (size 15 to 20)
#    0.000    2.333    0.000    1.000    0.000   10.667 
#    0.000   11.667    0.000    0.000    0.000    0.000 
#    0.000    0.000    0.000    0.000    0.000    0.000 
#
# Total GULP energy -134140.089570 kJ/mol
# GULP energy per Si atom -5589.170399 kJ/mol
# Density = 2.378726 g / cm^3
# Si number density = 23.841526 Si / 1000 Ang^3
#
#
#
# Elastic Constant Matrix: (Units=GPa)
#
#
# Indices 1 2 3 4 5 6 
#
# 1 36.5169 15.3872 46.8487 0.0000 0.0000 0.0000
# 2 15.3872 79.1563 65.4139 0.0000 0.0000 0.0000
# 3 46.8487 65.4139 141.7763 0.0000 0.0000 0.0000
# 4 0.0000 0.0000 0.0000 50.3004 0.0000 0.0000
# 5 0.0000 0.0000 0.0000 0.0000 46.8293 0.0000
# 6 0.0000 0.0000 0.0000 0.0000 0.0000 37.5527
#
#
#
# Elastic Compliance Matrix: (Units=1/GPa)
#
#
# Indices 1 2 3 4 5 6 
#
# 1 0.049397 0.006282 -0.019221 0.000000 0.000000 0.000000
# 2 0.006282 0.021217 -0.011865 0.000000 0.000000 0.000000
# 3 -0.019221 -0.011865 0.018879 0.000000 0.000000 0.000000
# 4 0.000000 0.000000 0.000000 0.019881 0.000000 0.000000
# 5 0.000000 0.000000 0.000000 0.000000 0.021354 0.000000
# 6 0.000000 0.000000 0.000000 0.000000 0.000000 0.026629
#
#
# Mechanical properties :
#
#
# Convention : Reuss Voigt Hill
#
# Bulk Modulus (GPa) = 25.07228 56.97211 41.02220
# Shear Modulus (GPa) = 22.70027 35.58981 29.14504
#
# Velocity S-wave (km/s) = 3.08901 3.86782 3.50015
# Velocity P-wave (km/s) = 4.82304 6.62531 5.79467
#
# Compressibility (1/GPa) = 0.03988468
#
# Stress axis : x y z
#
# Youngs Moduli (GPa) = 20.24412 47.13112 52.96801
#
# Poissons Ratio (x) = -0.29607 1.01811
# Poissons Ratio (y) = -0.12717 0.62848
# Poissons Ratio (z) = 0.38912 0.55922
#
# Static dielectric constant tensor:
#      x y z
#    x 2.033550 0.000000 0.000000 
#    y 0.000000 1.876190 0.000000 
#    z 0.000000 0.000000 1.894050 
# 
# From -- ./inp_files/3311.got.cif
#   From: 2010.05.17/outbox.cif.g08.bks.cpg/sg27_2_cif.got.tgz:3311.got - 2010.06.04 01:11:05.
