data_PCOD9338258
_publ_section_title
;
Structure prediction by ZEFSAII (Michael W. Deem and Ramdas Pophale) SiO2 
 PCOD9338258
Probable space group: P M C 21
;
_chemical_formula_sum "Si O2"
_cell_formula_units_Z 32
_cell_length_a 9.603622
_cell_length_b 5.278050
_cell_length_c 29.267566
_cell_angle_alpha 90.000000
_cell_angle_beta 90.000000
_cell_angle_gamma 90.000000
_cell_volume 1483.526007
_symmetry_space_group_name_H-M "P M C 21"
_symmetry_group_IT_number 26
_symmetry_cell_setting 'orthorhombic'
loop_
_space_group_symop_operation_xyz
x,y,z
-x,-y,1/2+z
-x,y,z
x,-y,1/2+z
loop_
_atom_site_type_symbol
_atom_site_label
_atom_site_fract_x
_atom_site_fract_y
_atom_site_fract_z
Si Si1 0.349051 0.197917 0.607160
Si Si2 0.848585 0.800750 0.559510
Si Si3 0.851976 0.486148 0.151681
Si Si4 0.332550 0.358359 0.878741
Si Si5 0.652570 0.524185 0.011862
Si Si6 0.669931 0.671445 0.271028
Si Si7 0.331380 0.139518 0.428224
Si Si8 0.166184 0.167402 0.236737
O O1 0.500000 0.087866 0.618084
O O2 0.281780 0.336168 0.650480
O O3 0.365781 0.384158 0.563756
O O4 0.245833 0.996696 0.586124
O O5 0.866092 0.588051 0.598751
O O6 0.769188 0.687419 0.516235
O O7 0.000000 0.904787 0.548058
O O8 0.833767 0.240521 0.182919
O O9 0.000000 0.607893 0.166270
O O10 0.500000 0.368428 0.883990
O O11 0.308928 0.304026 0.825688
O O12 0.278882 0.130195 0.910616
O O13 0.281565 0.632745 0.895241
O O14 0.500000 0.427361 0.996134
O O15 0.694959 0.754316 0.979101
O O16 0.500000 0.666135 0.262442
O O17 0.750141 0.912086 0.248831
O O18 0.748810 0.410238 0.257063
O O19 0.500000 0.125068 0.425007
O O20 0.000000 0.156951 0.250013
#
# Coordination Sequence:
#
# PCOD9338258 Si02
#       8
#     4   4   4   4   4   4   4   4
#     4  10  20  33  53  82 114 145 185 242 298 340
#     4  10  20  35  55  76 108 154 194 232 286 351
#     4   9  21  39  56  77 108 152 201 238 283 357
#     4   9  18  33  56  87 118 150 190 243 301 357
#     4   9  19  33  52  81 111 143 189 242 288 335
#     4  11  23  41  65  96 127 158 204 262 316 367
#     4   9  17  30  54  85 116 150 191 239 294 353
#     4  11  24  42  65  92 124 166 210 252 308 380
#
# _framework density 21.570231
#
# number of rings (size 3 to 8) (size 9 to 14) (size 15 to 20)
#    0.000    2.250    0.000    2.250    3.500    4.000 
#    0.000    0.000    0.000    4.500    0.000    0.000 
#    0.000    0.000    0.000    0.000    0.000    0.000 
#
# Total GULP energy -178334.152823 kJ/mol
# GULP energy per Si atom -5572.942276 kJ/mol
# Density = 2.152114 g / cm^3
# Si number density = 21.570231 Si / 1000 Ang^3
#
#
#
# Elastic Constant Matrix: (Units=GPa)
#
#
# Indices 1 2 3 4 5 6 
#
# 1 131.3077 42.8037 18.0820 0.0000 0.0000 0.0000
# 2 42.8037 90.0357 16.4741 0.0000 0.0000 0.0000
# 3 18.0820 16.4741 80.2209 0.0000 0.0000 0.0000
# 4 0.0000 0.0000 0.0000 35.7766 0.0000 0.0000
# 5 0.0000 0.0000 0.0000 0.0000 44.7446 0.0000
# 6 0.0000 0.0000 0.0000 0.0000 0.0000 38.7452
#
#
#
# Elastic Compliance Matrix: (Units=1/GPa)
#
#
# Indices 1 2 3 4 5 6 
#
# 1 0.009124 -0.004116 -0.001211 0.000000 0.000000 0.000000
# 2 -0.004116 0.013397 -0.001823 0.000000 0.000000 0.000000
# 3 -0.001211 -0.001823 0.013113 0.000000 0.000000 0.000000
# 4 0.000000 0.000000 0.000000 0.027951 0.000000 0.000000
# 5 0.000000 0.000000 0.000000 0.000000 0.022349 0.000000
# 6 0.000000 0.000000 0.000000 0.000000 0.000000 0.025810
#
#
# Mechanical properties :
#
#
# Convention : Reuss Voigt Hill
#
# Bulk Modulus (GPa) = 46.87636 50.69821 48.78728
# Shear Modulus (GPa) = 37.54958 38.80024 38.17491
#
# Velocity S-wave (km/s) = 4.17682 4.24581 4.21146
# Velocity P-wave (km/s) = 6.71121 6.89860 6.80555
#
# Compressibility (1/GPa) = 0.02133272
#
# Stress axis : x y z
#
# Youngs Moduli (GPa) = 109.59758 74.64251 76.25969
#
# Poissons Ratio (x) = 0.30724 0.09238
# Poissons Ratio (y) = 0.45112 0.13906
# Poissons Ratio (z) = 0.13276 0.13611
#
# Static dielectric constant tensor:
#      x y z
#    x 1.909050 0.000000 0.000000 
#    y 0.000000 1.835200 0.000000 
#    z 0.000000 0.000000 1.803740 
# 
# From -- ./inp_files/5674.got.cif
#   From: 2010.05.17/outbox.cif.g08.bks.cpg/sg26_3_cif.got.tgz:5674.got - 2010.06.04 01:07:29.
