data_PCOD9338749
_publ_section_title
;
Structure prediction by ZEFSAII (Michael W. Deem and Ramdas Pophale) SiO2 
 PCOD9338749
Probable space group: P C C 2
;
_chemical_formula_sum "Si O2"
_cell_formula_units_Z 24
_cell_length_a 9.521508
_cell_length_b 16.239535
_cell_length_c 8.659968
_cell_angle_alpha 90.000000
_cell_angle_beta 90.000000
_cell_angle_gamma 90.000000
_cell_volume 1339.046361
_symmetry_space_group_name_H-M "P C C 2"
_symmetry_group_IT_number 27
_symmetry_cell_setting 'orthorhombic'
loop_
_space_group_symop_operation_xyz
x,y,z
-x,-y,z
-x,y,1/2+z
x,-y,1/2+z
loop_
_atom_site_type_symbol
_atom_site_label
_atom_site_fract_x
_atom_site_fract_y
_atom_site_fract_z
Si Si1 0.842332 0.755244 0.009780
Si Si2 0.343157 0.086870 0.009179
Si Si3 0.840171 0.584466 0.508864
Si Si4 0.159827 0.415533 0.139809
Si Si5 0.343161 0.086872 0.639493
Si Si6 0.157673 0.755242 0.138891
O O1 0.751941 0.835197 0.051338
O O2 0.779517 0.670804 0.079800
O O3 0.000003 0.764898 0.074333
O O4 0.848403 0.747336 0.824335
O O5 0.499997 0.097595 0.074338
O O6 0.288072 0.999999 0.074335
O O7 0.349893 0.081474 0.824336
O O8 0.843838 0.582128 0.324337
O O9 0.775159 0.499999 0.574335
O O10 0.779513 0.670802 0.568874
O O11 0.999999 0.585717 0.574337
O O12 0.248067 0.164806 0.597334
#
# Coordination Sequence:
#
# PCOD9338749 Si02
#       6
#     4   4   4   4   4   4
#     4  10  20  33  50  76 104 132 166 207 250 294
#     4  10  21  36  55  75  99 131 169 207 248 299
#     4  10  17  27  45  69  99 133 165 202 244 292
#     4  10  17  27  45  69  99 133 165 202 244 292
#     4  10  21  36  55  75  99 131 169 207 248 299
#     4  10  20  33  50  76 104 132 166 207 250 294
#
# _framework density 17.923202
#
# number of rings (size 3 to 8) (size 9 to 14) (size 15 to 20)
#    0.000    2.000    0.000    9.000    0.000    6.000 
#    0.000    3.333    0.000    1.000    0.000    7.000 
#    0.000    0.000    0.000    0.000    0.000    0.000 
#
# Total GULP energy -133884.898724 kJ/mol
# GULP energy per Si atom -5578.537447 kJ/mol
# Density = 1.788241 g / cm^3
# Si number density = 17.923202 Si / 1000 Ang^3
#
#
#
# Elastic Constant Matrix: (Units=GPa)
#
#
# Indices 1 2 3 4 5 6 
#
# 1 29.5249 60.7907 24.0501 0.0000 0.0000 0.0000
# 2 60.7907 233.3834 83.2962 0.0000 0.0000 0.0000
# 3 24.0501 83.2962 109.5567 0.0000 0.0000 0.0000
# 4 0.0000 0.0000 0.0000 39.4604 0.0000 0.0000
# 5 0.0000 0.0000 0.0000 0.0000 -7.5789 0.0000
# 6 0.0000 0.0000 0.0000 0.0000 0.0000 -32.1790
#
#
#
# Elastic Compliance Matrix: (Units=1/GPa)
#
#
# Indices 1 2 3 4 5 6 
#
# 1 0.073416 -0.018351 -0.002164 0.000000 0.000000 0.000000
# 2 -0.018351 0.010467 -0.003930 0.000000 0.000000 0.000000
# 3 -0.002164 -0.003930 0.012591 0.000000 0.000000 0.000000
# 4 0.000000 0.000000 0.000000 0.025342 0.000000 0.000000
# 5 0.000000 0.000000 0.000000 0.000000 -0.131945 0.000000
# 6 0.000000 0.000000 0.000000 0.000000 0.000000 -0.031076
#
#
# Mechanical properties :
#
#
# Convention : Reuss Voigt Hill
#
# Bulk Modulus (GPa) = 21.01543 78.74877 49.88210
# Shear Modulus (GPa) = 212.34946 13.56235 112.95591
#
# Velocity S-wave (km/s) = 10.89654 2.75379 7.94726
# Velocity P-wave (km/s) = 13.04084 7.35821 10.58789
#
# Compressibility (1/GPa) = 0.04758409
#
# Stress axis : x y z
#
# Youngs Moduli (GPa) = 13.62105 95.53567 79.42314
#
# Poissons Ratio (x) = 1.75313 0.17190
# Poissons Ratio (y) = 0.24995 0.31213
# Poissons Ratio (z) = 0.02948 0.37545
#
# Static dielectric constant tensor:
#      x y z
#    x 1.585390 0.000000 0.000000 
#    y 0.000000 1.675940 0.000000 
#    z 0.000000 0.000000 1.600120 
# 
# From -- ./inp_files/1400.got.cif
#   From: 2010.05.17/outbox.cif.g08.bks.cpg/sg27_1_cif.got.tgz:1400.got - 2010.06.04 01:11:05.
