data_PCOD9338449
_publ_section_title
;
Structure prediction by ZEFSAII (Michael W. Deem and Ramdas Pophale) SiO2 
 PCOD9338449
Probable space group: P M C 21
;
_chemical_formula_sum "Si O2"
_cell_formula_units_Z 24
_cell_length_a 8.002956
_cell_length_b 26.106979
_cell_length_c 5.051986
_cell_angle_alpha 90.000000
_cell_angle_beta 90.000000
_cell_angle_gamma 90.000000
_cell_volume 1055.526612
_symmetry_space_group_name_H-M "P M C 21"
_symmetry_group_IT_number 26
_symmetry_cell_setting 'orthorhombic'
loop_
_space_group_symop_operation_xyz
x,y,z
-x,-y,1/2+z
-x,y,z
x,-y,1/2+z
loop_
_atom_site_type_symbol
_atom_site_label
_atom_site_fract_x
_atom_site_fract_y
_atom_site_fract_z
Si Si1 0.298863 0.860935 0.629350
Si Si2 0.306412 0.364918 0.910149
Si Si3 0.798990 0.028663 0.912923
Si Si4 0.702288 0.801389 0.129157
Si Si5 0.191140 0.692432 0.900642
Si Si6 0.296138 0.470171 0.167860
O O1 0.500000 0.860290 0.630993
O O2 0.245985 0.915950 0.523234
O O3 0.241006 0.817861 0.420079
O O4 0.242635 0.845168 0.921412
O O5 0.500000 0.373792 0.839161
O O6 0.295680 0.322329 0.140924
O O7 0.238389 0.416364 0.048231
O O8 0.219887 0.347128 0.641531
O O9 0.000000 0.026109 0.902485
O O10 0.736644 0.986196 0.122609
O O11 0.500000 0.799354 0.131189
O O12 0.764028 0.747358 0.022384
O O13 0.000000 0.691500 0.815581
O O14 0.500000 0.468013 0.172067
O O15 0.245124 0.485391 0.462383
#
# Coordination Sequence:
#
# PCOD9338449 Si02
#       6
#     4   4   4   4   4   4
#     4  10  21  36  57  83 109 141 184 235 283 333
#     4  11  22  39  64  89 118 159 200 243 298 353
#     4  10  21  36  54  78 109 145 182 221 271 334
#     4  10  21  38  58  82 112 147 190 235 286 346
#     4  12  25  40  60  89 123 157 198 247 297 353
#     4   9  17  31  55  87 115 143 192 249 289 335
#
# _framework density 22.737463999999999
#
# number of rings (size 3 to 8) (size 9 to 14) (size 15 to 20)
#    0.000    1.667    0.000    5.000    0.000    6.000 
#    0.000    0.000    0.000   10.000    0.000    0.000 
#    0.000    0.000    0.000    0.000    0.000    0.000 
#
# Total GULP energy -134238.246825 kJ/mol
# GULP energy per Si atom -5593.260284 kJ/mol
# Density = 2.268571 g / cm^3
# Si number density = 22.737464 Si / 1000 Ang^3
#
#
#
# Elastic Constant Matrix: (Units=GPa)
#
#
# Indices 1 2 3 4 5 6 
#
# 1 21.8234 -7.3724 0.7509 0.0000 0.0000 0.0000
# 2 -7.3724 52.7191 -24.5121 0.0000 0.0000 0.0000
# 3 0.7509 -24.5121 71.3613 0.0000 0.0000 0.0000
# 4 0.0000 0.0000 0.0000 38.6941 0.0000 0.0000
# 5 0.0000 0.0000 0.0000 0.0000 -12.8743 0.0000
# 6 0.0000 0.0000 0.0000 0.0000 0.0000 264.0726
#
#
#
# Elastic Compliance Matrix: (Units=1/GPa)
#
#
# Indices 1 2 3 4 5 6 
#
# 1 0.048373 0.007769 0.002159 0.000000 0.000000 0.000000
# 2 0.007769 0.023821 0.008101 0.000000 0.000000 0.000000
# 3 0.002159 0.008101 0.016773 0.000000 0.000000 0.000000
# 4 0.000000 0.000000 0.000000 0.025844 0.000000 0.000000
# 5 0.000000 0.000000 0.000000 0.000000 -0.077674 0.000000
# 6 0.000000 0.000000 0.000000 0.000000 0.000000 0.003787
#
#
# Mechanical properties :
#
#
# Convention : Reuss Voigt Hill
#
# Bulk Modulus (GPa) = 7.99844 9.29295 8.64569
# Shear Modulus (GPa) = 107.43344 69.78096 88.60720
#
# Velocity S-wave (km/s) = 6.88129 5.54585 6.24934
# Velocity P-wave (km/s) = 8.16465 6.71599 7.47550
#
# Compressibility (1/GPa) = 0.12502444
#
# Stress axis : x y z
#
# Youngs Moduli (GPa) = 20.67289 41.97916 59.61955
#
# Poissons Ratio (x) = -0.32612 -0.12875
# Poissons Ratio (y) = -0.16060 -0.48296
# Poissons Ratio (z) = -0.04464 -0.34006
#
# Static dielectric constant tensor:
#      x y z
#    x 1.831940 0.000000 0.000000 
#    y 0.000000 1.845270 0.000000 
#    z 0.000000 0.000000 1.823800 
# 
# From -- ./inp_files/189.got.cif
#   From: 2010.05.17/outbox.cif.g08.bks.cpg/sg26_1_cif.got.tgz:189.got - 2010.06.04 01:07:29.
