data_PCOD9338739
_publ_section_title
;
Structure prediction by ZEFSAII (Michael W. Deem and Ramdas Pophale) SiO2 
 PCOD9338739
Probable space group: P C C 2
;
_chemical_formula_sum "Si O2"
_cell_formula_units_Z 24
_cell_length_a 30.097847
_cell_length_b 6.840306
_cell_length_c 5.188352
_cell_angle_alpha 90.000000
_cell_angle_beta 90.000000
_cell_angle_gamma 90.000000
_cell_volume 1068.170041
_symmetry_space_group_name_H-M "P C C 2"
_symmetry_group_IT_number 27
_symmetry_cell_setting 'orthorhombic'
loop_
_space_group_symop_operation_xyz
x,y,z
-x,-y,z
-x,y,1/2+z
x,-y,1/2+z
loop_
_atom_site_type_symbol
_atom_site_label
_atom_site_fract_x
_atom_site_fract_y
_atom_site_fract_z
Si Si1 0.612646 0.376457 0.228040
Si Si2 0.700851 0.869600 0.740296
Si Si3 0.482316 0.724666 0.411661
Si Si4 0.981689 0.282200 0.409331
Si Si5 0.889738 0.866001 0.750469
Si Si6 0.205218 0.132608 0.852235
O O1 0.612271 0.554594 0.432595
O O2 0.657133 0.256856 0.279079
O O3 0.566765 0.268968 0.296222
O O4 0.700412 0.957813 0.453197
O O5 0.748042 0.763063 0.794334
O O6 0.500000 0.500000 0.453314
O O7 0.484472 0.807457 0.697894
O O8 0.932091 0.268794 0.303376
O O9 0.000000 0.500000 0.455392
O O10 0.985945 0.192860 0.693223
O O11 0.891446 0.963175 0.468533
O O12 0.841784 0.765459 0.796230
O O13 0.205265 0.954059 0.641689
#
# Coordination Sequence:
#
# PCOD9338739 Si02
#       6
#     4   4   4   4   4   4
#     4  12  21  33  58  86 109 139 190 238 263 320
#     4  10  21  38  57  80 115 150 174 217 291 345
#     4  10  16  30  49  77  98 139 184 226 263 311
#     4  10  21  35  50  70 107 145 168 202 271 324
#     4  10  19  32  55  82 100 128 185 229 243 293
#     4   8  16  32  54  76 100 136 174 211 260 317
#
# _framework density 22.468335
#
# number of rings (size 3 to 8) (size 9 to 14) (size 15 to 20)
#    0.000    2.000    3.333    2.000    0.000    2.000 
#    0.000    0.000    7.333    3.000    0.000    0.000 
#    0.000    0.000    0.000    0.000    0.000    0.000 
#
# Total GULP energy -133874.355915 kJ/mol
# GULP energy per Si atom -5578.098163 kJ/mol
# Density = 2.241720 g / cm^3
# Si number density = 22.468335 Si / 1000 Ang^3
#
#
#
# Elastic Constant Matrix: (Units=GPa)
#
#
# Indices 1 2 3 4 5 6 
#
# 1 183.8868 6.9666 -11.1441 0.0000 0.0000 0.0000
# 2 6.9666 33.8161 -15.0150 0.0000 0.0000 0.0000
# 3 -11.1441 -15.0150 125.5955 0.0000 0.0000 0.0000
# 4 0.0000 0.0000 0.0000 -1.8811 0.0000 0.0000
# 5 0.0000 0.0000 0.0000 0.0000 33.8471 0.0000
# 6 0.0000 0.0000 0.0000 0.0000 0.0000 23.6533
#
#
#
# Elastic Compliance Matrix: (Units=1/GPa)
#
#
# Indices 1 2 3 4 5 6 
#
# 1 0.005497 -0.000967 0.000372 0.000000 0.000000 0.000000
# 2 -0.000967 0.031400 0.003668 0.000000 0.000000 0.000000
# 3 0.000372 0.003668 0.008434 0.000000 0.000000 0.000000
# 4 0.000000 0.000000 0.000000 -0.531611 0.000000 0.000000
# 5 0.000000 0.000000 0.000000 0.000000 0.029545 0.000000
# 6 0.000000 0.000000 0.000000 0.000000 0.000000 0.042277
#
#
# Mechanical properties :
#
#
# Convention : Reuss Voigt Hill
#
# Bulk Modulus (GPa) = 19.42640 33.87927 26.65284
# Shear Modulus (GPa) = -12.39325 35.28992 11.44834
#
# Velocity S-wave (km/s) = -2.35114 3.96744 2.25973
# Velocity P-wave (km/s) = 1.13773 6.00824 4.32396
#
# Compressibility (1/GPa) = 0.05147633
#
# Stress axis : x y z
#
# Youngs Moduli (GPa) = 181.90661 31.84744 118.57337
#
# Poissons Ratio (x) = 0.03081 -0.04413
# Poissons Ratio (y) = 0.17596 -0.43493
# Poissons Ratio (z) = -0.06769 -0.11682
#
# Static dielectric constant tensor:
#      x y z
#    x 1.879320 0.000000 0.000000 
#    y 0.000000 1.567680 0.000000 
#    z 0.000000 0.000000 1.880870 
# 
# From -- ./inp_files/179.got.cif
#   From: 2010.05.17/outbox.cif.g08.bks.cpg/sg27_1_cif.got.tgz:179.got - 2010.06.04 01:11:05.
