data_PCOD9338252
_publ_section_title
;
Structure prediction by ZEFSAII (Michael W. Deem and Ramdas Pophale) SiO2 
 PCOD9338252
Probable space group: P M C 21
;
_chemical_formula_sum "Si O2"
_cell_formula_units_Z 32
_cell_length_a 9.868635
_cell_length_b 29.440403
_cell_length_c 5.326230
_cell_angle_alpha 90.000000
_cell_angle_beta 90.000000
_cell_angle_gamma 90.000000
_cell_volume 1547.464710
_symmetry_space_group_name_H-M "P M C 21"
_symmetry_group_IT_number 26
_symmetry_cell_setting 'orthorhombic'
loop_
_space_group_symop_operation_xyz
x,y,z
-x,-y,1/2+z
-x,y,z
x,-y,1/2+z
loop_
_atom_site_type_symbol
_atom_site_label
_atom_site_fract_x
_atom_site_fract_y
_atom_site_fract_z
Si Si1 0.158558 0.970127 0.292250
Si Si2 0.662718 0.828030 0.721999
Si Si3 0.650352 0.346952 0.266513
Si Si4 0.836764 0.524095 0.419572
Si Si5 0.650829 0.745640 0.055465
Si Si6 0.150681 0.299996 0.876007
Si Si7 0.850188 0.607682 0.083313
Si Si8 0.335446 0.880698 0.227399
O O1 0.259431 0.927834 0.273102
O O2 0.000000 0.955519 0.286481
O O3 0.179963 0.997404 0.551330
O O4 0.500000 0.829170 0.708484
O O5 0.693399 0.777581 0.824196
O O6 0.707586 0.846472 0.452377
O O7 0.702151 0.860647 0.954511
O O8 0.500000 0.357548 0.168092
O O9 0.750653 0.323791 0.071535
O O10 0.633707 0.306070 0.466543
O O11 0.728525 0.389257 0.387494
O O12 0.787141 0.491522 0.192172
O O13 0.814138 0.574734 0.313783
O O14 0.000000 0.519882 0.435078
O O15 0.500000 0.761144 0.147183
O O16 0.769524 0.742286 0.257519
O O17 0.134068 0.340634 0.674233
O O18 0.000000 0.289095 0.971909
O O19 0.000000 0.593192 0.983793
O O20 0.500000 0.114131 0.734044
#
# Coordination Sequence:
#
# PCOD9338252 Si02
#       8
#     4   4   4   4   4   4   4   4
#     4  10  21  37  57  80 109 146 183 223 273 328
#     4   9  19  34  56  81 110 144 182 227 274 325
#     4  10  20  33  54  79 104 141 185 226 269 329
#     4   9  18  31  52  81 108 136 177 223 272 333
#     4   9  19  35  54  76 103 143 189 227 270 329
#     4  10  20  33  52  78 109 141 178 230 283 326
#     4   9  19  34  53  77 106 138 173 225 280 321
#     4  10  20  35  56  84 111 141 181 227 277 325
#
# _framework density 20.678985999999998
#
# number of rings (size 3 to 8) (size 9 to 14) (size 15 to 20)
#    0.000    2.500    0.000    1.500    3.500    1.500 
#    0.000    1.250    0.000    0.750    0.000    0.000 
#    0.000    0.000    0.000    0.000    0.000    0.000 
#
# Total GULP energy -178350.921905 kJ/mol
# GULP energy per Si atom -5573.466310 kJ/mol
# Density = 2.063192 g / cm^3
# Si number density = 20.678986 Si / 1000 Ang^3
#
#
#
# Elastic Constant Matrix: (Units=GPa)
#
#
# Indices 1 2 3 4 5 6 
#
# 1 97.0148 14.2353 23.3365 0.0000 0.0000 0.0000
# 2 14.2353 74.9976 5.6484 0.0000 0.0000 0.0000
# 3 23.3365 5.6484 69.9527 0.0000 0.0000 0.0000
# 4 0.0000 0.0000 0.0000 33.2288 0.0000 0.0000
# 5 0.0000 0.0000 0.0000 0.0000 19.4948 0.0000
# 6 0.0000 0.0000 0.0000 0.0000 0.0000 21.1676
#
#
#
# Elastic Compliance Matrix: (Units=1/GPa)
#
#
# Indices 1 2 3 4 5 6 
#
# 1 0.011470 -0.001901 -0.003673 0.000000 0.000000 0.000000
# 2 -0.001901 0.013730 -0.000475 0.000000 0.000000 0.000000
# 3 -0.003673 -0.000475 0.015559 0.000000 0.000000 0.000000
# 4 0.000000 0.000000 0.000000 0.030094 0.000000 0.000000
# 5 0.000000 0.000000 0.000000 0.000000 0.051296 0.000000
# 6 0.000000 0.000000 0.000000 0.000000 0.000000 0.047242
#
#
# Mechanical properties :
#
#
# Convention : Reuss Voigt Hill
#
# Bulk Modulus (GPa) = 34.88816 36.48952 35.68884
# Shear Modulus (GPa) = 26.17221 28.02788 27.10005
#
# Velocity S-wave (km/s) = 3.56145 3.68554 3.62403
# Velocity P-wave (km/s) = 5.81548 5.98289 5.89978
#
# Compressibility (1/GPa) = 0.02866302
#
# Stress axis : x y z
#
# Youngs Moduli (GPa) = 87.18315 72.83195 64.27137
#
# Poissons Ratio (x) = 0.13842 0.23607
# Poissons Ratio (y) = 0.16569 0.03051
# Poissons Ratio (z) = 0.32023 0.03457
#
# Static dielectric constant tensor:
#      x y z
#    x 1.843140 0.000000 0.000000 
#    y 0.000000 1.754300 0.000000 
#    z 0.000000 0.000000 1.808780 
# 
# From -- ./inp_files/236.got.cif
#   From: 2010.05.17/outbox.cif.g08.bks.cpg/sg26_1_cif.got.tgz:236.got - 2010.06.04 01:07:29.
