data_PCOD9338951
_publ_section_title
;
Structure prediction by ZEFSAII (Michael W. Deem and Ramdas Pophale) SiO2 
 PCOD9338951
Probable space group: P C C 2
;
_chemical_formula_sum "Si O2"
_cell_formula_units_Z 30
_cell_length_a 17.190338
_cell_length_b 5.461221
_cell_length_c 13.660015
_cell_angle_alpha 90.000000
_cell_angle_beta 90.000000
_cell_angle_gamma 90.000000
_cell_volume 1282.405417
_symmetry_space_group_name_H-M "P C C 2"
_symmetry_group_IT_number 27
_symmetry_cell_setting 'orthorhombic'
loop_
_space_group_symop_operation_xyz
x,y,z
-x,-y,z
-x,y,1/2+z
x,-y,1/2+z
loop_
_atom_site_type_symbol
_atom_site_label
_atom_site_fract_x
_atom_site_fract_y
_atom_site_fract_z
Si Si1 0.828938 0.448872 0.385710
Si Si2 0.086183 0.595840 0.066430
Si Si3 0.920107 0.882777 0.755310
Si Si4 0.500000 0.500000 0.109297
Si Si5 0.620860 0.313573 0.970625
Si Si6 0.544989 0.175461 0.771570
Si Si7 0.712120 0.182860 0.515024
Si Si8 0.800307 0.276283 0.706270
O O1 0.862608 0.629292 0.469089
O O2 0.901302 0.345412 0.324126
O O3 0.786884 0.235267 0.446431
O O4 0.775260 0.558236 0.298940
O O5 0.074013 0.818873 0.140323
O O6 0.136876 0.414838 0.136497
O O7 0.000000 0.500000 0.042530
O O8 0.846229 0.058525 0.758227
O O9 0.000000 0.000000 0.787990
O O10 0.547690 0.314148 0.043067
O O11 0.550025 0.121385 0.274481
O O12 0.585324 0.291084 0.862972
O O13 0.555844 0.664151 0.177046
O O14 0.662061 0.573272 0.990721
O O15 0.673594 0.923574 0.490647
O O16 0.736014 0.189408 0.629574
#
# Coordination Sequence:
#
# PCOD9338951 Si02
#       8
#     4   4   4   2   4   4   4   4
#     4  10  26  44  67  97 146 184 247 304 366 445
#     4  10  21  40  64  96 134 175 232 308 381 433
#     4  11  23  42  71 100 132 187 247 316 375 434
#     4  10  26  46  80 114 142 188 236 306 348 424
#     4  12  26  49  79 106 153 188 246 290 371 432
#     4  10  23  44  74 110 147 177 230 295 353 410
#     4  11  29  48  71 108 148 206 233 297 370 448
#     4  10  24  46  66  96 145 183 243 306 358 448
#
# _framework density 23.393539000000001
#
# number of rings (size 3 to 8) (size 9 to 14) (size 15 to 20)
#    0.400    1.067    2.000    0.800   11.200    2.133 
#    0.000    0.000    0.000    0.000    0.000    0.000 
#    0.000    0.000    0.000    0.000    0.000    0.000 
#
# Total GULP energy -167307.206435 kJ/mol
# GULP energy per Si atom -5576.906881 kJ/mol
# Density = 2.334029 g / cm^3
# Si number density = 23.393539 Si / 1000 Ang^3
#
#
#
# Elastic Constant Matrix: (Units=GPa)
#
#
# Indices 1 2 3 4 5 6 
#
# 1 58.3482 18.8868 39.9556 0.0000 0.0000 0.0000
# 2 18.8868 59.1620 13.5315 0.0000 0.0000 0.0000
# 3 39.9556 13.5315 137.3817 0.0000 0.0000 0.0000
# 4 0.0000 0.0000 0.0000 0.8715 0.0000 0.0000
# 5 0.0000 0.0000 0.0000 0.0000 45.3390 0.0000
# 6 0.0000 0.0000 0.0000 0.0000 0.0000 36.0958
#
#
#
# Elastic Compliance Matrix: (Units=1/GPa)
#
#
# Indices 1 2 3 4 5 6 
#
# 1 0.023331 -0.006032 -0.006191 0.000000 0.000000 0.000000
# 2 -0.006032 0.018852 -0.000103 0.000000 0.000000 0.000000
# 3 -0.006191 -0.000103 0.009090 0.000000 0.000000 0.000000
# 4 0.000000 0.000000 0.000000 1.147411 0.000000 0.000000
# 5 0.000000 0.000000 0.000000 0.000000 0.022056 0.000000
# 6 0.000000 0.000000 0.000000 0.000000 0.000000 0.027704
#
#
# Mechanical properties :
#
#
# Convention : Reuss Voigt Hill
#
# Bulk Modulus (GPa) = 37.56479 44.40442 40.98461
# Shear Modulus (GPa) = 3.90025 28.62915 16.26470
#
# Velocity S-wave (km/s) = 1.29262 3.50209 2.63965
# Velocity P-wave (km/s) = 4.28024 5.94773 5.18150
#
# Compressibility (1/GPa) = 0.02662067
#
# Stress axis : x y z
#
# Youngs Moduli (GPa) = 42.86213 53.04532 110.01419
#
# Poissons Ratio (x) = 0.31997 0.68113
# Poissons Ratio (y) = 0.25854 0.01128
# Poissons Ratio (z) = 0.26537 0.00544
#
# Static dielectric constant tensor:
#      x y z
#    x 1.922950 0.000000 0.000000 
#    y 0.000000 1.878930 0.000000 
#    z 0.000000 0.000000 1.855940 
# 
# From -- ./inp_files/2870.got.cif
#   From: 2010.05.17/outbox.cif.g08.bks.cpg/sg27_2_cif.got.tgz:2870.got - 2010.06.04 01:11:05.
