data_PCOD9338452
_publ_section_title
;
Structure prediction by ZEFSAII (Michael W. Deem and Ramdas Pophale) SiO2 
 PCOD9338452
Probable space group: P M C 21
;
_chemical_formula_sum "Si O2"
_cell_formula_units_Z 22
_cell_length_a 16.452233
_cell_length_b 11.249370
_cell_length_c 4.853722
_cell_angle_alpha 90.000000
_cell_angle_beta 90.000000
_cell_angle_gamma 90.000000
_cell_volume 898.313551
_symmetry_space_group_name_H-M "P M C 21"
_symmetry_group_IT_number 26
_symmetry_cell_setting 'orthorhombic'
loop_
_space_group_symop_operation_xyz
x,y,z
-x,-y,1/2+z
-x,y,z
x,-y,1/2+z
loop_
_atom_site_type_symbol
_atom_site_label
_atom_site_fract_x
_atom_site_fract_y
_atom_site_fract_z
Si Si1 0.500000 0.931237 0.377350
Si Si2 0.000000 0.416155 0.224989
Si Si3 0.908922 0.915437 0.924241
Si Si4 0.640213 0.768103 0.457345
Si Si5 0.829326 0.579031 0.587697
Si Si6 0.500000 0.415832 0.128484
Si Si7 0.255159 0.769489 0.928499
O O1 0.579508 0.858448 0.307770
O O2 0.500000 0.949662 0.703926
O O3 0.084420 0.356833 0.147010
O O4 0.000000 0.463613 0.535001
O O5 0.000000 0.862086 0.970150
O O6 0.904531 0.967593 0.617066
O O7 0.829844 0.835920 0.981018
O O8 0.580284 0.663046 0.564163
O O9 0.702872 0.736451 0.213913
O O10 0.684111 0.834067 0.714455
O O11 0.828761 0.541137 0.272290
O O12 0.761333 0.656187 0.731194
O O13 0.500000 0.467046 0.436018
#
# Coordination Sequence:
#
# PCOD9338452 Si02
#       7
#     2   2   4   4   4   2   4
#     4  11  24  45  70  90 122 161 190 251 326 380
#     4   8  16  32  50  72 106 148 198 242 276 332
#     4  10  23  43  64  90 125 169 220 265 315 381
#     4  11  26  42  61 102 126 153 218 255 303 392
#     4  10  21  36  55  84 120 160 203 247 296 354
#     4  11  24  45  70  90 130 179 206 253 316 374
#     4  12  24  39  65  93 130 165 203 268 313 362
#
# _framework density 24.490334000000001
#
# number of rings (size 3 to 8) (size 9 to 14) (size 15 to 20)
#    0.000    1.455    0.000    4.364    1.273   11.636 
#    0.000    0.000    0.000    0.000    0.000    0.000 
#    0.000    0.000    0.000    0.000    0.000    0.000 
#
# Total GULP energy -122945.620156 kJ/mol
# GULP energy per Si atom -5588.437280 kJ/mol
# Density = 2.443459 g / cm^3
# Si number density = 24.490334 Si / 1000 Ang^3
#
#
#
# Elastic Constant Matrix: (Units=GPa)
#
#
# Indices 1 2 3 4 5 6 
#
# 1 153.1936 27.5504 24.7092 0.0000 0.0000 0.0000
# 2 27.5504 23.6591 -11.4979 0.0000 0.0000 0.0000
# 3 24.7092 -11.4979 107.7875 0.0000 0.0000 0.0000
# 4 0.0000 0.0000 0.0000 27.9456 0.0000 0.0000
# 5 0.0000 0.0000 0.0000 0.0000 28.6945 0.0000
# 6 0.0000 0.0000 0.0000 0.0000 0.0000 9.9454
#
#
#
# Elastic Compliance Matrix: (Units=1/GPa)
#
#
# Indices 1 2 3 4 5 6 
#
# 1 0.009354 -0.012587 -0.003487 0.000000 0.000000 0.000000
# 2 -0.012587 0.061515 0.009447 0.000000 0.000000 0.000000
# 3 -0.003487 0.009447 0.011085 0.000000 0.000000 0.000000
# 4 0.000000 0.000000 0.000000 0.035784 0.000000 0.000000
# 5 0.000000 0.000000 0.000000 0.000000 0.034850 0.000000
# 6 0.000000 0.000000 0.000000 0.000000 0.000000 0.100549
#
#
# Mechanical properties :
#
#
# Convention : Reuss Voigt Hill
#
# Bulk Modulus (GPa) = 14.55586 40.68486 27.62036
# Shear Modulus (GPa) = 17.28375 29.57568 23.42972
#
# Velocity S-wave (km/s) = 2.65945 3.47889 3.09640
# Velocity P-wave (km/s) = 3.92259 5.72587 4.90776
#
# Compressibility (1/GPa) = 0.06870085
#
# Stress axis : x y z
#
# Youngs Moduli (GPa) = 106.90953 16.25616 90.21523
#
# Poissons Ratio (x) = 0.20461 0.31457
# Poissons Ratio (y) = 1.34564 -0.85229
# Poissons Ratio (z) = 0.37278 -0.15358
#
# Static dielectric constant tensor:
#      x y z
#    x 2.054090 0.000000 0.000000 
#    y 0.000000 1.971950 0.000000 
#    z 0.000000 0.000000 1.872300 
# 
# From -- ./inp_files/575.got.cif
#   From: 2010.05.17/outbox.cif.g08.bks.cpg/sg26_1_cif.got.tgz:575.got - 2010.06.04 01:07:29.
