data_PCOD9338607
_publ_section_title
;
Structure prediction by ZEFSAII (Michael W. Deem and Ramdas Pophale) SiO2 
 PCOD9338607
Probable space group: P M C 21
;
_chemical_formula_sum "Si O2"
_cell_formula_units_Z 20
_cell_length_a 9.369252
_cell_length_b 9.578357
_cell_length_c 9.811343
_cell_angle_alpha 90.000000
_cell_angle_beta 90.000000
_cell_angle_gamma 90.000000
_cell_volume 880.489941
_symmetry_space_group_name_H-M "P M C 21"
_symmetry_group_IT_number 26
_symmetry_cell_setting 'orthorhombic'
loop_
_space_group_symop_operation_xyz
x,y,z
-x,-y,1/2+z
-x,y,z
x,-y,1/2+z
loop_
_atom_site_type_symbol
_atom_site_label
_atom_site_fract_x
_atom_site_fract_y
_atom_site_fract_z
Si Si1 0.662397 0.012952 0.347640
Si Si2 0.662044 0.425931 0.684746
Si Si3 0.250105 0.265506 0.185205
Si Si4 0.836434 0.742034 0.380867
Si Si5 0.161454 0.762879 0.980467
O O1 0.500000 0.970942 0.376609
O O2 0.764147 0.881944 0.321186
O O3 0.664946 0.125221 0.224556
O O4 0.736529 0.101527 0.469693
O O5 0.500000 0.373356 0.675511
O O6 0.662375 0.592140 0.671862
O O7 0.736090 0.381211 0.826071
O O8 0.761435 0.352459 0.571875
O O9 0.157229 0.284528 0.322141
O O10 0.170486 0.246716 0.043602
O O11 0.000000 0.723933 0.338807
O O12 0.000000 0.793440 0.024717
#
# Coordination Sequence:
#
# PCOD9338607 Si02
#       5
#     4   4   4   4   4
#     4  10  24  45  70 100 138 184 233 288 346 410
#     4  12  26  45  71 106 144 187 235 289 352 422
#     4  10  26  45  75 100 140 184 239 288 354 415
#     4  12  27  46  73 107 143 187 237 291 354 423
#     4  10  23  43  69  99 139 182 228 286 348 414
#
# _framework density 22.714627
#
# number of rings (size 3 to 8) (size 9 to 14) (size 15 to 20)
#    1.200    0.000    0.000    4.800    2.800    9.600 
#    0.000    0.000    0.000    0.000    0.000    0.000 
#    0.000    0.000    0.000    0.000    0.000    0.000 
#
# Total GULP energy -111678.305782 kJ/mol
# GULP energy per Si atom -5583.915289 kJ/mol
# Density = 2.266293 g / cm^3
# Si number density = 22.714627 Si / 1000 Ang^3
#
#
#
# Elastic Constant Matrix: (Units=GPa)
#
#
# Indices 1 2 3 4 5 6 
#
# 1 161.4273 12.3682 14.6610 0.0000 0.0000 0.0000
# 2 12.3682 90.2636 -3.6109 0.0000 0.0000 0.0000
# 3 14.6610 -3.6109 101.1122 0.0000 0.0000 0.0000
# 4 0.0000 0.0000 0.0000 35.1236 0.0000 0.0000
# 5 0.0000 0.0000 0.0000 0.0000 18.2423 0.0000
# 6 0.0000 0.0000 0.0000 0.0000 0.0000 -17.1391
#
#
#
# Elastic Compliance Matrix: (Units=1/GPa)
#
#
# Indices 1 2 3 4 5 6 
#
# 1 0.006351 -0.000908 -0.000953 0.000000 0.000000 0.000000
# 2 -0.000908 0.011224 0.000533 0.000000 0.000000 0.000000
# 3 -0.000953 0.000533 0.010047 0.000000 0.000000 0.000000
# 4 0.000000 0.000000 0.000000 0.028471 0.000000 0.000000
# 5 0.000000 0.000000 0.000000 0.000000 0.054818 0.000000
# 6 0.000000 0.000000 0.000000 0.000000 0.000000 -0.058346
#
#
# Mechanical properties :
#
#
# Convention : Reuss Voigt Hill
#
# Bulk Modulus (GPa) = 40.05709 44.40442 42.23076
# Shear Modulus (GPa) = 78.68494 29.20436 53.94465
#
# Velocity S-wave (km/s) = 5.89202 3.58957 4.87857
# Velocity P-wave (km/s) = 7.99756 6.06393 7.09691
#
# Compressibility (1/GPa) = 0.02496437
#
# Stress axis : x y z
#
# Youngs Moduli (GPa) = 157.45767 89.09138 99.52979
#
# Poissons Ratio (x) = 0.08093 0.09488
# Poissons Ratio (y) = 0.14303 -0.05300
# Poissons Ratio (z) = 0.15010 -0.04745
#
# Static dielectric constant tensor:
#      x y z
#    x 1.790910 0.000000 0.000000 
#    y 0.000000 1.851980 0.000000 
#    z 0.000000 0.000000 1.880530 
# 
# From -- ./inp_files/1284.got.cif
#   From: 2010.05.17/outbox.cif.g08.bks.cpg/sg26_1_cif.got.tgz:1284.got - 2010.06.04 01:07:29.
