data_PCOD9338291
_publ_section_title
;
Structure prediction by ZEFSAII (Michael W. Deem and Ramdas Pophale) SiO2 
 PCOD9338291
Probable space group: P M C 21
;
_chemical_formula_sum "Si O2"
_cell_formula_units_Z 32
_cell_length_a 7.596929
_cell_length_b 13.093372
_cell_length_c 13.975284
_cell_angle_alpha 90.000000
_cell_angle_beta 90.000000
_cell_angle_gamma 90.000000
_cell_volume 1390.113358
_symmetry_space_group_name_H-M "P M C 21"
_symmetry_group_IT_number 26
_symmetry_cell_setting 'orthorhombic'
loop_
_space_group_symop_operation_xyz
x,y,z
-x,-y,1/2+z
-x,y,z
x,-y,1/2+z
loop_
_atom_site_type_symbol
_atom_site_label
_atom_site_fract_x
_atom_site_fract_y
_atom_site_fract_z
Si Si1 0.712085 0.253977 0.117910
Si Si2 0.708064 0.624824 0.176883
Si Si3 0.285179 0.940346 0.738817
Si Si4 0.209334 0.318165 0.473508
Si Si5 0.712451 0.419673 0.267817
Si Si6 0.792741 0.132941 0.943378
Si Si7 0.700560 0.158384 0.727986
Si Si8 0.796332 0.912270 0.960772
O O1 0.500000 0.257456 0.117151
O O2 0.769945 0.153601 0.175037
O O3 0.775256 0.348989 0.179882
O O4 0.770381 0.230300 0.011053
O O5 0.500000 0.630988 0.199036
O O6 0.778056 0.533213 0.242365
O O7 0.787481 0.736084 0.198465
O O8 0.726075 0.613391 0.062439
O O9 0.500000 0.942968 0.743957
O O10 0.216582 0.920481 0.845367
O O11 0.220732 0.049405 0.699639
O O12 0.247154 0.368524 0.370136
O O13 0.280476 0.200600 0.483405
O O14 0.000000 0.311345 0.480532
O O15 0.500000 0.421972 0.263068
O O16 0.700568 0.152461 0.842856
O O17 0.000000 0.117873 0.924941
O O18 0.722852 0.025119 0.988228
O O19 0.500000 0.158410 0.691610
O O20 0.000000 0.909295 0.990798
#
# Coordination Sequence:
#
# PCOD9338291 Si02
#       8
#     4   4   4   4   4   4   4   4
#     4  10  20  34  55  84 114 148 191 238 285 334
#     4  10  23  41  63  87 113 152 196 237 285 341
#     4   9  17  31  54  82 110 143 184 235 285 329
#     4  11  23  39  61  88 117 150 189 238 289 340
#     4  10  22  42  63  84 114 153 197 240 283 336
#     4  10  21  35  54  83 120 159 192 229 286 351
#     4   9  19  37  57  82 114 147 189 238 287 335
#     4   9  19  35  53  80 116 152 188 227 282 344
#
# _framework density 23.019704999999998
#
# number of rings (size 3 to 8) (size 9 to 14) (size 15 to 20)
#    0.000    2.250    1.250    0.750    1.750    4.000 
#    0.000    5.000    0.000    0.000    0.000    0.000 
#    0.000    0.000    0.000    0.000    0.000    0.000 
#
# Total GULP energy -178600.674904 kJ/mol
# GULP energy per Si atom -5581.271091 kJ/mol
# Density = 2.296731 g / cm^3
# Si number density = 23.019705 Si / 1000 Ang^3
#
#
#
# Elastic Constant Matrix: (Units=GPa)
#
#
# Indices 1 2 3 4 5 6 
#
# 1 62.3495 13.7572 -7.0592 0.0000 0.0000 0.0000
# 2 13.7572 116.8228 25.2263 0.0000 0.0000 0.0000
# 3 -7.0592 25.2263 69.5402 0.0000 0.0000 0.0000
# 4 0.0000 0.0000 0.0000 31.1003 0.0000 0.0000
# 5 0.0000 0.0000 0.0000 0.0000 53.2256 0.0000
# 6 0.0000 0.0000 0.0000 0.0000 0.0000 7.7778
#
#
#
# Elastic Compliance Matrix: (Units=1/GPa)
#
#
# Indices 1 2 3 4 5 6 
#
# 1 0.016903 -0.002562 0.002645 0.000000 0.000000 0.000000
# 2 -0.002562 0.009676 -0.003770 0.000000 0.000000 0.000000
# 3 0.002645 -0.003770 0.016016 0.000000 0.000000 0.000000
# 4 0.000000 0.000000 0.000000 0.032154 0.000000 0.000000
# 5 0.000000 0.000000 0.000000 0.000000 0.018788 0.000000
# 6 0.000000 0.000000 0.000000 0.000000 0.000000 0.128572
#
#
# Mechanical properties :
#
#
# Convention : Reuss Voigt Hill
#
# Bulk Modulus (GPa) = 28.39115 34.72901 31.56008
# Shear Modulus (GPa) = 20.72770 32.87326 26.80048
#
# Velocity S-wave (km/s) = 3.00398 3.78305 3.41580
# Velocity P-wave (km/s) = 4.93883 5.84819 5.41264
#
# Compressibility (1/GPa) = 0.03522224
#
# Stress axis : x y z
#
# Youngs Moduli (GPa) = 59.15990 103.35139 62.43643
#
# Poissons Ratio (x) = 0.26476 -0.16516
# Poissons Ratio (y) = 0.15155 0.23539
# Poissons Ratio (z) = -0.15649 0.38963
#
# Static dielectric constant tensor:
#      x y z
#    x 1.860460 0.000000 0.000000 
#    y 0.000000 1.904630 0.000000 
#    z 0.000000 0.000000 1.855060 
# 
# From -- ./inp_files/4217.got.cif
#   From: 2010.05.17/outbox.cif.g08.bks.cpg/sg26_3_cif.got.tgz:4217.got - 2010.06.04 01:07:29.
