data_PCOD9338468
_publ_section_title
;
Structure prediction by ZEFSAII (Michael W. Deem and Ramdas Pophale) SiO2 
 PCOD9338468
Probable space group: P M C 21
;
_chemical_formula_sum "Si O2"
_cell_formula_units_Z 32
_cell_length_a 7.749259
_cell_length_b 12.158498
_cell_length_c 15.740487
_cell_angle_alpha 90.000000
_cell_angle_beta 90.000000
_cell_angle_gamma 90.000000
_cell_volume 1483.058455
_symmetry_space_group_name_H-M "P M C 21"
_symmetry_group_IT_number 26
_symmetry_cell_setting 'orthorhombic'
loop_
_space_group_symop_operation_xyz
x,y,z
-x,-y,1/2+z
-x,y,z
x,-y,1/2+z
loop_
_atom_site_type_symbol
_atom_site_label
_atom_site_fract_x
_atom_site_fract_y
_atom_site_fract_z
Si Si1 0.208345 0.412889 0.545220
Si Si2 0.787703 0.158735 0.539423
Si Si3 0.200021 0.437867 0.889511
Si Si4 0.708249 0.229235 0.137772
Si Si5 0.302241 0.785955 0.446467
Si Si6 0.705434 0.453759 0.215140
Si Si7 0.196820 0.013805 0.382460
Si Si8 0.200466 0.010361 0.695283
O O1 0.265476 0.285931 0.540736
O O2 0.271308 0.485354 0.465241
O O3 0.258543 0.471013 0.633060
O O4 0.000000 0.410493 0.540824
O O5 0.000000 0.153625 0.539402
O O6 0.728823 0.095298 0.453971
O O7 0.728262 0.093367 0.623970
O O8 0.287189 0.318767 0.886146
O O9 0.214894 0.498078 0.800094
O O10 0.000000 0.416177 0.908567
O O11 0.500000 0.219973 0.146121
O O12 0.768115 0.330341 0.195059
O O13 0.788432 0.112195 0.158481
O O14 0.747201 0.256027 0.039906
O O15 0.500000 0.823837 0.450037
O O16 0.195138 0.891893 0.421283
O O17 0.500000 0.449122 0.227019
O O18 0.000000 0.053013 0.367884
O O19 0.280281 0.999155 0.289504
O O20 0.000000 0.043637 0.706967
#
# Coordination Sequence:
#
# PCOD9338468 Si02
#       8
#     4   4   4   4   4   4   4   4
#     4  10  22  40  62  88 121 160 203 252 302 360
#     4   9  19  37  56  83 122 154 189 243 296 342
#     4  11  24  40  63  92 120 157 206 255 300 359
#     4  10  22  40  61  85 120 158 198 247 298 357
#     4  11  22  40  63  87 120 158 200 249 301 360
#     4  11  24  42  62  88 123 161 199 250 309 365
#     4  10  21  37  60  90 119 154 198 244 297 353
#     4  10  21  36  61  89 117 154 197 244 295 352
#
# _framework density 21.577031000000002
#
# number of rings (size 3 to 8) (size 9 to 14) (size 15 to 20)
#    0.000    1.750    2.500    1.125    3.500    2.500 
#    0.000    1.250    0.000    0.000    0.000    0.000 
#    0.000    0.000    0.000    0.000    0.000    0.000 
#
# Total GULP energy -178748.068958 kJ/mol
# GULP energy per Si atom -5585.877155 kJ/mol
# Density = 2.152792 g / cm^3
# Si number density = 21.577031 Si / 1000 Ang^3
#
#
#
# Elastic Constant Matrix: (Units=GPa)
#
#
# Indices 1 2 3 4 5 6 
#
# 1 36.0155 -3.1295 -1.3333 0.0000 0.0000 0.0000
# 2 -3.1295 99.1727 5.8277 0.0000 0.0000 0.0000
# 3 -1.3333 5.8277 89.3401 0.0000 0.0000 0.0000
# 4 0.0000 0.0000 0.0000 34.7884 0.0000 0.0000
# 5 0.0000 0.0000 0.0000 0.0000 -6.9768 0.0000
# 6 0.0000 0.0000 0.0000 0.0000 0.0000 -72.6818
#
#
#
# Elastic Compliance Matrix: (Units=1/GPa)
#
#
# Indices 1 2 3 4 5 6 
#
# 1 0.027854 0.000858 0.000360 0.000000 0.000000 0.000000
# 2 0.000858 0.010149 -0.000649 0.000000 0.000000 0.000000
# 3 0.000360 -0.000649 0.011241 0.000000 0.000000 0.000000
# 4 0.000000 0.000000 0.000000 0.028745 0.000000 0.000000
# 5 0.000000 0.000000 0.000000 0.000000 -0.143332 0.000000
# 6 0.000000 0.000000 0.000000 0.000000 0.000000 -0.013759
#
#
# Mechanical properties :
#
#
# Convention : Reuss Voigt Hill
#
# Bulk Modulus (GPa) = 19.84917 25.25089 22.55003
# Shear Modulus (GPa) = -78.80775 5.90354 -36.45210
#
# Velocity S-wave (km/s) = -6.05006 1.65589 -4.11468
# Velocity P-wave (km/s) = 6.29167 3.92225 3.47858
#
# Compressibility (1/GPa) = 0.05037993
#
# Stress axis : x y z
#
# Youngs Moduli (GPa) = 35.90190 98.53543 88.96086
#
# Poissons Ratio (x) = -0.08453 -0.03200
# Poissons Ratio (y) = -0.03080 0.05775
# Poissons Ratio (z) = -0.01292 0.06397
#
# Static dielectric constant tensor:
#      x y z
#    x 1.737880 0.000000 0.000000 
#    y 0.000000 1.744190 0.000000 
#    z 0.000000 0.000000 1.793830 
# 
# From -- ./inp_files/4121.got.cif
#   From: 2010.05.17/outbox.cif.g08.bks.cpg/sg26_3_cif.got.tgz:4121.got - 2010.06.04 01:07:29.
