data_PCOD9338025
_publ_section_title
;
Structure prediction by ZEFSAII (Michael W. Deem and Ramdas Pophale) SiO2 
 PCOD9338025
Probable space group: P M C 21
;
_chemical_formula_sum "Si O2"
_cell_formula_units_Z 20
_cell_length_a 28.037799
_cell_length_b 4.989374
_cell_length_c 5.066003
_cell_angle_alpha 90.000000
_cell_angle_beta 90.000000
_cell_angle_gamma 90.000000
_cell_volume 708.688557
_symmetry_space_group_name_H-M "P M C 21"
_symmetry_group_IT_number 26
_symmetry_cell_setting 'orthorhombic'
loop_
_space_group_symop_operation_xyz
x,y,z
-x,-y,1/2+z
-x,y,z
x,-y,1/2+z
loop_
_atom_site_type_symbol
_atom_site_label
_atom_site_fract_x
_atom_site_fract_y
_atom_site_fract_z
Si Si1 0.599444 0.311638 0.471150
Si Si2 0.500000 0.312279 0.602351
Si Si3 0.902679 0.836922 0.084922
Si Si4 0.000000 0.188358 0.432075
Si Si5 0.698215 0.687954 0.105823
Si Si6 0.796003 0.338299 0.453205
O O1 0.599455 0.559883 0.681624
O O2 0.549675 0.832474 0.036274
O O3 0.648942 0.164186 0.537801
O O4 0.500000 0.561185 0.392717
O O5 0.949483 0.673222 0.993532
O O6 0.849351 0.748813 0.019482
O O7 0.906171 0.904520 0.391742
O O8 0.000000 0.055340 0.146268
O O9 0.697410 0.441437 0.894049
O O10 0.749089 0.822900 0.045416
O O11 0.792428 0.402405 0.145579
#
# Coordination Sequence:
#
# PCOD9338025 Si02
#       6
#     4   2   4   2   4   4
#     4   8  12  18  27  41  61  90 124 156 190 234
#     4   8  12  16  24  38  58  84 120 158 188 224
#     4  10  19  33  51  69  89 117 149 180 214 258
#     4   8  16  30  48  66  86 114 146 174 210 260
#     4   8  14  23  35  50  73 103 132 160 200 250
#     4  10  19  31  46  67  92 117 145 180 218 258
#
# _framework density 28.221139999999998
#
# number of rings (size 3 to 8) (size 9 to 14) (size 15 to 20)
#    0.000    3.200    0.000    1.200    0.000    0.000 
#    0.000    1.000    0.000    0.000    0.000    0.000 
#    0.000    0.000    0.000    1.800    0.000    7.000 
#
# Total GULP energy -111803.048044 kJ/mol
# GULP energy per Si atom -5590.152402 kJ/mol
# Density = 2.815691 g / cm^3
# Si number density = 28.221140 Si / 1000 Ang^3
#
#
#
# Elastic Constant Matrix: (Units=GPa)
#
#
# Indices 1 2 3 4 5 6 
#
# 1 333.3394 26.2068 10.4144 0.0000 0.0000 0.0000
# 2 26.2068 64.3796 43.1249 0.0000 0.0000 0.0000
# 3 10.4144 43.1249 153.8737 0.0000 0.0000 0.0000
# 4 0.0000 0.0000 0.0000 50.8817 0.0000 0.0000
# 5 0.0000 0.0000 0.0000 0.0000 51.4331 0.0000
# 6 0.0000 0.0000 0.0000 0.0000 0.0000 11.3315
#
#
#
# Elastic Compliance Matrix: (Units=1/GPa)
#
#
# Indices 1 2 3 4 5 6 
#
# 1 0.003103 -0.001382 0.000177 0.000000 0.000000 0.000000
# 2 -0.001382 0.019738 -0.005438 0.000000 0.000000 0.000000
# 3 0.000177 -0.005438 0.008011 0.000000 0.000000 0.000000
# 4 0.000000 0.000000 0.000000 0.019653 0.000000 0.000000
# 5 0.000000 0.000000 0.000000 0.000000 0.019443 0.000000
# 6 0.000000 0.000000 0.000000 0.000000 0.000000 0.088250
#
#
# Mechanical properties :
#
#
# Convention : Reuss Voigt Hill
#
# Bulk Modulus (GPa) = 56.92690 79.00943 67.96817
# Shear Modulus (GPa) = 28.19450 54.18571 41.19011
#
# Velocity S-wave (km/s) = 3.16421 4.38658 3.82455
# Velocity P-wave (km/s) = 5.79355 7.32894 6.60601
#
# Compressibility (1/GPa) = 0.01756639
#
# Stress axis : x y z
#
# Youngs Moduli (GPa) = 322.26364 50.66297 124.82844
#
# Poissons Ratio (x) = 0.07001 -0.02213
# Poissons Ratio (y) = 0.44533 0.67886
# Poissons Ratio (z) = -0.05713 0.27552
#
# Static dielectric constant tensor:
#      x y z
#    x 2.370550 0.000000 0.000000 
#    y 0.000000 2.353200 0.000000 
#    z 0.000000 0.000000 2.063490 
# 
# From -- ./inp_files/941.got.cif
#   From: 2010.05.17/outbox.cif.g08.bks.cpg/sg26_1_cif.got.tgz:941.got - 2010.06.04 01:07:29.
