data_PCOD9338194
_publ_section_title
;
Structure prediction by ZEFSAII (Michael W. Deem and Ramdas Pophale) SiO2 
 PCOD9338194
Probable space group: P M C 21
;
_chemical_formula_sum "Si O2"
_cell_formula_units_Z 32
_cell_length_a 8.451362
_cell_length_b 11.800861
_cell_length_c 16.585000
_cell_angle_alpha 90.000000
_cell_angle_beta 90.000000
_cell_angle_gamma 90.000000
_cell_volume 1654.077580
_symmetry_space_group_name_H-M "P M C 21"
_symmetry_group_IT_number 26
_symmetry_cell_setting 'orthorhombic'
loop_
_space_group_symop_operation_xyz
x,y,z
-x,-y,1/2+z
-x,y,z
x,-y,1/2+z
loop_
_atom_site_type_symbol
_atom_site_label
_atom_site_fract_x
_atom_site_fract_y
_atom_site_fract_z
Si Si1 0.690128 0.933782 0.966090
Si Si2 0.815960 0.210508 0.317648
Si Si3 0.190157 0.186670 0.991638
Si Si4 0.689195 0.440893 0.700806
Si Si5 0.689048 0.306423 0.153962
Si Si6 0.820940 0.603722 0.951145
Si Si7 0.814788 0.627236 0.370820
Si Si8 0.680560 0.257538 0.582630
O O1 0.500000 0.926066 0.965480
O O2 0.749959 0.882067 0.881005
O O3 0.751350 0.853095 0.039418
O O4 0.743813 0.060614 0.982924
O O5 0.731244 0.231355 0.232796
O O6 0.805538 0.328628 0.367348
O O7 0.000000 0.185961 0.302620
O O8 0.242649 0.249155 0.073616
O O9 0.000000 0.183992 0.990458
O O10 0.243673 0.259711 0.913951
O O11 0.500000 0.442020 0.687206
O O12 0.748472 0.563937 0.670330
O O13 0.722882 0.418188 0.793896
O O14 0.755786 0.330068 0.654428
O O15 0.500000 0.311139 0.146307
O O16 0.806667 0.471575 0.937236
O O17 0.000000 0.629085 0.981389
O O18 0.690072 0.651604 0.010283
O O19 0.000000 0.639590 0.348464
O O20 0.500000 0.229305 0.604941
#
# Coordination Sequence:
#
# PCOD9338194 Si02
#       8
#     4   4   4   4   4   4   4   4
#     4  10  21  40  62  83 115 155 201 249 296 351
#     4  10  19  35  61  88 117 151 193 241 289 351
#     4  11  24  41  60  84 118 160 205 250 298 351
#     4  10  21  36  57  88 121 150 187 238 295 358
#     4  11  22  37  60  91 122 153 195 243 299 360
#     4   9  17  31  54  83 112 144 182 227 284 343
#     4  10  21  37  56  82 117 153 190 237 291 352
#     4   9  19  35  56  83 112 146 187 235 286 340
#
# _framework density 19.346129000000001
#
# number of rings (size 3 to 8) (size 9 to 14) (size 15 to 20)
#    0.000    2.000    1.250    2.250    0.000    3.500 
#    2.250    0.000    0.000    0.000    0.000    0.000 
#    0.000    0.000    0.000    0.000    0.000    0.000 
#
# Total GULP energy -178413.820445 kJ/mol
# GULP energy per Si atom -5575.431889 kJ/mol
# Density = 1.930210 g / cm^3
# Si number density = 19.346129 Si / 1000 Ang^3
#
#
#
# Elastic Constant Matrix: (Units=GPa)
#
#
# Indices 1 2 3 4 5 6 
#
# 1 29.3510 20.6504 3.6639 0.0000 0.0000 0.0000
# 2 20.6504 143.7395 50.7911 0.0000 0.0000 0.0000
# 3 3.6639 50.7911 51.9112 0.0000 0.0000 0.0000
# 4 0.0000 0.0000 0.0000 25.3733 0.0000 0.0000
# 5 0.0000 0.0000 0.0000 0.0000 50.9279 0.0000
# 6 0.0000 0.0000 0.0000 0.0000 0.0000 13.4702
#
#
#
# Elastic Compliance Matrix: (Units=1/GPa)
#
#
# Indices 1 2 3 4 5 6 
#
# 1 0.038468 -0.006981 0.004115 0.000000 0.000000 0.000000
# 2 -0.006981 0.011900 -0.011151 0.000000 0.000000 0.000000
# 3 0.004115 -0.011151 0.029883 0.000000 0.000000 0.000000
# 4 0.000000 0.000000 0.000000 0.039412 0.000000 0.000000
# 5 0.000000 0.000000 0.000000 0.000000 0.019636 0.000000
# 6 0.000000 0.000000 0.000000 0.000000 0.000000 0.074238
#
#
# Mechanical properties :
#
#
# Convention : Reuss Voigt Hill
#
# Bulk Modulus (GPa) = 19.15023 41.69029 30.42026
# Shear Modulus (GPa) = 19.30687 27.94736 23.62712
#
# Velocity S-wave (km/s) = 3.16249 3.80491 3.49848
# Velocity P-wave (km/s) = 4.82238 6.39528 5.66370
#
# Compressibility (1/GPa) = 0.05221869
#
# Stress axis : x y z
#
# Youngs Moduli (GPa) = 25.99561 84.03371 33.46369
#
# Poissons Ratio (x) = 0.58660 -0.13770
# Poissons Ratio (y) = 0.18146 0.37314
# Poissons Ratio (z) = -0.10697 0.93702
#
# Static dielectric constant tensor:
#      x y z
#    x 1.676480 0.000000 0.000000 
#    y 0.000000 1.680230 0.000000 
#    z 0.000000 0.000000 1.689610 
# 
# From -- ./inp_files/4238.got.cif
#   From: 2010.05.17/outbox.cif.g08.bks.cpg/sg26_3_cif.got.tgz:4238.got - 2010.06.04 01:07:29.
