data_PCOD9338350
_publ_section_title
;
Structure prediction by ZEFSAII (Michael W. Deem and Ramdas Pophale) SiO2 
 PCOD9338350
Probable space group: P M C 21
;
_chemical_formula_sum "Si O2"
_cell_formula_units_Z 32
_cell_length_a 8.496798
_cell_length_b 19.635849
_cell_length_c 10.502223
_cell_angle_alpha 90.000000
_cell_angle_beta 90.000000
_cell_angle_gamma 90.000000
_cell_volume 1752.210236
_symmetry_space_group_name_H-M "P M C 21"
_symmetry_group_IT_number 26
_symmetry_cell_setting 'orthorhombic'
loop_
_space_group_symop_operation_xyz
x,y,z
-x,-y,1/2+z
-x,y,z
x,-y,1/2+z
loop_
_atom_site_type_symbol
_atom_site_label
_atom_site_fract_x
_atom_site_fract_y
_atom_site_fract_z
Si Si1 0.811802 0.575785 0.066970
Si Si2 0.310216 0.793102 0.425461
Si Si3 0.810977 0.050043 0.203507
Si Si4 0.311182 0.051601 0.918758
Si Si5 0.309952 0.653410 0.312228
Si Si6 0.312387 0.577381 0.574194
Si Si7 0.810267 0.795271 0.708975
Si Si8 0.810704 0.656926 0.818970
O O1 0.768419 0.617357 0.192987
O O2 0.736248 0.501263 0.070787
O O3 0.000000 0.567681 0.058469
O O4 0.753621 0.618011 0.944217
O O5 0.500000 0.791827 0.433823
O O6 0.261876 0.869958 0.391010
O O7 0.263177 0.732312 0.331654
O O8 0.244157 0.778502 0.565901
O O9 0.757489 0.127510 0.236022
O O10 0.000000 0.048877 0.200626
O O11 0.751529 0.998300 0.310230
O O12 0.749847 0.034594 0.060863
O O13 0.500000 0.049005 0.920348
O O14 0.500000 0.649937 0.298522
O O15 0.267240 0.613874 0.442115
O O16 0.500000 0.583180 0.587193
O O17 0.235156 0.614890 0.693819
O O18 0.753761 0.734657 0.800329
O O19 0.000000 0.795646 0.711418
O O20 0.000000 0.659306 0.827046
#
# Coordination Sequence:
#
# PCOD9338350 Si02
#       8
#     4   4   4   4   4   4   4   4
#     4  11  24  38  53  79 114 147 181 224 278 328
#     4   9  18  35  58  83 111 143 185 232 272 324
#     4  10  20  36  58  85 117 151 190 233 282 335
#     4  10  20  36  59  85 117 151 189 233 282 335
#     4  10  21  38  58  82 111 142 183 228 275 328
#     4  11  22  37  60  83 105 140 186 228 276 330
#     4   9  18  34  58  83 110 144 185 230 273 324
#     4  10  21  38  58  82 111 142 183 228 274 328
#
# _framework density 18.262649
#
# number of rings (size 3 to 8) (size 9 to 14) (size 15 to 20)
#    0.000    2.000    1.250    2.250    0.000    5.500 
#    2.250    0.000    0.000    0.000    0.000    0.000 
#    0.000    0.000    0.000    0.000    0.000    0.000 
#
# Total GULP energy -178632.269121 kJ/mol
# GULP energy per Si atom -5582.258410 kJ/mol
# Density = 1.822108 g / cm^3
# Si number density = 18.262649 Si / 1000 Ang^3
#
#
#
# Elastic Constant Matrix: (Units=GPa)
#
#
# Indices 1 2 3 4 5 6 
#
# 1 7.0846 8.2450 5.9871 0.0000 0.0000 0.0000
# 2 8.2450 127.7899 62.5719 0.0000 0.0000 0.0000
# 3 5.9871 62.5719 97.4519 0.0000 0.0000 0.0000
# 4 0.0000 0.0000 0.0000 29.1675 0.0000 0.0000
# 5 0.0000 0.0000 0.0000 0.0000 -291.0800 0.0000
# 6 0.0000 0.0000 0.0000 0.0000 0.0000 917.8935
#
#
#
# Elastic Compliance Matrix: (Units=1/GPa)
#
#
# Indices 1 2 3 4 5 6 
#
# 1 0.153948 -0.007733 -0.004493 0.000000 0.000000 0.000000
# 2 -0.007733 0.011802 -0.007103 0.000000 0.000000 0.000000
# 3 -0.004493 -0.007103 0.015098 0.000000 0.000000 0.000000
# 4 0.000000 0.000000 0.000000 0.034285 0.000000 0.000000
# 5 0.000000 0.000000 0.000000 0.000000 -0.003435 0.000000
# 6 0.000000 0.000000 0.000000 0.000000 0.000000 0.001089
#
#
# Mechanical properties :
#
#
# Convention : Reuss Voigt Hill
#
# Bulk Modulus (GPa) = 7.03281 42.88161 24.95721
# Shear Modulus (GPa) = 16.73132 141.56434 79.14783
#
# Velocity S-wave (km/s) = 3.03008 8.81386 6.59035
# Velocity P-wave (km/s) = 4.01262 11.27432 8.46201
#
# Compressibility (1/GPa) = 0.14219074
#
# Stress axis : x y z
#
# Youngs Moduli (GPa) = 6.49572 84.73020 66.23343
#
# Poissons Ratio (x) = 0.65520 0.29758
# Poissons Ratio (y) = 0.05023 0.47045
# Poissons Ratio (z) = 0.02918 0.60183
#
# Static dielectric constant tensor:
#      x y z
#    x 1.692290 0.000000 0.000000 
#    y 0.000000 1.646800 0.000000 
#    z 0.000000 0.000000 1.587740 
# 
# From -- ./inp_files/1602.got.cif
#   From: 2010.05.17/outbox.cif.g08.bks.cpg/sg26_1_cif.got.tgz:1602.got - 2010.06.04 01:07:29.
