data_PCOD9338459
_publ_section_title
;
Structure prediction by ZEFSAII (Michael W. Deem and Ramdas Pophale) SiO2 
 PCOD9338459
Probable space group: P M C 21
;
_chemical_formula_sum "Si O2"
_cell_formula_units_Z 24
_cell_length_a 18.536636
_cell_length_b 4.939528
_cell_length_c 10.401419
_cell_angle_alpha 90.000000
_cell_angle_beta 90.000000
_cell_angle_gamma 90.000000
_cell_volume 952.377145
_symmetry_space_group_name_H-M "P M C 21"
_symmetry_group_IT_number 26
_symmetry_cell_setting 'orthorhombic'
loop_
_space_group_symop_operation_xyz
x,y,z
-x,-y,1/2+z
-x,y,z
x,-y,1/2+z
loop_
_atom_site_type_symbol
_atom_site_label
_atom_site_fract_x
_atom_site_fract_y
_atom_site_fract_z
Si Si1 0.000000 0.525665 0.244650
Si Si2 0.500000 0.963975 0.466945
Si Si3 0.778785 0.672211 0.816408
Si Si4 0.500000 0.465027 0.650034
Si Si5 0.873475 0.836495 0.326353
Si Si6 0.350272 0.122613 0.473457
Si Si7 0.000000 0.214880 0.997440
Si Si8 0.648164 0.617665 0.643965
O O1 0.072575 0.698291 0.223613
O O2 0.000000 0.281717 0.146418
O O3 0.000000 0.512459 0.401943
O O4 0.500000 0.166308 0.591191
O O5 0.423044 0.022375 0.401862
O O6 0.500000 0.668681 0.527817
O O7 0.820076 0.408002 0.868861
O O8 0.722289 0.555468 0.713812
O O9 0.836087 0.896037 0.772410
O O10 0.725349 0.859827 0.902149
O O11 0.575039 0.535636 0.718731
O O12 0.926715 0.916722 0.443716
O O13 0.358391 0.428761 0.519926
O O14 0.347858 0.924853 0.596194
#
# Coordination Sequence:
#
# PCOD9338459 Si02
#       8
#     2   2   4   2   4   4   2   4
#     4   8  20  44  70  96 129 169 214 258 318 382
#     4   8  16  33  52  77 112 156 210 251 302 357
#     4  12  22  40  58  96 122 158 206 246 324 372
#     4   8  16  33  52  77 112 156 210 251 302 357
#     4   9  24  38  64  91 128 160 204 259 310 388
#     4  10  21  36  57  83 119 163 204 259 306 366
#     4   8  20  44  70  96 129 169 214 258 318 382
#     4  10  21  36  57  83 119 163 204 259 306 366
#
# _framework density 25.200099999999999
#
# number of rings (size 3 to 8) (size 9 to 14) (size 15 to 20)
#    1.000    1.333    0.000    2.000    0.000    7.333 
#    0.000    1.667    0.000   14.000    0.000    0.000 
#    0.000    0.000    0.000    0.000    0.000    0.000 
#
# Total GULP energy -133809.063633 kJ/mol
# GULP energy per Si atom -5575.377651 kJ/mol
# Density = 2.514274 g / cm^3
# Si number density = 25.200100 Si / 1000 Ang^3
#
#
#
# Elastic Constant Matrix: (Units=GPa)
#
#
# Indices 1 2 3 4 5 6 
#
# 1 156.1867 45.2184 13.5600 0.0000 0.0000 0.0000
# 2 45.2184 106.8019 5.4291 0.0000 0.0000 0.0000
# 3 13.5600 5.4291 28.8197 0.0000 0.0000 0.0000
# 4 0.0000 0.0000 0.0000 27.0864 0.0000 0.0000
# 5 0.0000 0.0000 0.0000 0.0000 18.6667 0.0000
# 6 0.0000 0.0000 0.0000 0.0000 0.0000 74.8274
#
#
#
# Elastic Compliance Matrix: (Units=1/GPa)
#
#
# Indices 1 2 3 4 5 6 
#
# 1 0.007542 -0.003042 -0.002975 0.000000 0.000000 0.000000
# 2 -0.003042 0.010680 -0.000581 0.000000 0.000000 0.000000
# 3 -0.002975 -0.000581 0.036208 0.000000 0.000000 0.000000
# 4 0.000000 0.000000 0.000000 0.036919 0.000000 0.000000
# 5 0.000000 0.000000 0.000000 0.000000 0.053571 0.000000
# 6 0.000000 0.000000 0.000000 0.000000 0.000000 0.013364
#
#
# Mechanical properties :
#
#
# Convention : Reuss Voigt Hill
#
# Bulk Modulus (GPa) = 24.25186 46.69150 35.47168
# Shear Modulus (GPa) = 26.99424 39.28948 33.14186
#
# Velocity S-wave (km/s) = 3.27646 3.95283 3.63043
# Velocity P-wave (km/s) = 4.89471 6.27707 5.62849
#
# Compressibility (1/GPa) = 0.04123395
#
# Stress axis : x y z
#
# Youngs Moduli (GPa) = 132.59891 93.62868 27.61834
#
# Poissons Ratio (x) = 0.28479 0.08217
# Poissons Ratio (y) = 0.40333 0.01604
# Poissons Ratio (z) = 0.39453 0.05438
#
# Static dielectric constant tensor:
#      x y z
#    x 2.113250 0.000000 0.000000 
#    y 0.000000 1.917710 0.000000 
#    z 0.000000 0.000000 2.055430 
# 
# From -- ./inp_files/3678.got.cif
#   From: 2010.05.17/outbox.cif.g08.bks.cpg/sg26_2_cif.got.tgz:3678.got - 2010.06.04 01:07:29.
