data_PCOD9338216
_publ_section_title
;
Structure prediction by ZEFSAII (Michael W. Deem and Ramdas Pophale) SiO2 
 PCOD9338216
Probable space group: P M C 21
;
_chemical_formula_sum "Si O2"
_cell_formula_units_Z 32
_cell_length_a 8.206483
_cell_length_b 14.965265
_cell_length_c 12.520717
_cell_angle_alpha 90.000000
_cell_angle_beta 90.000000
_cell_angle_gamma 90.000000
_cell_volume 1537.696710
_symmetry_space_group_name_H-M "P M C 21"
_symmetry_group_IT_number 26
_symmetry_cell_setting 'orthorhombic'
loop_
_space_group_symop_operation_xyz
x,y,z
-x,-y,1/2+z
-x,y,z
x,-y,1/2+z
loop_
_atom_site_type_symbol
_atom_site_label
_atom_site_fract_x
_atom_site_fract_y
_atom_site_fract_z
Si Si1 0.801874 0.549464 0.454410
Si Si2 0.806392 0.862528 0.741713
Si Si3 0.813427 0.355844 0.516665
Si Si4 0.192138 0.812766 0.351476
Si Si5 0.196972 0.275846 0.074052
Si Si6 0.313729 0.357725 0.740978
Si Si7 0.693050 0.946690 0.190493
Si Si8 0.308915 0.159153 0.480461
O O1 0.747102 0.447878 0.468831
O O2 0.746970 0.624340 0.541366
O O3 0.739096 0.584938 0.342002
O O4 0.000000 0.548940 0.455906
O O5 0.746987 0.771937 0.682413
O O6 0.000000 0.867764 0.726424
O O7 0.728734 0.948625 0.685785
O O8 0.769604 0.864345 0.867190
O O9 0.804979 0.372857 0.642889
O O10 0.717460 0.264888 0.496709
O O11 0.000000 0.341832 0.480968
O O12 0.235871 0.789961 0.473810
O O13 0.293037 0.744201 0.278858
O O14 0.226292 0.907956 0.298746
O O15 0.000000 0.792004 0.341121
O O16 0.000000 0.281815 0.079426
O O17 0.500000 0.374783 0.709689
O O18 0.500000 0.931766 0.198266
O O19 0.754880 0.894237 0.084794
O O20 0.500000 0.138857 0.472576
#
# Coordination Sequence:
#
# PCOD9338216 Si02
#       8
#     4   4   4   4   4   4   4   4
#     4   9  20  39  62  88 120 162 212 261 310 370
#     4  11  24  41  64  92 125 166 211 258 313 380
#     4  11  22  38  64  92 121 163 212 263 314 368
#     4  10  19  36  63  89 115 153 206 261 306 362
#     4   8  18  38  61  89 121 154 200 258 310 360
#     4  11  21  35  56  87 123 159 200 253 316 375
#     4  11  24  41  61  89 123 162 205 258 317 373
#     4  11  25  44  63  90 130 167 206 258 318 380
#
# _framework density 20.810345999999999
#
# number of rings (size 3 to 8) (size 9 to 14) (size 15 to 20)
#    0.000    1.750    1.250    3.750    1.750    3.500 
#    0.000    8.125    0.000    0.000    0.000    0.000 
#    0.000    0.000    0.000    0.000    0.000    0.000 
#
# Total GULP energy -178644.860820 kJ/mol
# GULP energy per Si atom -5582.651901 kJ/mol
# Density = 2.076298 g / cm^3
# Si number density = 20.810346 Si / 1000 Ang^3
#
#
#
# Elastic Constant Matrix: (Units=GPa)
#
#
# Indices 1 2 3 4 5 6 
#
# 1 29.6714 -0.2272 2.2568 0.0000 0.0000 0.0000
# 2 -0.2272 91.7940 25.3102 0.0000 0.0000 0.0000
# 3 2.2568 25.3102 57.6541 0.0000 0.0000 0.0000
# 4 0.0000 0.0000 0.0000 20.1325 0.0000 0.0000
# 5 0.0000 0.0000 0.0000 0.0000 -19.3429 0.0000
# 6 0.0000 0.0000 0.0000 0.0000 0.0000 38.2450
#
#
#
# Elastic Compliance Matrix: (Units=1/GPa)
#
#
# Indices 1 2 3 4 5 6 
#
# 1 0.033824 0.000511 -0.001548 0.000000 0.000000 0.000000
# 2 0.000511 0.012402 -0.005464 0.000000 0.000000 0.000000
# 3 -0.001548 -0.005464 0.019804 0.000000 0.000000 0.000000
# 4 0.000000 0.000000 0.000000 0.049671 0.000000 0.000000
# 5 0.000000 0.000000 0.000000 0.000000 -0.051699 0.000000
# 6 0.000000 0.000000 0.000000 0.000000 0.000000 0.026147
#
#
# Mechanical properties :
#
#
# Convention : Reuss Voigt Hill
#
# Bulk Modulus (GPa) = 18.85856 25.97769 22.41812
# Shear Modulus (GPa) = 41.38066 17.92557 29.65311
#
# Velocity S-wave (km/s) = 4.46406 2.93811 3.77891
# Velocity P-wave (km/s) = 5.97095 4.90103 5.46225
#
# Compressibility (1/GPa) = 0.05302632
#
# Stress axis : x y z
#
# Youngs Moduli (GPa) = 29.56471 80.63272 50.49407
#
# Poissons Ratio (x) = -0.04117 0.07817
# Poissons Ratio (y) = -0.01510 0.27592
# Poissons Ratio (z) = 0.04577 0.44061
#
# Static dielectric constant tensor:
#      x y z
#    x 1.777480 0.000000 0.000000 
#    y 0.000000 1.772800 0.000000 
#    z 0.000000 0.000000 1.741770 
# 
# From -- ./inp_files/3046.got.cif
#   From: 2010.05.17/outbox.cif.g08.bks.cpg/sg26_2_cif.got.tgz:3046.got - 2010.06.04 01:07:29.
