data_PCOD9338556
_publ_section_title
;
Structure prediction by ZEFSAII (Michael W. Deem and Ramdas Pophale) SiO2 
 PCOD9338556
Probable space group: P M C 21
;
_chemical_formula_sum "Si O2"
_cell_formula_units_Z 32
_cell_length_a 8.990972
_cell_length_b 14.628354
_cell_length_c 12.732974
_cell_angle_alpha 90.000000
_cell_angle_beta 90.000000
_cell_angle_gamma 90.000000
_cell_volume 1674.680483
_symmetry_space_group_name_H-M "P M C 21"
_symmetry_group_IT_number 26
_symmetry_cell_setting 'orthorhombic'
loop_
_space_group_symop_operation_xyz
x,y,z
-x,-y,1/2+z
-x,y,z
x,-y,1/2+z
loop_
_atom_site_type_symbol
_atom_site_label
_atom_site_fract_x
_atom_site_fract_y
_atom_site_fract_z
Si Si1 0.822662 0.646731 0.901440
Si Si2 0.821917 0.172966 0.856359
Si Si3 0.820601 0.152976 0.097109
Si Si4 0.329541 0.197473 0.527714
Si Si5 0.668925 0.672847 0.234969
Si Si6 0.179338 0.048211 0.660942
Si Si7 0.322595 0.662396 0.679176
Si Si8 0.678947 0.476875 0.578520
O O1 0.753230 0.633233 0.787605
O O2 0.000000 0.645646 0.899424
O O3 0.764016 0.744708 0.944309
O O4 0.760915 0.570918 0.982188
O O5 0.761051 0.271610 0.820448
O O6 0.774757 0.097943 0.769373
O O7 0.000000 0.176353 0.852739
O O8 0.778094 0.147632 0.974149
O O9 0.742086 0.240528 0.145721
O O10 0.000000 0.164069 0.103509
O O11 0.781435 0.058045 0.153759
O O12 0.500000 0.184842 0.493490
O O13 0.332183 0.261400 0.632144
O O14 0.253482 0.104484 0.565953
O O15 0.500000 0.661173 0.272848
O O16 0.722767 0.577475 0.185683
O O17 0.000000 0.055907 0.651557
O O18 0.500000 0.666601 0.692984
O O19 0.290850 0.583412 0.593803
O O20 0.500000 0.462999 0.566887
#
# Coordination Sequence:
#
# PCOD9338556 Si02
#       8
#     4   4   4   4   4   4   4   4
#     4  11  22  37  60  87 116 149 186 233 288 342
#     4   9  18  33  53  78 109 144 181 227 281 332
#     4  10  22  38  54  79 116 151 190 239 287 340
#     4   9  17  32  55  83 113 143 184 235 281 333
#     4   8  15  30  53  79 105 135 175 224 274 326
#     4   9  18  34  56  81 111 151 196 239 287 341
#     4  11  24  41  59  81 114 153 192 234 282 338
#     4   9  20  39  60  82 110 146 190 237 282 334
#
# _framework density 19.108122999999999
#
# number of rings (size 3 to 8) (size 9 to 14) (size 15 to 20)
#    0.000    2.500    0.000    2.625    0.000    7.000 
#    0.000    6.250    0.000    0.000    0.000    0.000 
#    0.000    0.000    0.000    0.000    0.000    0.000 
#
# Total GULP energy -178553.724041 kJ/mol
# GULP energy per Si atom -5579.803876 kJ/mol
# Density = 1.906463 g / cm^3
# Si number density = 19.108123 Si / 1000 Ang^3
#
#
#
# Elastic Constant Matrix: (Units=GPa)
#
#
# Indices 1 2 3 4 5 6 
#
# 1 58.8828 54.6334 43.3892 0.0000 0.0000 0.0000
# 2 54.6334 135.1273 40.4305 0.0000 0.0000 0.0000
# 3 43.3892 40.4305 82.4417 0.0000 0.0000 0.0000
# 4 0.0000 0.0000 0.0000 19.8130 0.0000 0.0000
# 5 0.0000 0.0000 0.0000 0.0000 22.7406 0.0000
# 6 0.0000 0.0000 0.0000 0.0000 0.0000 29.6391
#
#
#
# Elastic Compliance Matrix: (Units=1/GPa)
#
#
# Indices 1 2 3 4 5 6 
#
# 1 0.037882 -0.010959 -0.014563 0.000000 0.000000 0.000000
# 2 -0.010959 0.011843 -0.000041 0.000000 0.000000 0.000000
# 3 -0.014563 -0.000041 0.019814 0.000000 0.000000 0.000000
# 4 0.000000 0.000000 0.000000 0.050472 0.000000 0.000000
# 5 0.000000 0.000000 0.000000 0.000000 0.043974 0.000000
# 6 0.000000 0.000000 0.000000 0.000000 0.000000 0.033739
#
#
# Mechanical properties :
#
#
# Convention : Reuss Voigt Hill
#
# Bulk Modulus (GPa) = 54.30394 61.48421 57.89407
# Shear Modulus (GPa) = 19.60883 23.63846 21.62365
#
# Velocity S-wave (km/s) = 3.20692 3.52104 3.36765
# Velocity P-wave (km/s) = 6.49565 6.98407 6.74428
#
# Compressibility (1/GPa) = 0.01841487
#
# Stress axis : x y z
#
# Youngs Moduli (GPa) = 26.39792 84.43603 50.46901
#
# Poissons Ratio (x) = 0.92531 0.73498
# Poissons Ratio (y) = 0.28929 0.00204
# Poissons Ratio (z) = 0.38443 0.00342
#
# Static dielectric constant tensor:
#      x y z
#    x 1.643070 0.000000 0.000000 
#    y 0.000000 1.669820 0.000000 
#    z 0.000000 0.000000 1.670550 
# 
# From -- ./inp_files/2978.got.cif
#   From: 2010.05.17/outbox.cif.g08.bks.cpg/sg26_2_cif.got.tgz:2978.got - 2010.06.04 01:07:29.
