data_PCOD9338669
_publ_section_title
;
Structure prediction by ZEFSAII (Michael W. Deem and Ramdas Pophale) SiO2 
 PCOD9338669
Probable space group: P M C 21
;
_chemical_formula_sum "Si O2"
_cell_formula_units_Z 20
_cell_length_a 7.378352
_cell_length_b 13.960110
_cell_length_c 8.070341
_cell_angle_alpha 90.000000
_cell_angle_beta 90.000000
_cell_angle_gamma 90.000000
_cell_volume 831.266151
_symmetry_space_group_name_H-M "P M C 21"
_symmetry_group_IT_number 26
_symmetry_cell_setting 'orthorhombic'
loop_
_space_group_symop_operation_xyz
x,y,z
-x,-y,1/2+z
-x,y,z
x,-y,1/2+z
loop_
_atom_site_type_symbol
_atom_site_label
_atom_site_fract_x
_atom_site_fract_y
_atom_site_fract_z
Si Si1 0.212274 0.830742 0.314800
Si Si2 0.500000 0.962381 0.451933
Si Si3 0.779382 0.536379 0.154007
Si Si4 0.212607 0.278674 0.461996
Si Si5 0.219707 0.355508 0.988820
Si Si6 0.500000 0.154870 0.294894
O O1 0.326637 0.924223 0.350325
O O2 0.280618 0.750670 0.446119
O O3 0.000000 0.848833 0.340442
O O4 0.229553 0.782511 0.133686
O O5 0.500000 0.909971 0.630096
O O6 0.500000 0.076418 0.443963
O O7 0.729875 0.582706 0.327033
O O8 0.000000 0.535235 0.148906
O O9 0.727094 0.614484 0.014935
O O10 0.719187 0.427219 0.131578
O O11 0.328203 0.223953 0.324871
O O12 0.000000 0.282344 0.416333
O O13 0.000000 0.348959 0.995593
#
# Coordination Sequence:
#
# PCOD9338669 Si02
#       6
#     4   2   4   4   4   2
#     4   9  19  38  62  86 115 151 189 231 280 332
#     4  12  26  42  61  84 111 144 185 236 290 342
#     4   8  14  26  48  79 113 148 183 221 268 321
#     4   9  19  38  62  86 115 151 189 231 280 332
#     4   8  14  26  48  79 113 148 183 221 268 321
#     4  12  26  42  61  84 111 144 185 236 290 342
#
# _framework density 24.059683
#
# number of rings (size 3 to 8) (size 9 to 14) (size 15 to 20)
#    0.000    2.800    0.000    4.200    0.000    3.200 
#    0.000    5.000    0.000    0.000    0.000    0.000 
#    0.000    0.000    0.000    0.000    0.000    0.000 
#
# Total GULP energy -111779.677136 kJ/mol
# GULP energy per Si atom -5588.983857 kJ/mol
# Density = 2.400492 g / cm^3
# Si number density = 24.059683 Si / 1000 Ang^3
#
#
#
# Elastic Constant Matrix: (Units=GPa)
#
#
# Indices 1 2 3 4 5 6 
#
# 1 92.6795 24.5070 7.6819 0.0000 0.0000 0.0000
# 2 24.5070 95.6553 -5.7219 0.0000 0.0000 0.0000
# 3 7.6819 -5.7219 79.3844 0.0000 0.0000 0.0000
# 4 0.0000 0.0000 0.0000 43.4891 0.0000 0.0000
# 5 0.0000 0.0000 0.0000 0.0000 333.2853 0.0000
# 6 0.0000 0.0000 0.0000 0.0000 0.0000 17.8840
#
#
#
# Elastic Compliance Matrix: (Units=1/GPa)
#
#
# Indices 1 2 3 4 5 6 
#
# 1 0.011718 -0.003083 -0.001356 0.000000 0.000000 0.000000
# 2 -0.003083 0.011311 0.001114 0.000000 0.000000 0.000000
# 3 -0.001356 0.001114 0.012808 0.000000 0.000000 0.000000
# 4 0.000000 0.000000 0.000000 0.022994 0.000000 0.000000
# 5 0.000000 0.000000 0.000000 0.000000 0.003000 0.000000
# 6 0.000000 0.000000 0.000000 0.000000 0.000000 0.055916
#
#
# Mechanical properties :
#
#
# Convention : Reuss Voigt Hill
#
# Bulk Modulus (GPa) = 34.26379 35.62817 34.94598
# Shear Modulus (GPa) = 37.27805 95.01514 66.14659
#
# Velocity S-wave (km/s) = 3.94051 6.29104 5.24904
# Velocity P-wave (km/s) = 5.91402 8.22253 7.16190
#
# Compressibility (1/GPa) = 0.02918533
#
# Stress axis : x y z
#
# Youngs Moduli (GPa) = 85.34208 88.41166 78.07361
#
# Poissons Ratio (x) = 0.27259 0.10588
# Poissons Ratio (y) = 0.26312 -0.08694
# Poissons Ratio (z) = 0.11573 -0.09846
#
# Static dielectric constant tensor:
#      x y z
#    x 0.814590 0.000000 0.000000 
#    y 0.000000 1.853650 0.000000 
#    z 0.000000 0.000000 1.998070 
# 
# From -- ./inp_files/1387.got.cif
#   From: 2010.05.17/outbox.cif.g08.bks.cpg/sg26_1_cif.got.tgz:1387.got - 2010.06.04 01:07:29.
