data_PCOD9338204
_publ_section_title
;
Structure prediction by ZEFSAII (Michael W. Deem and Ramdas Pophale) SiO2 
 PCOD9338204
Probable space group: P M C 21
;
_chemical_formula_sum "Si O2"
_cell_formula_units_Z 20
_cell_length_a 26.531862
_cell_length_b 7.132149
_cell_length_c 5.004769
_cell_angle_alpha 90.000000
_cell_angle_beta 90.000000
_cell_angle_gamma 90.000000
_cell_volume 947.048399
_symmetry_space_group_name_H-M "P M C 21"
_symmetry_group_IT_number 26
_symmetry_cell_setting 'orthorhombic'
loop_
_space_group_symop_operation_xyz
x,y,z
-x,-y,1/2+z
-x,y,z
x,-y,1/2+z
loop_
_atom_site_type_symbol
_atom_site_label
_atom_site_fract_x
_atom_site_fract_y
_atom_site_fract_z
Si Si1 0.000000 0.628649 0.953380
Si Si2 0.599248 0.125200 0.595038
Si Si3 0.500000 0.371502 0.588493
Si Si4 0.304018 0.625281 0.960360
Si Si5 0.108192 0.631621 0.071272
Si Si6 0.794175 0.125075 0.450810
O O1 0.053234 0.723382 0.019768
O O2 0.000000 0.553683 0.650776
O O3 0.549603 0.247702 0.544544
O O4 0.648607 0.245002 0.528983
O O5 0.599119 0.947437 0.397767
O O6 0.500000 0.544839 0.385247
O O7 0.305809 0.448157 0.158260
O O8 0.252598 0.738434 0.005489
O O9 0.111059 0.456112 0.865905
O O10 0.153963 0.768138 0.010019
O O11 0.791303 0.948372 0.649026
#
# Coordination Sequence:
#
# PCOD9338204 Si02
#       6
#     2   4   2   4   4   4
#     4   8  16  30  54  80 106 140 188 234 276 330
#     4  12  24  42  64  92 124 157 193 243 298 342
#     4  12  24  42  64  92 124 162 204 240 278 342
#     4  12  24  42  64  88 115 154 198 240 285 346
#     4  10  19  36  58  82 109 148 192 234 279 340
#     4  12  24  39  57  85 118 151 187 237 292 343
#
# _framework density 21.118245000000002
#
# number of rings (size 3 to 8) (size 9 to 14) (size 15 to 20)
#    0.000    0.800    0.000    9.000    0.000    0.000 
#    0.000    1.000    0.000    0.000    0.000    0.000 
#    0.000    0.000    0.000    0.000    0.000    0.000 
#
# Total GULP energy -111953.839684 kJ/mol
# GULP energy per Si atom -5597.691984 kJ/mol
# Density = 2.107018 g / cm^3
# Si number density = 21.118245 Si / 1000 Ang^3
#
#
#
# Elastic Constant Matrix: (Units=GPa)
#
#
# Indices 1 2 3 4 5 6 
#
# 1 183.3260 42.0416 -11.3434 0.0000 0.0000 0.0000
# 2 42.0416 38.1916 -15.7043 0.0000 0.0000 0.0000
# 3 -11.3434 -15.7043 57.6101 0.0000 0.0000 0.0000
# 4 0.0000 0.0000 0.0000 53.8233 0.0000 0.0000
# 5 0.0000 0.0000 0.0000 0.0000 24.6353 0.0000
# 6 0.0000 0.0000 0.0000 0.0000 0.0000 107.4527
#
#
#
# Elastic Compliance Matrix: (Units=1/GPa)
#
#
# Indices 1 2 3 4 5 6 
#
# 1 0.007334 -0.008423 -0.000852 0.000000 0.000000 0.000000
# 2 -0.008423 0.039164 0.009018 0.000000 0.000000 0.000000
# 3 -0.000852 0.009018 0.019648 0.000000 0.000000 0.000000
# 4 0.000000 0.000000 0.000000 0.018579 0.000000 0.000000
# 5 0.000000 0.000000 0.000000 0.000000 0.040592 0.000000
# 6 0.000000 0.000000 0.000000 0.000000 0.000000 0.009306
#
#
# Mechanical properties :
#
#
# Convention : Reuss Voigt Hill
#
# Bulk Modulus (GPa) = 15.23686 34.34616 24.79151
# Shear Modulus (GPa) = 31.84354 54.79117 43.31735
#
# Velocity S-wave (km/s) = 3.88734 5.09914 4.53391
# Velocity P-wave (km/s) = 5.23252 7.13915 6.25886
#
# Compressibility (1/GPa) = 0.06563031
#
# Stress axis : x y z
#
# Youngs Moduli (GPa) = 136.35557 25.53335 50.89466
#
# Poissons Ratio (x) = 0.21508 0.04337
# Poissons Ratio (y) = 1.14859 -0.45894
# Poissons Ratio (z) = 0.11620 -0.23025
#
# Static dielectric constant tensor:
#      x y z
#    x 1.745160 0.000000 0.000000 
#    y 0.000000 1.718750 0.000000 
#    z 0.000000 0.000000 1.722690 
# 
# From -- ./inp_files/1006.got.cif
#   From: 2010.05.17/outbox.cif.g08.bks.cpg/sg26_1_cif.got.tgz:1006.got - 2010.06.04 01:07:29.
