data_PCOD9338276
_publ_section_title
;
Structure prediction by ZEFSAII (Michael W. Deem and Ramdas Pophale) SiO2 
 PCOD9338276
Probable space group: P M C 21
;
_chemical_formula_sum "Si O2"
_cell_formula_units_Z 32
_cell_length_a 7.553408
_cell_length_b 22.996569
_cell_length_c 7.344585
_cell_angle_alpha 90.000000
_cell_angle_beta 90.000000
_cell_angle_gamma 90.000000
_cell_volume 1275.772543
_symmetry_space_group_name_H-M "P M C 21"
_symmetry_group_IT_number 26
_symmetry_cell_setting 'orthorhombic'
loop_
_space_group_symop_operation_xyz
x,y,z
-x,-y,1/2+z
-x,y,z
x,-y,1/2+z
loop_
_atom_site_type_symbol
_atom_site_label
_atom_site_fract_x
_atom_site_fract_y
_atom_site_fract_z
Si Si1 0.288797 0.544644 0.745960
Si Si2 0.206380 0.167468 0.487841
Si Si3 0.797857 0.050151 0.636499
Si Si4 0.288611 0.354879 0.523736
Si Si5 0.717589 0.582885 0.359853
Si Si6 0.716073 0.196569 0.907752
Si Si7 0.300471 0.266573 0.231892
Si Si8 0.304376 0.925160 0.525810
O O1 0.500000 0.538159 0.718476
O O2 0.223636 0.479565 0.778387
O O3 0.224354 0.579496 0.568998
O O4 0.266526 0.583487 0.923621
O O5 0.254593 0.098690 0.487959
O O6 0.309693 0.206858 0.346619
O O7 0.000000 0.172472 0.441769
O O8 0.231558 0.190958 0.696192
O O9 0.000000 0.065502 0.683918
O O10 0.792792 0.982363 0.594199
O O11 0.681694 0.061608 0.810897
O O12 0.500000 0.341331 0.538742
O O13 0.222156 0.365222 0.727935
O O14 0.212831 0.309100 0.379573
O O15 0.500000 0.584662 0.355734
O O16 0.500000 0.195735 0.910327
O O17 0.774128 0.250480 0.033648
O O18 0.778304 0.138670 0.016551
O O19 0.500000 0.289751 0.196777
O O20 0.500000 0.923249 0.607825
#
# Coordination Sequence:
#
# PCOD9338276 Si02
#       8
#     4   4   4   4   4   4   4   4
#     4   9  14  21  35  57  91 134 176 214 256 312
#     4  10  22  39  58  80 107 144 186 231 281 329
#     4  10  21  36  53  79 109 138 173 223 282 335
#     4   9  17  27  40  66  99 137 180 215 260 321
#     4   9  14  21  36  58  91 135 175 213 258 312
#     4   9  20  38  57  79 108 145 184 228 278 327
#     4  10  21  36  56  80 111 149 188 228 273 333
#     4  10  20  34  53  79 106 138 178 222 276 337
#
# _framework density 25.082839
#
# number of rings (size 3 to 8) (size 9 to 14) (size 15 to 20)
#    0.000    2.500    1.250    1.125    1.750    3.500 
#    0.000    3.750    0.000    0.000    0.000    0.000 
#    0.000    1.000    0.000    0.000    0.000    0.000 
#
# Total GULP energy -178601.962124 kJ/mol
# GULP energy per Si atom -5581.311316 kJ/mol
# Density = 2.502575 g / cm^3
# Si number density = 25.082839 Si / 1000 Ang^3
#
#
#
# Elastic Constant Matrix: (Units=GPa)
#
#
# Indices 1 2 3 4 5 6 
#
# 1 73.1494 2.1416 3.3504 0.0000 0.0000 0.0000
# 2 2.1416 17.8646 -6.8304 0.0000 0.0000 0.0000
# 3 3.3504 -6.8304 54.4441 0.0000 0.0000 0.0000
# 4 0.0000 0.0000 0.0000 9.2600 0.0000 0.0000
# 5 0.0000 0.0000 0.0000 0.0000 40.8362 0.0000
# 6 0.0000 0.0000 0.0000 0.0000 0.0000 -72.3307
#
#
#
# Elastic Compliance Matrix: (Units=1/GPa)
#
#
# Indices 1 2 3 4 5 6 
#
# 1 0.013782 -0.002076 -0.001109 0.000000 0.000000 0.000000
# 2 -0.002076 0.059110 0.007543 0.000000 0.000000 0.000000
# 3 -0.001109 0.007543 0.019382 0.000000 0.000000 0.000000
# 4 0.000000 0.000000 0.000000 0.107991 0.000000 0.000000
# 5 0.000000 0.000000 0.000000 0.000000 0.024488 0.000000
# 6 0.000000 0.000000 0.000000 0.000000 0.000000 -0.013825
#
#
# Mechanical properties :
#
#
# Convention : Reuss Voigt Hill
#
# Bulk Modulus (GPa) = 9.90181 15.86459 12.88320
# Shear Modulus (GPa) = 21.19776 5.33953 13.26864
#
# Velocity S-wave (km/s) = 2.91023 1.46061 2.30248
# Velocity P-wave (km/s) = 3.90497 3.03037 3.49513
#
# Compressibility (1/GPa) = 0.10099167
#
# Stress axis : x y z
#
# Youngs Moduli (GPa) = 72.55727 16.91768 51.59412
#
# Poissons Ratio (x) = 0.03512 0.05720
# Poissons Ratio (y) = 0.15063 -0.38920
# Poissons Ratio (z) = 0.08044 -0.12762
#
# Static dielectric constant tensor:
#      x y z
#    x 1.936730 0.000000 0.000000 
#    y 0.000000 2.054040 0.000000 
#    z 0.000000 0.000000 1.983660 
# 
# From -- ./inp_files/1623.got.cif
#   From: 2010.05.17/outbox.cif.g08.bks.cpg/sg26_1_cif.got.tgz:1623.got - 2010.06.04 01:07:29.
