data_PCOD9338562
_publ_section_title
;
Structure prediction by ZEFSAII (Michael W. Deem and Ramdas Pophale) SiO2 
 PCOD9338562
Probable space group: P M C 21
;
_chemical_formula_sum "Si O2"
_cell_formula_units_Z 32
_cell_length_a 7.615843
_cell_length_b 12.883481
_cell_length_c 15.002880
_cell_angle_alpha 90.000000
_cell_angle_beta 90.000000
_cell_angle_gamma 90.000000
_cell_volume 1472.061110
_symmetry_space_group_name_H-M "P M C 21"
_symmetry_group_IT_number 26
_symmetry_cell_setting 'orthorhombic'
loop_
_space_group_symop_operation_xyz
x,y,z
-x,-y,1/2+z
-x,y,z
x,-y,1/2+z
loop_
_atom_site_type_symbol
_atom_site_label
_atom_site_fract_x
_atom_site_fract_y
_atom_site_fract_z
Si Si1 0.294688 0.387455 0.235900
Si Si2 0.793136 0.373921 0.727454
Si Si3 0.289275 0.005349 0.893262
Si Si4 0.786316 0.226087 0.086173
Si Si5 0.799480 0.003037 0.100189
Si Si6 0.707026 0.781949 0.869175
Si Si7 0.210008 0.769032 0.382646
Si Si8 0.786163 0.777972 0.077213
O O1 0.500000 0.401665 0.253844
O O2 0.223180 0.503063 0.228998
O O3 0.269679 0.321803 0.146093
O O4 0.216336 0.312798 0.312729
O O5 0.719867 0.317227 0.815293
O O6 0.725207 0.316270 0.639131
O O7 0.000000 0.350199 0.727581
O O8 0.500000 0.999121 0.905225
O O9 0.226260 0.898470 0.848730
O O10 0.246483 0.114434 0.848125
O O11 0.203761 0.008898 0.991602
O O12 0.000000 0.221204 0.085751
O O13 0.721064 0.114971 0.125156
O O14 0.723431 0.237890 0.984213
O O15 0.722087 0.889052 0.116572
O O16 0.000000 0.001017 0.132537
O O17 0.500000 0.783893 0.848571
O O18 0.728594 0.767135 0.974990
O O19 0.000000 0.757664 0.389245
O O20 0.000000 0.782716 0.074920
#
# Coordination Sequence:
#
# PCOD9338562 Si02
#       8
#     4   4   4   4   4   4   4   4
#     4  11  24  39  53  73 104 142 184 223 258 304
#     4  10  22  39  56  77 105 137 178 223 264 309
#     4   9  16  29  52  80 108 136 169 210 257 312
#     4   9  18  34  56  81 108 137 170 211 259 310
#     4   8  15  30  52  80 110 135 165 207 259 318
#     4   9  20  37  54  77 110 142 172 212 262 312
#     4   9  19  36  57  80 108 139 170 212 264 315
#     4   9  18  34  58  84 107 134 170 214 263 314
#
# _framework density 21.738226999999998
#
# number of rings (size 3 to 8) (size 9 to 14) (size 15 to 20)
#    0.000    2.750    0.000    1.500    0.000    6.500 
#    0.000    5.000    0.000    0.000    0.000    0.000 
#    0.000    0.000    0.000    0.000    0.000    0.000 
#
# Total GULP energy -178497.108229 kJ/mol
# GULP energy per Si atom -5578.034632 kJ/mol
# Density = 2.168875 g / cm^3
# Si number density = 21.738227 Si / 1000 Ang^3
#
#
#
# Elastic Constant Matrix: (Units=GPa)
#
#
# Indices 1 2 3 4 5 6 
#
# 1 40.7336 -23.3937 -14.9645 0.0000 0.0000 0.0000
# 2 -23.3937 188.0623 70.8987 0.0000 0.0000 0.0000
# 3 -14.9645 70.8987 87.6164 0.0000 0.0000 0.0000
# 4 0.0000 0.0000 0.0000 37.3705 0.0000 0.0000
# 5 0.0000 0.0000 0.0000 0.0000 14.9071 0.0000
# 6 0.0000 0.0000 0.0000 0.0000 0.0000 4.5553
#
#
#
# Elastic Compliance Matrix: (Units=1/GPa)
#
#
# Indices 1 2 3 4 5 6 
#
# 1 0.026879 0.002321 0.002713 0.000000 0.000000 0.000000
# 2 0.002321 0.007852 -0.005957 0.000000 0.000000 0.000000
# 3 0.002713 -0.005957 0.016697 0.000000 0.000000 0.000000
# 4 0.000000 0.000000 0.000000 0.026759 0.000000 0.000000
# 5 0.000000 0.000000 0.000000 0.000000 0.067082 0.000000
# 6 0.000000 0.000000 0.000000 0.000000 0.000000 0.219523
#
#
# Mechanical properties :
#
#
# Convention : Reuss Voigt Hill
#
# Bulk Modulus (GPa) = 20.16891 42.38814 31.27853
# Shear Modulus (GPa) = 13.04911 30.29136 21.67024
#
# Velocity S-wave (km/s) = 2.45273 3.73696 3.16075
# Velocity P-wave (km/s) = 4.16166 6.17750 5.26692
#
# Compressibility (1/GPa) = 0.04958126
#
# Stress axis : x y z
#
# Youngs Moduli (GPa) = 37.20341 127.35607 59.88955
#
# Poissons Ratio (x) = -0.29558 -0.16247
# Poissons Ratio (y) = -0.08634 0.35679
# Poissons Ratio (z) = -0.10093 0.75871
#
# Static dielectric constant tensor:
#      x y z
#    x 1.811760 0.000000 0.000000 
#    y 0.000000 1.809170 0.000000 
#    z 0.000000 0.000000 1.794170 
# 
# From -- ./inp_files/4267.got.cif
#   From: 2010.05.17/outbox.cif.g08.bks.cpg/sg26_3_cif.got.tgz:4267.got - 2010.06.04 01:07:29.
