data_PCOD9338950
_publ_section_title
;
Structure prediction by ZEFSAII (Michael W. Deem and Ramdas Pophale) SiO2 
 PCOD9338950
Probable space group: P C C 2
;
_chemical_formula_sum "Si O2"
_cell_formula_units_Z 20
_cell_length_a 5.708447
_cell_length_b 11.790066
_cell_length_c 13.429997
_cell_angle_alpha 90.000000
_cell_angle_beta 90.000000
_cell_angle_gamma 90.000000
_cell_volume 903.878643
_symmetry_space_group_name_H-M "P C C 2"
_symmetry_group_IT_number 27
_symmetry_cell_setting 'orthorhombic'
loop_
_space_group_symop_operation_xyz
x,y,z
-x,-y,z
-x,y,1/2+z
x,-y,1/2+z
loop_
_atom_site_type_symbol
_atom_site_label
_atom_site_fract_x
_atom_site_fract_y
_atom_site_fract_z
Si Si1 0.231963 0.711771 0.973320
Si Si2 0.618315 0.883281 0.918602
Si Si3 0.955032 0.252146 0.290482
Si Si4 0.743016 0.562580 0.659062
Si Si5 0.087474 0.124344 0.109738
O O1 0.447435 0.776256 0.923449
O O2 0.069993 0.678978 0.880535
O O3 0.287095 0.609756 0.046861
O O4 0.100369 0.805559 0.042699
O O5 0.827826 0.852383 0.844720
O O6 0.500000 0.000000 0.887629
O O7 0.704029 0.894193 0.032485
O O8 0.775064 0.330917 0.232061
O O9 0.128655 0.200963 0.206910
O O10 0.500000 0.500000 0.684677
O O11 0.000000 0.500000 0.663731
O O12 0.000000 0.000000 0.138586
#
# Coordination Sequence:
#
# PCOD9338950 Si02
#       5
#     4   4   4   4   4
#     4  10  24  45  69 101 141 181 238 295 352 435
#     4  11  23  42  70 103 145 189 228 286 366 435
#     4  10  26  43  70 106 139 181 247 297 347 444
#     4  11  28  52  76 104 143 192 245 311 372 416
#     4  10  21  40  63  98 146 186 225 282 353 425
#
# _framework density 22.126863
#
# number of rings (size 3 to 8) (size 9 to 14) (size 15 to 20)
#    0.000    1.600    2.000    0.000   14.000    2.400 
#    0.000    0.000    0.000    0.000    0.000    0.000 
#    0.000    0.000    0.000    0.000    0.000    0.000 
#
# Total GULP energy -111673.725854 kJ/mol
# GULP energy per Si atom -5583.686293 kJ/mol
# Density = 2.207650 g / cm^3
# Si number density = 22.126863 Si / 1000 Ang^3
#
#
#
# Elastic Constant Matrix: (Units=GPa)
#
#
# Indices 1 2 3 4 5 6 
#
# 1 50.6821 18.5315 10.6259 0.0000 0.0000 0.0000
# 2 18.5315 57.9904 31.9383 0.0000 0.0000 0.0000
# 3 10.6259 31.9383 123.9377 0.0000 0.0000 0.0000
# 4 0.0000 0.0000 0.0000 30.9096 0.0000 0.0000
# 5 0.0000 0.0000 0.0000 0.0000 231.8731 0.0000
# 6 0.0000 0.0000 0.0000 0.0000 0.0000 29.5994
#
#
#
# Elastic Compliance Matrix: (Units=1/GPa)
#
#
# Indices 1 2 3 4 5 6 
#
# 1 0.022342 -0.007091 -0.000088 0.000000 0.000000 0.000000
# 2 -0.007091 0.022347 -0.005151 0.000000 0.000000 0.000000
# 3 -0.000088 -0.005151 0.009403 0.000000 0.000000 0.000000
# 4 0.000000 0.000000 0.000000 0.032352 0.000000 0.000000
# 5 0.000000 0.000000 0.000000 0.000000 0.004313 0.000000
# 6 0.000000 0.000000 0.000000 0.000000 0.000000 0.033785
#
#
# Mechanical properties :
#
#
# Convention : Reuss Voigt Hill
#
# Bulk Modulus (GPa) = 33.97607 39.42243 36.69925
# Shear Modulus (GPa) = 31.44389 69.91070 50.67730
#
# Velocity S-wave (km/s) = 3.77380 5.62708 4.79091
# Velocity P-wave (km/s) = 5.86321 7.75073 6.87209
#
# Compressibility (1/GPa) = 0.02943248
#
# Stress axis : x y z
#
# Youngs Moduli (GPa) = 44.75849 44.74851 106.34370
#
# Poissons Ratio (x) = 0.31732 0.00938
# Poissons Ratio (y) = 0.31739 0.54776
# Poissons Ratio (z) = 0.00395 0.23049
#
# Static dielectric constant tensor:
#      x y z
#    x -0.883990 0.000000 0.000000 
#    y 0.000000 1.757200 0.000000 
#    z 0.000000 0.000000 1.787950 
# 
# From -- ./inp_files/2946.got.cif
#   From: 2010.05.17/outbox.cif.g08.bks.cpg/sg27_2_cif.got.tgz:2946.got - 2010.06.04 01:11:05.
