data_PCOD9338831
_publ_section_title
;
Structure prediction by ZEFSAII (Michael W. Deem and Ramdas Pophale) SiO2 
 PCOD9338831
Probable space group: P C C 2
;
_chemical_formula_sum "Si O2"
_cell_formula_units_Z 32
_cell_length_a 11.226537
_cell_length_b 8.993753
_cell_length_c 15.055206
_cell_angle_alpha 90.000000
_cell_angle_beta 90.000000
_cell_angle_gamma 90.000000
_cell_volume 1520.104590
_symmetry_space_group_name_H-M "P C C 2"
_symmetry_group_IT_number 27
_symmetry_cell_setting 'orthorhombic'
loop_
_space_group_symop_operation_xyz
x,y,z
-x,-y,z
-x,y,1/2+z
x,-y,1/2+z
loop_
_atom_site_type_symbol
_atom_site_label
_atom_site_fract_x
_atom_site_fract_y
_atom_site_fract_z
Si Si1 0.327866 0.812138 0.949310
Si Si2 0.445194 0.345114 0.873365
Si Si3 0.034152 0.799076 0.578543
Si Si4 0.104281 0.619410 0.730198
Si Si5 0.715166 0.917594 0.813667
Si Si6 0.777385 0.482785 0.888068
Si Si7 0.950609 0.253707 0.378277
Si Si8 0.200619 0.922145 0.119351
O O1 0.455720 0.733798 0.933819
O O2 0.236984 0.675398 0.933412
O O3 0.316086 0.942817 0.876107
O O4 0.295737 0.878981 0.044701
O O5 0.500000 0.500000 0.832735
O O6 0.385593 0.212045 0.816839
O O7 0.330218 0.414861 0.921128
O O8 0.112754 0.676963 0.630442
O O9 0.006338 0.793001 0.474830
O O10 0.905295 0.799379 0.627638
O O11 0.118214 0.941551 0.589746
O O12 0.218793 0.553739 0.781460
O O13 0.000000 0.500000 0.726873
O O14 0.049601 0.739979 0.800825
O O15 0.839935 0.847978 0.848306
O O16 0.738143 0.958471 0.712006
O O17 0.893142 0.583740 0.896993
#
# Coordination Sequence:
#
# PCOD9338831 Si02
#       8
#     4   4   4   4   4   4   4   4
#     4  11  21  41  66  94 122 175 217 279 331 389
#     4   9  21  42  68  89 122 170 221 278 337 381
#     4  11  22  38  58  99 135 176 212 265 323 414
#     4  10  20  35  59  92 129 176 216 260 320 406
#     4  11  21  42  67  92 130 173 215 282 329 398
#     4   9  20  38  62  91 128 167 215 270 331 384
#     4  10  20  39  60  89 132 176 212 262 330 393
#     4  11  24  37  62  99 135 167 223 264 330 401
#
# _framework density 21.051182000000001
#
# number of rings (size 3 to 8) (size 9 to 14) (size 15 to 20)
#    0.000    1.750    2.500    1.875    0.000    2.500 
#    0.000    4.375    5.500    0.000    0.000    0.000 
#    0.000    0.000    0.000    0.000    0.000    0.000 
#
# Total GULP energy -178227.520424 kJ/mol
# GULP energy per Si atom -5569.610013 kJ/mol
# Density = 2.100327 g / cm^3
# Si number density = 21.051182 Si / 1000 Ang^3
#
#
#
# Elastic Constant Matrix: (Units=GPa)
#
#
# Indices 1 2 3 4 5 6 
#
# 1 96.6611 29.5795 25.6747 0.0000 0.0000 0.0000
# 2 29.5795 91.2638 30.1414 0.0000 0.0000 0.0000
# 3 25.6747 30.1414 118.3889 0.0000 0.0000 0.0000
# 4 0.0000 0.0000 0.0000 20.3772 0.0000 0.0000
# 5 0.0000 0.0000 0.0000 0.0000 11.5893 0.0000
# 6 0.0000 0.0000 0.0000 0.0000 0.0000 22.6736
#
#
#
# Elastic Compliance Matrix: (Units=1/GPa)
#
#
# Indices 1 2 3 4 5 6 
#
# 1 0.011801 -0.003253 -0.001731 0.000000 0.000000 0.000000
# 2 -0.003253 0.012860 -0.002569 0.000000 0.000000 0.000000
# 3 -0.001731 -0.002569 0.009476 0.000000 0.000000 0.000000
# 4 0.000000 0.000000 0.000000 0.049075 0.000000 0.000000
# 5 0.000000 0.000000 0.000000 0.000000 0.086287 0.000000
# 6 0.000000 0.000000 0.000000 0.000000 0.000000 0.044104
#
#
# Mechanical properties :
#
#
# Convention : Reuss Voigt Hill
#
# Bulk Modulus (GPa) = 52.54461 53.01165 52.77813
# Shear Modulus (GPa) = 21.27197 25.65589 23.46393
#
# Velocity S-wave (km/s) = 3.18227 3.49483 3.34220
# Velocity P-wave (km/s) = 6.20621 6.44376 6.32610
#
# Compressibility (1/GPa) = 0.01903145
#
# Stress axis : x y z
#
# Youngs Moduli (GPa) = 84.74098 77.76103 105.52871
#
# Poissons Ratio (x) = 0.25296 0.18267
# Poissons Ratio (y) = 0.27566 0.27106
# Poissons Ratio (z) = 0.14668 0.19974
#
# Static dielectric constant tensor:
#      x y z
#    x 1.820810 0.000000 0.000000 
#    y 0.000000 1.894650 0.000000 
#    z 0.000000 0.000000 1.752590 
# 
# From -- ./inp_files/3466.got.cif
#   From: 2010.05.17/outbox.cif.g08.bks.cpg/sg27_2_cif.got.tgz:3466.got - 2010.06.04 01:11:05.
