data_PCOD9338141
_publ_section_title
;
Structure prediction by ZEFSAII (Michael W. Deem and Ramdas Pophale) SiO2 
 PCOD9338141
Probable space group: P M C 21
;
_chemical_formula_sum "Si O2"
_cell_formula_units_Z 32
_cell_length_a 7.393796
_cell_length_b 15.699574
_cell_length_c 11.622747
_cell_angle_alpha 90.000000
_cell_angle_beta 90.000000
_cell_angle_gamma 90.000000
_cell_volume 1349.162050
_symmetry_space_group_name_H-M "P M C 21"
_symmetry_group_IT_number 26
_symmetry_cell_setting 'orthorhombic'
loop_
_space_group_symop_operation_xyz
x,y,z
-x,-y,1/2+z
-x,y,z
x,-y,1/2+z
loop_
_atom_site_type_symbol
_atom_site_label
_atom_site_fract_x
_atom_site_fract_y
_atom_site_fract_z
Si Si1 0.786181 0.260498 0.396130
Si Si2 0.281841 0.710586 0.236354
Si Si3 0.777814 0.550255 0.940467
Si Si4 0.717482 0.163295 0.187147
Si Si5 0.720731 0.834776 0.427464
Si Si6 0.794423 0.516929 0.191671
Si Si7 0.794417 0.133544 0.569818
Si Si8 0.706074 0.013429 0.767612
O O1 0.718893 0.350632 0.441568
O O2 0.760125 0.246370 0.261303
O O3 0.708962 0.175756 0.457022
O O4 0.000000 0.259210 0.420255
O O5 0.500000 0.707410 0.226527
O O6 0.232319 0.748151 0.360896
O O7 0.205960 0.618889 0.208038
O O8 0.210715 0.783417 0.151665
O O9 0.717873 0.516059 0.814530
O O10 0.000000 0.547350 0.942033
O O11 0.718723 0.505612 0.060859
O O12 0.500000 0.155381 0.181755
O O13 0.791246 0.078373 0.248929
O O14 0.783336 0.165707 0.057296
O O15 0.500000 0.838449 0.424773
O O16 0.785775 0.917337 0.355521
O O17 0.000000 0.483714 0.187930
O O18 0.703321 0.059285 0.642515
O O19 0.000000 0.105481 0.548804
O O20 0.500000 0.000522 0.806038
#
# Coordination Sequence:
#
# PCOD9338141 Si02
#       8
#     4   4   4   4   4   4   4   4
#     4  10  21  37  54  79 114 146 182 234 281 326
#     4  10  19  34  57  81 109 143 181 228 277 329
#     4   9  19  36  58  82 112 146 186 234 285 340
#     4  10  21  35  55  79 108 148 186 227 281 340
#     4   8  17  34  50  74 109 139 175 225 275 326
#     4  10  19  36  60  85 111 147 191 234 283 343
#     4  10  19  34  57  80 108 142 181 228 273 323
#     4   9  19  34  55  80 107 141 184 230 275 331
#
# _framework density 23.718425
#
# number of rings (size 3 to 8) (size 9 to 14) (size 15 to 20)
#    0.000    2.500    1.250    1.500    1.750    2.500 
#    0.000    5.625    0.000    0.000    0.000    0.000 
#    0.000    0.000    0.000    0.000    0.000    0.000 
#
# Total GULP energy -178554.316887 kJ/mol
# GULP energy per Si atom -5579.822403 kJ/mol
# Density = 2.366444 g / cm^3
# Si number density = 23.718425 Si / 1000 Ang^3
#
#
#
# Elastic Constant Matrix: (Units=GPa)
#
#
# Indices 1 2 3 4 5 6 
#
# 1 89.8268 -8.0370 -0.2260 0.0000 0.0000 0.0000
# 2 -8.0370 42.3157 36.3114 0.0000 0.0000 0.0000
# 3 -0.2260 36.3114 184.8215 0.0000 0.0000 0.0000
# 4 0.0000 0.0000 0.0000 29.2248 0.0000 0.0000
# 5 0.0000 0.0000 0.0000 0.0000 11.4076 0.0000
# 6 0.0000 0.0000 0.0000 0.0000 0.0000 -13.2317
#
#
#
# Elastic Compliance Matrix: (Units=1/GPa)
#
#
# Indices 1 2 3 4 5 6 
#
# 1 0.011362 0.002581 -0.000493 0.000000 0.000000 0.000000
# 2 0.002581 0.029010 -0.005696 0.000000 0.000000 0.000000
# 3 -0.000493 -0.005696 0.006529 0.000000 0.000000 0.000000
# 4 0.000000 0.000000 0.000000 0.034218 0.000000 0.000000
# 5 0.000000 0.000000 0.000000 0.000000 0.087661 0.000000
# 6 0.000000 0.000000 0.000000 0.000000 0.000000 -0.075576
#
#
# Mechanical properties :
#
#
# Convention : Reuss Voigt Hill
#
# Bulk Modulus (GPa) = 25.19846 41.45119 33.32483
# Shear Modulus (GPa) = 43.99489 24.74117 34.36803
#
# Velocity S-wave (km/s) = 4.31151 3.23324 3.81070
# Velocity P-wave (km/s) = 5.95252 5.60828 5.78296
#
# Compressibility (1/GPa) = 0.03968496
#
# Stress axis : x y z
#
# Youngs Moduli (GPa) = 88.01078 34.47053 153.15856
#
# Poissons Ratio (x) = -0.08898 0.07554
# Poissons Ratio (y) = -0.22718 0.87245
# Poissons Ratio (z) = 0.04341 0.19636
#
# Static dielectric constant tensor:
#      x y z
#    x 1.907090 0.000000 0.000000 
#    y 0.000000 1.849150 0.000000 
#    z 0.000000 0.000000 1.971520 
# 
# From -- ./inp_files/3119.got.cif
#   From: 2010.05.17/outbox.cif.g08.bks.cpg/sg26_2_cif.got.tgz:3119.got - 2010.06.04 01:07:29.
