data_PCOD9338044
_publ_section_title
;
Structure prediction by ZEFSAII (Michael W. Deem and Ramdas Pophale) SiO2 
 PCOD9338044
Probable space group: P M C 21
;
_chemical_formula_sum "Si O2"
_cell_formula_units_Z 18
_cell_length_a 8.351663
_cell_length_b 7.147223
_cell_length_c 12.889904
_cell_angle_alpha 90.000000
_cell_angle_beta 90.000000
_cell_angle_gamma 90.000000
_cell_volume 769.413810
_symmetry_space_group_name_H-M "P M C 21"
_symmetry_group_IT_number 26
_symmetry_cell_setting 'orthorhombic'
loop_
_space_group_symop_operation_xyz
x,y,z
-x,-y,1/2+z
-x,y,z
x,-y,1/2+z
loop_
_atom_site_type_symbol
_atom_site_label
_atom_site_fract_x
_atom_site_fract_y
_atom_site_fract_z
Si Si1 0.500000 0.334857 0.129200
Si Si2 0.830016 0.280910 0.112781
Si Si3 0.823780 0.848163 0.063559
Si Si4 0.500000 0.405884 0.828098
Si Si5 0.179404 0.382149 0.354877
Si Si6 0.500000 0.110525 0.681974
O O1 0.666388 0.366674 0.072409
O O2 0.500000 0.479827 0.220671
O O3 0.500000 0.115372 0.166466
O O4 0.814439 0.288372 0.239161
O O5 0.000000 0.370689 0.086682
O O6 0.832251 0.072380 0.069176
O O7 0.662893 0.810952 0.129207
O O8 0.000000 0.785301 0.105213
O O9 0.808079 0.768810 0.947484
O O10 0.672250 0.477414 0.867294
O O11 0.500000 0.186440 0.799729
O O12 0.000000 0.467050 0.360441
#
# Coordination Sequence:
#
# PCOD9338044 Si02
#       6
#     2   4   4   2   4   2
#     4   8  16  30  46  70  98 124 160 202 248 298
#     4   8  14  26  46  72 100 132 170 208 250 306
#     4   9  17  30  50  75 104 140 177 216 266 316
#     4  10  19  31  51  74  98 134 173 212 260 308
#     4   9  17  30  50  75 104 140 177 216 266 316
#     4  10  19  31  51  74  98 134 173 212 260 308
#
# _framework density 23.394431000000001
#
# number of rings (size 3 to 8) (size 9 to 14) (size 15 to 20)
#    0.000    3.111    0.000    0.667    0.000    0.889 
#    0.000    0.000    0.000   48.000    0.000   56.000 
#    0.000    0.000    0.000    0.000    0.000    0.000 
#
# Total GULP energy -100244.583098 kJ/mol
# GULP energy per Si atom -5569.143505 kJ/mol
# Density = 2.334118 g / cm^3
# Si number density = 23.394431 Si / 1000 Ang^3
#
#
#
# Elastic Constant Matrix: (Units=GPa)
#
#
# Indices 1 2 3 4 5 6 
#
# 1 232.1885 -5.3830 22.4415 0.0000 0.0000 0.0000
# 2 -5.3830 64.0693 33.2205 0.0000 0.0000 0.0000
# 3 22.4415 33.2205 93.4213 0.0000 0.0000 0.0000
# 4 0.0000 0.0000 0.0000 36.1156 0.0000 0.0000
# 5 0.0000 0.0000 0.0000 0.0000 2.4123 0.0000
# 6 0.0000 0.0000 0.0000 0.0000 0.0000 129.7005
#
#
#
# Elastic Compliance Matrix: (Units=1/GPa)
#
#
# Indices 1 2 3 4 5 6 
#
# 1 0.004477 0.001145 -0.001482 0.000000 0.000000 0.000000
# 2 0.001145 0.019429 -0.007184 0.000000 0.000000 0.000000
# 3 -0.001482 -0.007184 0.013615 0.000000 0.000000 0.000000
# 4 0.000000 0.000000 0.000000 0.027689 0.000000 0.000000
# 5 0.000000 0.000000 0.000000 0.000000 0.414544 0.000000
# 6 0.000000 0.000000 0.000000 0.000000 0.000000 0.007710
#
#
# Mechanical properties :
#
#
# Convention : Reuss Voigt Hill
#
# Bulk Modulus (GPa) = 44.48894 54.47078 49.47986
# Shear Modulus (GPa) = 9.80394 56.27235 33.03814
#
# Velocity S-wave (km/s) = 2.04934 4.90978 3.76203
# Velocity P-wave (km/s) = 4.96567 7.44819 6.32983
#
# Compressibility (1/GPa) = 0.02247750
#
# Stress axis : x y z
#
# Youngs Moduli (GPa) = 223.38033 51.46876 73.44871
#
# Poissons Ratio (x) = -0.05892 0.10889
# Poissons Ratio (y) = -0.25573 0.52766
# Poissons Ratio (z) = 0.33115 0.36975
#
# Static dielectric constant tensor:
#      x y z
#    x 1.995320 0.000000 0.000000 
#    y 0.000000 1.859230 0.000000 
#    z 0.000000 0.000000 1.884600 
# 
# From -- ./inp_files/2689.got.cif
#   From: 2010.05.17/outbox.cif.g08.bks.cpg/sg26_2_cif.got.tgz:2689.got - 2010.06.04 01:07:29.
