data_PCOD9338775
_publ_section_title
;
Structure prediction by ZEFSAII (Michael W. Deem and Ramdas Pophale) SiO2 
 PCOD9338775
Probable space group: P C C 2
;
_chemical_formula_sum "Si O2"
_cell_formula_units_Z 18
_cell_length_a 5.886650
_cell_length_b 7.123681
_cell_length_c 17.425505
_cell_angle_alpha 90.000000
_cell_angle_beta 90.000000
_cell_angle_gamma 90.000000
_cell_volume 730.731874
_symmetry_space_group_name_H-M "P C C 2"
_symmetry_group_IT_number 27
_symmetry_cell_setting 'orthorhombic'
loop_
_space_group_symop_operation_xyz
x,y,z
-x,-y,z
-x,y,1/2+z
x,-y,1/2+z
loop_
_atom_site_type_symbol
_atom_site_label
_atom_site_fract_x
_atom_site_fract_y
_atom_site_fract_z
Si Si1 0.854151 0.793137 0.514150
Si Si2 0.632551 0.677001 0.724682
Si Si3 0.500000 0.500000 0.463097
Si Si4 0.000000 0.500000 0.614630
Si Si5 0.120835 0.700133 0.369045
Si Si6 0.500000 0.000000 0.113518
O O1 0.665158 0.631234 0.510109
O O2 0.044302 0.684140 0.563188
O O3 0.952226 0.807834 0.427663
O O4 0.720172 0.957998 0.558349
O O5 0.500000 0.500000 0.761730
O O6 0.785641 0.781263 0.789191
O O7 0.799461 0.567849 0.668290
O O8 0.492845 0.823069 0.672462
O O9 0.345931 0.643345 0.415245
O O10 0.000000 0.500000 0.351670
#
# Coordination Sequence:
#
# PCOD9338775 Si02
#       6
#     4   4   2   2   4   2
#     4  10  21  40  67 104 140 189 255 302 375 458
#     4  11  23  42  71 100 145 193 248 313 389 451
#     4  10  18  36  72  98 128 182 248 306 372 428
#     4  10  20  34  64 102 134 182 242 296 374 450
#     4  10  19  38  73 100 132 196 257 308 377 454
#     4  10  26  42  66 112 150 188 248 310 392 466
#
# _framework density 24.632838
#
# number of rings (size 3 to 8) (size 9 to 14) (size 15 to 20)
#    0.000    1.778    5.556    0.000    6.222    0.000 
#    0.000   11.111    9.778    0.000    0.000    0.000 
#    0.000    0.000    0.000    0.000    0.000    0.000 
#
# Total GULP energy -100427.585081 kJ/mol
# GULP energy per Si atom -5579.310282 kJ/mol
# Density = 2.457677 g / cm^3
# Si number density = 24.632838 Si / 1000 Ang^3
#
#
#
# Elastic Constant Matrix: (Units=GPa)
#
#
# Indices 1 2 3 4 5 6 
#
# 1 78.1894 56.8347 59.9225 0.0000 0.0000 0.0000
# 2 56.8347 138.9656 49.9261 0.0000 0.0000 0.0000
# 3 59.9225 49.9261 169.0364 0.0000 0.0000 0.0000
# 4 0.0000 0.0000 0.0000 13.0978 0.0000 0.0000
# 5 0.0000 0.0000 0.0000 0.0000 96.5185 0.0000
# 6 0.0000 0.0000 0.0000 0.0000 0.0000 43.4002
#
#
#
# Elastic Compliance Matrix: (Units=1/GPa)
#
#
# Indices 1 2 3 4 5 6 
#
# 1 0.022413 -0.007061 -0.005860 0.000000 0.000000 0.000000
# 2 -0.007061 0.010275 -0.000532 0.000000 0.000000 0.000000
# 3 -0.005860 -0.000532 0.008150 0.000000 0.000000 0.000000
# 4 0.000000 0.000000 0.000000 0.076349 0.000000 0.000000
# 5 0.000000 0.000000 0.000000 0.000000 0.010361 0.000000
# 6 0.000000 0.000000 0.000000 0.000000 0.000000 0.023041
#
#
# Mechanical properties :
#
#
# Convention : Reuss Voigt Hill
#
# Bulk Modulus (GPa) = 71.77263 79.95088 75.86175
# Shear Modulus (GPa) = 27.45167 45.23717 36.34442
#
# Velocity S-wave (km/s) = 3.34194 4.29004 3.84532
# Velocity P-wave (km/s) = 6.64015 7.55425 7.11190
#
# Compressibility (1/GPa) = 0.01393289
#
# Stress axis : x y z
#
# Youngs Moduli (GPa) = 44.61710 97.32377 122.69782
#
# Poissons Ratio (x) = 0.68724 0.71897
# Poissons Ratio (y) = 0.31506 0.06522
# Poissons Ratio (z) = 0.26144 0.05174
#
# Static dielectric constant tensor:
#      x y z
#    x 1.954210 0.000000 0.000000 
#    y 0.000000 2.031100 0.000000 
#    z 0.000000 0.000000 2.018610 
# 
# From -- ./inp_files/3907.got.cif
#   From: 2010.05.17/outbox.cif.g08.bks.cpg/sg27_2_cif.got.tgz:3907.got - 2010.06.04 01:11:05.
