data_PCOD9338074
_publ_section_title
;
Structure prediction by ZEFSAII (Michael W. Deem and Ramdas Pophale) SiO2 
 PCOD9338074
Probable space group: P M C 21
;
_chemical_formula_sum "Si O2"
_cell_formula_units_Z 32
_cell_length_a 7.735650
_cell_length_b 12.783511
_cell_length_c 14.158273
_cell_angle_alpha 90.000000
_cell_angle_beta 90.000000
_cell_angle_gamma 90.000000
_cell_volume 1400.094158
_symmetry_space_group_name_H-M "P M C 21"
_symmetry_group_IT_number 26
_symmetry_cell_setting 'orthorhombic'
loop_
_space_group_symop_operation_xyz
x,y,z
-x,-y,1/2+z
-x,y,z
x,-y,1/2+z
loop_
_atom_site_type_symbol
_atom_site_label
_atom_site_fract_x
_atom_site_fract_y
_atom_site_fract_z
Si Si1 0.798298 0.681008 0.628780
Si Si2 0.294700 0.381579 0.934494
Si Si3 0.293709 0.066507 0.384094
Si Si4 0.301611 0.421598 0.324924
Si Si5 0.209443 0.087610 0.162493
Si Si6 0.294994 0.160302 0.872079
Si Si7 0.196042 0.270725 0.486613
Si Si8 0.790167 0.143102 0.652980
O O1 0.725438 0.606285 0.546980
O O2 0.778746 0.634235 0.733873
O O3 0.724925 0.800355 0.624250
O O4 0.000000 0.689188 0.609525
O O5 0.500000 0.379723 0.915824
O O6 0.222827 0.470879 0.865626
O O7 0.220653 0.267050 0.912274
O O8 0.500000 0.074898 0.401851
O O9 0.263392 0.082878 0.272437
O O10 0.195578 0.157669 0.436847
O O11 0.226869 0.950544 0.408941
O O12 0.500000 0.439160 0.297854
O O13 0.294651 0.345795 0.415758
O O14 0.000000 0.089338 0.158239
O O15 0.267797 0.974392 0.122579
O O16 0.500000 0.158454 0.890980
O O17 0.267328 0.159061 0.759880
O O18 0.271420 0.238703 0.587883
O O19 0.000000 0.310865 0.496034
O O20 0.000000 0.144176 0.649216
#
# Coordination Sequence:
#
# PCOD9338074 Si02
#       8
#     4   4   4   4   4   4   4   4
#     4  11  23  39  64  93 120 155 199 251 301 356
#     4  10  24  44  64  88 120 161 204 249 301 357
#     4  10  19  32  55  86 117 154 194 240 296 353
#     4  11  24  43  65  87 119 163 208 252 300 355
#     4   9  18  35  56  83 119 157 196 241 295 354
#     4   9  20  39  59  85 120 155 198 248 298 352
#     4  11  22  36  57  87 122 159 199 248 300 357
#     4   9  20  36  56  85 123 164 200 241 301 362
#
# _framework density 22.855606000000002
#
# number of rings (size 3 to 8) (size 9 to 14) (size 15 to 20)
#    0.000    2.000    1.250    1.500    1.750    4.500 
#    0.000    3.750    0.000    0.000    0.000    0.000 
#    0.000    0.000    0.000    0.000    0.000    0.000 
#
# Total GULP energy -178678.678783 kJ/mol
# GULP energy per Si atom -5583.708712 kJ/mol
# Density = 2.280359 g / cm^3
# Si number density = 22.855606 Si / 1000 Ang^3
#
#
#
# Elastic Constant Matrix: (Units=GPa)
#
#
# Indices 1 2 3 4 5 6 
#
# 1 49.8407 2.1172 -16.0606 0.0000 0.0000 0.0000
# 2 2.1172 92.1310 19.8678 0.0000 0.0000 0.0000
# 3 -16.0606 19.8678 57.5568 0.0000 0.0000 0.0000
# 4 0.0000 0.0000 0.0000 24.5456 0.0000 0.0000
# 5 0.0000 0.0000 0.0000 0.0000 23.4142 0.0000
# 6 0.0000 0.0000 0.0000 0.0000 0.0000 -38.0552
#
#
#
# Elastic Compliance Matrix: (Units=1/GPa)
#
#
# Indices 1 2 3 4 5 6 
#
# 1 0.022386 -0.002011 0.006941 0.000000 0.000000 0.000000
# 2 -0.002011 0.011908 -0.004672 0.000000 0.000000 0.000000
# 3 0.006941 -0.004672 0.020923 0.000000 0.000000 0.000000
# 4 0.000000 0.000000 0.000000 0.040740 0.000000 0.000000
# 5 0.000000 0.000000 0.000000 0.000000 0.042709 0.000000
# 6 0.000000 0.000000 0.000000 0.000000 0.000000 -0.026278
#
#
# Mechanical properties :
#
#
# Convention : Reuss Voigt Hill
#
# Bulk Modulus (GPa) = 17.94264 23.48636 20.71450
# Shear Modulus (GPa) = 38.32862 14.88787 26.60824
#
# Velocity S-wave (km/s) = 4.09955 2.55500 3.41572
# Velocity P-wave (km/s) = 5.50235 4.35916 4.96378
#
# Compressibility (1/GPa) = 0.05573316
#
# Stress axis : x y z
#
# Youngs Moduli (GPa) = 44.67092 83.97904 47.79324
#
# Poissons Ratio (x) = 0.16890 -0.33172
# Poissons Ratio (y) = 0.08984 0.22327
# Poissons Ratio (z) = -0.31005 0.39231
#
# Static dielectric constant tensor:
#      x y z
#    x 1.824150 0.000000 0.000000 
#    y 0.000000 1.895760 0.000000 
#    z 0.000000 0.000000 1.868360 
# 
# From -- ./inp_files/4316.got.cif
#   From: 2010.05.17/outbox.cif.g08.bks.cpg/sg26_3_cif.got.tgz:4316.got - 2010.06.04 01:07:29.
