data_PCOD9338317
_publ_section_title
;
Structure prediction by ZEFSAII (Michael W. Deem and Ramdas Pophale) SiO2 
 PCOD9338317
Probable space group: P M C 21
;
_chemical_formula_sum "Si O2"
_cell_formula_units_Z 32
_cell_length_a 7.633364
_cell_length_b 11.552057
_cell_length_c 16.996534
_cell_angle_alpha 90.000000
_cell_angle_beta 90.000000
_cell_angle_gamma 90.000000
_cell_volume 1498.772317
_symmetry_space_group_name_H-M "P M C 21"
_symmetry_group_IT_number 26
_symmetry_cell_setting 'orthorhombic'
loop_
_space_group_symop_operation_xyz
x,y,z
-x,-y,1/2+z
-x,y,z
x,-y,1/2+z
loop_
_atom_site_type_symbol
_atom_site_label
_atom_site_fract_x
_atom_site_fract_y
_atom_site_fract_z
Si Si1 0.710221 0.069511 0.252300
Si Si2 0.703394 0.434507 0.763710
Si Si3 0.702208 0.559592 0.921168
Si Si4 0.799540 0.821441 0.917230
Si Si5 0.210829 0.940104 0.460647
Si Si6 0.791623 0.826519 0.298164
Si Si7 0.708495 0.218333 0.107449
Si Si8 0.284889 0.481439 0.093143
O O1 0.500000 0.079287 0.259739
O O2 0.793501 0.118695 0.331755
O O3 0.776458 0.149785 0.182509
O O4 0.754178 0.934447 0.240836
O O5 0.500000 0.472361 0.760454
O O6 0.779084 0.499811 0.841676
O O7 0.713292 0.297096 0.777362
O O8 0.774783 0.462004 0.676077
O O9 0.500000 0.519242 0.923312
O O10 0.707330 0.698313 0.913854
O O11 0.775737 0.529434 0.008032
O O12 0.000000 0.797572 0.940347
O O13 0.724250 0.927501 0.968946
O O14 0.275338 0.875859 0.381856
O O15 0.255919 0.859682 0.532533
O O16 0.000000 0.949219 0.453562
O O17 0.000000 0.810013 0.303315
O O18 0.500000 0.228395 0.117844
O O19 0.772378 0.348131 0.097382
O O20 0.500000 0.490239 0.092202
#
# Coordination Sequence:
#
# PCOD9338317 Si02
#       8
#     4   4   4   4   4   4   4   4
#     4  10  20  35  57  83 108 138 180 227 275 327
#     4  10  20  36  58  81 109 146 186 229 275 325
#     4  10  20  35  57  81 109 147 185 228 278 323
#     4  10  21  37  55  78 110 145 182 223 271 327
#     4   9  20  36  53  76 107 141 175 220 273 325
#     4  10  21  37  55  79 111 144 181 222 271 330
#     4  10  20  35  57  82 106 136 178 227 275 324
#     4   9  19  35  54  80 110 139 181 230 274 329
#
# _framework density 21.350809000000002
#
# number of rings (size 3 to 8) (size 9 to 14) (size 15 to 20)
#    0.000    2.250    0.000    3.375    0.000    8.500 
#    0.000    5.625    0.000    0.000    0.000    0.000 
#    0.000    0.000    0.000    0.000    0.000    0.000 
#
# Total GULP energy -178495.656984 kJ/mol
# GULP energy per Si atom -5577.989281 kJ/mol
# Density = 2.130221 g / cm^3
# Si number density = 21.350809 Si / 1000 Ang^3
#
#
#
# Elastic Constant Matrix: (Units=GPa)
#
#
# Indices 1 2 3 4 5 6 
#
# 1 41.8544 -15.1711 -2.5588 0.0000 0.0000 0.0000
# 2 -15.1711 156.2873 71.8234 0.0000 0.0000 0.0000
# 3 -2.5588 71.8234 120.2567 0.0000 0.0000 0.0000
# 4 0.0000 0.0000 0.0000 34.1911 0.0000 0.0000
# 5 0.0000 0.0000 0.0000 0.0000 11.4755 0.0000
# 6 0.0000 0.0000 0.0000 0.0000 0.0000 54.6369
#
#
#
# Elastic Compliance Matrix: (Units=1/GPa)
#
#
# Indices 1 2 3 4 5 6 
#
# 1 0.024901 0.002996 -0.001260 0.000000 0.000000 0.000000
# 2 0.002996 0.009180 -0.005419 0.000000 0.000000 0.000000
# 3 -0.001260 -0.005419 0.011525 0.000000 0.000000 0.000000
# 4 0.000000 0.000000 0.000000 0.029247 0.000000 0.000000
# 5 0.000000 0.000000 0.000000 0.000000 0.087142 0.000000
# 6 0.000000 0.000000 0.000000 0.000000 0.000000 0.018303
#
#
# Mechanical properties :
#
#
# Convention : Reuss Voigt Hill
#
# Bulk Modulus (GPa) = 26.14959 47.39838 36.77399
# Shear Modulus (GPa) = 24.94891 37.68103 31.31497
#
# Velocity S-wave (km/s) = 3.42208 4.20557 3.83389
# Velocity P-wave (km/s) = 5.28094 6.76982 6.07119
#
# Compressibility (1/GPa) = 0.03824152
#
# Stress axis : x y z
#
# Youngs Moduli (GPa) = 40.15847 108.93783 86.76716
#
# Poissons Ratio (x) = -0.32638 0.10929
# Poissons Ratio (y) = -0.12032 0.47017
# Poissons Ratio (z) = 0.05058 0.59031
#
# Static dielectric constant tensor:
#      x y z
#    x 1.806080 0.000000 0.000000 
#    y 0.000000 1.749360 0.000000 
#    z 0.000000 0.000000 1.787260 
# 
# From -- ./inp_files/4141.got.cif
#   From: 2010.05.17/outbox.cif.g08.bks.cpg/sg26_3_cif.got.tgz:4141.got - 2010.06.04 01:07:29.
