data_PCOD9338415
_publ_section_title
;
Structure prediction by ZEFSAII (Michael W. Deem and Ramdas Pophale) SiO2 
 PCOD9338415
Probable space group: P M C 21
;
_chemical_formula_sum "Si O2"
_cell_formula_units_Z 32
_cell_length_a 8.357943
_cell_length_b 15.645401
_cell_length_c 12.479558
_cell_angle_alpha 90.000000
_cell_angle_beta 90.000000
_cell_angle_gamma 90.000000
_cell_volume 1631.869057
_symmetry_space_group_name_H-M "P M C 21"
_symmetry_group_IT_number 26
_symmetry_cell_setting 'orthorhombic'
loop_
_space_group_symop_operation_xyz
x,y,z
-x,-y,1/2+z
-x,y,z
x,-y,1/2+z
loop_
_atom_site_type_symbol
_atom_site_label
_atom_site_fract_x
_atom_site_fract_y
_atom_site_fract_z
Si Si1 0.305870 0.910216 0.319680
Si Si2 0.693698 0.104941 0.277084
Si Si3 0.187996 0.417910 0.817234
Si Si4 0.193587 0.251316 0.681979
Si Si5 0.312278 0.355155 0.036753
Si Si6 0.688769 0.604921 0.775600
Si Si7 0.190526 0.748894 0.935383
Si Si8 0.687858 0.846268 0.543497
O O1 0.500000 0.906053 0.320657
O O2 0.248452 0.834912 0.241568
O O3 0.243717 0.893258 0.440159
O O4 0.259609 0.006126 0.288579
O O5 0.500000 0.109753 0.278486
O O6 0.750867 0.167925 0.370509
O O7 0.754780 0.136293 0.161145
O O8 0.245485 0.335903 0.748180
O O9 0.278338 0.505399 0.792650
O O10 0.000000 0.430057 0.795146
O O11 0.215335 0.398392 0.942105
O O12 0.250171 0.254013 0.558390
O O13 0.000000 0.251976 0.682688
O O14 0.500000 0.381451 0.029987
O O15 0.251437 0.372894 0.156286
O O16 0.305212 0.253865 0.020045
O O17 0.500000 0.623277 0.775835
O O18 0.762077 0.665441 0.866649
O O19 0.000000 0.752268 0.940451
O O20 0.500000 0.871019 0.549758
#
# Coordination Sequence:
#
# PCOD9338415 Si02
#       8
#     4   4   4   4   4   4   4   4
#     4  10  21  36  63  92 118 156 201 247 298 353
#     4  10  21  38  61  91 122 156 200 249 299 353
#     4  11  24  41  62  89 121 158 199 248 304 363
#     4  10  24  43  59  83 124 163 199 245 297 355
#     4  10  20  39  64  88 118 154 198 252 301 351
#     4  11  24  42  64  91 120 156 202 252 300 357
#     4  11  24  42  61  86 123 164 202 245 300 362
#     4   9  17  35  58  86 120 149 191 250 297 342
#
# _framework density 19.609416
#
# number of rings (size 3 to 8) (size 9 to 14) (size 15 to 20)
#    0.000    1.750    2.500    1.125    3.500    3.000 
#    0.000    0.625    0.000    0.000    0.000    0.000 
#    0.000    0.000    0.000    0.000    0.000    0.000 
#
# Total GULP energy -178660.362513 kJ/mol
# GULP energy per Si atom -5583.136329 kJ/mol
# Density = 1.956478 g / cm^3
# Si number density = 19.609416 Si / 1000 Ang^3
#
#
#
# Elastic Constant Matrix: (Units=GPa)
#
#
# Indices 1 2 3 4 5 6 
#
# 1 7.1951 6.9300 1.8836 0.0000 0.0000 0.0000
# 2 6.9300 99.8909 33.8172 0.0000 0.0000 0.0000
# 3 1.8836 33.8172 88.4658 0.0000 0.0000 0.0000
# 4 0.0000 0.0000 0.0000 29.8786 0.0000 0.0000
# 5 0.0000 0.0000 0.0000 0.0000 20.3590 0.0000
# 6 0.0000 0.0000 0.0000 0.0000 0.0000 78.0728
#
#
#
# Elastic Compliance Matrix: (Units=1/GPa)
#
#
# Indices 1 2 3 4 5 6 
#
# 1 0.148998 -0.010640 0.000895 0.000000 0.000000 0.000000
# 2 -0.010640 0.012259 -0.004460 0.000000 0.000000 0.000000
# 3 0.000895 -0.004460 0.012989 0.000000 0.000000 0.000000
# 4 0.000000 0.000000 0.000000 0.033469 0.000000 0.000000
# 5 0.000000 0.000000 0.000000 0.000000 0.049118 0.000000
# 6 0.000000 0.000000 0.000000 0.000000 0.000000 0.012809
#
#
# Mechanical properties :
#
#
# Convention : Reuss Voigt Hill
#
# Bulk Modulus (GPa) = 6.85698 31.20150 19.02924
# Shear Modulus (GPa) = 14.42324 35.85683 25.14004
#
# Velocity S-wave (km/s) = 2.71500 4.28080 3.58444
# Velocity P-wave (km/s) = 3.65139 6.35450 5.18229
#
# Compressibility (1/GPa) = 0.14583680
#
# Stress axis : x y z
#
# Youngs Moduli (GPa) = 6.71152 81.57407 76.98543
#
# Poissons Ratio (x) = 0.86792 -0.06888
# Poissons Ratio (y) = 0.07141 0.34332
# Poissons Ratio (z) = -0.00600 0.36378
#
# Static dielectric constant tensor:
#      x y z
#    x 1.695640 0.000000 0.000000 
#    y 0.000000 1.663760 0.000000 
#    z 0.000000 0.000000 1.707440 
# 
# From -- ./inp_files/2991.got.cif
#   From: 2010.05.17/outbox.cif.g08.bks.cpg/sg26_2_cif.got.tgz:2991.got - 2010.06.04 01:07:29.
