data_PCOD9338946
_publ_section_title
;
Structure prediction by ZEFSAII (Michael W. Deem and Ramdas Pophale) SiO2 
 PCOD9338946
Probable space group: P C C 2
;
_chemical_formula_sum "Si O2"
_cell_formula_units_Z 32
_cell_length_a 8.520730
_cell_length_b 12.772265
_cell_length_c 13.935374
_cell_angle_alpha 90.000000
_cell_angle_beta 90.000000
_cell_angle_gamma 90.000000
_cell_volume 1516.573117
_symmetry_space_group_name_H-M "P C C 2"
_symmetry_group_IT_number 27
_symmetry_cell_setting 'orthorhombic'
loop_
_space_group_symop_operation_xyz
x,y,z
-x,-y,z
-x,y,1/2+z
x,-y,1/2+z
loop_
_atom_site_type_symbol
_atom_site_label
_atom_site_fract_x
_atom_site_fract_y
_atom_site_fract_z
Si Si1 0.577482 0.362304 0.527050
Si Si2 0.735237 0.444524 0.932950
Si Si3 0.021074 0.270838 0.439754
Si Si4 0.408598 0.650600 0.750236
Si Si5 0.322192 0.247618 0.866308
Si Si6 0.054769 0.118282 0.613549
Si Si7 0.658572 0.943808 0.727667
Si Si8 0.187335 0.155902 0.278271
O O1 0.402391 0.384693 0.490735
O O2 0.703363 0.440053 0.474718
O O3 0.581126 0.381167 0.639789
O O4 0.618705 0.252316 0.476933
O O5 0.898988 0.385011 0.949721
O O6 0.688455 0.426443 0.820998
O O7 0.007867 0.207426 0.538231
O O8 0.142494 0.199289 0.381079
O O9 0.862287 0.269796 0.377318
O O10 0.574762 0.670461 0.803094
O O11 0.317339 0.761356 0.744089
O O12 0.359225 0.141057 0.811192
O O13 0.237297 0.107722 0.643260
O O14 0.962172 0.152126 0.709027
O O15 0.000000 0.000000 0.585120
O O16 0.500000 0.000000 0.693497
O O17 0.754004 0.038432 0.775297
#
# Coordination Sequence:
#
# PCOD9338946 Si02
#       8
#     4   4   4   4   4   4   4   4
#     4  10  22  42  66  96 128 169 226 277 342 419
#     4   9  23  41  64  96 125 171 218 276 347 418
#     4  11  23  40  64  94 132 175 227 282 345 424
#     4  10  21  42  66  92 130 174 216 286 345 415
#     4  11  23  39  66  95 132 177 228 288 349 411
#     4  10  23  38  61  95 131 182 228 276 349 413
#     4  11  22  41  62  94 133 179 224 286 339 411
#     4  10  21  40  59  86 133 170 221 269 342 407
#
# _framework density 21.100203
#
# number of rings (size 3 to 8) (size 9 to 14) (size 15 to 20)
#    0.000    1.750    2.500    0.750    3.500    4.500 
#    0.000    0.625    0.000    1.500    0.000    0.000 
#    0.000    0.000    0.000    0.000    0.000    0.000 
#
# Total GULP energy -178407.991717 kJ/mol
# GULP energy per Si atom -5575.249741 kJ/mol
# Density = 2.105218 g / cm^3
# Si number density = 21.100203 Si / 1000 Ang^3
#
#
#
# Elastic Constant Matrix: (Units=GPa)
#
#
# Indices 1 2 3 4 5 6 
#
# 1 93.8918 20.5921 16.7995 0.0000 0.0000 0.0000
# 2 20.5921 63.1439 30.3632 0.0000 0.0000 0.0000
# 3 16.7995 30.3632 114.2776 0.0000 0.0000 0.0000
# 4 0.0000 0.0000 0.0000 6.8113 0.0000 0.0000
# 5 0.0000 0.0000 0.0000 0.0000 16.4652 0.0000
# 6 0.0000 0.0000 0.0000 0.0000 0.0000 29.9569
#
#
#
# Elastic Compliance Matrix: (Units=1/GPa)
#
#
# Indices 1 2 3 4 5 6 
#
# 1 0.011534 -0.003378 -0.000798 0.000000 0.000000 0.000000
# 2 -0.003378 0.019146 -0.004590 0.000000 0.000000 0.000000
# 3 -0.000798 -0.004590 0.010088 0.000000 0.000000 0.000000
# 4 0.000000 0.000000 0.000000 0.146814 0.000000 0.000000
# 5 0.000000 0.000000 0.000000 0.000000 0.060734 0.000000
# 6 0.000000 0.000000 0.000000 0.000000 0.000000 0.033381
#
#
# Mechanical properties :
#
#
# Convention : Reuss Voigt Hill
#
# Bulk Modulus (GPa) = 43.03851 45.20254 44.12053
# Shear Modulus (GPa) = 16.28801 24.21727 20.25264
#
# Velocity S-wave (km/s) = 2.78139 3.39149 3.10148
# Velocity P-wave (km/s) = 5.54584 6.06676 5.81214
#
# Compressibility (1/GPa) = 0.02323500
#
# Stress axis : x y z
#
# Youngs Moduli (GPa) = 86.69916 52.23112 99.13149
#
# Poissons Ratio (x) = 0.17642 0.07912
# Poissons Ratio (y) = 0.29284 0.45505
# Poissons Ratio (z) = 0.06920 0.23976
#
# Static dielectric constant tensor:
#      x y z
#    x 1.822250 0.000000 0.000000 
#    y 0.000000 1.843400 0.000000 
#    z 0.000000 0.000000 1.743290 
# 
# From -- ./inp_files/2431.got.cif
#   From: 2010.05.17/outbox.cif.g08.bks.cpg/sg27_2_cif.got.tgz:2431.got - 2010.06.04 01:11:05.
