data_PCOD9338660
_publ_section_title
;
Structure prediction by ZEFSAII (Michael W. Deem and Ramdas Pophale) SiO2 
 PCOD9338660
Probable space group: P M C 21
;
_chemical_formula_sum "Si O2"
_cell_formula_units_Z 16
_cell_length_a 13.382638
_cell_length_b 5.160787
_cell_length_c 10.221905
_cell_angle_alpha 90.000000
_cell_angle_beta 90.000000
_cell_angle_gamma 90.000000
_cell_volume 705.975299
_symmetry_space_group_name_H-M "P M C 21"
_symmetry_group_IT_number 26
_symmetry_cell_setting 'orthorhombic'
loop_
_space_group_symop_operation_xyz
x,y,z
-x,-y,1/2+z
-x,y,z
x,-y,1/2+z
loop_
_atom_site_type_symbol
_atom_site_label
_atom_site_fract_x
_atom_site_fract_y
_atom_site_fract_z
Si Si1 0.115651 0.501615 0.688000
Si Si2 0.615268 0.296392 0.755424
Si Si3 0.208020 0.003895 0.316976
Si Si4 0.285977 0.608469 0.996053
O O1 0.367727 0.406862 0.610537
O O2 0.187130 0.512029 0.561625
O O3 0.000000 0.483901 0.653722
O O4 0.148250 0.254554 0.776581
O O5 0.500000 0.254164 0.784649
O O6 0.667783 0.470954 0.868204
O O7 0.683638 0.039648 0.750620
O O8 0.141418 0.239705 0.266731
O O9 0.246016 0.896812 0.958419
#
# Coordination Sequence:
#
# PCOD9338660 Si02
#       4
#     4   4   4   4
#     4  11  26  47  75 106 147 198 243 303 373 433
#     4  11  26  46  78 110 150 200 244 305 378 437
#     4  11  24  48  71 106 152 185 245 305 354 448
#     4  11  24  49  74 110 153 189 250 309 361 452
#
# _framework density 22.663682000000001
#
# number of rings (size 3 to 8) (size 9 to 14) (size 15 to 20)
#    0.000    1.000    5.000    1.500    7.000    4.000 
#    0.000    0.000    0.000    0.000    0.000    0.000 
#    0.000    0.000    0.000    0.000    0.000    0.000 
#
# Total GULP energy -89223.314783 kJ/mol
# GULP energy per Si atom -5576.457174 kJ/mol
# Density = 2.261210 g / cm^3
# Si number density = 22.663682 Si / 1000 Ang^3
#
#
#
# Elastic Constant Matrix: (Units=GPa)
#
#
# Indices 1 2 3 4 5 6 
#
# 1 151.8200 14.2222 -14.5353 0.0000 0.0000 0.0000
# 2 14.2222 116.3229 17.2678 0.0000 0.0000 0.0000
# 3 -14.5353 17.2678 97.3528 0.0000 0.0000 0.0000
# 4 0.0000 0.0000 0.0000 22.7804 0.0000 0.0000
# 5 0.0000 0.0000 0.0000 0.0000 10.4643 0.0000
# 6 0.0000 0.0000 0.0000 0.0000 0.0000 16.3011
#
#
#
# Elastic Compliance Matrix: (Units=1/GPa)
#
#
# Indices 1 2 3 4 5 6 
#
# 1 0.006795 -0.001008 0.001193 0.000000 0.000000 0.000000
# 2 -0.001008 0.008979 -0.001743 0.000000 0.000000 0.000000
# 3 0.001193 -0.001743 0.010759 0.000000 0.000000 0.000000
# 4 0.000000 0.000000 0.000000 0.043897 0.000000 0.000000
# 5 0.000000 0.000000 0.000000 0.000000 0.095563 0.000000
# 6 0.000000 0.000000 0.000000 0.000000 0.000000 0.061346
#
#
# Mechanical properties :
#
#
# Convention : Reuss Voigt Hill
#
# Bulk Modulus (GPa) = 42.70210 44.37835 43.54023
# Shear Modulus (GPa) = 20.98539 33.14522 27.06530
#
# Velocity S-wave (km/s) = 3.04624 3.82839 3.45949
# Velocity P-wave (km/s) = 5.59065 6.25826 5.93385
#
# Compressibility (1/GPa) = 0.02341805
#
# Stress axis : x y z
#
# Youngs Moduli (GPa) = 147.15773 111.37394 92.94306
#
# Poissons Ratio (x) = 0.11226 -0.11092
# Poissons Ratio (y) = 0.14833 0.16201
# Poissons Ratio (z) = -0.17562 0.19414
#
# Static dielectric constant tensor:
#      x y z
#    x 1.789570 0.000000 0.000000 
#    y 0.000000 1.955000 0.000000 
#    z 0.000000 0.000000 1.942170 
# 
# From -- ./inp_files/3181.got.cif
#   From: 2010.05.17/outbox.cif.g08.bks.cpg/sg26_2_cif.got.tgz:3181.got - 2010.06.04 01:07:29.
