data_PCOD9338512
_publ_section_title
;
Structure prediction by ZEFSAII (Michael W. Deem and Ramdas Pophale) SiO2 
 PCOD9338512
Probable space group: P M C 21
;
_chemical_formula_sum "Si O2"
_cell_formula_units_Z 32
_cell_length_a 7.720711
_cell_length_b 14.888489
_cell_length_c 10.566426
_cell_angle_alpha 90.000000
_cell_angle_beta 90.000000
_cell_angle_gamma 90.000000
_cell_volume 1214.607719
_symmetry_space_group_name_H-M "P M C 21"
_symmetry_group_IT_number 26
_symmetry_cell_setting 'orthorhombic'
loop_
_space_group_symop_operation_xyz
x,y,z
-x,-y,1/2+z
-x,y,z
x,-y,1/2+z
loop_
_atom_site_type_symbol
_atom_site_label
_atom_site_fract_x
_atom_site_fract_y
_atom_site_fract_z
Si Si1 0.709223 0.062689 0.185620
Si Si2 0.209416 0.554234 0.643921
Si Si3 0.291771 0.260454 0.244757
Si Si4 0.303579 0.266491 0.517842
Si Si5 0.205635 0.926451 0.351735
Si Si6 0.207102 0.935558 0.014150
Si Si7 0.703973 0.276177 0.796273
Si Si8 0.799842 0.539043 0.385283
O O1 0.500000 0.058511 0.181511
O O2 0.777174 0.164620 0.198869
O O3 0.774601 0.953532 0.181466
O O4 0.753075 0.048768 0.019891
O O5 0.254323 0.658335 0.653005
O O6 0.283940 0.504397 0.764247
O O7 0.279471 0.510507 0.516956
O O8 0.000000 0.546918 0.640187
O O9 0.500000 0.249510 0.256594
O O10 0.220772 0.289118 0.383085
O O11 0.500000 0.300588 0.518936
O O12 0.308511 0.157723 0.514310
O O13 0.222229 0.286826 0.653400
O O14 0.281006 0.826507 0.342456
O O15 0.000000 0.918358 0.358066
O O16 0.255760 0.037473 0.351230
O O17 0.000000 0.919244 0.004254
O O18 0.500000 0.295587 0.794414
O O19 0.792295 0.353483 0.876421
O O20 0.000000 0.511299 0.384037
#
# Coordination Sequence:
#
# PCOD9338512 Si02
#       8
#     4   4   4   4   4   4   4   4
#     4  11  22  37  58  85 122 170 215 263 318 378
#     4  10  24  46  72  99 129 166 211 265 330 392
#     4  10  23  41  63  93 128 166 213 266 324 386
#     4  10  21  39  60  88 127 169 215 266 321 383
#     4  11  23  38  57  87 124 167 218 270 317 373
#     4  11  23  36  55  84 123 170 221 272 322 375
#     4  11  24  40  64  95 126 169 216 263 327 393
#     4  10  24  47  71  99 131 165 209 267 327 392
#
# _framework density 26.345956000000001
#
# number of rings (size 3 to 8) (size 9 to 14) (size 15 to 20)
#    0.000    1.500    2.500    1.500    3.500    4.500 
#    0.000    0.000    0.000    0.000    0.000    0.000 
#    0.000    0.000    0.000    0.000    0.000    0.000 
#
# Total GULP energy -178638.917177 kJ/mol
# GULP energy per Si atom -5582.466162 kJ/mol
# Density = 2.628599 g / cm^3
# Si number density = 26.345956 Si / 1000 Ang^3
#
#
#
# Elastic Constant Matrix: (Units=GPa)
#
#
# Indices 1 2 3 4 5 6 
#
# 1 112.6746 -6.8770 13.5124 0.0000 0.0000 0.0000
# 2 -6.8770 83.1305 52.5819 0.0000 0.0000 0.0000
# 3 13.5124 52.5819 202.5961 0.0000 0.0000 0.0000
# 4 0.0000 0.0000 0.0000 42.6409 0.0000 0.0000
# 5 0.0000 0.0000 0.0000 0.0000 3.1540 0.0000
# 6 0.0000 0.0000 0.0000 0.0000 0.0000 23.8458
#
#
#
# Elastic Compliance Matrix: (Units=1/GPa)
#
#
# Indices 1 2 3 4 5 6 
#
# 1 0.009073 0.001356 -0.000957 0.000000 0.000000 0.000000
# 2 0.001356 0.014595 -0.003878 0.000000 0.000000 0.000000
# 3 -0.000957 -0.003878 0.006006 0.000000 0.000000 0.000000
# 4 0.000000 0.000000 0.000000 0.023452 0.000000 0.000000
# 5 0.000000 0.000000 0.000000 0.000000 0.317056 0.000000
# 6 0.000000 0.000000 0.000000 0.000000 0.000000 0.041936
#
#
# Mechanical properties :
#
#
# Convention : Reuss Voigt Hill
#
# Bulk Modulus (GPa) = 44.02450 57.42619 50.72535
# Shear Modulus (GPa) = 11.71926 36.54039 24.12983
#
# Velocity S-wave (km/s) = 2.11137 3.72821 3.02964
# Velocity P-wave (km/s) = 4.76343 6.35429 5.61548
#
# Compressibility (1/GPa) = 0.02271462
#
# Stress axis : x y z
#
# Youngs Moduli (GPa) = 110.22152 68.51870 166.49092
#
# Poissons Ratio (x) = -0.09290 0.15933
# Poissons Ratio (y) = -0.14945 0.64570
# Poissons Ratio (z) = 0.10548 0.26574
#
# Static dielectric constant tensor:
#      x y z
#    x 1.957880 0.000000 0.000000 
#    y 0.000000 1.957720 0.000000 
#    z 0.000000 0.000000 2.981770 
# 
# From -- ./inp_files/3099.got.cif
#   From: 2010.05.17/outbox.cif.g08.bks.cpg/sg26_2_cif.got.tgz:3099.got - 2010.06.04 01:07:29.
