data_PCOD9338666
_publ_section_title
;
Structure prediction by ZEFSAII (Michael W. Deem and Ramdas Pophale) SiO2 
 PCOD9338666
Probable space group: P M C 21
;
_chemical_formula_sum "Si O2"
_cell_formula_units_Z 12
_cell_length_a 5.480726
_cell_length_b 7.145682
_cell_length_c 10.832991
_cell_angle_alpha 90.000000
_cell_angle_beta 90.000000
_cell_angle_gamma 90.000000
_cell_volume 424.258115
_symmetry_space_group_name_H-M "P M C 21"
_symmetry_group_IT_number 26
_symmetry_cell_setting 'orthorhombic'
loop_
_space_group_symop_operation_xyz
x,y,z
-x,-y,1/2+z
-x,y,z
x,-y,1/2+z
loop_
_atom_site_type_symbol
_atom_site_label
_atom_site_fract_x
_atom_site_fract_y
_atom_site_fract_z
Si Si1 0.000000 0.023644 0.657390
Si Si2 0.500000 0.761492 0.790833
Si Si3 0.000000 0.727202 0.365450
Si Si4 0.500000 0.174733 0.539615
Si Si5 0.000000 0.628245 0.751602
Si Si6 0.500000 0.370746 0.010522
O O1 0.748538 0.102006 0.602618
O O2 0.000000 0.069888 0.803838
O O3 0.000000 0.797069 0.654038
O O4 0.247130 0.663797 0.823811
O O5 0.500000 0.737810 0.642890
O O6 0.500000 0.912530 0.899787
O O7 0.000000 0.594159 0.240372
O O8 0.748245 0.683510 0.437298
O O9 0.500000 0.404741 0.544430
#
# Coordination Sequence:
#
# PCOD9338666 Si02
#       6
#     2   2   2   2   2   2
#     4  12  28  47  79 113 148 204 261 320 392 454
#     4  12  25  48  75 110 160 200 255 316 389 457
#     4  12  24  50  78 113 154 194 265 321 383 471
#     4  12  24  48  75 111 157 200 255 326 372 467
#     4  12  24  51  73 110 154 200 254 317 387 449
#     4  12  25  46  78 113 151 210 248 318 395 458
#
# _framework density 28.284665
#
# number of rings (size 3 to 8) (size 9 to 14) (size 15 to 20)
#    0.000    0.000    3.333    7.000    0.000    0.000 
#   18.000    0.000    0.000    0.000    0.000    0.000 
#    0.000    0.000    0.000    0.000    0.000    0.000 
#
# Total GULP energy -66935.549466 kJ/mol
# GULP energy per Si atom -5577.962455 kJ/mol
# Density = 2.822029 g / cm^3
# Si number density = 28.284665 Si / 1000 Ang^3
#
#
#
# Elastic Constant Matrix: (Units=GPa)
#
#
# Indices 1 2 3 4 5 6 
#
# 1 300.9204 62.7507 106.4285 0.0000 0.0000 0.0000
# 2 62.7507 132.0952 72.5937 0.0000 0.0000 0.0000
# 3 106.4285 72.5937 176.3716 0.0000 0.0000 0.0000
# 4 0.0000 0.0000 0.0000 41.7656 0.0000 0.0000
# 5 0.0000 0.0000 0.0000 0.0000 -15.3108 0.0000
# 6 0.0000 0.0000 0.0000 0.0000 0.0000 53.3143
#
#
#
# Elastic Compliance Matrix: (Units=1/GPa)
#
#
# Indices 1 2 3 4 5 6 
#
# 1 0.004288 -0.000795 -0.002261 0.000000 0.000000 0.000000
# 2 -0.000795 0.009931 -0.003608 0.000000 0.000000 0.000000
# 3 -0.002261 -0.003608 0.008519 0.000000 0.000000 0.000000
# 4 0.000000 0.000000 0.000000 0.023943 0.000000 0.000000
# 5 0.000000 0.000000 0.000000 0.000000 -0.065313 0.000000
# 6 0.000000 0.000000 0.000000 0.000000 0.000000 0.018757
#
#
# Mechanical properties :
#
#
# Convention : Reuss Voigt Hill
#
# Bulk Modulus (GPa) = 106.25323 121.43699 113.84511
# Shear Modulus (GPa) = 301.42611 40.46144 170.94377
#
# Velocity S-wave (km/s) = 10.33441 3.78631 7.78255
# Velocity P-wave (km/s) = 13.41817 7.88301 11.00430
#
# Compressibility (1/GPa) = 0.00941148
#
# Stress axis : x y z
#
# Youngs Moduli (GPa) = 233.18650 100.69960 117.38598
#
# Poissons Ratio (x) = 0.08004 0.26537
# Poissons Ratio (y) = 0.18534 0.42350
# Poissons Ratio (z) = 0.52715 0.36330
#
# Static dielectric constant tensor:
#      x y z
#    x 2.105900 0.000000 0.000000 
#    y 0.000000 2.276070 0.000000 
#    z 0.000000 0.000000 2.218470 
# 
# From -- ./inp_files/2545.got.cif
#   From: 2010.05.17/outbox.cif.g08.bks.cpg/sg26_2_cif.got.tgz:2545.got - 2010.06.04 01:07:29.
