data_PCOD9338228
_publ_section_title
;
Structure prediction by ZEFSAII (Michael W. Deem and Ramdas Pophale) SiO2 
 PCOD9338228
Probable space group: P M C 21
;
_chemical_formula_sum "Si O2"
_cell_formula_units_Z 12
_cell_length_a 7.904270
_cell_length_b 8.423196
_cell_length_c 8.129892
_cell_angle_alpha 90.000000
_cell_angle_beta 90.000000
_cell_angle_gamma 90.000000
_cell_volume 541.281831
_symmetry_space_group_name_H-M "P M C 21"
_symmetry_group_IT_number 26
_symmetry_cell_setting 'orthorhombic'
loop_
_space_group_symop_operation_xyz
x,y,z
-x,-y,1/2+z
-x,y,z
x,-y,1/2+z
loop_
_atom_site_type_symbol
_atom_site_label
_atom_site_fract_x
_atom_site_fract_y
_atom_site_fract_z
Si Si1 0.696446 0.023333 0.504420
Si Si2 0.187609 0.250051 0.223106
Si Si3 0.500000 0.443287 0.352889
Si Si4 0.500000 0.750159 0.194297
O O1 0.500000 0.003520 0.446265
O O2 0.799302 0.125325 0.374637
O O3 0.662817 0.138510 0.663259
O O4 0.771789 0.859190 0.565603
O O5 0.334023 0.375852 0.260892
O O6 0.000000 0.318671 0.212787
O O7 0.500000 0.366644 0.533750
O O8 0.500000 0.632808 0.346285
#
# Coordination Sequence:
#
# PCOD9338228 Si02
#       4
#     4   4   2   2
#     4   9  18  36  54  81 102 140 176 216 263 308
#     4  11  20  34  57  81 108 137 174 222 265 312
#     4  10  19  38  50  78 106 140 179 212 264 312
#     4   8  19  32  58  70 104 148 167 218 258 308
#
# _framework density 22.169594
#
# number of rings (size 3 to 8) (size 9 to 14) (size 15 to 20)
#    1.000    1.333    3.333    1.000    0.000    2.667 
#    0.000    8.333    0.000    0.000    0.000    0.000 
#    0.000    0.000    0.000    0.000    0.000    0.000 
#
# Total GULP energy -66964.613471 kJ/mol
# GULP energy per Si atom -5580.384456 kJ/mol
# Density = 2.211914 g / cm^3
# Si number density = 22.169594 Si / 1000 Ang^3
#
#
#
# Elastic Constant Matrix: (Units=GPa)
#
#
# Indices 1 2 3 4 5 6 
#
# 1 144.4081 22.7065 6.5723 0.0000 0.0000 0.0000
# 2 22.7065 63.1943 5.2737 0.0000 0.0000 0.0000
# 3 6.5723 5.2737 34.5197 0.0000 0.0000 0.0000
# 4 0.0000 0.0000 0.0000 44.8218 0.0000 0.0000
# 5 0.0000 0.0000 0.0000 0.0000 18.5864 0.0000
# 6 0.0000 0.0000 0.0000 0.0000 0.0000 4.3161
#
#
#
# Elastic Compliance Matrix: (Units=1/GPa)
#
#
# Indices 1 2 3 4 5 6 
#
# 1 0.007374 -0.002565 -0.001012 0.000000 0.000000 0.000000
# 2 -0.002565 0.016921 -0.002097 0.000000 0.000000 0.000000
# 3 -0.001012 -0.002097 0.029482 0.000000 0.000000 0.000000
# 4 0.000000 0.000000 0.000000 0.022311 0.000000 0.000000
# 5 0.000000 0.000000 0.000000 0.000000 0.053803 0.000000
# 6 0.000000 0.000000 0.000000 0.000000 0.000000 0.231689
#
#
# Mechanical properties :
#
#
# Convention : Reuss Voigt Hill
#
# Bulk Modulus (GPa) = 23.56868 34.58079 29.07473
# Shear Modulus (GPa) = 12.91754 27.38283 20.15018
#
# Velocity S-wave (km/s) = 2.41647 3.51829 3.01809
# Velocity P-wave (km/s) = 4.29418 5.66892 5.02875
#
# Compressibility (1/GPa) = 0.04242919
#
# Stress axis : x y z
#
# Youngs Moduli (GPa) = 135.60735 59.09851 33.91901
#
# Poissons Ratio (x) = 0.15160 0.03433
# Poissons Ratio (y) = 0.34786 0.07112
# Poissons Ratio (z) = 0.13725 0.12391
#
# Static dielectric constant tensor:
#      x y z
#    x 1.783530 0.000000 0.000000 
#    y 0.000000 1.814690 0.000000 
#    z 0.000000 0.000000 1.926840 
# 
# From -- ./inp_files/1158.got.cif
#   From: 2010.05.17/outbox.cif.g08.bks.cpg/sg26_1_cif.got.tgz:1158.got - 2010.06.04 01:07:29.
