data_PCOD9338487
_publ_section_title
;
Structure prediction by ZEFSAII (Michael W. Deem and Ramdas Pophale) SiO2 
 PCOD9338487
Probable space group: P M C 21
;
_chemical_formula_sum "Si O2"
_cell_formula_units_Z 26
_cell_length_a 7.192796
_cell_length_b 18.978921
_cell_length_c 9.586473
_cell_angle_alpha 90.000000
_cell_angle_beta 90.000000
_cell_angle_gamma 90.000000
_cell_volume 1308.663877
_symmetry_space_group_name_H-M "P M C 21"
_symmetry_group_IT_number 26
_symmetry_cell_setting 'orthorhombic'
loop_
_space_group_symop_operation_xyz
x,y,z
-x,-y,1/2+z
-x,y,z
x,-y,1/2+z
loop_
_atom_site_type_symbol
_atom_site_label
_atom_site_fract_x
_atom_site_fract_y
_atom_site_fract_z
Si Si1 0.500000 0.903875 0.120660
Si Si2 0.773223 0.432464 0.752000
Si Si3 0.223656 0.704959 0.754931
Si Si4 0.500000 0.173139 0.326891
Si Si5 0.777187 0.860253 0.356291
Si Si6 0.224158 0.699965 0.433861
Si Si7 0.500000 0.069867 0.067274
Si Si8 0.225685 0.432105 0.430629
O O1 0.679354 0.884104 0.213851
O O2 0.500000 0.986800 0.090042
O O3 0.500000 0.860251 0.978859
O O4 0.714132 0.435253 0.591173
O O5 0.000000 0.432429 0.750836
O O6 0.712591 0.361726 0.831362
O O7 0.715407 0.500636 0.840254
O O8 0.323867 0.775959 0.802308
O O9 0.278905 0.689415 0.594729
O O10 0.000000 0.712607 0.759250
O O11 0.277804 0.640100 0.853872
O O12 0.500000 0.111945 0.211836
O O13 0.726966 0.778435 0.384994
O O14 0.678807 0.905367 0.477693
O O15 0.000000 0.867367 0.355183
O O16 0.000000 0.697002 0.432891
O O17 0.000000 0.433465 0.431814
#
# Coordination Sequence:
#
# PCOD9338487 Si02
#       8
#     2   4   4   2   4   4   2   4
#     4  11  27  43  65  98 136 165 204 260 319 387
#     4   9  16  27  50  83 120 160 206 258 311 365
#     4  10  21  37  59  88 123 163 212 260 309 372
#     4  12  24  40  66  94 128 164 204 261 322 379
#     4  10  22  43  69  96 129 169 215 259 313 378
#     4   9  17  32  57  87 117 159 212 258 304 367
#     4  11  23  47  69  94 128 167 212 257 315 384
#     4   9  17  29  49  82 121 161 206 257 310 367
#
# _framework density 19.867591000000001
#
# number of rings (size 3 to 8) (size 9 to 14) (size 15 to 20)
#    0.000    2.154    1.538    1.846    2.154    4.923 
#    0.000    1.538    0.000    5.538    0.000    0.000 
#    0.000    0.000    0.000    0.000    0.000    0.000 
#
# Total GULP energy -145319.578585 kJ/mol
# GULP energy per Si atom -5589.214561 kJ/mol
# Density = 1.982237 g / cm^3
# Si number density = 19.867591 Si / 1000 Ang^3
#
#
#
# Elastic Constant Matrix: (Units=GPa)
#
#
# Indices 1 2 3 4 5 6 
#
# 1 123.4704 27.3047 41.5209 0.0000 0.0000 0.0000
# 2 27.3047 152.2175 113.3431 0.0000 0.0000 0.0000
# 3 41.5209 113.3431 201.5454 0.0000 0.0000 0.0000
# 4 0.0000 0.0000 0.0000 -67.3561 0.0000 0.0000
# 5 0.0000 0.0000 0.0000 0.0000 -6.5373 0.0000
# 6 0.0000 0.0000 0.0000 0.0000 0.0000 79.9213
#
#
#
# Elastic Compliance Matrix: (Units=1/GPa)
#
#
# Indices 1 2 3 4 5 6 
#
# 1 0.008715 -0.000390 -0.001576 0.000000 0.000000 0.000000
# 2 -0.000390 0.011320 -0.006286 0.000000 0.000000 0.000000
# 3 -0.001576 -0.006286 0.008821 0.000000 0.000000 0.000000
# 4 0.000000 0.000000 0.000000 -0.014846 0.000000 0.000000
# 5 0.000000 0.000000 0.000000 0.000000 -0.152969 0.000000
# 6 0.000000 0.000000 0.000000 0.000000 0.000000 0.012512
#
#
# Mechanical properties :
#
#
# Convention : Reuss Voigt Hill
#
# Bulk Modulus (GPa) = 80.95052 93.50787 87.22919
# Shear Modulus (GPa) = -47.24769 20.87657 -13.18556
#
# Velocity S-wave (km/s) = -4.88190 3.24510 -2.57898
# Velocity P-wave (km/s) = 3.00936 7.82359 5.92726
#
# Compressibility (1/GPa) = 0.01235323
#
# Stress axis : x y z
#
# Youngs Moduli (GPa) = 114.73981 88.34069 113.36203
#
# Poissons Ratio (x) = 0.03441 0.17871
# Poissons Ratio (y) = 0.04470 0.71256
# Poissons Ratio (z) = 0.18088 0.55528
#
# Static dielectric constant tensor:
#      x y z
#    x 1.761860 0.000000 0.000000 
#    y 0.000000 1.649440 0.000000 
#    z 0.000000 0.000000 1.666190 
# 
# From -- ./inp_files/1563.got.cif
#   From: 2010.05.17/outbox.cif.g08.bks.cpg/sg26_1_cif.got.tgz:1563.got - 2010.06.04 01:07:29.
