data_PCOD9338388
_publ_section_title
;
Structure prediction by ZEFSAII (Michael W. Deem and Ramdas Pophale) SiO2 
 PCOD9338388
Probable space group: P M C 21
;
_chemical_formula_sum "Si O2"
_cell_formula_units_Z 32
_cell_length_a 15.434874
_cell_length_b 8.509265
_cell_length_c 12.444783
_cell_angle_alpha 90.000000
_cell_angle_beta 90.000000
_cell_angle_gamma 90.000000
_cell_volume 1634.490744
_symmetry_space_group_name_H-M "P M C 21"
_symmetry_group_IT_number 26
_symmetry_cell_setting 'orthorhombic'
loop_
_space_group_symop_operation_xyz
x,y,z
-x,-y,1/2+z
-x,y,z
x,-y,1/2+z
loop_
_atom_site_type_symbol
_atom_site_label
_atom_site_fract_x
_atom_site_fract_y
_atom_site_fract_z
Si Si1 0.598738 0.442330 0.781580
Si Si2 0.253662 0.016418 0.805556
Si Si3 0.907035 0.445863 0.874648
Si Si4 0.839244 0.615620 0.589378
Si Si5 0.099453 0.788378 0.806262
Si Si6 0.333320 0.745589 0.480644
Si Si7 0.775560 0.322411 0.702946
Si Si8 0.595909 0.196623 0.208003
O O1 0.500000 0.392590 0.757554
O O2 0.622848 0.383407 0.901801
O O3 0.674385 0.367539 0.708933
O O4 0.603747 0.628236 0.758479
O O5 0.170120 0.916163 0.839874
O O6 0.327499 0.905861 0.757139
O O7 0.297160 0.118055 0.901412
O O8 0.221761 0.135728 0.711559
O O9 0.898519 0.633697 0.880564
O O10 0.825316 0.379885 0.810660
O O11 0.000000 0.413109 0.820092
O O12 0.904804 0.373652 0.991832
O O13 0.870799 0.713866 0.691691
O O14 0.748358 0.677716 0.545325
O O15 0.822792 0.432399 0.617583
O O16 0.000000 0.845450 0.801004
O O17 0.394885 0.797312 0.578470
O O18 0.500000 0.135800 0.235728
#
# Coordination Sequence:
#
# PCOD9338388 Si02
#       8
#     4   4   4   4   4   4   4   4
#     4  10  20  38  63  90 115 156 209 254 296 356
#     4  11  23  39  60  93 126 163 197 245 312 381
#     4  10  20  37  62  88 114 154 207 254 296 351
#     4  11  19  39  65  85 112 160 210 250 298 352
#     4  10  22  40  61  88 127 162 196 252 308 366
#     4  11  22  40  66  89 118 165 206 254 305 359
#     4  10  21  37  61  86 117 156 199 250 299 357
#     4  11  23  42  64  89 129 164 200 255 308 364
#
# _framework density 19.577961999999999
#
# number of rings (size 3 to 8) (size 9 to 14) (size 15 to 20)
#    0.000    1.500    5.000    1.500    0.000    4.500 
#    0.000    0.000    0.000    0.000    0.000    0.000 
#    0.000    0.000    0.000    0.000    0.000    0.000 
#
# Total GULP energy -178368.615545 kJ/mol
# GULP energy per Si atom -5574.019236 kJ/mol
# Density = 1.953340 g / cm^3
# Si number density = 19.577962 Si / 1000 Ang^3
#
#
#
# Elastic Constant Matrix: (Units=GPa)
#
#
# Indices 1 2 3 4 5 6 
#
# 1 126.9623 33.8079 12.8041 0.0000 0.0000 0.0000
# 2 33.8079 59.4056 10.0256 0.0000 0.0000 0.0000
# 3 12.8041 10.0256 70.8850 0.0000 0.0000 0.0000
# 4 0.0000 0.0000 0.0000 22.7623 0.0000 0.0000
# 5 0.0000 0.0000 0.0000 0.0000 10.4290 0.0000
# 6 0.0000 0.0000 0.0000 0.0000 0.0000 5.1986
#
#
#
# Elastic Compliance Matrix: (Units=1/GPa)
#
#
# Indices 1 2 3 4 5 6 
#
# 1 0.009346 -0.005157 -0.000959 0.000000 0.000000 0.000000
# 2 -0.005157 0.020091 -0.001910 0.000000 0.000000 0.000000
# 3 -0.000959 -0.001910 0.014551 0.000000 0.000000 0.000000
# 4 0.000000 0.000000 0.000000 0.043932 0.000000 0.000000
# 5 0.000000 0.000000 0.000000 0.000000 0.095887 0.000000
# 6 0.000000 0.000000 0.000000 0.000000 0.000000 0.192359
#
#
# Mechanical properties :
#
#
# Convention : Reuss Voigt Hill
#
# Bulk Modulus (GPa) = 35.79646 41.16980 38.48313
# Shear Modulus (GPa) = 12.45237 21.05232 16.75234
#
# Velocity S-wave (km/s) = 2.52472 3.28274 2.92836
# Velocity P-wave (km/s) = 5.17906 5.95339 5.57967
#
# Compressibility (1/GPa) = 0.02793572
#
# Stress axis : x y z
#
# Youngs Moduli (GPa) = 106.99386 49.77412 68.72524
#
# Poissons Ratio (x) = 0.25670 0.06590
# Poissons Ratio (y) = 0.55179 0.13126
# Poissons Ratio (z) = 0.10259 0.09507
#
# Static dielectric constant tensor:
#      x y z
#    x 1.700020 0.000000 0.000000 
#    y 0.000000 1.690260 0.000000 
#    z 0.000000 0.000000 1.706900 
# 
# From -- ./inp_files/3604.got.cif
#   From: 2010.05.17/outbox.cif.g08.bks.cpg/sg26_2_cif.got.tgz:3604.got - 2010.06.04 01:07:29.
