data_PCOD9338126
_publ_section_title
;
Structure prediction by ZEFSAII (Michael W. Deem and Ramdas Pophale) SiO2 
 PCOD9338126
Probable space group: P M C 21
;
_chemical_formula_sum "Si O2"
_cell_formula_units_Z 24
_cell_length_a 7.688846
_cell_length_b 15.986672
_cell_length_c 9.547877
_cell_angle_alpha 90.000000
_cell_angle_beta 90.000000
_cell_angle_gamma 90.000000
_cell_volume 1173.616057
_symmetry_space_group_name_H-M "P M C 21"
_symmetry_group_IT_number 26
_symmetry_cell_setting 'orthorhombic'
loop_
_space_group_symop_operation_xyz
x,y,z
-x,-y,1/2+z
-x,y,z
x,-y,1/2+z
loop_
_atom_site_type_symbol
_atom_site_label
_atom_site_fract_x
_atom_site_fract_y
_atom_site_fract_z
Si Si1 0.289835 0.578549 0.868780
Si Si2 0.795131 0.234974 0.376569
Si Si3 0.287108 0.579412 0.191000
Si Si4 0.213995 0.916444 0.681758
Si Si5 0.297936 0.235447 0.700825
Si Si6 0.202137 0.072225 0.864386
O O1 0.500000 0.578010 0.865538
O O2 0.233450 0.670825 0.822097
O O3 0.227806 0.499659 0.779966
O O4 0.234580 0.569257 0.029821
O O5 0.730954 0.165796 0.267468
O O6 0.715137 0.227650 0.532032
O O7 0.000000 0.221446 0.396867
O O8 0.500000 0.580809 0.194358
O O9 0.229034 0.671843 0.237972
O O10 0.275504 0.919595 0.521090
O O11 0.000000 0.915228 0.678226
O O12 0.274201 0.997751 0.768208
O O13 0.500000 0.232489 0.739554
O O14 0.211664 0.158856 0.780387
O O15 0.000000 0.050019 0.883886
#
# Coordination Sequence:
#
# PCOD9338126 Si02
#       6
#     4   4   4   4   4   4
#     4   9  17  32  51  72  98 134 174 213 253 302
#     4  10  19  34  54  77 104 138 174 213 257 305
#     4   8  16  30  49  69  95 130 167 202 248 303
#     4   9  19  34  55  78 102 134 173 209 256 316
#     4  10  20  35  53  77 105 137 174 213 255 306
#     4  10  19  35  56  77 100 133 172 212 255 308
#
# _framework density 20.449618999999998
#
# number of rings (size 3 to 8) (size 9 to 14) (size 15 to 20)
#    0.000    2.667    0.000    3.000    0.000    4.000 
#    0.000   11.667    0.000    0.000    0.000    0.000 
#    0.000    0.000    0.000    0.000    0.000    0.000 
#
# Total GULP energy -133919.696541 kJ/mol
# GULP energy per Si atom -5579.987356 kJ/mol
# Density = 2.040308 g / cm^3
# Si number density = 20.449619 Si / 1000 Ang^3
#
#
#
# Elastic Constant Matrix: (Units=GPa)
#
#
# Indices 1 2 3 4 5 6 
#
# 1 31.9800 -9.4068 -6.3009 0.0000 0.0000 0.0000
# 2 -9.4068 203.0151 111.1347 0.0000 0.0000 0.0000
# 3 -6.3009 111.1347 113.8044 0.0000 0.0000 0.0000
# 4 0.0000 0.0000 0.0000 39.6737 0.0000 0.0000
# 5 0.0000 0.0000 0.0000 0.0000 11.8425 0.0000
# 6 0.0000 0.0000 0.0000 0.0000 0.0000 22.9543
#
#
#
# Elastic Compliance Matrix: (Units=1/GPa)
#
#
# Indices 1 2 3 4 5 6 
#
# 1 0.031727 0.001093 0.000690 0.000000 0.000000 0.000000
# 2 0.001093 0.010621 -0.010311 0.000000 0.000000 0.000000
# 3 0.000690 -0.010311 0.018895 0.000000 0.000000 0.000000
# 4 0.000000 0.000000 0.000000 0.025206 0.000000 0.000000
# 5 0.000000 0.000000 0.000000 0.000000 0.084441 0.000000
# 6 0.000000 0.000000 0.000000 0.000000 0.000000 0.043565
#
#
# Mechanical properties :
#
#
# Convention : Reuss Voigt Hill
#
# Bulk Modulus (GPa) = 22.63253 59.96149 41.29701
# Shear Modulus (GPa) = 20.30533 31.78561 26.04547
#
# Velocity S-wave (km/s) = 3.15452 3.94679 3.57268
# Velocity P-wave (km/s) = 4.93553 7.08200 6.10386
#
# Compressibility (1/GPa) = 0.04418419
#
# Stress axis : x y z
#
# Youngs Moduli (GPa) = 31.51907 94.15277 52.92491
#
# Poissons Ratio (x) = -0.10287 -0.03650
# Poissons Ratio (y) = -0.03444 0.54573
# Poissons Ratio (z) = -0.02174 0.97085
#
# Static dielectric constant tensor:
#      x y z
#    x 1.775190 0.000000 0.000000 
#    y 0.000000 1.715070 0.000000 
#    z 0.000000 0.000000 1.695100 
# 
# From -- ./inp_files/1406.got.cif
#   From: 2010.05.17/outbox.cif.g08.bks.cpg/sg26_1_cif.got.tgz:1406.got - 2010.06.04 01:07:29.
