data_PCOD9338269
_publ_section_title
;
Structure prediction by ZEFSAII (Michael W. Deem and Ramdas Pophale) SiO2 
 PCOD9338269
Probable space group: P M C 21
;
_chemical_formula_sum "Si O2"
_cell_formula_units_Z 32
_cell_length_a 7.747310
_cell_length_b 11.883835
_cell_length_c 16.614014
_cell_angle_alpha 90.000000
_cell_angle_beta 90.000000
_cell_angle_gamma 90.000000
_cell_volume 1529.614949
_symmetry_space_group_name_H-M "P M C 21"
_symmetry_group_IT_number 26
_symmetry_cell_setting 'orthorhombic'
loop_
_space_group_symop_operation_xyz
x,y,z
-x,-y,1/2+z
-x,y,z
x,-y,1/2+z
loop_
_atom_site_type_symbol
_atom_site_label
_atom_site_fract_x
_atom_site_fract_y
_atom_site_fract_z
Si Si1 0.700954 0.168872 0.263160
Si Si2 0.207932 0.422866 0.618381
Si Si3 0.791026 0.781585 0.441156
Si Si4 0.210490 0.931500 0.591020
Si Si5 0.297061 0.067502 0.792402
Si Si6 0.197826 0.169138 0.625795
Si Si7 0.294968 0.421425 0.273173
Si Si8 0.208412 0.525342 0.447333
O O1 0.500000 0.180684 0.285934
O O2 0.718849 0.123215 0.172408
O O3 0.778606 0.293690 0.267981
O O4 0.769402 0.059167 0.310992
O O5 0.274870 0.294086 0.624946
O O6 0.242966 0.498700 0.697820
O O7 0.269141 0.472034 0.532210
O O8 0.000000 0.418273 0.614908
O O9 0.739094 0.850741 0.519286
O O10 0.724380 0.849092 0.365402
O O11 0.730292 0.653842 0.443644
O O12 0.000000 0.780079 0.437724
O O13 0.000000 0.933974 0.597005
O O14 0.272314 0.060423 0.579526
O O15 0.500000 0.058798 0.771233
O O16 0.201958 0.122671 0.716785
O O17 0.000000 0.181211 0.598056
O O18 0.500000 0.414274 0.265705
O O19 0.254555 0.467848 0.362378
O O20 0.000000 0.525273 0.451221
#
# Coordination Sequence:
#
# PCOD9338269 Si02
#       8
#     4   4   4   4   4   4   4   4
#     4   9  20  37  53  74 105 137 173 218 265 313
#     4  10  21  38  59  82 111 147 184 224 271 322
#     4  10  20  34  52  77 107 134 169 218 264 308
#     4   9  18  33  55  80 103 132 171 215 263 316
#     4  10  20  34  53  76 103 137 174 212 261 320
#     4   9  18  34  55  79 106 134 170 217 265 312
#     4  11  23  38  57  81 111 147 185 227 273 321
#     4  10  22  38  56  81 112 146 184 225 270 324
#
# _framework density 20.920297999999999
#
# number of rings (size 3 to 8) (size 9 to 14) (size 15 to 20)
#    0.000    2.250    0.000    2.250    0.000    8.500 
#    0.000    1.250    0.000    0.000    0.000    0.000 
#    0.000    0.000    0.000    0.000    0.000    0.000 
#
# Total GULP energy -178417.379712 kJ/mol
# GULP energy per Si atom -5575.543116 kJ/mol
# Density = 2.087268 g / cm^3
# Si number density = 20.920298 Si / 1000 Ang^3
#
#
#
# Elastic Constant Matrix: (Units=GPa)
#
#
# Indices 1 2 3 4 5 6 
#
# 1 33.3975 12.0559 -0.4583 0.0000 0.0000 0.0000
# 2 12.0559 248.5198 89.1882 0.0000 0.0000 0.0000
# 3 -0.4583 89.1882 99.5397 0.0000 0.0000 0.0000
# 4 0.0000 0.0000 0.0000 33.9473 0.0000 0.0000
# 5 0.0000 0.0000 0.0000 0.0000 84.3320 0.0000
# 6 0.0000 0.0000 0.0000 0.0000 0.0000 17.4229
#
#
#
# Elastic Compliance Matrix: (Units=1/GPa)
#
#
# Indices 1 2 3 4 5 6 
#
# 1 0.030794 -0.002277 0.002182 0.000000 0.000000 0.000000
# 2 -0.002277 0.006099 -0.005476 0.000000 0.000000 0.000000
# 3 0.002182 -0.005476 0.014962 0.000000 0.000000 0.000000
# 4 0.000000 0.000000 0.000000 0.029457 0.000000 0.000000
# 5 0.000000 0.000000 0.000000 0.000000 0.011858 0.000000
# 6 0.000000 0.000000 0.000000 0.000000 0.000000 0.057396
#
#
# Mechanical properties :
#
#
# Convention : Reuss Voigt Hill
#
# Bulk Modulus (GPa) = 24.56105 64.78094 44.67100
# Shear Modulus (GPa) = 28.52586 45.85185 37.18885
#
# Velocity S-wave (km/s) = 3.69663 4.68668 4.22079
# Velocity P-wave (km/s) = 5.47594 7.76656 6.71957
#
# Compressibility (1/GPa) = 0.04071488
#
# Stress axis : x y z
#
# Youngs Moduli (GPa) = 32.47364 163.95285 66.83428
#
# Poissons Ratio (x) = 0.37330 -0.14582
# Poissons Ratio (y) = 0.07394 0.36595
# Poissons Ratio (z) = -0.07085 0.89772
#
# Static dielectric constant tensor:
#      x y z
#    x 1.763070 0.000000 0.000000 
#    y 0.000000 1.792720 0.000000 
#    z 0.000000 0.000000 1.717620 
# 
# From -- ./inp_files/4280.got.cif
#   From: 2010.05.17/outbox.cif.g08.bks.cpg/sg26_3_cif.got.tgz:4280.got - 2010.06.04 01:07:29.
