data_PCOD9338885
_publ_section_title
;
Structure prediction by ZEFSAII (Michael W. Deem and Ramdas Pophale) SiO2 
 PCOD9338885
Probable space group: P C C 2
;
_chemical_formula_sum "Si O2"
_cell_formula_units_Z 22
_cell_length_a 5.366261
_cell_length_b 5.410749
_cell_length_c 30.359567
_cell_angle_alpha 90.000000
_cell_angle_beta 90.000000
_cell_angle_gamma 90.000000
_cell_volume 881.504945
_symmetry_space_group_name_H-M "P C C 2"
_symmetry_group_IT_number 27
_symmetry_cell_setting 'orthorhombic'
loop_
_space_group_symop_operation_xyz
x,y,z
-x,-y,z
-x,y,1/2+z
x,-y,1/2+z
loop_
_atom_site_type_symbol
_atom_site_label
_atom_site_fract_x
_atom_site_fract_y
_atom_site_fract_z
Si Si1 0.845237 0.742505 0.225750
Si Si2 0.252439 0.354360 0.513954
Si Si3 0.360625 0.249798 0.132491
Si Si4 0.250444 0.165965 0.416799
Si Si5 0.748184 0.834563 0.322044
Si Si6 0.000000 0.000000 0.074057
O O1 0.657737 0.760514 0.185420
O O2 0.746917 0.698436 0.275292
O O3 0.000000 0.500000 0.214322
O O4 0.000000 0.000000 0.225940
O O5 0.500000 0.500000 0.526243
O O6 0.257963 0.319090 0.461316
O O7 0.210115 0.101667 0.540579
O O8 0.000000 0.500000 0.523672
O O9 0.500000 0.500000 0.120914
O O10 0.099656 0.211389 0.107291
O O11 0.500000 0.000000 0.119775
O O12 0.248545 0.302666 0.369246
O O13 0.500000 0.000000 0.417334
O O14 0.000000 0.000000 0.418778
O O15 0.500000 0.000000 0.321743
O O16 0.000000 0.000000 0.322083
#
# Coordination Sequence:
#
# PCOD9338885 Si02
#       6
#     4   4   4   4   4   2
#     4  11  23  46  74 112 155 200 254 321 388 469
#     4  12  29  48  78 113 153 204 264 329 403 476
#     4  12  29  50  82 113 155 209 264 331 405 477
#     4  10  20  43  72 107 153 199 249 317 387 467
#     4   9  20  39  72 108 151 200 250 308 385 466
#     4  12  32  52  74 110 162 200 282 334 416 472
#
# _framework density 24.957318000000001
#
# number of rings (size 3 to 8) (size 9 to 14) (size 15 to 20)
#    0.000    1.091    1.818    2.727    5.091    2.182 
#    0.000    4.545    0.000    0.000    0.000    0.000 
#    0.000    0.000    0.000    0.000    0.000    0.000 
#
# Total GULP energy -123133.963685 kJ/mol
# GULP energy per Si atom -5596.998349 kJ/mol
# Density = 2.490051 g / cm^3
# Si number density = 24.957318 Si / 1000 Ang^3
#
#
#
# Elastic Constant Matrix: (Units=GPa)
#
#
# Indices 1 2 3 4 5 6 
#
# 1 153.8662 49.2376 27.0432 0.0000 0.0000 0.0000
# 2 49.2376 117.3678 30.7314 0.0000 0.0000 0.0000
# 3 27.0432 30.7314 215.6116 0.0000 0.0000 0.0000
# 4 0.0000 0.0000 0.0000 227.9761 0.0000 0.0000
# 5 0.0000 0.0000 0.0000 0.0000 98.1858 0.0000
# 6 0.0000 0.0000 0.0000 0.0000 0.0000 53.6619
#
#
#
# Elastic Compliance Matrix: (Units=1/GPa)
#
#
# Indices 1 2 3 4 5 6 
#
# 1 0.007562 -0.003037 -0.000516 0.000000 0.000000 0.000000
# 2 -0.003037 0.010070 -0.001054 0.000000 0.000000 0.000000
# 3 -0.000516 -0.001054 0.004853 0.000000 0.000000 0.000000
# 4 0.000000 0.000000 0.000000 0.004386 0.000000 0.000000
# 5 0.000000 0.000000 0.000000 0.000000 0.010185 0.000000
# 6 0.000000 0.000000 0.000000 0.000000 0.000000 0.018635
#
#
# Mechanical properties :
#
#
# Convention : Reuss Voigt Hill
#
# Bulk Modulus (GPa) = 75.35395 77.87444 76.61420
# Shear Modulus (GPa) = 72.11943 101.28698 86.70320
#
# Velocity S-wave (km/s) = 5.38143 6.37747 5.90051
# Velocity P-wave (km/s) = 8.29890 9.24664 8.78556
#
# Compressibility (1/GPa) = 0.01327070
#
# Stress axis : x y z
#
# Youngs Moduli (GPa) = 132.24554 99.30008 206.06172
#
# Poissons Ratio (x) = 0.30160 0.10623
# Poissons Ratio (y) = 0.40166 0.21727
# Poissons Ratio (z) = 0.06818 0.10470
#
# Static dielectric constant tensor:
#      x y z
#    x 1.986170 0.000000 0.000000 
#    y 0.000000 1.886010 0.000000 
#    z 0.000000 0.000000 1.971970 
# 
# From -- ./inp_files/5299.got.cif
#   From: 2010.05.17/outbox.cif.g08.bks.cpg/sg27_3_cif.got.tgz:5299.got - 2010.06.04 01:11:05.
