data_PCOD9338571
_publ_section_title
;
Structure prediction by ZEFSAII (Michael W. Deem and Ramdas Pophale) SiO2 
 PCOD9338571
Probable space group: P M C 21
;
_chemical_formula_sum "Si O2"
_cell_formula_units_Z 32
_cell_length_a 8.943258
_cell_length_b 31.431856
_cell_length_c 5.430786
_cell_angle_alpha 90.000000
_cell_angle_beta 90.000000
_cell_angle_gamma 90.000000
_cell_volume 1526.611310
_symmetry_space_group_name_H-M "P M C 21"
_symmetry_group_IT_number 26
_symmetry_cell_setting 'orthorhombic'
loop_
_space_group_symop_operation_xyz
x,y,z
-x,-y,1/2+z
-x,y,z
x,-y,1/2+z
loop_
_atom_site_type_symbol
_atom_site_label
_atom_site_fract_x
_atom_site_fract_y
_atom_site_fract_z
Si Si1 0.838947 0.316500 0.800950
Si Si2 0.181181 0.977547 0.363561
Si Si3 0.180540 0.123060 0.850032
Si Si4 0.321580 0.474888 0.726232
Si Si5 0.171942 0.747662 0.908586
Si Si6 0.320638 0.162364 0.349694
Si Si7 0.836355 0.398908 0.465243
Si Si8 0.335927 0.335628 0.205875
O O1 0.832362 0.269424 0.689545
O O2 0.852308 0.353588 0.599637
O O3 0.000000 0.320677 0.940348
O O4 0.681752 0.328740 0.917388
O O5 0.211957 0.927452 0.358825
O O6 0.000000 0.981931 0.364140
O O7 0.236218 0.999493 0.615024
O O8 0.250068 0.141261 0.596471
O O9 0.000000 0.129479 0.848152
O O10 0.250471 0.143498 0.097411
O O11 0.500000 0.467180 0.716517
O O12 0.286793 0.492513 0.999146
O O13 0.232818 0.432983 0.647770
O O14 0.272750 0.788268 0.864478
O O15 0.239800 0.706034 0.779277
O O16 0.000000 0.756164 0.836117
O O17 0.500000 0.157541 0.348619
O O18 0.726857 0.383011 0.251819
O O19 0.000000 0.412846 0.377805
O O20 0.500000 0.332130 0.308712
#
# Coordination Sequence:
#
# PCOD9338571 Si02
#       8
#     4   4   4   4   4   4   4   4
#     4   9  20  38  60  86 117 154 201 258 307 366
#     4   9  17  32  60  96 127 158 210 277 328 378
#     4  11  23  42  68  97 130 174 224 271 330 396
#     4  10  23  42  63  91 126 162 202 249 309 376
#     4  10  22  41  62  86 118 161 213 262 314 378
#     4  12  26  43  64  93 135 177 220 273 328 392
#     4  10  22  40  61  87 119 157 205 254 303 364
#     4  11  22  36  60  90 122 157 199 254 315 374
#
# _framework density 20.961458
#
# number of rings (size 3 to 8) (size 9 to 14) (size 15 to 20)
#    0.000    1.750    0.000    4.875    3.500    5.500 
#    0.000    0.000    0.000    7.500    0.000    0.000 
#    0.000    0.000    0.000    0.000    0.000    0.000 
#
# Total GULP energy -178273.352099 kJ/mol
# GULP energy per Si atom -5571.042253 kJ/mol
# Density = 2.091375 g / cm^3
# Si number density = 20.961458 Si / 1000 Ang^3
#
#
#
# Elastic Constant Matrix: (Units=GPa)
#
#
# Indices 1 2 3 4 5 6 
#
# 1 80.9317 15.9559 14.8458 0.0000 0.0000 0.0000
# 2 15.9559 72.4243 8.9423 0.0000 0.0000 0.0000
# 3 14.8458 8.9423 69.0543 0.0000 0.0000 0.0000
# 4 0.0000 0.0000 0.0000 24.8183 0.0000 0.0000
# 5 0.0000 0.0000 0.0000 0.0000 16.0093 0.0000
# 6 0.0000 0.0000 0.0000 0.0000 0.0000 10.6817
#
#
#
# Elastic Compliance Matrix: (Units=1/GPa)
#
#
# Indices 1 2 3 4 5 6 
#
# 1 0.013337 -0.002626 -0.002527 0.000000 0.000000 0.000000
# 2 -0.002626 0.014549 -0.001319 0.000000 0.000000 0.000000
# 3 -0.002527 -0.001319 0.015196 0.000000 0.000000 0.000000
# 4 0.000000 0.000000 0.000000 0.040293 0.000000 0.000000
# 5 0.000000 0.000000 0.000000 0.000000 0.062464 0.000000
# 6 0.000000 0.000000 0.000000 0.000000 0.000000 0.093618
#
#
# Mechanical properties :
#
#
# Convention : Reuss Voigt Hill
#
# Bulk Modulus (GPa) = 33.18296 33.54427 33.36361
# Shear Modulus (GPa) = 19.05140 22.47962 20.76551
#
# Velocity S-wave (km/s) = 3.01803 3.27834 3.15088
# Velocity P-wave (km/s) = 5.29240 5.51068 5.40264
#
# Compressibility (1/GPa) = 0.03013595
#
# Stress axis : x y z
#
# Youngs Moduli (GPa) = 74.97664 68.73305 65.80874
#
# Poissons Ratio (x) = 0.18052 0.16632
# Poissons Ratio (y) = 0.19692 0.08683
# Poissons Ratio (z) = 0.18949 0.09069
#
# Static dielectric constant tensor:
#      x y z
#    x 1.946320 0.000000 0.000000 
#    y 0.000000 1.707770 0.000000 
#    z 0.000000 0.000000 1.960800 
# 
# From -- ./inp_files/255.got.cif
#   From: 2010.05.17/outbox.cif.g08.bks.cpg/sg26_1_cif.got.tgz:255.got - 2010.06.04 01:07:29.
