data_PCOD9338919
_publ_section_title
;
Structure prediction by ZEFSAII (Michael W. Deem and Ramdas Pophale) SiO2 
 PCOD9338919
Probable space group: P C C 2
;
_chemical_formula_sum "Si O2"
_cell_formula_units_Z 30
_cell_length_a 16.445509
_cell_length_b 5.731307
_cell_length_c 12.996527
_cell_angle_alpha 90.000000
_cell_angle_beta 90.000000
_cell_angle_gamma 90.000000
_cell_volume 1224.978046
_symmetry_space_group_name_H-M "P C C 2"
_symmetry_group_IT_number 27
_symmetry_cell_setting 'orthorhombic'
loop_
_space_group_symop_operation_xyz
x,y,z
-x,-y,z
-x,y,1/2+z
x,-y,1/2+z
loop_
_atom_site_type_symbol
_atom_site_label
_atom_site_fract_x
_atom_site_fract_y
_atom_site_fract_z
Si Si1 0.284514 0.358090 0.810610
Si Si2 0.646560 0.946809 0.166363
Si Si3 0.749896 0.109934 0.003569
Si Si4 0.866864 0.211867 0.452883
Si Si5 0.500000 0.000000 0.007360
Si Si6 0.183768 0.514321 0.135115
Si Si7 0.393472 0.280330 0.369185
Si Si8 0.957580 0.751465 0.749098
O O1 0.321861 0.162979 0.735833
O O2 0.214350 0.286467 0.889453
O O3 0.237616 0.549010 0.736357
O O4 0.359664 0.460159 0.874003
O O5 0.722945 0.916920 0.088273
O O6 0.575900 0.987272 0.083768
O O7 0.606035 0.774077 0.248245
O O8 0.753897 0.357134 0.059388
O O9 0.681896 0.131264 0.916921
O O10 0.841623 0.056761 0.969336
O O11 0.869210 0.344958 0.561844
O O12 0.938048 0.241069 0.371555
O O13 0.526763 0.207904 0.930213
O O14 0.125105 0.715020 0.184095
O O15 0.000000 0.500000 0.731722
O O16 0.000000 0.000000 0.722970
#
# Coordination Sequence:
#
# PCOD9338919 Si02
#       8
#     4   4   4   4   2   4   4   4
#     4  10  21  39  69 100 129 171 231 308 355 405
#     4  10  21  41  61  91 133 172 221 282 359 415
#     4  10  21  37  69 101 124 171 229 300 348 413
#     4  11  22  42  73 103 132 180 244 292 360 424
#     4  10  24  40  60  90 134 188 222 266 356 446
#     4  10  23  42  69 104 138 179 242 297 361 420
#     4  11  20  40  66  91 136 171 227 290 354 420
#     4  11  29  50  68 104 156 198 236 291 366 455
#
# _framework density 24.490234999999998
#
# number of rings (size 3 to 8) (size 9 to 14) (size 15 to 20)
#    0.000    1.600    2.667    1.200    3.733    0.533 
#    0.000    4.000    0.000    0.000    0.000    0.000 
#    0.000    0.000    0.000    0.000    0.000    0.000 
#
# Total GULP energy -167113.651988 kJ/mol
# GULP energy per Si atom -5570.455066 kJ/mol
# Density = 2.443449 g / cm^3
# Si number density = 24.490235 Si / 1000 Ang^3
#
#
#
# Elastic Constant Matrix: (Units=GPa)
#
#
# Indices 1 2 3 4 5 6 
#
# 1 74.4633 23.3688 34.3948 0.0000 0.0000 0.0000
# 2 23.3688 52.0602 26.8705 0.0000 0.0000 0.0000
# 3 34.3948 26.8705 102.6302 0.0000 0.0000 0.0000
# 4 0.0000 0.0000 0.0000 40.5872 0.0000 0.0000
# 5 0.0000 0.0000 0.0000 0.0000 35.5108 0.0000
# 6 0.0000 0.0000 0.0000 0.0000 0.0000 37.7375
#
#
#
# Elastic Compliance Matrix: (Units=1/GPa)
#
#
# Indices 1 2 3 4 5 6 
#
# 1 0.017137 -0.005467 -0.004312 0.000000 0.000000 0.000000
# 2 -0.005467 0.023954 -0.004439 0.000000 0.000000 0.000000
# 3 -0.004312 -0.004439 0.012351 0.000000 0.000000 0.000000
# 4 0.000000 0.000000 0.000000 0.024638 0.000000 0.000000
# 5 0.000000 0.000000 0.000000 0.000000 0.028160 0.000000
# 6 0.000000 0.000000 0.000000 0.000000 0.000000 0.026499
#
#
# Mechanical properties :
#
#
# Convention : Reuss Voigt Hill
#
# Bulk Modulus (GPa) = 39.99113 44.26909 42.13011
# Shear Modulus (GPa) = 29.49671 32.40176 30.94923
#
# Velocity S-wave (km/s) = 3.47425 3.64132 3.55877
# Velocity P-wave (km/s) = 5.69726 5.98284 5.84180
#
# Compressibility (1/GPa) = 0.02500555
#
# Stress axis : x y z
#
# Youngs Moduli (GPa) = 58.35429 41.74695 80.96468
#
# Poissons Ratio (x) = 0.22822 0.34910
# Poissons Ratio (y) = 0.31901 0.35944
# Poissons Ratio (z) = 0.25161 0.18533
#
# Static dielectric constant tensor:
#      x y z
#    x 1.977280 0.000000 0.000000 
#    y 0.000000 2.138860 0.000000 
#    z 0.000000 0.000000 1.965700 
# 
# From -- ./inp_files/3759.got.cif
#   From: 2010.05.17/outbox.cif.g08.bks.cpg/sg27_2_cif.got.tgz:3759.got - 2010.06.04 01:11:05.
