data_PCOD9338298
_publ_section_title
;
Structure prediction by ZEFSAII (Michael W. Deem and Ramdas Pophale) SiO2 
 PCOD9338298
Probable space group: P M C 21
;
_chemical_formula_sum "Si O2"
_cell_formula_units_Z 32
_cell_length_a 7.653576
_cell_length_b 12.710678
_cell_length_c 14.400157
_cell_angle_alpha 90.000000
_cell_angle_beta 90.000000
_cell_angle_gamma 90.000000
_cell_volume 1400.878091
_symmetry_space_group_name_H-M "P M C 21"
_symmetry_group_IT_number 26
_symmetry_cell_setting 'orthorhombic'
loop_
_space_group_symop_operation_xyz
x,y,z
-x,-y,1/2+z
-x,y,z
x,-y,1/2+z
loop_
_atom_site_type_symbol
_atom_site_label
_atom_site_fract_x
_atom_site_fract_y
_atom_site_fract_z
Si Si1 0.292098 0.914802 0.674530
Si Si2 0.800699 0.734565 0.345737
Si Si3 0.785569 0.585241 0.508152
Si Si4 0.712672 0.064092 0.957715
Si Si5 0.300628 0.166103 0.464098
Si Si6 0.209153 0.676057 0.705393
Si Si7 0.206561 0.147478 0.674814
Si Si8 0.799708 0.610723 0.899634
O O1 0.500000 0.919652 0.680571
O O2 0.240952 0.915319 0.565357
O O3 0.238307 0.801749 0.714281
O O4 0.227043 0.027545 0.711270
O O5 0.723600 0.654817 0.420425
O O6 0.798181 0.845815 0.398131
O O7 0.722872 0.765473 0.246431
O O8 0.000000 0.699554 0.328867
O O9 0.723698 0.631545 0.606726
O O10 0.730304 0.467785 0.478617
O O11 0.000000 0.592388 0.512757
O O12 0.500000 0.069366 0.950045
O O13 0.767750 0.946477 0.930181
O O14 0.500000 0.177260 0.431769
O O15 0.296898 0.155377 0.575498
O O16 0.202942 0.270089 0.434775
O O17 0.280409 0.615816 0.796315
O O18 0.000000 0.661761 0.705251
O O19 0.000000 0.165414 0.661331
O O20 0.000000 0.576335 0.887085
#
# Coordination Sequence:
#
# PCOD9338298 Si02
#       8
#     4   4   4   4   4   4   4   4
#     4  10  20  35  55  82 118 158 195 239 293 349
#     4  10  20  34  57  87 116 150 192 238 289 342
#     4   9  19  38  60  85 118 153 193 247 298 344
#     4   9  19  34  53  79 112 151 189 231 287 346
#     4  10  22  40  57  81 118 158 194 238 297 351
#     4  10  20  36  60  86 113 152 197 245 296 350
#     4  10  21  35  56  88 121 157 197 242 291 349
#     4  10  22  38  60  88 114 151 201 246 295 353
#
# _framework density 22.842815999999999
#
# number of rings (size 3 to 8) (size 9 to 14) (size 15 to 20)
#    0.000    2.250    1.250    1.875    1.750    5.000 
#    0.000    5.000    0.000    1.500    0.000    0.000 
#    0.000    0.000    0.000    0.000    0.000    0.000 
#
# Total GULP energy -178622.285088 kJ/mol
# GULP energy per Si atom -5581.946409 kJ/mol
# Density = 2.279082 g / cm^3
# Si number density = 22.842816 Si / 1000 Ang^3
#
#
#
# Elastic Constant Matrix: (Units=GPa)
#
#
# Indices 1 2 3 4 5 6 
#
# 1 43.6955 -3.1500 -5.0949 0.0000 0.0000 0.0000
# 2 -3.1500 87.5277 20.7161 0.0000 0.0000 0.0000
# 3 -5.0949 20.7161 64.9990 0.0000 0.0000 0.0000
# 4 0.0000 0.0000 0.0000 30.5327 0.0000 0.0000
# 5 0.0000 0.0000 0.0000 0.0000 185.1879 0.0000
# 6 0.0000 0.0000 0.0000 0.0000 0.0000 30.6348
#
#
#
# Elastic Compliance Matrix: (Units=1/GPa)
#
#
# Indices 1 2 3 4 5 6 
#
# 1 0.023112 0.000436 0.001673 0.000000 0.000000 0.000000
# 2 0.000436 0.012365 -0.003907 0.000000 0.000000 0.000000
# 3 0.001673 -0.003907 0.016761 0.000000 0.000000 0.000000
# 4 0.000000 0.000000 0.000000 0.032752 0.000000 0.000000
# 5 0.000000 0.000000 0.000000 0.000000 0.005400 0.000000
# 6 0.000000 0.000000 0.000000 0.000000 0.000000 0.032643
#
#
# Mechanical properties :
#
#
# Convention : Reuss Voigt Hill
#
# Bulk Modulus (GPa) = 20.55835 24.57386 22.56610
# Shear Modulus (GPa) = 35.00336 61.52113 48.26224
#
# Velocity S-wave (km/s) = 3.91878 5.19527 4.60150
# Velocity P-wave (km/s) = 5.43095 6.83878 6.17512
#
# Compressibility (1/GPa) = 0.04864204
#
# Stress axis : x y z
#
# Youngs Moduli (GPa) = 43.26734 80.87138 59.66186
#
# Poissons Ratio (x) = -0.03525 -0.09980
# Poissons Ratio (y) = -0.01886 0.23309
# Poissons Ratio (z) = -0.07237 0.31595
#
# Static dielectric constant tensor:
#      x y z
#    x 1.732480 0.000000 0.000000 
#    y 0.000000 1.832670 0.000000 
#    z 0.000000 0.000000 1.886090 
# 
# From -- ./inp_files/4177.got.cif
#   From: 2010.05.17/outbox.cif.g08.bks.cpg/sg26_3_cif.got.tgz:4177.got - 2010.06.04 01:07:29.
