data_PCOD9338210
_publ_section_title
;
Structure prediction by ZEFSAII (Michael W. Deem and Ramdas Pophale) SiO2 
 PCOD9338210
Probable space group: P M C 21
;
_chemical_formula_sum "Si O2"
_cell_formula_units_Z 24
_cell_length_a 8.254193
_cell_length_b 4.896336
_cell_length_c 25.517760
_cell_angle_alpha 90.000000
_cell_angle_beta 90.000000
_cell_angle_gamma 90.000000
_cell_volume 1031.307985
_symmetry_space_group_name_H-M "P M C 21"
_symmetry_group_IT_number 26
_symmetry_cell_setting 'orthorhombic'
loop_
_space_group_symop_operation_xyz
x,y,z
-x,-y,1/2+z
-x,y,z
x,-y,1/2+z
loop_
_atom_site_type_symbol
_atom_site_label
_atom_site_fract_x
_atom_site_fract_y
_atom_site_fract_z
Si Si1 0.313729 0.605109 0.127570
Si Si2 0.187694 0.885078 0.685832
Si Si3 0.687965 0.412056 0.289824
Si Si4 0.809707 0.092535 0.849499
Si Si5 0.196572 0.370271 0.956236
Si Si6 0.195669 0.129095 0.520896
O O1 0.500000 0.520127 0.129470
O O2 0.279651 0.838989 0.170708
O O3 0.271847 0.748688 0.072885
O O4 0.207844 0.338293 0.139580
O O5 0.256829 0.733614 0.736597
O O6 0.280149 0.816360 0.834195
O O7 0.000000 0.950869 0.693371
O O8 0.500000 0.485107 0.287067
O O9 0.787425 0.682795 0.303941
O O10 0.746624 0.242016 0.901833
O O11 0.000000 0.026163 0.855857
O O12 0.000000 0.364836 0.953102
O O13 0.244832 0.173430 0.004159
O O14 0.240517 0.675296 0.972023
O O15 0.000000 0.135830 0.527138
#
# Coordination Sequence:
#
# PCOD9338210 Si02
#       6
#     4   4   4   4   4   4
#     4  12  25  42  63  94 129 161 198 255 316 365
#     4  12  25  44  67  91 119 163 212 253 298 367
#     4  12  25  42  62  92 129 163 198 253 316 367
#     4  11  22  41  66  93 122 163 212 255 298 361
#     4   9  19  35  60  88 118 156 206 255 294 344
#     4  10  19  36  60  88 119 160 206 249 296 358
#
# _framework density 23.271421
#
# number of rings (size 3 to 8) (size 9 to 14) (size 15 to 20)
#    0.000    1.000    0.000    8.000    0.000    4.000 
#    0.000    5.000    0.000    0.000    0.000    0.000 
#    0.000    0.000    0.000    0.000    0.000    0.000 
#
# Total GULP energy -134446.810553 kJ/mol
# GULP energy per Si atom -5601.950440 kJ/mol
# Density = 2.321845 g / cm^3
# Si number density = 23.271421 Si / 1000 Ang^3
#
#
#
# Elastic Constant Matrix: (Units=GPa)
#
#
# Indices 1 2 3 4 5 6 
#
# 1 58.1897 -12.0805 -0.1112 0.0000 0.0000 0.0000
# 2 -12.0805 79.0888 -13.0771 0.0000 0.0000 0.0000
# 3 -0.1112 -13.0771 65.6794 0.0000 0.0000 0.0000
# 4 0.0000 0.0000 0.0000 37.1456 0.0000 0.0000
# 5 0.0000 0.0000 0.0000 0.0000 -25.3850 0.0000
# 6 0.0000 0.0000 0.0000 0.0000 0.0000 18.4531
#
#
#
# Elastic Compliance Matrix: (Units=1/GPa)
#
#
# Indices 1 2 3 4 5 6 
#
# 1 0.017770 0.002812 0.000590 0.000000 0.000000 0.000000
# 2 0.002812 0.013519 0.002697 0.000000 0.000000 0.000000
# 3 0.000590 0.002697 0.015763 0.000000 0.000000 0.000000
# 4 0.000000 0.000000 0.000000 0.026921 0.000000 0.000000
# 5 0.000000 0.000000 0.000000 0.000000 -0.039393 0.000000
# 6 0.000000 0.000000 0.000000 0.000000 0.000000 0.054191
#
#
# Mechanical properties :
#
#
# Convention : Reuss Voigt Hill
#
# Bulk Modulus (GPa) = 16.87779 16.93558 16.90669
# Shear Modulus (GPa) = 51.90758 21.25785 36.58271
#
# Velocity S-wave (km/s) = 4.72797 3.02565 3.96915
# Velocity P-wave (km/s) = 6.08878 4.41580 5.31849
#
# Compressibility (1/GPa) = 0.05924946
#
# Stress axis : x y z
#
# Youngs Moduli (GPa) = 56.27448 73.96786 63.43819
#
# Poissons Ratio (x) = -0.20799 -0.03742
# Poissons Ratio (y) = -0.15823 -0.17106
# Poissons Ratio (z) = -0.03320 -0.19946
#
# Static dielectric constant tensor:
#      x y z
#    x 1.855000 0.000000 0.000000 
#    y 0.000000 1.824380 0.000000 
#    z 0.000000 0.000000 1.924710 
# 
# From -- ./inp_files/5486.got.cif
#   From: 2010.05.17/outbox.cif.g08.bks.cpg/sg26_3_cif.got.tgz:5486.got - 2010.06.04 01:07:29.
