data_PCOD9338802
_publ_section_title
;
Structure prediction by ZEFSAII (Michael W. Deem and Ramdas Pophale) SiO2 
 PCOD9338802
Probable space group: P C C 2
;
_chemical_formula_sum "Si O2"
_cell_formula_units_Z 32
_cell_length_a 7.947875
_cell_length_b 14.374936
_cell_length_c 12.954557
_cell_angle_alpha 90.000000
_cell_angle_beta 90.000000
_cell_angle_gamma 90.000000
_cell_volume 1480.060656
_symmetry_space_group_name_H-M "P C C 2"
_symmetry_group_IT_number 27
_symmetry_cell_setting 'orthorhombic'
loop_
_space_group_symop_operation_xyz
x,y,z
-x,-y,z
-x,y,1/2+z
x,-y,1/2+z
loop_
_atom_site_type_symbol
_atom_site_label
_atom_site_fract_x
_atom_site_fract_y
_atom_site_fract_z
Si Si1 0.724285 0.166572 0.021850
Si Si2 0.683493 0.230549 0.395616
Si Si3 0.239476 0.361653 0.201859
Si Si4 0.325119 0.545431 0.129095
Si Si5 0.390224 0.907647 0.823101
Si Si6 0.391174 0.641562 0.922922
Si Si7 0.636504 0.818653 0.115443
Si Si8 0.878085 0.728605 0.699896
O O1 0.548821 0.147061 0.081956
O O2 0.852358 0.191194 0.113423
O O3 0.729795 0.095602 0.924791
O O4 0.700948 0.265424 0.964489
O O5 0.534033 0.169755 0.345061
O O6 0.587008 0.328773 0.413383
O O7 0.732362 0.186688 0.506003
O O8 0.828847 0.236825 0.313209
O O9 0.206197 0.457050 0.143043
O O10 0.306709 0.382833 0.315487
O O11 0.371911 0.289477 0.151038
O O12 0.067587 0.305156 0.201056
O O13 0.500000 0.500000 0.172221
O O14 0.245207 0.639469 0.176572
O O15 0.359573 0.567273 0.010456
O O16 0.306861 0.878331 0.714218
O O17 0.500000 0.000000 0.814672
#
# Coordination Sequence:
#
# PCOD9338802 Si02
#       8
#     4   4   4   4   4   4   4   4
#     4   9  18  38  61  86 122 156 201 259 306 370
#     4  10  20  38  61  89 122 164 204 255 316 377
#     4  12  22  38  61  88 125 169 209 258 309 380
#     4  11  23  38  60  85 119 161 220 273 309 355
#     4  10  19  35  68 100 117 150 206 268 310 359
#     4   9  19  37  60  80 114 160 206 259 309 360
#     4  10  19  37  62  88 120 155 205 252 313 365
#     4  11  23  39  58  89 125 169 209 246 310 379
#
# _framework density 21.620736000000001
#
# number of rings (size 3 to 8) (size 9 to 14) (size 15 to 20)
#    0.000    2.000    3.750    3.375    0.000    6.500 
#    0.000    3.750    0.000    0.750    0.000    0.000 
#    0.000    0.000    0.000    0.000    0.000    0.000 
#
# Total GULP energy -178402.467323 kJ/mol
# GULP energy per Si atom -5575.077104 kJ/mol
# Density = 2.157153 g / cm^3
# Si number density = 21.620736 Si / 1000 Ang^3
#
#
#
# Elastic Constant Matrix: (Units=GPa)
#
#
# Indices 1 2 3 4 5 6 
#
# 1 50.7345 3.7647 37.5829 0.0000 0.0000 0.0000
# 2 3.7647 52.5839 44.3532 0.0000 0.0000 0.0000
# 3 37.5829 44.3532 178.3733 0.0000 0.0000 0.0000
# 4 0.0000 0.0000 0.0000 12.4931 0.0000 0.0000
# 5 0.0000 0.0000 0.0000 0.0000 5.3710 0.0000
# 6 0.0000 0.0000 0.0000 0.0000 0.0000 23.0813
#
#
#
# Elastic Compliance Matrix: (Units=1/GPa)
#
#
# Indices 1 2 3 4 5 6 
#
# 1 0.023772 0.003192 -0.005802 0.000000 0.000000 0.000000
# 2 0.003192 0.024493 -0.006763 0.000000 0.000000 0.000000
# 3 -0.005802 -0.006763 0.008510 0.000000 0.000000 0.000000
# 4 0.000000 0.000000 0.000000 0.080044 0.000000 0.000000
# 5 0.000000 0.000000 0.000000 0.000000 0.186186 0.000000
# 6 0.000000 0.000000 0.000000 0.000000 0.000000 0.043325
#
#
# Mechanical properties :
#
#
# Convention : Reuss Voigt Hill
#
# Bulk Modulus (GPa) = 26.29558 50.34369 38.31963
# Shear Modulus (GPa) = 12.57061 21.25512 16.91287
#
# Velocity S-wave (km/s) = 2.41387 3.13883 2.79991
# Velocity P-wave (km/s) = 4.46740 6.03919 5.31175
#
# Compressibility (1/GPa) = 0.03802921
#
# Stress axis : x y z
#
# Youngs Moduli (GPa) = 42.06649 40.82795 117.50326
#
# Poissons Ratio (x) = -0.13033 0.68181
# Poissons Ratio (y) = -0.13429 0.79466
# Poissons Ratio (z) = 0.24409 0.27611
#
# Static dielectric constant tensor:
#      x y z
#    x 1.831900 0.000000 0.000000 
#    y 0.000000 1.843710 0.000000 
#    z 0.000000 0.000000 1.836310 
# 
# From -- ./inp_files/2452.got.cif
#   From: 2010.05.17/outbox.cif.g08.bks.cpg/sg27_2_cif.got.tgz:2452.got - 2010.06.04 01:11:05.
