data_PCOD9338201
_publ_section_title
;
Structure prediction by ZEFSAII (Michael W. Deem and Ramdas Pophale) SiO2 
 PCOD9338201
Probable space group: P M C 21
;
_chemical_formula_sum "Si O2"
_cell_formula_units_Z 32
_cell_length_a 13.989348
_cell_length_b 13.829099
_cell_length_c 9.654185
_cell_angle_alpha 90.000000
_cell_angle_beta 90.000000
_cell_angle_gamma 90.000000
_cell_volume 1867.699387
_symmetry_space_group_name_H-M "P M C 21"
_symmetry_group_IT_number 26
_symmetry_cell_setting 'orthorhombic'
loop_
_space_group_symop_operation_xyz
x,y,z
-x,-y,1/2+z
-x,y,z
x,-y,1/2+z
loop_
_atom_site_type_symbol
_atom_site_label
_atom_site_fract_x
_atom_site_fract_y
_atom_site_fract_z
Si Si1 0.111145 0.133329 0.162350
Si Si2 0.709154 0.731831 0.614334
Si Si3 0.388902 0.619569 0.851897
Si Si4 0.702565 0.911333 0.250738
Si Si5 0.389271 0.602543 0.395430
Si Si6 0.889948 0.975240 0.377337
Si Si7 0.606962 0.272224 0.635038
Si Si8 0.388002 0.928915 0.554304
O O1 0.187300 0.217633 0.130109
O O2 0.128512 0.082105 0.312025
O O3 0.000000 0.164953 0.157936
O O4 0.121316 0.051911 0.039667
O O5 0.681731 0.658850 0.736222
O O6 0.684004 0.670439 0.477604
O O7 0.636896 0.823035 0.613073
O O8 0.500000 0.618794 0.802686
O O9 0.368205 0.510832 0.902111
O O10 0.382056 0.691985 0.980287
O O11 0.677733 0.809880 0.183023
O O12 0.644549 0.927991 0.394006
O O13 0.812274 0.913029 0.296355
O O14 0.671657 0.993953 0.143098
O O15 0.500000 0.618445 0.443900
O O16 0.386564 0.636438 0.236609
O O17 0.000000 0.953774 0.342023
O O18 0.500000 0.230763 0.653108
O O19 0.500000 0.949733 0.564879
#
# Coordination Sequence:
#
# PCOD9338201 Si02
#       8
#     4   4   4   4   4   4   4   4
#     4  10  21  37  58  82 108 143 187 234 280 325
#     4  12  21  36  58  81 110 143 186 231 274 332
#     4  10  22  35  54  82 108 142 184 230 275 326
#     4  12  22  37  51  77 111 149 182 221 267 327
#     4  10  19  36  57  79 109 143 183 226 272 325
#     4  10  19  36  56  78 106 143 190 234 270 313
#     4  10  20  34  51  74 110 146 180 220 268 326
#     4  12  24  35  51  77 114 153 182 212 264 334
#
# _framework density 17.133379999999999
#
# number of rings (size 3 to 8) (size 9 to 14) (size 15 to 20)
#    0.000    1.250    3.750    3.000    1.750    3.000 
#    0.000    0.000    0.000    0.750    0.000    1.750 
#    0.000    0.000    0.000    0.000    0.000    0.000 
#
# Total GULP energy -178507.543444 kJ/mol
# GULP energy per Si atom -5578.360733 kJ/mol
# Density = 1.709438 g / cm^3
# Si number density = 17.133380 Si / 1000 Ang^3
#
#
#
# Elastic Constant Matrix: (Units=GPa)
#
#
# Indices 1 2 3 4 5 6 
#
# 1 79.1592 15.5113 3.8479 0.0000 0.0000 0.0000
# 2 15.5113 60.6627 1.2588 0.0000 0.0000 0.0000
# 3 3.8479 1.2588 21.4949 0.0000 0.0000 0.0000
# 4 0.0000 0.0000 0.0000 24.3863 0.0000 0.0000
# 5 0.0000 0.0000 0.0000 0.0000 19.9166 0.0000
# 6 0.0000 0.0000 0.0000 0.0000 0.0000 19.8396
#
#
#
# Elastic Compliance Matrix: (Units=1/GPa)
#
#
# Indices 1 2 3 4 5 6 
#
# 1 0.013402 -0.003381 -0.002201 0.000000 0.000000 0.000000
# 2 -0.003381 0.017358 -0.000411 0.000000 0.000000 0.000000
# 3 -0.002201 -0.000411 0.046941 0.000000 0.000000 0.000000
# 4 0.000000 0.000000 0.000000 0.041007 0.000000 0.000000
# 5 0.000000 0.000000 0.000000 0.000000 0.050209 0.000000
# 6 0.000000 0.000000 0.000000 0.000000 0.000000 0.050404
#
#
# Mechanical properties :
#
#
# Convention : Reuss Voigt Hill
#
# Bulk Modulus (GPa) = 15.21757 22.50585 18.86171
# Shear Modulus (GPa) = 19.74622 22.20841 20.97732
#
# Velocity S-wave (km/s) = 3.39853 3.60419 3.50287
# Velocity P-wave (km/s) = 4.92962 5.52127 5.23381
#
# Compressibility (1/GPa) = 0.06571353
#
# Stress axis : x y z
#
# Youngs Moduli (GPa) = 74.61385 57.61125 21.30342
#
# Poissons Ratio (x) = 0.19480 0.04689
# Poissons Ratio (y) = 0.25229 0.00876
# Poissons Ratio (z) = 0.16424 0.02369
#
# Static dielectric constant tensor:
#      x y z
#    x 1.584790 0.000000 0.000000 
#    y 0.000000 1.567420 0.000000 
#    z 0.000000 0.000000 1.614860 
# 
# From -- ./inp_files/2239.got.cif
#   From: 2010.05.17/outbox.cif.g08.bks.cpg/sg26_2_cif.got.tgz:2239.got - 2010.06.04 01:07:29.
