data_PCOD9338621
_publ_section_title
;
Structure prediction by ZEFSAII (Michael W. Deem and Ramdas Pophale) SiO2 
 PCOD9338621
Probable space group: P M C 21
;
_chemical_formula_sum "Si O2"
_cell_formula_units_Z 20
_cell_length_a 14.318483
_cell_length_b 4.832236
_cell_length_c 10.816733
_cell_angle_alpha 90.000000
_cell_angle_beta 90.000000
_cell_angle_gamma 90.000000
_cell_volume 748.412883
_symmetry_space_group_name_H-M "P M C 21"
_symmetry_group_IT_number 26
_symmetry_cell_setting 'orthorhombic'
loop_
_space_group_symop_operation_xyz
x,y,z
-x,-y,1/2+z
-x,y,z
x,-y,1/2+z
loop_
_atom_site_type_symbol
_atom_site_label
_atom_site_fract_x
_atom_site_fract_y
_atom_site_fract_z
Si Si1 0.334308 0.760615 0.280410
Si Si2 0.796028 0.378713 0.118050
Si Si3 0.000000 0.495813 0.208862
Si Si4 0.795186 0.894067 0.953129
Si Si5 0.000000 0.202127 0.454102
Si Si6 0.500000 0.844555 0.109741
Si Si7 0.500000 0.342794 0.949599
O O1 0.270347 0.536127 0.212602
O O2 0.271479 0.987591 0.349009
O O3 0.408152 0.900198 0.187813
O O4 0.405179 0.607559 0.375273
O O5 0.900566 0.364160 0.171752
O O6 0.769902 0.075937 0.073178
O O7 0.793424 0.575973 0.995718
O O8 0.000000 0.740321 0.102967
O O9 0.000000 0.466677 0.359133
O O10 0.903882 0.952762 0.924186
O O11 0.500000 0.523967 0.072299
O O12 0.500000 0.021834 0.986260
#
# Coordination Sequence:
#
# PCOD9338621 Si02
#       7
#     4   4   2   4   2   2   2
#     4  11  26  44  79 104 145 200 245 318 383 469
#     4  11  26  45  70 109 150 194 255 310 377 450
#     4  10  25  47  76 110 158 210 252 318 374 462
#     4  11  26  46  70 109 149 197 251 315 373 455
#     4  10  25  51  76 114 162 212 260 318 386 458
#     4  11  26  49  70 108 144 189 247 316 386 466
#     4  11  26  49  72 104 150 185 251 310 394 458
#
# _framework density 26.723213999999999
#
# number of rings (size 3 to 8) (size 9 to 14) (size 15 to 20)
#    0.000    1.200    0.000    3.000    8.400    7.200 
#    0.000    0.000    0.000    0.000    0.000    0.000 
#    0.000    0.000    0.000    0.000    0.000    0.000 
#
# Total GULP energy -112103.692872 kJ/mol
# GULP energy per Si atom -5605.184644 kJ/mol
# Density = 2.666239 g / cm^3
# Si number density = 26.723214 Si / 1000 Ang^3
#
#
#
# Elastic Constant Matrix: (Units=GPa)
#
#
# Indices 1 2 3 4 5 6 
#
# 1 221.4804 34.4503 81.7709 0.0000 0.0000 0.0000
# 2 34.4503 92.9959 28.4482 0.0000 0.0000 0.0000
# 3 81.7709 28.4482 112.6188 0.0000 0.0000 0.0000
# 4 0.0000 0.0000 0.0000 42.7609 0.0000 0.0000
# 5 0.0000 0.0000 0.0000 0.0000 58.5700 0.0000
# 6 0.0000 0.0000 0.0000 0.0000 0.0000 23.0217
#
#
#
# Elastic Compliance Matrix: (Units=1/GPa)
#
#
# Indices 1 2 3 4 5 6 
#
# 1 0.006254 -0.001005 -0.004287 0.000000 0.000000 0.000000
# 2 -0.001005 0.011815 -0.002255 0.000000 0.000000 0.000000
# 3 -0.004287 -0.002255 0.012562 0.000000 0.000000 0.000000
# 4 0.000000 0.000000 0.000000 0.023386 0.000000 0.000000
# 5 0.000000 0.000000 0.000000 0.000000 0.017074 0.000000
# 6 0.000000 0.000000 0.000000 0.000000 0.000000 0.043437
#
#
# Mechanical properties :
#
#
# Convention : Reuss Voigt Hill
#
# Bulk Modulus (GPa) = 64.36201 79.60375 71.98288
# Shear Modulus (GPa) = 37.09152 43.69890 40.39521
#
# Velocity S-wave (km/s) = 3.72961 4.04820 3.89217
# Velocity P-wave (km/s) = 6.53327 7.19051 6.86976
#
# Compressibility (1/GPa) = 0.01553711
#
# Stress axis : x y z
#
# Youngs Moduli (GPa) = 159.89022 84.63588 79.60586
#
# Poissons Ratio (x) = 0.08509 0.34128
# Poissons Ratio (y) = 0.16076 0.17948
# Poissons Ratio (z) = 0.68548 0.19082
#
# Static dielectric constant tensor:
#      x y z
#    x 2.000650 0.000000 0.000000 
#    y 0.000000 2.008230 0.000000 
#    z 0.000000 0.000000 2.192640 
# 
# From -- ./inp_files/3458.got.cif
#   From: 2010.05.17/outbox.cif.g08.bks.cpg/sg26_2_cif.got.tgz:3458.got - 2010.06.04 01:07:29.
