data_PCOD9338456
_publ_section_title
;
Structure prediction by ZEFSAII (Michael W. Deem and Ramdas Pophale) SiO2 
 PCOD9338456
Probable space group: P M C 21
;
_chemical_formula_sum "Si O2"
_cell_formula_units_Z 32
_cell_length_a 15.559914
_cell_length_b 5.390108
_cell_length_c 17.598743
_cell_angle_alpha 90.000000
_cell_angle_beta 90.000000
_cell_angle_gamma 90.000000
_cell_volume 1475.999834
_symmetry_space_group_name_H-M "P M C 21"
_symmetry_group_IT_number 26
_symmetry_cell_setting 'orthorhombic'
loop_
_space_group_symop_operation_xyz
x,y,z
-x,-y,1/2+z
-x,y,z
x,-y,1/2+z
loop_
_atom_site_type_symbol
_atom_site_label
_atom_site_fract_x
_atom_site_fract_y
_atom_site_fract_z
Si Si1 0.828170 0.563260 0.354380
Si Si2 0.900048 0.123923 0.723119
Si Si3 0.675548 0.574233 0.753624
Si Si4 0.909148 0.836201 0.944324
Si Si5 0.238670 0.821863 0.620469
Si Si6 0.600809 0.933136 0.323275
Si Si7 0.730690 0.108955 0.958434
Si Si8 0.910659 0.489300 0.589606
O O1 0.866699 0.792599 0.305675
O O2 0.767297 0.418203 0.296112
O O3 0.903168 0.396138 0.387571
O O4 0.763516 0.627602 0.423814
O O5 0.906190 0.374367 0.672990
O O6 0.000000 0.023691 0.724653
O O7 0.822720 0.977691 0.678688
O O8 0.698981 0.641285 0.667216
O O9 0.638124 0.301979 0.774407
O O10 0.618685 0.803775 0.782685
O O11 0.000000 0.972303 0.931581
O O12 0.817099 0.959850 0.938990
O O13 0.911059 0.732380 0.030055
O O14 0.286941 0.938272 0.547728
O O15 0.168331 0.661876 0.576112
O O16 0.500000 0.893756 0.333809
O O17 0.651491 0.948983 0.403111
O O18 0.000000 0.631342 0.580129
#
# Coordination Sequence:
#
# PCOD9338456 Si02
#       8
#     4   4   4   4   4   4   4   4
#     4  11  22  41  59  91 132 181 238 289 342 406
#     4  11  23  37  56  88 135 194 248 290 336 398
#     4  11  24  43  74 102 134 178 224 282 359 424
#     4  11  22  37  58  93 138 182 232 285 340 410
#     4  12  22  40  63  92 137 179 236 292 353 419
#     4  11  25  50  76 105 138 173 225 290 363 438
#     4  11  24  40  67  98 131 181 227 287 355 414
#     4  10  21  36  56  85 129 184 232 279 340 397
#
# _framework density 21.680219000000001
#
# number of rings (size 3 to 8) (size 9 to 14) (size 15 to 20)
#    0.000    1.000    5.000    2.625    0.000    1.500 
#    0.000    1.250    0.000    0.000    0.000    0.000 
#    0.000    0.000    0.000    0.000    0.000    0.000 
#
# Total GULP energy -178408.267215 kJ/mol
# GULP energy per Si atom -5575.258350 kJ/mol
# Density = 2.163087 g / cm^3
# Si number density = 21.680219 Si / 1000 Ang^3
#
#
#
# Elastic Constant Matrix: (Units=GPa)
#
#
# Indices 1 2 3 4 5 6 
#
# 1 109.1796 10.4190 33.1981 0.0000 0.0000 0.0000
# 2 10.4190 51.7400 16.5504 0.0000 0.0000 0.0000
# 3 33.1981 16.5504 123.5961 0.0000 0.0000 0.0000
# 4 0.0000 0.0000 0.0000 35.2018 0.0000 0.0000
# 5 0.0000 0.0000 0.0000 0.0000 15.1735 0.0000
# 6 0.0000 0.0000 0.0000 0.0000 0.0000 31.3162
#
#
#
# Elastic Compliance Matrix: (Units=1/GPa)
#
#
# Indices 1 2 3 4 5 6 
#
# 1 0.010046 -0.001212 -0.002536 0.000000 0.000000 0.000000
# 2 -0.001212 0.020338 -0.002398 0.000000 0.000000 0.000000
# 3 -0.002536 -0.002398 0.009093 0.000000 0.000000 0.000000
# 4 0.000000 0.000000 0.000000 0.028408 0.000000 0.000000
# 5 0.000000 0.000000 0.000000 0.000000 0.065905 0.000000
# 6 0.000000 0.000000 0.000000 0.000000 0.000000 0.031932
#
#
# Mechanical properties :
#
#
# Convention : Reuss Voigt Hill
#
# Bulk Modulus (GPa) = 36.78368 44.98342 40.88355
# Shear Modulus (GPa) = 26.72711 31.29484 29.01098
#
# Velocity S-wave (km/s) = 3.51492 3.80343 3.66202
# Velocity P-wave (km/s) = 5.78586 6.33101 6.06457
#
# Compressibility (1/GPa) = 0.02718597
#
# Stress axis : x y z
#
# Youngs Moduli (GPa) = 99.54204 49.16790 109.97257
#
# Poissons Ratio (x) = 0.05958 0.27890
# Poissons Ratio (y) = 0.12062 0.26371
# Poissons Ratio (z) = 0.25245 0.11790
#
# Static dielectric constant tensor:
#      x y z
#    x 1.749540 0.000000 0.000000 
#    y 0.000000 1.924570 0.000000 
#    z 0.000000 0.000000 1.832520 
# 
# From -- ./inp_files/5258.got.cif
#   From: 2010.05.17/outbox.cif.g08.bks.cpg/sg26_3_cif.got.tgz:5258.got - 2010.06.04 01:07:29.
