data_PCOD9338759
_publ_section_title
;
Structure prediction by ZEFSAII (Michael W. Deem and Ramdas Pophale) SiO2 
 PCOD9338759
Probable space group: P C C 2
;
_chemical_formula_sum "Si O2"
_cell_formula_units_Z 24
_cell_length_a 5.126978
_cell_length_b 7.098334
_cell_length_c 25.223061
_cell_angle_alpha 90.000000
_cell_angle_beta 90.000000
_cell_angle_gamma 90.000000
_cell_volume 917.942916
_symmetry_space_group_name_H-M "P C C 2"
_symmetry_group_IT_number 27
_symmetry_cell_setting 'orthorhombic'
loop_
_space_group_symop_operation_xyz
x,y,z
-x,-y,z
-x,y,1/2+z
x,-y,1/2+z
loop_
_atom_site_type_symbol
_atom_site_label
_atom_site_fract_x
_atom_site_fract_y
_atom_site_fract_z
Si Si1 0.032352 0.774206 0.985120
Si Si2 0.450620 0.718044 0.308392
Si Si3 0.061934 0.725352 0.756652
Si Si4 0.561934 0.725352 0.156472
Si Si5 0.950620 0.718044 0.604731
Si Si6 0.532352 0.774206 0.928003
O O1 0.244446 0.705952 0.942758
O O2 0.744446 0.705952 0.970366
O O3 0.129422 0.726140 0.043864
O O4 0.000000 0.000000 0.983123
O O5 0.500000 0.500000 0.293609
O O6 0.744946 0.792862 0.303446
O O7 0.370578 0.726139 0.369260
O O8 0.228765 0.799237 0.269367
O O9 0.250000 0.766484 0.706562
O O10 0.000000 0.500000 0.755015
O O11 0.500000 0.500000 0.158109
O O12 0.271235 0.799237 0.143756
O O13 0.755054 0.792862 0.109678
O O14 0.000000 0.500000 0.619515
O O15 0.500000 0.000000 0.930000
#
# Coordination Sequence:
#
# PCOD9338759 Si02
#       6
#     4   4   4   4   4   4
#     4  10  21  37  55  75 103 142 180 214 262 319
#     4  10  20  32  52  81 106 134 173 217 260 301
#     4  10  18  31  51  78 109 137 169 210 258 312
#     4  10  18  31  51  78 109 137 169 210 258 312
#     4  10  20  32  52  81 106 134 173 217 260 301
#     4  10  21  37  55  75 103 142 180 214 262 319
#
# _framework density 26.145419
#
# number of rings (size 3 to 8) (size 9 to 14) (size 15 to 20)
#    0.000    2.000    0.000    6.000    0.000    1.333 
#    0.000    0.000    0.000    4.000    0.000    9.333 
#    0.000    0.000    0.000    0.000    0.000    0.000 
#
# Total GULP energy -133914.334571 kJ/mol
# GULP energy per Si atom -5579.763940 kJ/mol
# Density = 2.608591 g / cm^3
# Si number density = 26.145419 Si / 1000 Ang^3
#
#
#
# Elastic Constant Matrix: (Units=GPa)
#
#
# Indices 1 2 3 4 5 6 
#
# 1 225.3299 10.3674 66.3830 0.0000 0.0000 0.0000
# 2 10.3674 97.7674 -20.9144 0.0000 0.0000 0.0000
# 3 66.3830 -20.9144 127.4364 0.0000 0.0000 0.0000
# 4 0.0000 0.0000 0.0000 12.5271 0.0000 0.0000
# 5 0.0000 0.0000 0.0000 0.0000 45.6446 0.0000
# 6 0.0000 0.0000 0.0000 0.0000 0.0000 -15.2858
#
#
#
# Elastic Compliance Matrix: (Units=1/GPa)
#
#
# Indices 1 2 3 4 5 6 
#
# 1 0.005378 -0.001212 -0.003000 0.000000 0.000000 0.000000
# 2 -0.001212 0.010874 0.002416 0.000000 0.000000 0.000000
# 3 -0.003000 0.002416 0.009806 0.000000 0.000000 0.000000
# 4 0.000000 0.000000 0.000000 0.079827 0.000000 0.000000
# 5 0.000000 0.000000 0.000000 0.000000 0.021908 0.000000
# 6 0.000000 0.000000 0.000000 0.000000 0.000000 -0.065420
#
#
# Mechanical properties :
#
#
# Convention : Reuss Voigt Hill
#
# Bulk Modulus (GPa) = 44.51353 62.46729 53.49041
# Shear Modulus (GPa) = 68.07009 34.89036 51.48023
#
# Velocity S-wave (km/s) = 5.10800 3.65701 4.44215
# Velocity P-wave (km/s) = 7.20078 6.46341 6.84204
#
# Compressibility (1/GPa) = 0.02246508
#
# Stress axis : x y z
#
# Youngs Moduli (GPa) = 185.95810 91.96505 101.97473
#
# Poissons Ratio (x) = 0.11146 0.30594
# Poissons Ratio (y) = 0.22539 -0.24636
# Poissons Ratio (z) = 0.55790 -0.22218
#
# Static dielectric constant tensor:
#      x y z
#    x 2.034490 0.000000 0.000000 
#    y 0.000000 2.153340 0.000000 
#    z 0.000000 0.000000 2.040620 
# 
# From -- ./inp_files/5191.got.cif
#   From: 2010.05.17/outbox.cif.g08.bks.cpg/sg27_3_cif.got.tgz:5191.got - 2010.06.04 01:11:05.
