data_PCOD9338991
_publ_section_title
;
Structure prediction by ZEFSAII (Michael W. Deem and Ramdas Pophale) SiO2 
 PCOD9338991
Probable space group: P C C 2
;
_chemical_formula_sum "Si O2"
_cell_formula_units_Z 32
_cell_length_a 15.814469
_cell_length_b 8.238579
_cell_length_c 11.072365
_cell_angle_alpha 90.000000
_cell_angle_beta 90.000000
_cell_angle_gamma 90.000000
_cell_volume 1442.604620
_symmetry_space_group_name_H-M "P C C 2"
_symmetry_group_IT_number 27
_symmetry_cell_setting 'orthorhombic'
loop_
_space_group_symop_operation_xyz
x,y,z
-x,-y,z
-x,y,1/2+z
x,-y,1/2+z
loop_
_atom_site_type_symbol
_atom_site_label
_atom_site_fract_x
_atom_site_fract_y
_atom_site_fract_z
Si Si1 0.533884 0.682534 0.298630
Si Si2 0.094886 0.437772 0.018404
Si Si3 0.774670 0.910026 0.757842
Si Si4 0.588479 0.601866 0.535825
Si Si5 0.316260 0.319602 0.133159
Si Si6 0.820695 0.097310 0.524099
Si Si7 0.582817 0.102823 0.221652
Si Si8 0.188311 0.529107 0.264986
O O1 0.500000 0.500000 0.281741
O O2 0.596474 0.686278 0.409101
O O3 0.593096 0.726535 0.186329
O O4 0.457667 0.801383 0.335465
O O5 0.109484 0.241571 0.027190
O O6 0.144027 0.488722 0.895356
O O7 0.000000 0.500000 0.004914
O O8 0.129791 0.508577 0.145338
O O9 0.812962 0.967864 0.886853
O O10 0.675851 0.962578 0.745958
O O11 0.776329 0.713505 0.761634
O O12 0.823805 0.974999 0.638458
O O13 0.500000 0.500000 0.531822
O O14 0.663657 0.477747 0.554425
O O15 0.590156 0.743373 0.633001
O O16 0.257182 0.389224 0.239739
O O17 0.267196 0.191892 0.052735
O O18 0.500000 0.000000 0.184030
#
# Coordination Sequence:
#
# PCOD9338991 Si02
#       8
#     4   4   4   4   4   4   4   4
#     4  11  22  35  56  81 116 170 235 294 347 381
#     4  10  22  44  72 107 135 167 217 276 334 420
#     4  11  24  43  61  94 139 179 229 275 334 411
#     4  11  23  36  59  80 121 174 237 296 345 390
#     4  11  20  40  60  90 122 173 236 293 332 397
#     4  10  26  42  69  95 137 179 220 272 336 412
#     4  12  24  38  53  84 127 175 226 285 338 391
#     4  10  22  38  70 100 133 175 220 275 344 399
#
# _framework density 22.182099000000001
#
# number of rings (size 3 to 8) (size 9 to 14) (size 15 to 20)
#    0.000    1.250    3.750    1.125    8.750    4.500 
#    0.000    0.625    0.000    3.000    0.000    0.000 
#    0.000    0.000    0.000    0.000    0.000    0.000 
#
# Total GULP energy -178346.730927 kJ/mol
# GULP energy per Si atom -5573.335341 kJ/mol
# Density = 2.213161 g / cm^3
# Si number density = 22.182099 Si / 1000 Ang^3
#
#
#
# Elastic Constant Matrix: (Units=GPa)
#
#
# Indices 1 2 3 4 5 6 
#
# 1 90.6871 13.3249 26.5548 0.0000 0.0000 0.0000
# 2 13.3249 48.9586 18.4752 0.0000 0.0000 0.0000
# 3 26.5548 18.4752 130.7616 0.0000 0.0000 0.0000
# 4 0.0000 0.0000 0.0000 18.3207 0.0000 0.0000
# 5 0.0000 0.0000 0.0000 0.0000 28.8391 0.0000
# 6 0.0000 0.0000 0.0000 0.0000 0.0000 25.8252
#
#
#
# Elastic Compliance Matrix: (Units=1/GPa)
#
#
# Indices 1 2 3 4 5 6 
#
# 1 0.012002 -0.002479 -0.002087 0.000000 0.000000 0.000000
# 2 -0.002479 0.022088 -0.002617 0.000000 0.000000 0.000000
# 3 -0.002087 -0.002617 0.008441 0.000000 0.000000 0.000000
# 4 0.000000 0.000000 0.000000 0.054583 0.000000 0.000000
# 5 0.000000 0.000000 0.000000 0.000000 0.034675 0.000000
# 6 0.000000 0.000000 0.000000 0.000000 0.000000 0.038722
#
#
# Mechanical properties :
#
#
# Convention : Reuss Voigt Hill
#
# Bulk Modulus (GPa) = 35.50595 43.01301 39.25948
# Shear Modulus (GPa) = 25.73786 28.73384 27.23585
#
# Velocity S-wave (km/s) = 3.41001 3.60302 3.50784
# Velocity P-wave (km/s) = 5.61654 6.06151 5.84327
#
# Compressibility (1/GPa) = 0.02816429
#
# Stress axis : x y z
#
# Youngs Moduli (GPa) = 83.31720 45.27387 118.46709
#
# Poissons Ratio (x) = 0.11223 0.24726
# Poissons Ratio (y) = 0.20654 0.31007
# Poissons Ratio (z) = 0.17390 0.11850
#
# Static dielectric constant tensor:
#      x y z
#    x 1.983660 0.000000 0.000000 
#    y 0.000000 2.018920 0.000000 
#    z 0.000000 0.000000 1.930090 
# 
# From -- ./inp_files/2786.got.cif
#   From: 2010.05.17/outbox.cif.g08.bks.cpg/sg27_2_cif.got.tgz:2786.got - 2010.06.04 01:11:05.
