data_PCOD9338978
_publ_section_title
;
Structure prediction by ZEFSAII (Michael W. Deem and Ramdas Pophale) SiO2 
 PCOD9338978
Probable space group: P C C 2
;
_chemical_formula_sum "Si O2"
_cell_formula_units_Z 30
_cell_length_a 5.397840
_cell_length_b 11.195897
_cell_length_c 22.730073
_cell_angle_alpha 90.000000
_cell_angle_beta 90.000000
_cell_angle_gamma 90.000000
_cell_volume 1373.661519
_symmetry_space_group_name_H-M "P C C 2"
_symmetry_group_IT_number 27
_symmetry_cell_setting 'orthorhombic'
loop_
_space_group_symop_operation_xyz
x,y,z
-x,-y,z
-x,y,1/2+z
x,-y,1/2+z
loop_
_atom_site_type_symbol
_atom_site_label
_atom_site_fract_x
_atom_site_fract_y
_atom_site_fract_z
Si Si1 0.006658 0.354180 0.784000
Si Si2 0.500000 0.000000 0.679584
Si Si3 0.503307 0.362549 0.844674
Si Si4 0.760676 0.782172 0.182592
Si Si5 0.868608 0.117442 0.960464
Si Si6 0.854252 0.153487 0.095066
Si Si7 0.630604 0.744618 0.961356
Si Si8 0.482372 0.358722 0.587442
O O1 0.774823 0.318932 0.826127
O O2 0.950889 0.287934 0.723188
O O3 0.000000 0.500000 0.277942
O O4 0.268508 0.310702 0.809634
O O5 0.637772 0.104756 0.715557
O O6 0.333499 0.083963 0.637355
O O7 0.500000 0.500000 0.827124
O O8 0.440813 0.353569 0.913292
O O9 0.595104 0.683540 0.149828
O O10 0.887619 0.849049 0.127710
O O11 0.585988 0.156738 0.946573
O O12 0.085761 0.215592 0.952398
O O13 0.847397 0.100064 0.030800
O O14 0.000000 0.000000 0.934180
O O15 0.783754 0.293619 0.088428
O O16 0.601332 0.700398 0.028557
O O17 0.500000 0.500000 0.582342
#
# Coordination Sequence:
#
# PCOD9338978 Si02
#       8
#     4   2   4   4   4   4   4   4
#     4  10  24  40  68  93 124 170 218 262 318 373
#     4  10  22  38  62  86 124 174 222 252 318 380
#     4  10  22  44  67  92 121 169 218 260 304 386
#     4  11  22  39  62  93 128 166 210 271 316 391
#     4  11  22  37  63  92 127 168 210 261 310 385
#     4  10  22  37  59  90 127 173 213 251 315 400
#     4  11  22  41  64  93 127 166 212 260 321 378
#     4  10  23  36  57  97 135 167 196 264 336 386
#
# _framework density 21.83944
#
# number of rings (size 3 to 8) (size 9 to 14) (size 15 to 20)
#    0.000    1.600    1.333    2.800    9.333    0.533 
#    0.000    1.333    5.867    0.000    0.000    0.000 
#    0.000    0.000    0.000    0.000    0.000    0.000 
#
# Total GULP energy -167134.644943 kJ/mol
# GULP energy per Si atom -5571.154831 kJ/mol
# Density = 2.178973 g / cm^3
# Si number density = 21.839440 Si / 1000 Ang^3
#
#
#
# Elastic Constant Matrix: (Units=GPa)
#
#
# Indices 1 2 3 4 5 6 
#
# 1 81.2439 20.4809 8.5576 0.0000 0.0000 0.0000
# 2 20.4809 88.6120 -2.9170 0.0000 0.0000 0.0000
# 3 8.5576 -2.9170 50.2071 0.0000 0.0000 0.0000
# 4 0.0000 0.0000 0.0000 -4.8464 0.0000 0.0000
# 5 0.0000 0.0000 0.0000 0.0000 25.5698 0.0000
# 6 0.0000 0.0000 0.0000 0.0000 0.0000 21.4338
#
#
#
# Elastic Compliance Matrix: (Units=1/GPa)
#
#
# Indices 1 2 3 4 5 6 
#
# 1 0.013367 -0.003171 -0.002463 0.000000 0.000000 0.000000
# 2 -0.003171 0.012059 0.001241 0.000000 0.000000 0.000000
# 3 -0.002463 0.001241 0.020409 0.000000 0.000000 0.000000
# 4 0.000000 0.000000 0.000000 -0.206338 0.000000 0.000000
# 5 0.000000 0.000000 0.000000 0.000000 0.039109 0.000000
# 6 0.000000 0.000000 0.000000 0.000000 0.000000 0.046655
#
#
# Mechanical properties :
#
#
# Convention : Reuss Voigt Hill
#
# Bulk Modulus (GPa) = 26.98979 30.25621 28.62300
# Shear Modulus (GPa) = -93.27705 21.36085 -35.95810
#
# Velocity S-wave (km/s) = -6.54241 3.13083 -4.06208
# Velocity P-wave (km/s) = 6.68473 5.19167 2.97760
#
# Compressibility (1/GPa) = 0.03705105
#
# Stress axis : x y z
#
# Youngs Moduli (GPa) = 74.80938 82.92669 48.99712
#
# Poissons Ratio (x) = 0.26293 0.12066
# Poissons Ratio (y) = 0.23719 -0.06081
# Poissons Ratio (z) = 0.18423 -0.10292
#
# Static dielectric constant tensor:
#      x y z
#    x 1.894810 0.000000 0.000000 
#    y 0.000000 1.855900 0.000000 
#    z 0.000000 0.000000 1.782870 
# 
# From -- ./inp_files/4711.got.cif
#   From: 2010.05.17/outbox.cif.g08.bks.cpg/sg27_3_cif.got.tgz:4711.got - 2010.06.04 01:11:05.
