data_PCOD9338408
_publ_section_title
;
Structure prediction by ZEFSAII (Michael W. Deem and Ramdas Pophale) SiO2 
 PCOD9338408
Probable space group: P M C 21
;
_chemical_formula_sum "Si O2"
_cell_formula_units_Z 20
_cell_length_a 13.180143
_cell_length_b 8.520661
_cell_length_c 7.769123
_cell_angle_alpha 90.000000
_cell_angle_beta 90.000000
_cell_angle_gamma 90.000000
_cell_volume 872.499941
_symmetry_space_group_name_H-M "P M C 21"
_symmetry_group_IT_number 26
_symmetry_cell_setting 'orthorhombic'
loop_
_space_group_symop_operation_xyz
x,y,z
-x,-y,1/2+z
-x,y,z
x,-y,1/2+z
loop_
_atom_site_type_symbol
_atom_site_label
_atom_site_fract_x
_atom_site_fract_y
_atom_site_fract_z
Si Si1 0.831325 0.347588 0.037270
Si Si2 0.317485 0.912760 0.230706
Si Si3 0.390483 0.230385 0.065985
Si Si4 0.891033 0.908094 0.817325
Si Si5 0.837598 0.297856 0.630953
O O1 0.710908 0.333328 0.083495
O O2 0.858909 0.527356 0.067254
O O3 0.615759 0.173804 0.869915
O O4 0.853104 0.308989 0.837378
O O5 0.373308 0.935410 0.661208
O O6 0.277092 0.772728 0.109222
O O7 0.210676 0.986766 0.304295
O O8 0.500000 0.299281 0.110263
O O9 0.118436 0.222104 0.165998
O O10 0.000000 0.990567 0.799653
O O11 0.891890 0.820744 0.000785
#
# Coordination Sequence:
#
# PCOD9338408 Si02
#       5
#     4   4   4   4   4
#     4  10  23  41  65  89 133 166 211 268 316 374
#     4  10  21  40  63  91 128 162 211 275 311 369
#     4  10  20  38  64  92 123 167 212 258 324 382
#     4  11  24  42  64  92 127 172 219 260 319 380
#     4  11  21  43  65  88 129 171 206 265 319 369
#
# _framework density 22.922637000000002
#
# number of rings (size 3 to 8) (size 9 to 14) (size 15 to 20)
#    0.000    1.600    4.000    0.600    0.000    2.400 
#    0.000    5.000    0.000    0.000    0.000    0.000 
#    0.000    0.000    0.000    0.000    0.000    0.000 
#
# Total GULP energy -111534.050664 kJ/mol
# GULP energy per Si atom -5576.702533 kJ/mol
# Density = 2.287046 g / cm^3
# Si number density = 22.922637 Si / 1000 Ang^3
#
#
#
# Elastic Constant Matrix: (Units=GPa)
#
#
# Indices 1 2 3 4 5 6 
#
# 1 127.1426 -9.9962 10.2429 0.0000 0.0000 0.0000
# 2 -9.9962 73.2789 14.3138 0.0000 0.0000 0.0000
# 3 10.2429 14.3138 84.8947 0.0000 0.0000 0.0000
# 4 0.0000 0.0000 0.0000 31.4145 0.0000 0.0000
# 5 0.0000 0.0000 0.0000 0.0000 4.7782 0.0000
# 6 0.0000 0.0000 0.0000 0.0000 0.0000 4.5312
#
#
#
# Elastic Compliance Matrix: (Units=1/GPa)
#
#
# Indices 1 2 3 4 5 6 
#
# 1 0.008067 0.001334 -0.001198 0.000000 0.000000 0.000000
# 2 0.001334 0.014332 -0.002577 0.000000 0.000000 0.000000
# 3 -0.001198 -0.002577 0.012358 0.000000 0.000000 0.000000
# 4 0.000000 0.000000 0.000000 0.031832 0.000000 0.000000
# 5 0.000000 0.000000 0.000000 0.000000 0.209282 0.000000
# 6 0.000000 0.000000 0.000000 0.000000 0.000000 0.220690
#
#
# Mechanical properties :
#
#
# Convention : Reuss Voigt Hill
#
# Bulk Modulus (GPa) = 33.47334 34.93745 34.20540
# Shear Modulus (GPa) = 9.77704 26.19518 17.98611
#
# Velocity S-wave (km/s) = 2.06748 3.38415 2.80419
# Velocity P-wave (km/s) = 4.50930 5.52671 5.04372
#
# Compressibility (1/GPa) = 0.02987452
#
# Stress axis : x y z
#
# Youngs Moduli (GPa) = 123.96736 69.77394 80.91633
#
# Poissons Ratio (x) = -0.09311 0.09696
# Poissons Ratio (y) = -0.16543 0.20856
# Poissons Ratio (z) = 0.14855 0.17984
#
# Static dielectric constant tensor:
#      x y z
#    x 1.920180 0.000000 0.000000 
#    y 0.000000 1.834900 0.000000 
#    z 0.000000 0.000000 1.914090 
# 
# From -- ./inp_files/1744.got.cif
#   From: 2010.05.17/outbox.cif.g08.bks.cpg/sg26_1_cif.got.tgz:1744.got - 2010.06.04 01:07:29.
