data_PCOD9338056
_publ_section_title
;
Structure prediction by ZEFSAII (Michael W. Deem and Ramdas Pophale) SiO2 
 PCOD9338056
Probable space group: P M C 21
;
_chemical_formula_sum "Si O2"
_cell_formula_units_Z 32
_cell_length_a 9.233565
_cell_length_b 7.071846
_cell_length_c 21.133097
_cell_angle_alpha 90.000000
_cell_angle_beta 90.000000
_cell_angle_gamma 90.000000
_cell_volume 1379.956358
_symmetry_space_group_name_H-M "P M C 21"
_symmetry_group_IT_number 26
_symmetry_cell_setting 'orthorhombic'
loop_
_space_group_symop_operation_xyz
x,y,z
-x,-y,1/2+z
-x,y,z
x,-y,1/2+z
loop_
_atom_site_type_symbol
_atom_site_label
_atom_site_fract_x
_atom_site_fract_y
_atom_site_fract_z
Si Si1 0.169174 0.973742 0.770240
Si Si2 0.164468 0.828085 0.516403
Si Si3 0.164645 0.427711 0.739748
Si Si4 0.667628 0.939394 0.396442
Si Si5 0.672424 0.892819 0.644483
Si Si6 0.174254 0.275619 0.616108
Si Si7 0.337730 0.489676 0.359873
Si Si8 0.841086 0.604098 0.973680
O O1 0.171429 0.199909 0.752977
O O2 0.253737 0.964479 0.836607
O O3 0.246590 0.865801 0.711896
O O4 0.000000 0.923149 0.776093
O O5 0.245070 0.951377 0.462688
O O6 0.151232 0.620959 0.486422
O O7 0.000000 0.896679 0.529407
O O8 0.253585 0.807089 0.581423
O O9 0.207794 0.441783 0.666210
O O10 0.252289 0.524366 0.794896
O O11 0.000000 0.487954 0.745867
O O12 0.500000 0.995518 0.403600
O O13 0.665270 0.713243 0.379017
O O14 0.500000 0.858709 0.648119
O O15 0.712399 0.112285 0.631323
O O16 0.190685 0.317535 0.542735
O O17 0.000000 0.231742 0.626555
O O18 0.500000 0.432164 0.348416
O O19 0.272261 0.374781 0.418123
O O20 0.000000 0.669650 0.952600
#
# Coordination Sequence:
#
# PCOD9338056 Si02
#       8
#     4   4   4   4   4   4   4   4
#     4   9  16  28  46  68  93 123 159 200 240 282
#     4  10  19  32  50  72  98 130 164 199 239 288
#     4   8  14  25  43  65  90 118 151 192 236 277
#     4   9  16  27  44  69  97 123 155 199 243 283
#     4  11  21  32  48  72 100 130 161 199 244 288
#     4   9  18  33  51  72  96 124 159 199 240 287
#     4   9  16  25  41  66  95 122 152 191 234 278
#     4   9  18  32  51  72  95 124 159 197 238 283
#
# _framework density 23.189139999999998
#
# number of rings (size 3 to 8) (size 9 to 14) (size 15 to 20)
#    0.000    2.750    0.000    3.375    0.000    7.000 
#    0.000    0.000    0.000    1.500    0.000    3.500 
#    0.000    0.000    0.000    0.000    0.000    0.000 
#
# Total GULP energy -178790.455251 kJ/mol
# GULP energy per Si atom -5587.201727 kJ/mol
# Density = 2.313636 g / cm^3
# Si number density = 23.189140 Si / 1000 Ang^3
#
#
#
# Elastic Constant Matrix: (Units=GPa)
#
#
# Indices 1 2 3 4 5 6 
#
# 1 155.3034 2.7356 101.4194 0.0000 0.0000 0.0000
# 2 2.7356 46.1449 19.6995 0.0000 0.0000 0.0000
# 3 101.4194 19.6995 175.0384 0.0000 0.0000 0.0000
# 4 0.0000 0.0000 0.0000 36.7558 0.0000 0.0000
# 5 0.0000 0.0000 0.0000 0.0000 26.1164 0.0000
# 6 0.0000 0.0000 0.0000 0.0000 0.0000 7.9431
#
#
#
# Elastic Compliance Matrix: (Units=1/GPa)
#
#
# Indices 1 2 3 4 5 6 
#
# 1 0.010546 0.002083 -0.006345 0.000000 0.000000 0.000000
# 2 0.002083 0.023176 -0.003816 0.000000 0.000000 0.000000
# 3 -0.006345 -0.003816 0.009819 0.000000 0.000000 0.000000
# 4 0.000000 0.000000 0.000000 0.027207 0.000000 0.000000
# 5 0.000000 0.000000 0.000000 0.000000 0.038290 0.000000
# 6 0.000000 0.000000 0.000000 0.000000 0.000000 0.125895
#
#
# Mechanical properties :
#
#
# Convention : Reuss Voigt Hill
#
# Bulk Modulus (GPa) = 36.51382 69.35508 52.93445
# Shear Modulus (GPa) = 19.21487 31.00521 25.11004
#
# Velocity S-wave (km/s) = 2.88169 3.66055 3.29422
# Velocity P-wave (km/s) = 5.18194 6.91661 6.11114
#
# Compressibility (1/GPa) = 0.02738689
#
# Stress axis : x y z
#
# Youngs Moduli (GPa) = 94.82515 43.14771 101.84642
#
# Poissons Ratio (x) = -0.08990 0.64620
# Poissons Ratio (y) = -0.19756 0.38860
# Poissons Ratio (z) = 0.60165 0.16463
#
# Static dielectric constant tensor:
#      x y z
#    x 1.799760 0.000000 0.000000 
#    y 0.000000 2.002870 0.000000 
#    z 0.000000 0.000000 1.851040 
# 
# From -- ./inp_files/5057.got.cif
#   From: 2010.05.17/outbox.cif.g08.bks.cpg/sg26_3_cif.got.tgz:5057.got - 2010.06.04 01:07:29.
