data_PCOD9338957
_publ_section_title
;
Structure prediction by ZEFSAII (Michael W. Deem and Ramdas Pophale) SiO2 
 PCOD9338957
Probable space group: P C C 2
;
_chemical_formula_sum "Si O2"
_cell_formula_units_Z 26
_cell_length_a 18.362479
_cell_length_b 5.058764
_cell_length_c 9.712716
_cell_angle_alpha 90.000000
_cell_angle_beta 90.000000
_cell_angle_gamma 90.000000
_cell_volume 902.228250
_symmetry_space_group_name_H-M "P C C 2"
_symmetry_group_IT_number 27
_symmetry_cell_setting 'orthorhombic'
loop_
_space_group_symop_operation_xyz
x,y,z
-x,-y,z
-x,y,1/2+z
x,-y,1/2+z
loop_
_atom_site_type_symbol
_atom_site_label
_atom_site_fract_x
_atom_site_fract_y
_atom_site_fract_z
Si Si1 0.093895 0.707258 0.639820
Si Si2 0.355083 0.288504 0.368669
Si Si3 0.500000 0.500000 0.964429
Si Si4 0.000000 0.500000 0.394217
Si Si5 0.339908 0.205489 0.710101
Si Si6 0.215827 0.553795 0.971763
Si Si7 0.500000 0.000000 0.115054
Si Si8 0.192590 0.055283 0.774091
O O1 0.042316 0.687356 0.504775
O O2 0.163956 0.524793 0.598907
O O3 0.123533 0.997159 0.677624
O O4 0.055124 0.623047 0.782192
O O5 0.439907 0.347936 0.378439
O O6 0.331512 0.489664 0.250467
O O7 0.303635 0.395401 0.491248
O O8 0.345939 0.978580 0.351612
O O9 0.465119 0.261713 0.047648
O O10 0.422257 0.140921 0.659261
O O11 0.262495 0.067103 0.672467
O O12 0.199847 0.305480 0.871948
O O13 0.195736 0.807852 0.879324
#
# Coordination Sequence:
#
# PCOD9338957 Si02
#       8
#     4   4   2   2   4   4   2   4
#     4  11  22  48  79 114 161 196 265 302 403 454
#     4  10  21  41  64  91 132 188 244 299 378 437
#     4  12  24  36  58  96 138 186 242 312 376 450
#     4  10  24  46  84 116 160 208 244 330 386 482
#     4  10  21  41  64  91 133 188 243 304 372 445
#     4  10  23  44  73 107 144 193 254 312 373 457
#     4  12  24  36  56  96 138 180 248 304 384 442
#     4  10  23  44  73 107 142 195 250 315 373 454
#
# _framework density 28.817540999999999
#
# number of rings (size 3 to 8) (size 9 to 14) (size 15 to 20)
#    0.000    1.538    1.538    2.769    2.154    1.231 
#    0.000    2.308    0.000    0.000    0.000    0.000 
#    0.000    0.000    0.000    0.000    0.000    0.000 
#
# Total GULP energy -145147.394105 kJ/mol
# GULP energy per Si atom -5582.592081 kJ/mol
# Density = 2.875195 g / cm^3
# Si number density = 28.817541 Si / 1000 Ang^3
#
#
#
# Elastic Constant Matrix: (Units=GPa)
#
#
# Indices 1 2 3 4 5 6 
#
# 1 8.4083 -193.8459 -153.5002 0.0000 0.0000 0.0000
# 2 -193.8459 -77.5552 -197.7897 0.0000 0.0000 0.0000
# 3 -153.5002 -197.7897 -76.1289 0.0000 0.0000 0.0000
# 4 0.0000 0.0000 0.0000 -17.5306 0.0000 0.0000
# 5 0.0000 0.0000 0.0000 0.0000 10.5793 0.0000
# 6 0.0000 0.0000 0.0000 0.0000 0.0000 33.8127
#
#
#
# Elastic Compliance Matrix: (Units=1/GPa)
#
#
# Indices 1 2 3 4 5 6 
#
# 1 0.004512 -0.002119 -0.003591 0.000000 0.000000 0.000000
# 2 -0.002119 0.003288 -0.004268 0.000000 0.000000 0.000000
# 3 -0.003591 -0.004268 0.005193 0.000000 0.000000 0.000000
# 4 0.000000 0.000000 0.000000 -0.057043 0.000000 0.000000
# 5 0.000000 0.000000 0.000000 0.000000 0.094524 0.000000
# 6 0.000000 0.000000 0.000000 0.000000 0.000000 0.029575
#
#
# Mechanical properties :
#
#
# Convention : Reuss Voigt Hill
#
# Bulk Modulus (GPa) = -143.59487 -137.28306 -140.43896
# Shear Modulus (GPa) = 51.18598 32.02962 41.60780
#
# Velocity S-wave (km/s) = 4.21908 3.33748 3.80391
# Velocity P-wave (km/s) = 5.11888 5.73502 5.43569
#
# Compressibility (1/GPa) = -0.00696404
#
# Stress axis : x y z
#
# Youngs Moduli (GPa) = 221.63317 304.18017 192.57682
#
# Poissons Ratio (x) = 0.64471 0.69153
# Poissons Ratio (y) = 0.46975 0.82186
# Poissons Ratio (z) = 0.79587 1.29815
#
# Static dielectric constant tensor:
#      x y z
#    x 2.470680 0.000000 0.000000 
#    y 0.000000 2.255090 0.000000 
#    z 0.000000 0.000000 2.656420 
# 
# From -- ./inp_files/2836.got.cif
#   From: 2010.05.17/outbox.cif.g08.bks.cpg/sg27_2_cif.got.tgz:2836.got - 2010.06.04 01:11:05.
