data_PCOD9338325
_publ_section_title
;
Structure prediction by ZEFSAII (Michael W. Deem and Ramdas Pophale) SiO2 
 PCOD9338325
Probable space group: P M C 21
;
_chemical_formula_sum "Si O2"
_cell_formula_units_Z 32
_cell_length_a 8.613270
_cell_length_b 12.483762
_cell_length_c 14.141588
_cell_angle_alpha 90.000000
_cell_angle_beta 90.000000
_cell_angle_gamma 90.000000
_cell_volume 1520.588571
_symmetry_space_group_name_H-M "P M C 21"
_symmetry_group_IT_number 26
_symmetry_cell_setting 'orthorhombic'
loop_
_space_group_symop_operation_xyz
x,y,z
-x,-y,1/2+z
-x,y,z
x,-y,1/2+z
loop_
_atom_site_type_symbol
_atom_site_label
_atom_site_fract_x
_atom_site_fract_y
_atom_site_fract_z
Si Si1 0.186867 0.573883 0.634640
Si Si2 0.680264 0.618117 0.030879
Si Si3 0.822086 0.934634 0.613313
Si Si4 0.185058 0.330138 0.336020
Si Si5 0.179873 0.265755 0.974263
Si Si6 0.683792 0.142196 0.808502
Si Si7 0.819182 0.170237 0.603003
Si Si8 0.680731 0.902021 0.813334
O O1 0.236038 0.454098 0.609796
O O2 0.241124 0.622901 0.734676
O O3 0.241042 0.642305 0.543715
O O4 0.000000 0.582636 0.635852
O O5 0.500000 0.593087 0.031669
O O6 0.712123 0.740942 0.057519
O O7 0.747309 0.606036 0.925241
O O8 0.819689 0.839733 0.539510
O O9 0.709227 0.910482 0.700148
O O10 0.000000 0.941607 0.651741
O O11 0.787167 0.049724 0.568352
O O12 0.228607 0.204301 0.344221
O O13 0.000000 0.339105 0.338321
O O14 0.278163 0.233965 0.883546
O O15 0.000000 0.288985 0.947778
O O16 0.500000 0.139345 0.786568
O O17 0.781776 0.163460 0.714341
O O18 0.726400 0.022330 0.845825
O O19 0.000000 0.196545 0.586016
O O20 0.500000 0.885582 0.835214
#
# Coordination Sequence:
#
# PCOD9338325 Si02
#       8
#     4   4   4   4   4   4   4   4
#     4  10  23  45  69  92 122 163 213 263 312 368
#     4  12  27  44  65  95 129 164 208 261 320 381
#     4   9  18  35  59  89 121 161 209 255 307 367
#     4  11  23  43  69  93 121 162 212 264 309 371
#     4  10  20  37  61  92 124 163 213 260 307 371
#     4  10  22  37  56  91 134 175 210 255 318 379
#     4  10  21  40  64  90 123 167 214 260 309 368
#     4  10  20  35  57  90 130 167 205 254 316 375
#
# _framework density 21.044484000000001
#
# number of rings (size 3 to 8) (size 9 to 14) (size 15 to 20)
#    0.000    1.750    1.250    2.625    1.750    5.000 
#    0.000    1.250    0.000    0.000    0.000    0.000 
#    0.000    0.000    0.000    0.000    0.000    0.000 
#
# Total GULP energy -178749.998877 kJ/mol
# GULP energy per Si atom -5585.937465 kJ/mol
# Density = 2.099659 g / cm^3
# Si number density = 21.044484 Si / 1000 Ang^3
#
#
#
# Elastic Constant Matrix: (Units=GPa)
#
#
# Indices 1 2 3 4 5 6 
#
# 1 12.0433 -2.3404 6.2982 0.0000 0.0000 0.0000
# 2 -2.3404 46.4526 7.1261 0.0000 0.0000 0.0000
# 3 6.2982 7.1261 56.8563 0.0000 0.0000 0.0000
# 4 0.0000 0.0000 0.0000 26.4911 0.0000 0.0000
# 5 0.0000 0.0000 0.0000 0.0000 5.9359 0.0000
# 6 0.0000 0.0000 0.0000 0.0000 0.0000 16.4146
#
#
#
# Elastic Compliance Matrix: (Units=1/GPa)
#
#
# Indices 1 2 3 4 5 6 
#
# 1 0.089843 0.006172 -0.010726 0.000000 0.000000 0.000000
# 2 0.006172 0.022373 -0.003488 0.000000 0.000000 0.000000
# 3 -0.010726 -0.003488 0.019213 0.000000 0.000000 0.000000
# 4 0.000000 0.000000 0.000000 0.037748 0.000000 0.000000
# 5 0.000000 0.000000 0.000000 0.000000 0.168466 0.000000
# 6 0.000000 0.000000 0.000000 0.000000 0.000000 0.060921
#
#
# Mechanical properties :
#
#
# Convention : Reuss Voigt Hill
#
# Bulk Modulus (GPa) = 8.66957 15.28000 11.97478
# Shear Modulus (GPa) = 11.03515 16.71955 13.87735
#
# Velocity S-wave (km/s) = 2.29240 2.82172 2.57072
# Velocity P-wave (km/s) = 3.33697 4.22998 3.80973
#
# Compressibility (1/GPa) = 0.11534604
#
# Stress axis : x y z
#
# Youngs Moduli (GPa) = 11.13057 44.69603 52.04674
#
# Poissons Ratio (x) = -0.27586 0.55824
# Poissons Ratio (y) = -0.06870 0.18153
# Poissons Ratio (z) = 0.11938 0.15589
#
# Static dielectric constant tensor:
#      x y z
#    x 1.727870 0.000000 0.000000 
#    y 0.000000 1.755730 0.000000 
#    z 0.000000 0.000000 1.757830 
# 
# From -- ./inp_files/4179.got.cif
#   From: 2010.05.17/outbox.cif.g08.bks.cpg/sg26_3_cif.got.tgz:4179.got - 2010.06.04 01:07:29.
