data_PCOD9338757
_publ_section_title
;
Structure prediction by ZEFSAII (Michael W. Deem and Ramdas Pophale) SiO2 
 PCOD9338757
Probable space group: P C C 2
;
_chemical_formula_sum "Si O2"
_cell_formula_units_Z 22
_cell_length_a 9.924101
_cell_length_b 12.987804
_cell_length_c 8.593014
_cell_angle_alpha 90.000000
_cell_angle_beta 90.000000
_cell_angle_gamma 90.000000
_cell_volume 1107.573155
_symmetry_space_group_name_H-M "P C C 2"
_symmetry_group_IT_number 27
_symmetry_cell_setting 'orthorhombic'
loop_
_space_group_symop_operation_xyz
x,y,z
-x,-y,z
-x,y,1/2+z
x,-y,1/2+z
loop_
_atom_site_type_symbol
_atom_site_label
_atom_site_fract_x
_atom_site_fract_y
_atom_site_fract_z
Si Si1 0.190916 0.188662 0.664570
Si Si2 0.169859 0.598390 0.060073
Si Si3 0.306083 0.032793 0.135874
Si Si4 0.500000 0.000000 0.388212
Si Si5 0.099385 0.819239 0.523480
Si Si6 0.136365 0.612778 0.688080
O O1 0.248051 0.302171 0.625944
O O2 0.135126 0.183986 0.841396
O O3 0.060483 0.179714 0.551530
O O4 0.286667 0.090727 0.639697
O O5 0.152966 0.607589 0.873972
O O6 0.212802 0.483524 0.109098
O O7 0.022587 0.605230 0.143139
O O8 0.392771 0.061341 0.285544
O O9 0.403188 0.066219 0.996264
O O10 0.162814 0.082176 0.107958
O O11 0.168405 0.722112 0.610089
#
# Coordination Sequence:
#
# PCOD9338757 Si02
#       6
#     4   4   4   2   4   4
#     4  11  22  34  55  85 117 147 178 225 281 331
#     4  10  18  30  49  75 112 148 180 214 264 332
#     4  11  23  40  60  80 111 141 190 230 276 331
#     4  10  24  42  58  78 102 150 192 232 272 320
#     4  11  22  34  55  85 117 147 178 225 281 331
#     4  10  18  30  49  75 112 148 180 214 264 332
#
# _framework density 19.863249
#
# number of rings (size 3 to 8) (size 9 to 14) (size 15 to 20)
#    0.000    1.455    1.818    8.182    5.091    1.455 
#    0.000    0.000    0.000    0.000    0.000    7.636 
#    0.000    0.000    0.000    0.000    0.000    0.000 
#
# Total GULP energy -122601.905314 kJ/mol
# GULP energy per Si atom -5572.813878 kJ/mol
# Density = 1.981804 g / cm^3
# Si number density = 19.863249 Si / 1000 Ang^3
#
#
#
# Elastic Constant Matrix: (Units=GPa)
#
#
# Indices 1 2 3 4 5 6 
#
# 1 27.5532 5.0735 4.3822 0.0000 0.0000 0.0000
# 2 5.0735 114.8986 15.4043 0.0000 0.0000 0.0000
# 3 4.3822 15.4043 134.8669 0.0000 0.0000 0.0000
# 4 0.0000 0.0000 0.0000 15.9913 0.0000 0.0000
# 5 0.0000 0.0000 0.0000 0.0000 19.4278 0.0000
# 6 0.0000 0.0000 0.0000 0.0000 0.0000 1.6454
#
#
#
# Elastic Compliance Matrix: (Units=1/GPa)
#
#
# Indices 1 2 3 4 5 6 
#
# 1 0.036730 -0.001485 -0.001024 0.000000 0.000000 0.000000
# 2 -0.001485 0.008899 -0.000968 0.000000 0.000000 0.000000
# 3 -0.001024 -0.000968 0.007559 0.000000 0.000000 0.000000
# 4 0.000000 0.000000 0.000000 0.062534 0.000000 0.000000
# 5 0.000000 0.000000 0.000000 0.000000 0.051473 0.000000
# 6 0.000000 0.000000 0.000000 0.000000 0.000000 0.607746
#
#
# Mechanical properties :
#
#
# Convention : Reuss Voigt Hill
#
# Bulk Modulus (GPa) = 21.62927 36.33763 28.98345
# Shear Modulus (GPa) = 6.27113 24.24348 15.25731
#
# Velocity S-wave (km/s) = 1.77877 3.49738 2.77450
# Velocity P-wave (km/s) = 3.88991 5.88579 4.98868
#
# Compressibility (1/GPa) = 0.04623365
#
# Stress axis : x y z
#
# Youngs Moduli (GPa) = 27.22597 112.37625 132.30022
#
# Poissons Ratio (x) = 0.16683 0.13546
# Poissons Ratio (y) = 0.04042 0.12809
# Poissons Ratio (z) = 0.02788 0.10880
#
# Static dielectric constant tensor:
#      x y z
#    x 1.701400 0.000000 0.000000 
#    y 0.000000 1.816800 0.000000 
#    z 0.000000 0.000000 1.745890 
# 
# From -- ./inp_files/1120.got.cif
#   From: 2010.05.17/outbox.cif.g08.bks.cpg/sg27_1_cif.got.tgz:1120.got - 2010.06.04 01:11:05.
