data_PCOD9338949
_publ_section_title
;
Structure prediction by ZEFSAII (Michael W. Deem and Ramdas Pophale) SiO2 
 PCOD9338949
Probable space group: P C C 2
;
_chemical_formula_sum "Si O2"
_cell_formula_units_Z 28
_cell_length_a 8.994776
_cell_length_b 13.218890
_cell_length_c 12.546323
_cell_angle_alpha 90.000000
_cell_angle_beta 90.000000
_cell_angle_gamma 90.000000
_cell_volume 1491.769780
_symmetry_space_group_name_H-M "P C C 2"
_symmetry_group_IT_number 27
_symmetry_cell_setting 'orthorhombic'
loop_
_space_group_symop_operation_xyz
x,y,z
-x,-y,z
-x,y,1/2+z
x,-y,1/2+z
loop_
_atom_site_type_symbol
_atom_site_label
_atom_site_fract_x
_atom_site_fract_y
_atom_site_fract_z
Si Si1 0.250438 0.625855 0.254640
Si Si2 0.750869 0.373332 0.997331
Si Si3 0.681513 0.169231 0.376922
Si Si4 0.656129 0.838466 0.412502
Si Si5 0.831793 0.976488 0.017664
Si Si6 0.339495 0.977417 0.720703
Si Si7 0.500000 0.500000 0.876587
Si Si8 0.000000 0.500000 0.875557
O O1 0.265745 0.735792 0.309021
O O2 0.392640 0.565274 0.300653
O O3 0.105594 0.569219 0.301401
O O4 0.249317 0.630087 0.126107
O O5 0.743287 0.260799 0.947981
O O6 0.606047 0.431758 0.951165
O O7 0.892849 0.432343 0.949993
O O8 0.518942 0.181904 0.429506
O O9 0.673507 0.072259 0.299530
O O10 0.790565 0.131915 0.468946
O O11 0.724205 0.934646 0.473844
O O12 0.660847 0.874607 0.289357
O O13 0.796719 0.974733 0.141693
O O14 0.000000 0.000000 0.990834
O O15 0.500000 0.000000 0.666344
#
# Coordination Sequence:
#
# PCOD9338949 Si02
#       8
#     4   4   4   4   4   4   2   2
#     4  11  22  42  67  92 126 167 204 260 320 366
#     4  11  22  43  67  92 129 165 204 262 318 365
#     4  10  21  40  63  89 122 157 216 257 299 374
#     4  10  21  40  63  89 122 160 213 260 297 373
#     4  11  23  37  59  91 129 166 199 252 316 375
#     4   9  19  38  61  88 120 163 204 257 306 365
#     4  10  22  42  66 100 118 154 218 264 300 382
#     4  10  26  42  62  94 130 166 214 256 308 394
#
# _framework density 18.769652000000001
#
# number of rings (size 3 to 8) (size 9 to 14) (size 15 to 20)
#    0.000    1.714    1.429    3.857    2.000    3.429 
#    2.571    1.429    0.000    0.000    0.000    0.000 
#    0.000    0.000    0.000    0.000    0.000    0.000 
#
# Total GULP energy -156180.601929 kJ/mol
# GULP energy per Si atom -5577.878640 kJ/mol
# Density = 1.872693 g / cm^3
# Si number density = 18.769652 Si / 1000 Ang^3
#
#
#
# Elastic Constant Matrix: (Units=GPa)
#
#
# Indices 1 2 3 4 5 6 
#
# 1 109.7030 55.2877 55.6440 0.0000 0.0000 0.0000
# 2 55.2877 134.5417 58.3940 0.0000 0.0000 0.0000
# 3 55.6440 58.3940 82.5694 0.0000 0.0000 0.0000
# 4 0.0000 0.0000 0.0000 18.4005 0.0000 0.0000
# 5 0.0000 0.0000 0.0000 0.0000 -2.4675 0.0000
# 6 0.0000 0.0000 0.0000 0.0000 0.0000 20.2127
#
#
#
# Elastic Compliance Matrix: (Units=1/GPa)
#
#
# Indices 1 2 3 4 5 6 
#
# 1 0.014392 -0.002460 -0.007960 0.000000 0.000000 0.000000
# 2 -0.002460 0.011145 -0.006224 0.000000 0.000000 0.000000
# 3 -0.007960 -0.006224 0.021877 0.000000 0.000000 0.000000
# 4 0.000000 0.000000 0.000000 0.054346 0.000000 0.000000
# 5 0.000000 0.000000 0.000000 0.000000 -0.405270 0.000000
# 6 0.000000 0.000000 0.000000 0.000000 0.000000 0.049474
#
#
# Mechanical properties :
#
#
# Convention : Reuss Voigt Hill
#
# Bulk Modulus (GPa) = 70.78549 73.94061 72.36305
# Shear Modulus (GPa) = -23.14386 17.72837 -2.70775
#
# Velocity S-wave (km/s) = -3.51529 3.07664 -1.20239
# Velocity P-wave (km/s) = 4.61717 7.21805 6.05882
#
# Compressibility (1/GPa) = 0.01412719
#
# Stress axis : x y z
#
# Youngs Moduli (GPa) = 69.48077 89.72778 45.71044
#
# Poissons Ratio (x) = 0.22070 0.36384
# Poissons Ratio (y) = 0.17090 0.28451
# Poissons Ratio (z) = 0.55304 0.55848
#
# Static dielectric constant tensor:
#      x y z
#    x 1.676090 0.000000 0.000000 
#    y 0.000000 1.638190 0.000000 
#    z 0.000000 0.000000 1.649000 
# 
# From -- ./inp_files/2404.got.cif
#   From: 2010.05.17/outbox.cif.g08.bks.cpg/sg27_2_cif.got.tgz:2404.got - 2010.06.04 01:11:05.
