data_PCOD9338193
_publ_section_title
;
Structure prediction by ZEFSAII (Michael W. Deem and Ramdas Pophale) SiO2 
 PCOD9338193
Probable space group: P M C 21
;
_chemical_formula_sum "Si O2"
_cell_formula_units_Z 32
_cell_length_a 8.148967
_cell_length_b 11.896671
_cell_length_c 16.398659
_cell_angle_alpha 90.000000
_cell_angle_beta 90.000000
_cell_angle_gamma 90.000000
_cell_volume 1589.777498
_symmetry_space_group_name_H-M "P M C 21"
_symmetry_group_IT_number 26
_symmetry_cell_setting 'orthorhombic'
loop_
_space_group_symop_operation_xyz
x,y,z
-x,-y,1/2+z
-x,y,z
x,-y,1/2+z
loop_
_atom_site_type_symbol
_atom_site_label
_atom_site_fract_x
_atom_site_fract_y
_atom_site_fract_z
Si Si1 0.308809 0.650415 0.024140
Si Si2 0.689149 0.269465 0.820996
Si Si3 0.308252 0.575207 0.478167
Si Si4 0.302507 0.228645 0.089015
Si Si5 0.196230 0.314206 0.257554
Si Si6 0.803230 0.923009 0.438304
Si Si7 0.808720 0.558632 0.194041
Si Si8 0.807005 0.174168 0.412524
O O1 0.500000 0.673993 0.009142
O O2 0.285207 0.597460 0.113097
O O3 0.238347 0.548285 0.969112
O O4 0.215201 0.761265 0.997844
O O5 0.500000 0.256076 0.794418
O O6 0.694905 0.356029 0.896077
O O7 0.752537 0.155512 0.862149
O O8 0.790856 0.333776 0.752834
O O9 0.500000 0.558189 0.499654
O O10 0.236290 0.655976 0.547174
O O11 0.500000 0.233100 0.092699
O O12 0.234827 0.233306 0.180367
O O13 0.258543 0.131921 0.023560
O O14 0.255626 0.441676 0.234942
O O15 0.261599 0.252987 0.339403
O O16 0.000000 0.325180 0.266398
O O17 0.000000 0.923933 0.443647
O O18 0.739022 0.048539 0.421825
O O19 0.000000 0.541233 0.173881
O O20 0.000000 0.161313 0.395154
#
# Coordination Sequence:
#
# PCOD9338193 Si02
#       8
#     4   4   4   4   4   4   4   4
#     4  11  21  36  58  84 118 155 192 237 294 356
#     4  10  20  36  59  86 115 150 193 242 291 346
#     4   8  16  31  53  82 113 144 180 229 290 344
#     4  10  19  35  60  88 118 151 193 245 293 349
#     4  10  21  38  61  90 120 154 198 245 297 361
#     4  10  21  40  62  83 114 157 201 245 295 353
#     4  11  22  36  57  89 123 154 192 240 296 360
#     4  10  23  42  60  84 119 159 201 247 298 353
#
# _framework density 20.128602999999998
#
# number of rings (size 3 to 8) (size 9 to 14) (size 15 to 20)
#    0.000    2.000    1.250    3.375    0.000    2.000 
#    2.250    1.250    0.000    0.000    0.000    0.000 
#    0.000    0.000    0.000    0.000    0.000    0.000 
#
# Total GULP energy -178352.004795 kJ/mol
# GULP energy per Si atom -5573.500150 kJ/mol
# Density = 2.008279 g / cm^3
# Si number density = 20.128603 Si / 1000 Ang^3
#
#
#
# Elastic Constant Matrix: (Units=GPa)
#
#
# Indices 1 2 3 4 5 6 
#
# 1 20.9336 3.3895 -2.2085 0.0000 0.0000 0.0000
# 2 3.3895 154.8895 48.4783 0.0000 0.0000 0.0000
# 3 -2.2085 48.4783 62.9917 0.0000 0.0000 0.0000
# 4 0.0000 0.0000 0.0000 21.2172 0.0000 0.0000
# 5 0.0000 0.0000 0.0000 0.0000 21.8860 0.0000
# 6 0.0000 0.0000 0.0000 0.0000 0.0000 14.9002
#
#
#
# Elastic Compliance Matrix: (Units=1/GPa)
#
#
# Indices 1 2 3 4 5 6 
#
# 1 0.048459 -0.002097 0.003313 0.000000 0.000000 0.000000
# 2 -0.002097 0.008596 -0.006689 0.000000 0.000000 0.000000
# 3 0.003313 -0.006689 0.021139 0.000000 0.000000 0.000000
# 4 0.000000 0.000000 0.000000 0.047132 0.000000 0.000000
# 5 0.000000 0.000000 0.000000 0.000000 0.045691 0.000000
# 6 0.000000 0.000000 0.000000 0.000000 0.000000 0.067113
#
#
# Mechanical properties :
#
#
# Convention : Reuss Voigt Hill
#
# Bulk Modulus (GPa) = 14.87035 37.57037 26.22036
# Shear Modulus (GPa) = 18.41678 24.21107 21.31393
#
# Velocity S-wave (km/s) = 3.02811 3.47193 3.25759
# Velocity P-wave (km/s) = 4.43053 5.89729 5.21573
#
# Compressibility (1/GPa) = 0.06724793
#
# Stress axis : x y z
#
# Youngs Moduli (GPa) = 20.63587 116.33893 47.30628
#
# Poissons Ratio (x) = 0.24401 -0.15674
# Poissons Ratio (y) = 0.04328 0.31642
# Poissons Ratio (z) = -0.06837 0.77815
#
# Static dielectric constant tensor:
#      x y z
#    x 1.710850 0.000000 0.000000 
#    y 0.000000 1.743010 0.000000 
#    z 0.000000 0.000000 1.763920 
# 
# From -- ./inp_files/4286.got.cif
#   From: 2010.05.17/outbox.cif.g08.bks.cpg/sg26_3_cif.got.tgz:4286.got - 2010.06.04 01:07:29.
