data_PCOD9338850
_publ_section_title
;
Structure prediction by ZEFSAII (Michael W. Deem and Ramdas Pophale) SiO2 
 PCOD9338850
Probable space group: P C C 2
;
_chemical_formula_sum "Si O2"
_cell_formula_units_Z 24
_cell_length_a 6.157187
_cell_length_b 14.351722
_cell_length_c 11.739865
_cell_angle_alpha 90.000000
_cell_angle_beta 90.000000
_cell_angle_gamma 90.000000
_cell_volume 1037.407683
_symmetry_space_group_name_H-M "P C C 2"
_symmetry_group_IT_number 27
_symmetry_cell_setting 'orthorhombic'
loop_
_space_group_symop_operation_xyz
x,y,z
-x,-y,z
-x,y,1/2+z
x,-y,1/2+z
loop_
_atom_site_type_symbol
_atom_site_label
_atom_site_fract_x
_atom_site_fract_y
_atom_site_fract_z
Si Si1 0.500000 0.000000 0.878240
Si Si2 0.761981 0.833831 0.879897
Si Si3 0.366179 0.417899 0.615420
Si Si4 0.000000 0.500000 0.778043
Si Si5 0.127398 0.082666 0.219875
Si Si6 0.083844 0.679472 0.929536
Si Si7 0.608170 0.749089 0.232618
O O1 0.385969 0.087126 0.941583
O O2 0.678330 0.040170 0.792908
O O3 0.614237 0.794078 0.777408
O O4 0.955608 0.885261 0.814660
O O5 0.878056 0.747543 0.942112
O O6 0.500000 0.500000 0.551405
O O7 0.201262 0.355716 0.542336
O O8 0.537532 0.344705 0.668687
O O9 0.212013 0.474549 0.702996
O O10 0.977943 0.411262 0.858417
O O11 0.236523 0.176115 0.168844
O O12 0.000000 0.000000 0.151882
O O13 0.262672 0.727621 0.848999
#
# Coordination Sequence:
#
# PCOD9338850 Si02
#       7
#     2   4   4   2   4   4   4
#     4   8  14  28  58  94 124 160 206 252 334 410
#     4   9  17  34  58  91 128 160 209 265 333 401
#     4  12  26  40  62  90 126 186 232 277 339 403
#     4  12  24  44  60  88 130 176 230 290 328 396
#     4   8  15  29  56  93 122 159 203 254 333 408
#     4  11  24  39  62  90 130 173 224 280 333 397
#     4  10  20  38  59  89 129 163 217 278 325 405
#
# _framework density 23.134587
#
# number of rings (size 3 to 8) (size 9 to 14) (size 15 to 20)
#    0.000    2.000    3.333    0.500    2.333    1.333 
#    0.000    0.000    0.000    0.000    0.000  172.667 
#    0.000    0.000    0.000    0.000    0.000    0.000 
#
# Total GULP energy -133838.438621 kJ/mol
# GULP energy per Si atom -5576.601609 kJ/mol
# Density = 2.308193 g / cm^3
# Si number density = 23.134587 Si / 1000 Ang^3
#
#
#
# Elastic Constant Matrix: (Units=GPa)
#
#
# Indices 1 2 3 4 5 6 
#
# 1 124.5701 88.2407 22.3136 0.0000 0.0000 0.0000
# 2 88.2407 187.1907 43.9949 0.0000 0.0000 0.0000
# 3 22.3136 43.9949 49.3370 0.0000 0.0000 0.0000
# 4 0.0000 0.0000 0.0000 17.9394 0.0000 0.0000
# 5 0.0000 0.0000 0.0000 0.0000 19.3481 0.0000
# 6 0.0000 0.0000 0.0000 0.0000 0.0000 87.8170
#
#
#
# Elastic Compliance Matrix: (Units=1/GPa)
#
#
# Indices 1 2 3 4 5 6 
#
# 1 0.012061 -0.005571 -0.000487 0.000000 0.000000 0.000000
# 2 -0.005571 0.009332 -0.005802 0.000000 0.000000 0.000000
# 3 -0.000487 -0.005802 0.025663 0.000000 0.000000 0.000000
# 4 0.000000 0.000000 0.000000 0.055743 0.000000 0.000000
# 5 0.000000 0.000000 0.000000 0.000000 0.051685 0.000000
# 6 0.000000 0.000000 0.000000 0.000000 0.000000 0.011387
#
#
# Mechanical properties :
#
#
# Convention : Reuss Voigt Hill
#
# Bulk Modulus (GPa) = 42.85251 74.46623 58.65937
# Shear Modulus (GPa) = 25.33319 38.79083 32.06201
#
# Velocity S-wave (km/s) = 3.31272 4.09925 3.72679
# Velocity P-wave (km/s) = 5.76155 7.39346 6.62793
#
# Compressibility (1/GPa) = 0.02333586
#
# Stress axis : x y z
#
# Youngs Moduli (GPa) = 82.91032 107.15879 38.96708
#
# Poissons Ratio (x) = 0.59700 0.01898
# Poissons Ratio (y) = 0.46190 0.22608
# Poissons Ratio (z) = 0.04038 0.62172
#
# Static dielectric constant tensor:
#      x y z
#    x 1.879350 0.000000 0.000000 
#    y 0.000000 1.927400 0.000000 
#    z 0.000000 0.000000 1.816930 
# 
# From -- ./inp_files/3089.got.cif
#   From: 2010.05.17/outbox.cif.g08.bks.cpg/sg27_2_cif.got.tgz:3089.got - 2010.06.04 01:11:05.
