data_PCOD9338489
_publ_section_title
;
Structure prediction by ZEFSAII (Michael W. Deem and Ramdas Pophale) SiO2 
 PCOD9338489
Probable space group: P M C 21
;
_chemical_formula_sum "Si O2"
_cell_formula_units_Z 32
_cell_length_a 9.208789
_cell_length_b 10.973458
_cell_length_c 14.343629
_cell_angle_alpha 90.000000
_cell_angle_beta 90.000000
_cell_angle_gamma 90.000000
_cell_volume 1449.456117
_symmetry_space_group_name_H-M "P M C 21"
_symmetry_group_IT_number 26
_symmetry_cell_setting 'orthorhombic'
loop_
_space_group_symop_operation_xyz
x,y,z
-x,-y,1/2+z
-x,y,z
x,-y,1/2+z
loop_
_atom_site_type_symbol
_atom_site_label
_atom_site_fract_x
_atom_site_fract_y
_atom_site_fract_z
Si Si1 0.174228 0.547446 0.756980
Si Si2 0.829525 0.956868 0.590635
Si Si3 0.668932 0.163691 0.705767
Si Si4 0.828339 0.819556 0.765892
Si Si5 0.326280 0.668482 0.370262
Si Si6 0.828767 0.443398 0.035894
Si Si7 0.667107 0.942449 0.923678
Si Si8 0.336925 0.318965 0.527189
O O1 0.212434 0.682633 0.792590
O O2 0.261195 0.443880 0.810426
O O3 0.203355 0.553856 0.646098
O O4 0.000000 0.528196 0.768558
O O5 0.773070 0.066665 0.656836
O O6 0.744585 0.966466 0.494477
O O7 0.000000 0.970137 0.572809
O O8 0.804910 0.840265 0.655877
O O9 0.500000 0.120965 0.703446
O O10 0.707551 0.211288 0.808525
O O11 0.674100 0.279721 0.635629
O O12 0.000000 0.835368 0.782733
O O13 0.742256 0.917969 0.825737
O O14 0.500000 0.660521 0.375622
O O15 0.255775 0.652986 0.471793
O O16 0.778963 0.578449 0.003339
O O17 0.000000 0.425349 0.023484
O O18 0.500000 0.975487 0.912910
O O19 0.676593 0.809277 0.973725
O O20 0.500000 0.367414 0.509930
#
# Coordination Sequence:
#
# PCOD9338489 Si02
#       8
#     4   4   4   4   4   4   4   4
#     4  10  22  40  60  85 119 155 194 240 287 343
#     4  10  21  38  62  87 114 151 195 243 293 343
#     4   9  19  36  57  80 110 144 186 238 286 336
#     4  10  22  41  61  85 118 155 196 242 290 342
#     4  11  22  37  58  84 117 154 191 235 288 349
#     4  11  22  34  53  84 118 153 190 232 285 346
#     4  10  21  37  60  89 117 151 196 242 291 345
#     4   9  17  33  55  80 111 147 188 234 280 332
#
# _framework density 22.077245999999999
#
# number of rings (size 3 to 8) (size 9 to 14) (size 15 to 20)
#    0.000    2.000    1.250    3.000    0.000    7.500 
#    2.250    0.000    0.000    0.000    0.000    0.000 
#    0.000    0.000    0.000    0.000    0.000    0.000 
#
# Total GULP energy -178888.349060 kJ/mol
# GULP energy per Si atom -5590.260908 kJ/mol
# Density = 2.202700 g / cm^3
# Si number density = 22.077246 Si / 1000 Ang^3
#
#
#
# Elastic Constant Matrix: (Units=GPa)
#
#
# Indices 1 2 3 4 5 6 
#
# 1 53.4919 20.5975 40.4306 0.0000 0.0000 0.0000
# 2 20.5975 48.7382 9.9448 0.0000 0.0000 0.0000
# 3 40.4306 9.9448 110.9535 0.0000 0.0000 0.0000
# 4 0.0000 0.0000 0.0000 36.8105 0.0000 0.0000
# 5 0.0000 0.0000 0.0000 0.0000 34.0360 0.0000
# 6 0.0000 0.0000 0.0000 0.0000 0.0000 74.5298
#
#
#
# Elastic Compliance Matrix: (Units=1/GPa)
#
#
# Indices 1 2 3 4 5 6 
#
# 1 0.030546 -0.010836 -0.010159 0.000000 0.000000 0.000000
# 2 -0.010836 0.024744 0.001731 0.000000 0.000000 0.000000
# 3 -0.010159 0.001731 0.012560 0.000000 0.000000 0.000000
# 4 0.000000 0.000000 0.000000 0.027166 0.000000 0.000000
# 5 0.000000 0.000000 0.000000 0.000000 0.029381 0.000000
# 6 0.000000 0.000000 0.000000 0.000000 0.000000 0.013417
#
#
# Mechanical properties :
#
#
# Convention : Reuss Voigt Hill
#
# Bulk Modulus (GPa) = 34.10632 39.45880 36.78256
# Shear Modulus (GPa) = 26.86492 38.55599 32.71045
#
# Velocity S-wave (km/s) = 3.49214 4.18354 3.85338
# Velocity P-wave (km/s) = 5.63402 6.42245 6.04111
#
# Compressibility (1/GPa) = 0.02932008
#
# Stress axis : x y z
#
# Youngs Moduli (GPa) = 32.73787 40.41365 79.62011
#
# Poissons Ratio (x) = 0.43793 0.80889
# Poissons Ratio (y) = 0.35475 -0.13780
# Poissons Ratio (z) = 0.33260 -0.06995
#
# Static dielectric constant tensor:
#      x y z
#    x 1.738330 0.000000 0.000000 
#    y 0.000000 1.817890 0.000000 
#    z 0.000000 0.000000 1.846890 
# 
# From -- ./inp_files/4184.got.cif
#   From: 2010.05.17/outbox.cif.g08.bks.cpg/sg26_3_cif.got.tgz:4184.got - 2010.06.04 01:07:29.
