data_PCOD9338501
_publ_section_title
;
Structure prediction by ZEFSAII (Michael W. Deem and Ramdas Pophale) SiO2 
 PCOD9338501
Probable space group: P M C 21
;
_chemical_formula_sum "Si O2"
_cell_formula_units_Z 32
_cell_length_a 9.156787
_cell_length_b 14.300548
_cell_length_c 12.232763
_cell_angle_alpha 90.000000
_cell_angle_beta 90.000000
_cell_angle_gamma 90.000000
_cell_volume 1601.844498
_symmetry_space_group_name_H-M "P M C 21"
_symmetry_group_IT_number 26
_symmetry_cell_setting 'orthorhombic'
loop_
_space_group_symop_operation_xyz
x,y,z
-x,-y,1/2+z
-x,y,z
x,-y,1/2+z
loop_
_atom_site_type_symbol
_atom_site_label
_atom_site_fract_x
_atom_site_fract_y
_atom_site_fract_z
Si Si1 0.167009 0.189805 0.730860
Si Si2 0.173020 0.348901 0.379281
Si Si3 0.827366 0.976807 0.384816
Si Si4 0.669421 0.660370 0.100583
Si Si5 0.668602 0.523764 0.308771
Si Si6 0.672796 0.156128 0.315685
Si Si7 0.827751 0.159276 0.091188
Si Si8 0.165997 0.670779 0.440820
O O1 0.209292 0.089581 0.780673
O O2 0.272581 0.239835 0.645457
O O3 0.163882 0.258507 0.836705
O O4 0.000000 0.184594 0.688634
O O5 0.229351 0.370689 0.501332
O O6 0.232604 0.432229 0.303890
O O7 0.247963 0.251436 0.349245
O O8 0.000000 0.341798 0.373706
O O9 0.807944 0.914143 0.492829
O O10 0.000000 0.999258 0.376241
O O11 0.732710 0.069458 0.385522
O O12 0.500000 0.666715 0.067391
O O13 0.680257 0.586990 0.200250
O O14 0.500000 0.497886 0.325045
O O15 0.725230 0.588708 0.408348
O O16 0.500000 0.165196 0.323980
O O17 0.725657 0.137239 0.192110
O O18 0.000000 0.156932 0.122295
O O19 0.796942 0.262769 0.042557
O O20 0.000000 0.634969 0.453710
#
# Coordination Sequence:
#
# PCOD9338501 Si02
#       8
#     4   4   4   4   4   4   4   4
#     4   8  15  31  57  87 116 148 190 235 277 330
#     4  12  26  43  62  82 112 155 200 243 284 338
#     4   9  19  38  63  88 116 154 199 242 283 339
#     4  10  21  38  61  89 121 153 187 235 295 349
#     4  10  21  38  61  89 120 152 188 236 292 348
#     4  12  26  41  58  84 120 155 191 241 296 348
#     4   9  19  38  63  88 116 153 196 239 285 340
#     4   8  15  31  57  87 115 146 189 235 276 330
#
# _framework density 19.976970999999999
#
# number of rings (size 3 to 8) (size 9 to 14) (size 15 to 20)
#    0.000    2.250    0.000    4.500    0.000    5.000 
#    0.000    3.750    0.000    0.000    0.000    0.000 
#    0.000    0.000    0.000    0.000    0.000    0.000 
#
# Total GULP energy -178751.642515 kJ/mol
# GULP energy per Si atom -5585.988829 kJ/mol
# Density = 1.993150 g / cm^3
# Si number density = 19.976971 Si / 1000 Ang^3
#
#
#
# Elastic Constant Matrix: (Units=GPa)
#
#
# Indices 1 2 3 4 5 6 
#
# 1 140.1308 77.2906 37.0440 0.0000 0.0000 0.0000
# 2 77.2906 108.5617 12.3350 0.0000 0.0000 0.0000
# 3 37.0440 12.3350 35.6905 0.0000 0.0000 0.0000
# 4 0.0000 0.0000 0.0000 15.8368 0.0000 0.0000
# 5 0.0000 0.0000 0.0000 0.0000 27.3640 0.0000
# 6 0.0000 0.0000 0.0000 0.0000 0.0000 25.2945
#
#
#
# Elastic Compliance Matrix: (Units=1/GPa)
#
#
# Indices 1 2 3 4 5 6 
#
# 1 0.016179 -0.010003 -0.013335 0.000000 0.000000 0.000000
# 2 -0.010003 0.015773 0.004931 0.000000 0.000000 0.000000
# 3 -0.013335 0.004931 0.040155 0.000000 0.000000 0.000000
# 4 0.000000 0.000000 0.000000 0.063144 0.000000 0.000000
# 5 0.000000 0.000000 0.000000 0.000000 0.036544 0.000000
# 6 0.000000 0.000000 0.000000 0.000000 0.000000 0.039534
#
#
# Mechanical properties :
#
#
# Convention : Reuss Voigt Hill
#
# Bulk Modulus (GPa) = 28.33436 59.74691 44.04064
# Shear Modulus (GPa) = 19.23756 24.21327 21.72542
#
# Velocity S-wave (km/s) = 3.10657 3.48524 3.30134
# Velocity P-wave (km/s) = 5.20404 6.79475 6.05189
#
# Compressibility (1/GPa) = 0.03529284
#
# Stress axis : x y z
#
# Youngs Moduli (GPa) = 61.80908 63.39967 24.90340
#
# Poissons Ratio (x) = 0.63421 0.33209
# Poissons Ratio (y) = 0.61830 -0.12281
# Poissons Ratio (z) = 0.82423 -0.31265
#
# Static dielectric constant tensor:
#      x y z
#    x 1.663750 0.000000 0.000000 
#    y 0.000000 1.712980 0.000000 
#    z 0.000000 0.000000 1.743260 
# 
# From -- ./inp_files/3073.got.cif
#   From: 2010.05.17/outbox.cif.g08.bks.cpg/sg26_2_cif.got.tgz:3073.got - 2010.06.04 01:07:29.
