data_PCOD9338414
_publ_section_title
;
Structure prediction by ZEFSAII (Michael W. Deem and Ramdas Pophale) SiO2 
 PCOD9338414
Probable space group: P M C 21
;
_chemical_formula_sum "Si O2"
_cell_formula_units_Z 26
_cell_length_a 23.031007
_cell_length_b 4.748522
_cell_length_c 8.483995
_cell_angle_alpha 90.000000
_cell_angle_beta 90.000000
_cell_angle_gamma 90.000000
_cell_volume 927.837210
_symmetry_space_group_name_H-M "P M C 21"
_symmetry_group_IT_number 26
_symmetry_cell_setting 'orthorhombic'
loop_
_space_group_symop_operation_xyz
x,y,z
-x,-y,1/2+z
-x,y,z
x,-y,1/2+z
loop_
_atom_site_type_symbol
_atom_site_label
_atom_site_fract_x
_atom_site_fract_y
_atom_site_fract_z
Si Si1 0.914117 0.780189 0.505120
Si Si2 0.764568 0.865943 0.321109
Si Si3 0.837211 0.288531 0.529697
Si Si4 0.500000 0.533396 0.510733
Si Si5 0.000000 0.509667 0.253257
Si Si6 0.500000 0.892575 0.267381
Si Si7 0.605472 0.230167 0.342571
Si Si8 0.319347 0.836201 0.575611
O O1 0.853955 0.610086 0.503788
O O2 0.950018 0.670510 0.655408
O O3 0.950310 0.687237 0.353232
O O4 0.897558 0.107458 0.515665
O O5 0.811077 0.731826 0.203456
O O6 0.727325 0.701016 0.454982
O O7 0.794993 0.133566 0.406557
O O8 0.717498 0.975540 0.195306
O O9 0.500000 0.856293 0.458961
O O10 0.500000 0.405054 0.682029
O O11 0.561706 0.430454 0.437561
O O12 0.560417 0.041647 0.242678
O O13 0.645364 0.354192 0.201613
O O14 0.641430 0.035972 0.463651
#
# Coordination Sequence:
#
# PCOD9338414 Si02
#       8
#     4   4   4   2   2   2   4   4
#     4  11  24  40  66  92 132 170 210 265 316 382
#     4   9  20  37  66  86 116 155 214 263 316 382
#     4  11  22  41  66  92 124 173 218 265 318 382
#     4  11  24  36  59  91 119 161 209 251 306 412
#     4  10  24  40  60 100 132 168 212 256 324 382
#     4  11  24  36  59  91 119 161 209 251 306 412
#     4  10  20  39  64  80 122 163 198 252 328 368
#     4   9  18  37  66  82 118 159 196 269 314 376
#
# _framework density 28.022154
#
# number of rings (size 3 to 8) (size 9 to 14) (size 15 to 20)
#    0.000    1.846    1.538    1.846    2.154    3.692 
#    0.000    0.000   67.692    0.000    0.000    0.000 
#    0.000    0.000    0.000    0.000    0.000    0.000 
#
# Total GULP energy -145098.020296 kJ/mol
# GULP energy per Si atom -5580.693088 kJ/mol
# Density = 2.795837 g / cm^3
# Si number density = 28.022154 Si / 1000 Ang^3
#
#
#
# Elastic Constant Matrix: (Units=GPa)
#
#
# Indices 1 2 3 4 5 6 
#
# 1 127.9661 10.9253 56.0210 0.0000 0.0000 0.0000
# 2 10.9253 73.1419 14.7593 0.0000 0.0000 0.0000
# 3 56.0210 14.7593 150.7393 0.0000 0.0000 0.0000
# 4 0.0000 0.0000 0.0000 38.7724 0.0000 0.0000
# 5 0.0000 0.0000 0.0000 0.0000 86.6975 0.0000
# 6 0.0000 0.0000 0.0000 0.0000 0.0000 -9.6124
#
#
#
# Elastic Compliance Matrix: (Units=1/GPa)
#
#
# Indices 1 2 3 4 5 6 
#
# 1 0.009369 -0.000711 -0.003412 0.000000 0.000000 0.000000
# 2 -0.000711 0.014002 -0.001107 0.000000 0.000000 0.000000
# 3 -0.003412 -0.001107 0.008011 0.000000 0.000000 0.000000
# 4 0.000000 0.000000 0.000000 0.025792 0.000000 0.000000
# 5 0.000000 0.000000 0.000000 0.000000 0.011534 0.000000
# 6 0.000000 0.000000 0.000000 0.000000 0.000000 -0.104033
#
#
# Mechanical properties :
#
#
# Convention : Reuss Voigt Hill
#
# Bulk Modulus (GPa) = 47.79835 57.25094 52.52464
# Shear Modulus (GPa) = -279.45450 41.18095 -119.13678
#
# Velocity S-wave (km/s) = -9.99714 3.83768 -6.52744
# Velocity P-wave (km/s) = 10.77788 6.33340 6.16647
#
# Compressibility (1/GPa) = 0.02092123
#
# Stress axis : x y z
#
# Youngs Moduli (GPa) = 106.73360 71.42061 124.83611
#
# Poissons Ratio (x) = 0.05077 0.42598
# Poissons Ratio (y) = 0.07588 0.13816
# Poissons Ratio (z) = 0.36421 0.07904
#
# Static dielectric constant tensor:
#      x y z
#    x 2.187620 0.000000 0.000000 
#    y 0.000000 2.119920 0.000000 
#    z 0.000000 0.000000 2.158390 
# 
# From -- ./inp_files/2508.got.cif
#   From: 2010.05.17/outbox.cif.g08.bks.cpg/sg26_2_cif.got.tgz:2508.got - 2010.06.04 01:07:29.
