data_PCOD9338687
_publ_section_title
;
Structure prediction by ZEFSAII (Michael W. Deem and Ramdas Pophale) SiO2 
 PCOD9338687
Probable space group: P M C 21
;
_chemical_formula_sum "Si O2"
_cell_formula_units_Z 32
_cell_length_a 9.000000
_cell_length_b 12.000000
_cell_length_c 15.000000
_cell_angle_alpha 90.000000
_cell_angle_beta 90.000000
_cell_angle_gamma 90.000000
_cell_volume 1620.000000
_symmetry_space_group_name_H-M "P M C 21"
_symmetry_group_IT_number 26
_symmetry_cell_setting 'orthorhombic'
loop_
_space_group_symop_operation_xyz
x,y,z
-x,-y,1/2+z
-x,y,z
x,-y,1/2+z
loop_
_atom_site_type_symbol
_atom_site_label
_atom_site_fract_x
_atom_site_fract_y
_atom_site_fract_z
Si Si1 0.177746 0.409606 0.279870
Si Si2 0.167431 0.287030 0.580266
Si Si3 0.828842 0.919656 0.945790
Si Si4 0.322588 0.903620 0.570706
Si Si5 0.820522 0.162047 0.247201
Si Si6 0.672587 0.446791 0.464550
Si Si7 0.175322 0.663526 0.271054
Si Si8 0.677259 0.300675 0.955290
O O1 0.230962 0.292181 0.238604
O O2 0.227199 0.405481 0.382900
O O3 0.226149 0.534874 0.251153
O O4 0.000000 0.407678 0.272504
O O5 0.170050 0.186004 0.511844
O O6 0.290203 0.372638 0.548375
O O7 0.194458 0.261815 0.683532
O O8 0.000000 0.337110 0.576278
O O9 0.781713 0.883068 0.846290
O O10 0.000000 0.960861 0.939911
O O11 0.726775 0.006800 0.997301
O O12 0.500000 0.904967 0.581357
O O13 0.247205 0.910353 0.667410
O O14 0.270134 0.787583 0.526876
O O15 0.000000 0.160305 0.241655
O O16 0.500000 0.440763 0.438806
O O17 0.712432 0.573931 0.483929
O O18 0.256237 0.711099 0.356983
O O19 0.000000 0.656983 0.291560
O O20 0.500000 0.289658 0.948835
#
# Coordination Sequence:
#
# PCOD9338687 Si02
#       8
#     4   4   4   4   4   4   4   4
#     4   9  17  34  56  84 118 151 192 239 289 342
#     4  10  20  36  57  86 120 152 190 241 292 343
#     4  10  22  42  63  84 117 156 198 247 295 346
#     4  11  25  42  61  87 119 156 201 248 294 347
#     4  10  21  39  63  89 116 152 195 244 298 351
#     4  10  19  32  54  83 115 154 192 230 287 350
#     4   9  19  33  57  89 119 155 196 239 289 347
#     4   9  21  40  55  78 120 158 190 238 294 346
#
# _framework density 19.753086
#
# number of rings (size 3 to 8) (size 9 to 14) (size 15 to 20)
#    0.000    2.250    1.250    0.750    1.750    4.500 
#    0.000    3.750    0.000    0.000    0.000    0.000 
#    0.000    0.000    0.000    0.000    0.000    0.000 
#
# Total GULP energy -178367.553057 kJ/mol
# GULP energy per Si atom -5573.986033 kJ/mol
# Density = 1.970813 g / cm^3
# Si number density = 19.753086 Si / 1000 Ang^3
#
#
#
# Elastic Constant Matrix: (Units=GPa)
#
#
# Indices 1 2 3 4 5 6 
#
# 1 -7.5079 19.2651 15.5750 0.0000 0.0000 0.0000
# 2 19.2651 36.1270 45.3568 0.0000 0.0000 0.0000
# 3 15.5750 45.3568 78.3562 0.0000 0.0000 0.0000
# 4 0.0000 0.0000 0.0000 13.9334 0.0000 0.0000
# 5 0.0000 0.0000 0.0000 0.0000 121.9646 0.0000
# 6 0.0000 0.0000 0.0000 0.0000 0.0000 18.9255
#
#
#
# Elastic Compliance Matrix: (Units=1/GPa)
#
#
# Indices 1 2 3 4 5 6 
#
# 1 -0.047069 0.048869 -0.018932 0.000000 0.000000 0.000000
# 2 0.048869 0.050559 -0.038980 0.000000 0.000000 0.000000
# 3 -0.018932 -0.038980 0.039089 0.000000 0.000000 0.000000
# 4 0.000000 0.000000 0.000000 0.071770 0.000000 0.000000
# 5 0.000000 0.000000 0.000000 0.000000 0.008199 0.000000
# 6 0.000000 0.000000 0.000000 0.000000 0.000000 0.052839
#
#
# Mechanical properties :
#
#
# Convention : Reuss Voigt Hill
#
# Bulk Modulus (GPa) = 40.82848 29.70769 35.26808
# Shear Modulus (GPa) = 24.79722 32.74992 28.77357
#
# Velocity S-wave (km/s) = 3.54695 4.07623 3.82076
# Velocity P-wave (km/s) = 6.12281 6.10134 6.11208
#
# Compressibility (1/GPa) = 0.02449271
#
# Stress axis : x y z
#
# Youngs Moduli (GPa) = -21.24518 19.77906 25.58259
#
# Poissons Ratio (x) = -0.96659 0.48433
# Poissons Ratio (y) = 1.03824 0.99721
# Poissons Ratio (z) = -0.40222 0.77099
#
# Static dielectric constant tensor:
#      x y z
#    x 1.687750 0.000000 0.000000 
#    y 0.000000 1.750930 0.000000 
#    z 0.000000 0.000000 1.671360 
# 
# From -- ./inp_files/4234.got.cif
#   From: 2010.05.17/outbox.ucp.g08.bks.cvg/sg26_3_cif.got.tgz:4234.got - 2010.06.11 15:23:25.
