data_PCOD9338145
_publ_section_title
;
Structure prediction by ZEFSAII (Michael W. Deem and Ramdas Pophale) SiO2 
 PCOD9338145
Probable space group: P M C 21
;
_chemical_formula_sum "Si O2"
_cell_formula_units_Z 32
_cell_length_a 8.782040
_cell_length_b 10.523967
_cell_length_c 19.783429
_cell_angle_alpha 90.000000
_cell_angle_beta 90.000000
_cell_angle_gamma 90.000000
_cell_volume 1828.422080
_symmetry_space_group_name_H-M "P M C 21"
_symmetry_group_IT_number 26
_symmetry_cell_setting 'orthorhombic'
loop_
_space_group_symop_operation_xyz
x,y,z
-x,-y,1/2+z
-x,y,z
x,-y,1/2+z
loop_
_atom_site_type_symbol
_atom_site_label
_atom_site_fract_x
_atom_site_fract_y
_atom_site_fract_z
Si Si1 0.316574 0.224660 0.984450
Si Si2 0.816000 0.881763 0.198438
Si Si3 0.182591 0.768554 0.340207
Si Si4 0.682648 0.131321 0.129640
Si Si5 0.317462 0.514057 0.835380
Si Si6 0.182920 0.376221 0.204074
Si Si7 0.817115 0.373317 0.620957
Si Si8 0.318001 0.521080 0.989283
O O1 0.500000 0.221754 0.976338
O O2 0.241732 0.187227 0.913370
O O3 0.273702 0.372460 0.998414
O O4 0.273704 0.143880 0.050331
O O5 0.776000 0.858193 0.277084
O O6 0.767279 0.755662 0.157396
O O7 0.000000 0.891436 0.194616
O O8 0.743469 0.004970 0.164985
O O9 0.253219 0.628949 0.327290
O O10 0.000000 0.755939 0.341366
O O11 0.500000 0.135841 0.132719
O O12 0.749568 0.253095 0.168226
O O13 0.500000 0.510666 0.828528
O O14 0.244240 0.603849 0.779519
O O15 0.280215 0.554652 0.912050
O O16 0.232199 0.502644 0.163174
O O17 0.000000 0.370122 0.204018
O O18 0.758506 0.392326 0.545355
O O19 0.000000 0.372977 0.621060
O O20 0.500000 0.527634 0.997335
#
# Coordination Sequence:
#
# PCOD9338145 Si02
#       8
#     4   4   4   4   4   4   4   4
#     4   9  19  35  54  81 114 144 184 233 280 340
#     4  10  22  40  56  81 117 149 189 235 278 337
#     4  10  19  34  57  83 112 146 188 235 283 337
#     4  11  23  39  58  84 115 151 191 233 285 339
#     4  10  20  34  54  83 117 150 187 235 285 335
#     4  11  21  36  58  85 113 146 188 234 283 335
#     4  10  20  35  56  82 112 144 184 230 278 330
#     4   9  18  33  53  81 114 144 181 231 282 331
#
# _framework density 17.501429999999999
#
# number of rings (size 3 to 8) (size 9 to 14) (size 15 to 20)
#    0.000    2.000    2.500    2.250    0.000    5.500 
#    0.000    1.250    0.000    3.000    0.000    0.000 
#    0.000    0.000    0.000    0.000    0.000    0.000 
#
# Total GULP energy -178603.588921 kJ/mol
# GULP energy per Si atom -5581.362154 kJ/mol
# Density = 1.746160 g / cm^3
# Si number density = 17.501430 Si / 1000 Ang^3
#
#
#
# Elastic Constant Matrix: (Units=GPa)
#
#
# Indices 1 2 3 4 5 6 
#
# 1 37.7774 39.6585 51.7485 0.0000 0.0000 0.0000
# 2 39.6585 114.1249 85.4682 0.0000 0.0000 0.0000
# 3 51.7485 85.4682 171.4078 0.0000 0.0000 0.0000
# 4 0.0000 0.0000 0.0000 29.0582 0.0000 0.0000
# 5 0.0000 0.0000 0.0000 0.0000 31.9997 0.0000
# 6 0.0000 0.0000 0.0000 0.0000 0.0000 25.0000
#
#
#
# Elastic Compliance Matrix: (Units=1/GPa)
#
#
# Indices 1 2 3 4 5 6 
#
# 1 0.051362 -0.009952 -0.010544 0.000000 0.000000 0.000000
# 2 -0.009952 0.015913 -0.004930 0.000000 0.000000 0.000000
# 3 -0.010544 -0.004930 0.011475 0.000000 0.000000 0.000000
# 4 0.000000 0.000000 0.000000 0.034414 0.000000 0.000000
# 5 0.000000 0.000000 0.000000 0.000000 0.031250 0.000000
# 6 0.000000 0.000000 0.000000 0.000000 0.000000 0.040000
#
#
# Mechanical properties :
#
#
# Convention : Reuss Voigt Hill
#
# Bulk Modulus (GPa) = 35.84454 75.22892 55.53673
# Shear Modulus (GPa) = 20.44448 26.97389 23.70919
#
# Velocity S-wave (km/s) = 3.42154 3.93012 3.68462
# Velocity P-wave (km/s) = 6.01121 7.97949 7.06424
#
# Compressibility (1/GPa) = 0.02789825
#
# Stress axis : x y z
#
# Youngs Moduli (GPa) = 19.46979 62.84314 87.14219
#
# Poissons Ratio (x) = 0.62540 0.91883
# Poissons Ratio (y) = 0.19376 0.42961
# Poissons Ratio (z) = 0.20529 0.30981
#
# Static dielectric constant tensor:
#      x y z
#    x 1.587460 0.000000 0.000000 
#    y 0.000000 1.565490 0.000000 
#    z 0.000000 0.000000 1.605970 
# 
# From -- ./inp_files/5078.got.cif
#   From: 2010.05.17/outbox.cif.g08.bks.cpg/sg26_3_cif.got.tgz:5078.got - 2010.06.04 01:07:29.
