data_PCOD9338471
_publ_section_title
;
Structure prediction by ZEFSAII (Michael W. Deem and Ramdas Pophale) SiO2 
 PCOD9338471
Probable space group: P M C 21
;
_chemical_formula_sum "Si O2"
_cell_formula_units_Z 32
_cell_length_a 7.430796
_cell_length_b 22.603830
_cell_length_c 7.508765
_cell_angle_alpha 90.000000
_cell_angle_beta 90.000000
_cell_angle_gamma 90.000000
_cell_volume 1261.205580
_symmetry_space_group_name_H-M "P M C 21"
_symmetry_group_IT_number 26
_symmetry_cell_setting 'orthorhombic'
loop_
_space_group_symop_operation_xyz
x,y,z
-x,-y,1/2+z
-x,y,z
x,-y,1/2+z
loop_
_atom_site_type_symbol
_atom_site_label
_atom_site_fract_x
_atom_site_fract_y
_atom_site_fract_z
Si Si1 0.217622 0.545866 0.792230
Si Si2 0.289613 0.162222 0.555613
Si Si3 0.707420 0.037881 0.668646
Si Si4 0.218268 0.356207 0.571725
Si Si5 0.780063 0.584248 0.409225
Si Si6 0.797092 0.210551 0.943445
Si Si7 0.206552 0.262088 0.293082
Si Si8 0.294419 0.915150 0.570130
O O1 0.274491 0.478494 0.820982
O O2 0.279830 0.579159 0.613562
O O3 0.000000 0.543507 0.779490
O O4 0.259281 0.583665 0.966098
O O5 0.500000 0.157199 0.516567
O O6 0.215280 0.095216 0.568399
O O7 0.203826 0.201050 0.402533
O O8 0.277778 0.195133 0.748308
O O9 0.500000 0.030202 0.604866
O O10 0.786225 0.972031 0.668956
O O11 0.699433 0.060185 0.869321
O O12 0.279517 0.363877 0.775223
O O13 0.288966 0.306050 0.439113
O O14 0.000000 0.349148 0.579100
O O15 0.000000 0.586328 0.411438
O O16 0.714504 0.253052 0.095346
O O17 0.799200 0.147437 0.046444
O O18 0.000000 0.231036 0.908434
O O19 0.000000 0.281921 0.262045
O O20 0.500000 0.903512 0.632002
#
# Coordination Sequence:
#
# PCOD9338471 Si02
#       8
#     4   4   4   4   4   4   4   4
#     4   9  14  21  36  60  91 129 170 214 258 304
#     4  10  21  38  60  81 103 139 187 237 278 317
#     4   8  16  29  49  76 100 125 166 221 274 319
#     4   9  17  28  41  64  98 138 179 210 255 322
#     4   9  14  21  37  60  91 130 172 215 256 303
#     4  10  21  37  54  76 111 148 181 221 272 334
#     4  10  22  37  54  77 111 153 187 219 269 336
#     4   9  17  31  51  76 103 132 174 223 270 325
#
# _framework density 25.372546
#
# number of rings (size 3 to 8) (size 9 to 14) (size 15 to 20)
#    0.000    2.750    1.250    1.500    1.750    2.000 
#    0.000    6.875    0.000    0.000    0.000    0.000 
#    0.000    1.000    0.000    0.000    0.000    0.000 
#
# Total GULP energy -178589.932503 kJ/mol
# GULP energy per Si atom -5580.935391 kJ/mol
# Density = 2.531480 g / cm^3
# Si number density = 25.372546 Si / 1000 Ang^3
#
#
#
# Elastic Constant Matrix: (Units=GPa)
#
#
# Indices 1 2 3 4 5 6 
#
# 1 79.2505 -6.2660 -5.3305 0.0000 0.0000 0.0000
# 2 -6.2660 17.5745 33.3620 0.0000 0.0000 0.0000
# 3 -5.3305 33.3620 86.1722 0.0000 0.0000 0.0000
# 4 0.0000 0.0000 0.0000 32.4032 0.0000 0.0000
# 5 0.0000 0.0000 0.0000 0.0000 20.8301 0.0000
# 6 0.0000 0.0000 0.0000 0.0000 0.0000 653.7545
#
#
#
# Elastic Compliance Matrix: (Units=1/GPa)
#
#
# Indices 1 2 3 4 5 6 
#
# 1 0.013310 0.012007 -0.003825 0.000000 0.000000 0.000000
# 2 0.012007 0.225506 -0.086563 0.000000 0.000000 0.000000
# 3 -0.003825 -0.086563 0.044881 0.000000 0.000000 0.000000
# 4 0.000000 0.000000 0.000000 0.030861 0.000000 0.000000
# 5 0.000000 0.000000 0.000000 0.000000 0.048007 0.000000
# 6 0.000000 0.000000 0.000000 0.000000 0.000000 0.001530
#
#
# Mechanical properties :
#
#
# Convention : Reuss Voigt Hill
#
# Bulk Modulus (GPa) = 7.87799 25.16978 16.52389
# Shear Modulus (GPa) = 8.87832 152.14635 80.51234
#
# Velocity S-wave (km/s) = 1.87264 7.75210 5.63923
# Velocity P-wave (km/s) = 2.79059 9.49044 6.99485
#
# Compressibility (1/GPa) = 0.12693586
#
# Stress axis : x y z
#
# Youngs Moduli (GPa) = 75.12984 4.43447 22.28101
#
# Poissons Ratio (x) = -0.05325 0.08523
# Poissons Ratio (y) = -0.90211 1.92871
# Poissons Ratio (z) = 0.28740 0.38386
#
# Static dielectric constant tensor:
#      x y z
#    x 1.938520 0.000000 0.000000 
#    y 0.000000 2.068730 0.000000 
#    z 0.000000 0.000000 1.989570 
# 
# From -- ./inp_files/1625.got.cif
#   From: 2010.05.17/outbox.cif.g08.bks.cpg/sg26_1_cif.got.tgz:1625.got - 2010.06.04 01:07:29.
