data_PCOD9338618
_publ_section_title
;
Structure prediction by ZEFSAII (Michael W. Deem and Ramdas Pophale) SiO2 
 PCOD9338618
Probable space group: P M C 21
;
_chemical_formula_sum "Si O2"
_cell_formula_units_Z 18
_cell_length_a 15.494421
_cell_length_b 4.873039
_cell_length_c 8.969442
_cell_angle_alpha 90.000000
_cell_angle_beta 90.000000
_cell_angle_gamma 90.000000
_cell_volume 677.236981
_symmetry_space_group_name_H-M "P M C 21"
_symmetry_group_IT_number 26
_symmetry_cell_setting 'orthorhombic'
loop_
_space_group_symop_operation_xyz
x,y,z
-x,-y,1/2+z
-x,y,z
x,-y,1/2+z
loop_
_atom_site_type_symbol
_atom_site_label
_atom_site_fract_x
_atom_site_fract_y
_atom_site_fract_z
Si Si1 0.372415 0.260126 0.421110
Si Si2 0.000000 0.524385 0.957017
Si Si3 0.154687 0.862085 0.105660
Si Si4 0.261601 0.248401 0.887573
Si Si5 0.500000 0.529988 0.176777
Si Si6 0.000000 0.843280 0.692607
O O1 0.285719 0.441877 0.428048
O O2 0.425706 0.375066 0.280093
O O3 0.426098 0.323447 0.569452
O O4 0.348070 0.942350 0.398204
O O5 0.000000 0.219367 0.016978
O O6 0.911165 0.662089 0.017427
O O7 0.000000 0.562544 0.782053
O O8 0.088209 0.008674 0.219747
O O9 0.224004 0.745102 0.221604
O O10 0.199176 0.093977 0.003526
#
# Coordination Sequence:
#
# PCOD9338618 Si02
#       6
#     4   2   4   4   2   2
#     4  11  26  44  72 103 136 182 228 281 362 410
#     4  11  26  44  67  99 135 199 238 289 356 419
#     4  11  26  42  66  97 146 182 242 289 348 414
#     4  12  26  44  70 106 140 182 230 296 348 414
#     4  10  24  48  72 100 140 178 228 284 338 450
#     4  11  26  44  67  99 135 199 238 289 356 419
#
# _framework density 26.578583999999999
#
# number of rings (size 3 to 8) (size 9 to 14) (size 15 to 20)
#    0.000    0.889    2.222    2.667    9.333    5.333 
#    0.000    0.000    0.000    0.000    0.000    0.000 
#    0.000    0.000    0.000    0.000    0.000    0.000 
#
# Total GULP energy -100342.914935 kJ/mol
# GULP energy per Si atom -5574.606385 kJ/mol
# Density = 2.651809 g / cm^3
# Si number density = 26.578584 Si / 1000 Ang^3
#
#
#
# Elastic Constant Matrix: (Units=GPa)
#
#
# Indices 1 2 3 4 5 6 
#
# 1 92.7764 -7.9861 14.6284 0.0000 0.0000 0.0000
# 2 -7.9861 73.7461 -1.8633 0.0000 0.0000 0.0000
# 3 14.6284 -1.8633 101.4114 0.0000 0.0000 0.0000
# 4 0.0000 0.0000 0.0000 38.1460 0.0000 0.0000
# 5 0.0000 0.0000 0.0000 0.0000 49.5491 0.0000
# 6 0.0000 0.0000 0.0000 0.0000 0.0000 -9.9262
#
#
#
# Elastic Compliance Matrix: (Units=1/GPa)
#
#
# Indices 1 2 3 4 5 6 
#
# 1 0.011129 0.001165 -0.001584 0.000000 0.000000 0.000000
# 2 0.001165 0.013688 0.000083 0.000000 0.000000 0.000000
# 3 -0.001584 0.000083 0.010091 0.000000 0.000000 0.000000
# 4 0.000000 0.000000 0.000000 0.026215 0.000000 0.000000
# 5 0.000000 0.000000 0.000000 0.000000 0.020182 0.000000
# 6 0.000000 0.000000 0.000000 0.000000 0.000000 -0.100744
#
#
# Mechanical properties :
#
#
# Convention : Reuss Voigt Hill
#
# Bulk Modulus (GPa) = 29.20804 30.83243 30.02024
# Shear Modulus (GPa) = -679.73007 33.09745 -323.31631
#
# Velocity S-wave (km/s) = -16.00933 3.53266 -11.04126
# Velocity P-wave (km/s) = 18.18567 5.31651 12.29742
#
# Compressibility (1/GPa) = 0.03423715
#
# Stress axis : x y z
#
# Youngs Moduli (GPa) = 89.85826 73.05499 99.09991
#
# Poissons Ratio (x) = -0.08512 0.15696
# Poissons Ratio (y) = -0.10470 -0.00827
# Poissons Ratio (z) = 0.14232 -0.00610
#
# Static dielectric constant tensor:
#      x y z
#    x 2.089680 0.000000 0.000000 
#    y 0.000000 2.020960 0.000000 
#    z 0.000000 0.000000 2.012200 
# 
# From -- ./inp_files/2305.got.cif
#   From: 2010.05.17/outbox.cif.g08.bks.cpg/sg26_2_cif.got.tgz:2305.got - 2010.06.04 01:07:29.
