data_PCOD9338846
_publ_section_title
;
Structure prediction by ZEFSAII (Michael W. Deem and Ramdas Pophale) SiO2 
 PCOD9338846
Probable space group: P C C 2
;
_chemical_formula_sum "Si O2"
_cell_formula_units_Z 24
_cell_length_a 5.804445
_cell_length_b 13.303005
_cell_length_c 14.045102
_cell_angle_alpha 90.000000
_cell_angle_beta 90.000000
_cell_angle_gamma 90.000000
_cell_volume 1084.514473
_symmetry_space_group_name_H-M "P C C 2"
_symmetry_group_IT_number 27
_symmetry_cell_setting 'orthorhombic'
loop_
_space_group_symop_operation_xyz
x,y,z
-x,-y,z
-x,y,1/2+z
x,-y,1/2+z
loop_
_atom_site_type_symbol
_atom_site_label
_atom_site_fract_x
_atom_site_fract_y
_atom_site_fract_z
Si Si1 0.409770 0.599283 0.666250
Si Si2 0.903031 0.235472 0.920881
Si Si3 0.751269 0.554480 0.372326
Si Si4 0.856796 0.207958 0.613883
Si Si5 0.621885 0.105099 0.773603
Si Si6 0.765069 0.727510 0.764331
O O1 0.500000 0.500000 0.613007
O O2 0.243473 0.577795 0.757350
O O3 0.310881 0.693977 0.608171
O O4 0.638870 0.633485 0.721180
O O5 0.743939 0.335507 0.924836
O O6 0.793865 0.147428 0.855180
O O7 0.120221 0.282096 0.865509
O O8 0.003684 0.191790 0.017793
O O9 0.500000 0.500000 0.388320
O O10 0.000000 0.500000 0.396746
O O11 0.732467 0.115173 0.667556
O O12 0.043427 0.239678 0.691057
O O13 0.423893 0.187319 0.772148
O O14 0.500000 0.000000 0.792753
#
# Coordination Sequence:
#
# PCOD9338846 Si02
#       6
#     4   4   4   4   4   4
#     4  10  20  37  63  90 134 190 234 279 362 437
#     4  11  22  42  67  99 140 181 241 301 372 428
#     4  11  22  39  68 100 142 195 243 292 364 449
#     4  10  23  40  64 100 135 177 233 311 355 440
#     4  10  23  45  70  98 130 187 234 303 384 447
#     4  10  20  43  63  89 136 181 225 303 366 434
#
# _framework density 22.129716999999999
#
# number of rings (size 3 to 8) (size 9 to 14) (size 15 to 20)
#    0.000    1.667    5.000    2.000    0.000    5.333 
#    3.000    5.833    0.000    0.000    0.000    0.000 
#    0.000    0.000    0.000    0.000    0.000    0.000 
#
# Total GULP energy -133755.473645 kJ/mol
# GULP energy per Si atom -5573.144735 kJ/mol
# Density = 2.207935 g / cm^3
# Si number density = 22.129717 Si / 1000 Ang^3
#
#
#
# Elastic Constant Matrix: (Units=GPa)
#
#
# Indices 1 2 3 4 5 6 
#
# 1 83.6747 20.1260 31.0505 0.0000 0.0000 0.0000
# 2 20.1260 85.3929 42.8970 0.0000 0.0000 0.0000
# 3 31.0505 42.8970 95.0564 0.0000 0.0000 0.0000
# 4 0.0000 0.0000 0.0000 14.9341 0.0000 0.0000
# 5 0.0000 0.0000 0.0000 0.0000 49.1266 0.0000
# 6 0.0000 0.0000 0.0000 0.0000 0.0000 27.1430
#
#
#
# Elastic Compliance Matrix: (Units=1/GPa)
#
#
# Indices 1 2 3 4 5 6 
#
# 1 0.013705 -0.001269 -0.003904 0.000000 0.000000 0.000000
# 2 -0.001269 0.015261 -0.006473 0.000000 0.000000 0.000000
# 3 -0.003904 -0.006473 0.014716 0.000000 0.000000 0.000000
# 4 0.000000 0.000000 0.000000 0.066961 0.000000 0.000000
# 5 0.000000 0.000000 0.000000 0.000000 0.020356 0.000000
# 6 0.000000 0.000000 0.000000 0.000000 0.000000 0.036842
#
#
# Mechanical properties :
#
#
# Convention : Reuss Voigt Hill
#
# Bulk Modulus (GPa) = 49.04056 50.25233 49.64644
# Shear Modulus (GPa) = 25.26161 29.57744 27.41952
#
# Velocity S-wave (km/s) = 3.38231 3.65985 3.52381
# Velocity P-wave (km/s) = 6.12062 6.37312 6.24815
#
# Compressibility (1/GPa) = 0.02039128
#
# Stress axis : x y z
#
# Youngs Moduli (GPa) = 72.96594 65.52610 67.95176
#
# Poissons Ratio (x) = 0.08314 0.26530
# Poissons Ratio (y) = 0.09258 0.43982
# Poissons Ratio (z) = 0.28487 0.42412
#
# Static dielectric constant tensor:
#      x y z
#    x 1.904620 0.000000 0.000000 
#    y 0.000000 1.856850 0.000000 
#    z 0.000000 0.000000 1.829570 
# 
# From -- ./inp_files/3075.got.cif
#   From: 2010.05.17/outbox.cif.g08.bks.cpg/sg27_2_cif.got.tgz:3075.got - 2010.06.04 01:11:05.
