data_PCOD9338171
_publ_section_title
;
Structure prediction by ZEFSAII (Michael W. Deem and Ramdas Pophale) SiO2 
 PCOD9338171
Probable space group: P M C 21
;
_chemical_formula_sum "Si O2"
_cell_formula_units_Z 24
_cell_length_a 8.621978
_cell_length_b 9.459373
_cell_length_c 16.827247
_cell_angle_alpha 90.000000
_cell_angle_beta 90.000000
_cell_angle_gamma 90.000000
_cell_volume 1372.405124
_symmetry_space_group_name_H-M "P M C 21"
_symmetry_group_IT_number 26
_symmetry_cell_setting 'orthorhombic'
loop_
_space_group_symop_operation_xyz
x,y,z
-x,-y,1/2+z
-x,y,z
x,-y,1/2+z
loop_
_atom_site_type_symbol
_atom_site_label
_atom_site_fract_x
_atom_site_fract_y
_atom_site_fract_z
Si Si1 0.177913 0.924540 0.340890
Si Si2 0.822563 0.101922 0.175552
Si Si3 0.187655 0.355756 0.274213
Si Si4 0.685202 0.331086 0.750271
Si Si5 0.187529 0.171825 0.596188
Si Si6 0.315694 0.813637 0.924685
O O1 0.255831 0.776693 0.318451
O O2 0.000000 0.905296 0.366681
O O3 0.174263 0.012290 0.257810
O O4 0.267501 0.026378 0.400888
O O5 0.754701 0.251864 0.202750
O O6 0.000000 0.128838 0.150344
O O7 0.754487 0.989537 0.113654
O O8 0.248434 0.513200 0.263960
O O9 0.246090 0.286990 0.356308
O O10 0.000000 0.352521 0.273899
O O11 0.500000 0.332469 0.749071
O O12 0.748613 0.269113 0.666945
O O13 0.244372 0.219190 0.510376
O O14 0.000000 0.171309 0.600338
O O15 0.500000 0.800081 0.925734
#
# Coordination Sequence:
#
# PCOD9338171 Si02
#       6
#     4   4   4   4   4   4
#     4   9  17  33  54  75  99 136 178 212 252 316
#     4   7  14  29  52  75  95 124 171 215 247 296
#     4  10  19  35  56  78 105 143 182 217 262 326
#     4  11  21  34  53  81 111 140 176 225 272 313
#     4  10  19  35  56  78 104 140 181 221 265 323
#     4  11  21  34  53  81 110 137 174 228 276 310
#
# _framework density 17.487548
#
# number of rings (size 3 to 8) (size 9 to 14) (size 15 to 20)
#    0.000    2.333    0.000    6.500    0.000    0.000 
#    0.000    4.167    0.000    2.000    0.000    0.000 
#    0.000    0.000    0.000    0.000    0.000    0.000 
#
# Total GULP energy -133763.689450 kJ/mol
# GULP energy per Si atom -5573.487060 kJ/mol
# Density = 1.744775 g / cm^3
# Si number density = 17.487548 Si / 1000 Ang^3
#
#
#
# Elastic Constant Matrix: (Units=GPa)
#
#
# Indices 1 2 3 4 5 6 
#
# 1 109.6534 47.9625 26.9672 0.0000 0.0000 0.0000
# 2 47.9625 154.5675 44.7074 0.0000 0.0000 0.0000
# 3 26.9672 44.7074 72.2320 0.0000 0.0000 0.0000
# 4 0.0000 0.0000 0.0000 17.0701 0.0000 0.0000
# 5 0.0000 0.0000 0.0000 0.0000 21.1494 0.0000
# 6 0.0000 0.0000 0.0000 0.0000 0.0000 21.8650
#
#
#
# Elastic Compliance Matrix: (Units=1/GPa)
#
#
# Indices 1 2 3 4 5 6 
#
# 1 0.010884 -0.002682 -0.002403 0.000000 0.000000 0.000000
# 2 -0.002682 0.008541 -0.004285 0.000000 0.000000 0.000000
# 3 -0.002403 -0.004285 0.017394 0.000000 0.000000 0.000000
# 4 0.000000 0.000000 0.000000 0.058582 0.000000 0.000000
# 5 0.000000 0.000000 0.000000 0.000000 0.047283 0.000000
# 6 0.000000 0.000000 0.000000 0.000000 0.000000 0.045735
#
#
# Mechanical properties :
#
#
# Convention : Reuss Voigt Hill
#
# Bulk Modulus (GPa) = 55.31678 63.96966 59.64322
# Shear Modulus (GPa) = 23.45366 26.47128 24.96247
#
# Velocity S-wave (km/s) = 3.66616 3.89488 3.78225
# Velocity P-wave (km/s) = 7.04427 7.54230 7.29754
#
# Compressibility (1/GPa) = 0.01807770
#
# Stress axis : x y z
#
# Youngs Moduli (GPa) = 91.87918 117.07649 57.49146
#
# Poissons Ratio (x) = 0.31402 0.13817
# Poissons Ratio (y) = 0.24643 0.24637
# Poissons Ratio (z) = 0.22081 0.50171
#
# Static dielectric constant tensor:
#      x y z
#    x 1.591540 0.000000 0.000000 
#    y 0.000000 1.605570 0.000000 
#    z 0.000000 0.000000 1.594540 
# 
# From -- ./inp_files/3920.got.cif
#   From: 2010.05.17/outbox.cif.g08.bks.cpg/sg26_2_cif.got.tgz:3920.got - 2010.06.04 01:07:29.
