data_PCOD9338952
_publ_section_title
;
Structure prediction by ZEFSAII (Michael W. Deem and Ramdas Pophale) SiO2 
 PCOD9338952
Probable space group: P C C 2
;
_chemical_formula_sum "Si O2"
_cell_formula_units_Z 28
_cell_length_a 12.707783
_cell_length_b 5.211426
_cell_length_c 19.815256
_cell_angle_alpha 90.000000
_cell_angle_beta 90.000000
_cell_angle_gamma 90.000000
_cell_volume 1312.278619
_symmetry_space_group_name_H-M "P C C 2"
_symmetry_group_IT_number 27
_symmetry_cell_setting 'orthorhombic'
loop_
_space_group_symop_operation_xyz
x,y,z
-x,-y,z
-x,y,1/2+z
x,-y,1/2+z
loop_
_atom_site_type_symbol
_atom_site_label
_atom_site_fract_x
_atom_site_fract_y
_atom_site_fract_z
Si Si1 0.112961 0.104079 0.535470
Si Si2 0.190159 0.417041 0.265605
Si Si3 0.384612 0.401340 0.358757
Si Si4 0.384612 0.598660 0.512308
Si Si5 0.809841 0.582958 0.105461
Si Si6 0.112961 0.895919 0.335595
Si Si7 0.717077 1.000000 0.935533
O O1 0.111885 0.358283 0.580820
O O2 0.194958 0.167674 0.475363
O O3 0.156917 0.861503 0.577678
O O4 0.000000 0.000000 0.512309
O O5 0.301851 0.475948 0.301704
O O6 0.197937 0.414934 0.185533
O O7 0.111884 0.641715 0.290246
O O8 0.156917 0.138495 0.293387
O O9 0.500000 0.500000 0.341233
O O10 0.364721 0.500001 0.435533
O O11 0.359424 0.104540 0.376715
O O12 0.500000 0.500000 0.529832
O O13 0.301851 0.524051 0.569361
O O14 0.359424 0.895460 0.494350
O O15 0.194958 0.832325 0.395702
O O16 0.000000 0.000000 0.358756
#
# Coordination Sequence:
#
# PCOD9338952 Si02
#       7
#     4   4   4   4   4   4   4
#     4  11  23  40  65  92 125 167 209 256 309 365
#     4  11  24  42  62  93 130 163 206 256 307 369
#     4  10  21  40  65  92 118 163 203 256 307 370
#     4  10  21  40  65  92 118 163 203 256 307 370
#     4  11  24  42  62  93 130 163 206 256 307 369
#     4  11  23  40  65  92 125 167 209 256 309 365
#     4  10  21  41  62  94 128 156 210 262 312 362
#
# _framework density 21.336929999999999
#
# number of rings (size 3 to 8) (size 9 to 14) (size 15 to 20)
#    0.000    1.429    2.857    2.143    0.000    6.286 
#    0.000    2.857    0.000    5.143    0.000    0.000 
#    0.000    0.000    0.000    0.000    0.000    0.000 
#
# Total GULP energy -155925.183104 kJ/mol
# GULP energy per Si atom -5568.756539 kJ/mol
# Density = 2.128837 g / cm^3
# Si number density = 21.336930 Si / 1000 Ang^3
#
#
#
# Elastic Constant Matrix: (Units=GPa)
#
#
# Indices 1 2 3 4 5 6 
#
# 1 155.1840 36.4261 32.7641 0.0000 0.0000 0.0000
# 2 36.4261 76.4178 10.7338 0.0000 0.0000 0.0000
# 3 32.7641 10.7338 74.0588 0.0000 0.0000 0.0000
# 4 0.0000 0.0000 0.0000 12.2606 0.0000 0.0000
# 5 0.0000 0.0000 0.0000 0.0000 16.3733 0.0000
# 6 0.0000 0.0000 0.0000 0.0000 0.0000 21.6502
#
#
#
# Elastic Compliance Matrix: (Units=1/GPa)
#
#
# Indices 1 2 3 4 5 6 
#
# 1 0.007856 -0.003324 -0.002994 0.000000 0.000000 0.000000
# 2 -0.003324 0.014765 -0.000669 0.000000 0.000000 0.000000
# 3 -0.002994 -0.000669 0.014924 0.000000 0.000000 0.000000
# 4 0.000000 0.000000 0.000000 0.081562 0.000000 0.000000
# 5 0.000000 0.000000 0.000000 0.000000 0.061075 0.000000
# 6 0.000000 0.000000 0.000000 0.000000 0.000000 0.046189
#
#
# Mechanical properties :
#
#
# Convention : Reuss Voigt Hill
#
# Bulk Modulus (GPa) = 42.42621 51.72317 47.07469
# Shear Modulus (GPa) = 20.14483 25.10594 22.62539
#
# Velocity S-wave (km/s) = 3.07600 3.43394 3.25989
# Velocity P-wave (km/s) = 5.70463 6.32585 6.02326
#
# Compressibility (1/GPa) = 0.02357034
#
# Stress axis : x y z
#
# Youngs Moduli (GPa) = 127.28487 67.72962 67.00480
#
# Poissons Ratio (x) = 0.22516 0.20061
# Poissons Ratio (y) = 0.42314 0.04484
# Poissons Ratio (z) = 0.38108 0.04532
#
# Static dielectric constant tensor:
#      x y z
#    x 1.782660 0.000000 0.000000 
#    y 0.000000 2.259270 0.000000 
#    z 0.000000 0.000000 1.739430 
# 
# From -- ./inp_files/4657.got.cif
#   From: 2010.05.17/outbox.cif.g08.bks.cpg/sg27_3_cif.got.tgz:4657.got - 2010.06.04 01:11:05.
