data_PCOD9338783
_publ_section_title
;
Structure prediction by ZEFSAII (Michael W. Deem and Ramdas Pophale) SiO2 
 PCOD9338783
Probable space group: P C C 2
;
_chemical_formula_sum "Si O2"
_cell_formula_units_Z 32
_cell_length_a 10.340889
_cell_length_b 9.770631
_cell_length_c 13.411041
_cell_angle_alpha 90.000000
_cell_angle_beta 90.000000
_cell_angle_gamma 90.000000
_cell_volume 1355.011492
_symmetry_space_group_name_H-M "P C C 2"
_symmetry_group_IT_number 27
_symmetry_cell_setting 'orthorhombic'
loop_
_space_group_symop_operation_xyz
x,y,z
-x,-y,z
-x,y,1/2+z
x,-y,1/2+z
loop_
_atom_site_type_symbol
_atom_site_label
_atom_site_fract_x
_atom_site_fract_y
_atom_site_fract_z
Si Si1 0.613361 0.391406 0.448070
Si Si2 0.682628 0.830831 0.234445
Si Si3 0.467675 0.196914 0.569905
Si Si4 0.729309 0.436282 0.103943
Si Si5 0.920872 0.294828 0.954184
Si Si6 0.203416 0.453609 0.303519
Si Si7 0.268614 0.955584 0.934539
Si Si8 0.894872 0.875589 0.068624
O O1 0.500000 0.500000 0.424618
O O2 0.544597 0.248642 0.470416
O O3 0.664441 0.429164 0.558546
O O4 0.725030 0.431027 0.371063
O O5 0.563542 0.843065 0.158279
O O6 0.700501 0.678356 0.283257
O O7 0.672858 0.939792 0.324906
O O8 0.811293 0.857112 0.167953
O O9 0.382027 0.322387 0.614484
O O10 0.366510 0.090865 0.522016
O O11 0.818287 0.377961 0.018106
O O12 0.811566 0.473310 0.198957
O O13 0.036409 0.260601 0.027950
O O14 0.921268 0.381646 0.853206
O O15 0.851198 0.151947 0.930022
O O16 0.200172 0.088974 0.976569
O O17 0.000000 0.000000 0.082788
#
# Coordination Sequence:
#
# PCOD9338783 Si02
#       8
#     4   4   4   4   4   4   4   4
#     4   9  17  28  51  86 135 178 193 237 304 384
#     4  11  22  37  67  96 125 172 220 259 337 414
#     4  10  20  35  57  98 142 167 199 266 321 405
#     4   9  17  31  56  90 132 171 207 241 318 395
#     4   8  18  38  62  88 124 166 221 279 310 379
#     4  10  19  31  60  94 130 171 217 249 317 402
#     4   9  21  41  64  96 124 162 224 276 330 392
#     4  10  22  44  70  83 117 169 226 301 334 356
#
# _framework density 23.616035
#
# number of rings (size 3 to 8) (size 9 to 14) (size 15 to 20)
#    0.000    2.500    1.250    2.250    3.500    3.000 
#    0.000    3.125   13.750    0.000    0.000    0.000 
#    0.000    0.000    0.000    0.000    0.000    0.000 
#
# Total GULP energy -178604.849126 kJ/mol
# GULP energy per Si atom -5581.401535 kJ/mol
# Density = 2.356228 g / cm^3
# Si number density = 23.616035 Si / 1000 Ang^3
#
#
#
# Elastic Constant Matrix: (Units=GPa)
#
#
# Indices 1 2 3 4 5 6 
#
# 1 56.2829 14.1096 8.0442 0.0000 0.0000 0.0000
# 2 14.1096 26.9214 -1.8494 0.0000 0.0000 0.0000
# 3 8.0442 -1.8494 86.2726 0.0000 0.0000 0.0000
# 4 0.0000 0.0000 0.0000 16.4420 0.0000 0.0000
# 5 0.0000 0.0000 0.0000 0.0000 27.6393 0.0000
# 6 0.0000 0.0000 0.0000 0.0000 0.0000 16.3282
#
#
#
# Elastic Compliance Matrix: (Units=1/GPa)
#
#
# Indices 1 2 3 4 5 6 
#
# 1 0.020857 -0.011081 -0.002182 0.000000 0.000000 0.000000
# 2 -0.011081 0.043087 0.001957 0.000000 0.000000 0.000000
# 3 -0.002182 0.001957 0.011837 0.000000 0.000000 0.000000
# 4 0.000000 0.000000 0.000000 0.060820 0.000000 0.000000
# 5 0.000000 0.000000 0.000000 0.000000 0.036180 0.000000
# 6 0.000000 0.000000 0.000000 0.000000 0.000000 0.061244
#
#
# Mechanical properties :
#
#
# Convention : Reuss Voigt Hill
#
# Bulk Modulus (GPa) = 18.80837 23.34285 21.07561
# Shear Modulus (GPa) = 18.22416 22.02674 20.12545
#
# Velocity S-wave (km/s) = 2.78094 3.05733 2.92240
# Velocity P-wave (km/s) = 4.27703 4.72957 4.50898
#
# Compressibility (1/GPa) = 0.05316781
#
# Stress axis : x y z
#
# Youngs Moduli (GPa) = 47.94493 23.20867 84.48372
#
# Poissons Ratio (x) = 0.25718 0.18437
# Poissons Ratio (y) = 0.53129 -0.16533
# Poissons Ratio (z) = 0.10463 -0.04542
#
# Static dielectric constant tensor:
#      x y z
#    x 1.921310 0.000000 0.000000 
#    y 0.000000 1.948430 0.000000 
#    z 0.000000 0.000000 1.872310 
# 
# From -- ./inp_files/2647.got.cif
#   From: 2010.05.17/outbox.cif.g08.bks.cpg/sg27_2_cif.got.tgz:2647.got - 2010.06.04 01:11:05.
