data_PCOD9338446
_publ_section_title
;
Structure prediction by ZEFSAII (Michael W. Deem and Ramdas Pophale) SiO2 
 PCOD9338446
Probable space group: P M C 21
;
_chemical_formula_sum "Si O2"
_cell_formula_units_Z 32
_cell_length_a 9.167388
_cell_length_b 12.673514
_cell_length_c 12.827979
_cell_angle_alpha 90.000000
_cell_angle_beta 90.000000
_cell_angle_gamma 90.000000
_cell_volume 1490.393343
_symmetry_space_group_name_H-M "P M C 21"
_symmetry_group_IT_number 26
_symmetry_cell_setting 'orthorhombic'
loop_
_space_group_symop_operation_xyz
x,y,z
-x,-y,1/2+z
-x,y,z
x,-y,1/2+z
loop_
_atom_site_type_symbol
_atom_site_label
_atom_site_fract_x
_atom_site_fract_y
_atom_site_fract_z
Si Si1 0.827389 0.643985 0.603910
Si Si2 0.672041 0.143948 0.103495
Si Si3 0.667599 0.656155 0.943348
Si Si4 0.327554 0.566799 0.168453
Si Si5 0.169941 0.860246 0.932688
Si Si6 0.328609 0.926585 0.368368
Si Si7 0.171178 0.929326 0.167965
Si Si8 0.331000 0.411370 0.895991
O O1 0.746063 0.748970 0.641282
O O2 0.767131 0.538790 0.658475
O O3 0.777657 0.629041 0.483421
O O4 0.000000 0.653485 0.613701
O O5 0.500000 0.142058 0.125898
O O6 0.750663 0.041799 0.149959
O O7 0.691050 0.134074 0.977684
O O8 0.500000 0.691866 0.932355
O O9 0.698614 0.636086 0.066028
O O10 0.772280 0.745903 0.900432
O O11 0.678721 0.539312 0.895497
O O12 0.500000 0.537270 0.165763
O O13 0.301328 0.622750 0.278287
O O14 0.187400 0.868951 0.058454
O O15 0.000000 0.874764 0.907479
O O16 0.262909 0.956607 0.887123
O O17 0.500000 0.932208 0.346783
O O18 0.245883 0.879548 0.269144
O O19 0.000000 0.944184 0.186783
O O20 0.500000 0.384694 0.924436
#
# Coordination Sequence:
#
# PCOD9338446 Si02
#       8
#     4   4   4   4   4   4   4   4
#     4  11  22  35  54  81 113 144 176 221 274 324
#     4  10  21  38  58  79 107 144 186 225 261 314
#     4   9  18  33  54  79 106 137 177 223 267 316
#     4   9  19  37  58  78 105 142 183 226 268 315
#     4  10  21  36  54  77 109 144 175 216 268 320
#     4  10  21  37  58  81 105 139 181 222 263 314
#     4  10  21  37  56  80 110 141 175 221 275 322
#     4   9  19  37  58  79 105 141 183 224 266 313
#
# _framework density 21.470842999999999
#
# number of rings (size 3 to 8) (size 9 to 14) (size 15 to 20)
#    0.000    2.250    0.000    3.375    0.000    7.500 
#    0.000    7.500    0.000    0.000    0.000    0.000 
#    0.000    0.000    0.000    0.000    0.000    0.000 
#
# Total GULP energy -178910.906381 kJ/mol
# GULP energy per Si atom -5590.965824 kJ/mol
# Density = 2.142197 g / cm^3
# Si number density = 21.470843 Si / 1000 Ang^3
#
#
#
# Elastic Constant Matrix: (Units=GPa)
#
#
# Indices 1 2 3 4 5 6 
#
# 1 101.1076 46.6129 31.2745 0.0000 0.0000 0.0000
# 2 46.6129 80.3196 -13.5460 0.0000 0.0000 0.0000
# 3 31.2745 -13.5460 88.5262 0.0000 0.0000 0.0000
# 4 0.0000 0.0000 0.0000 -11.7655 0.0000 0.0000
# 5 0.0000 0.0000 0.0000 0.0000 25.9704 0.0000
# 6 0.0000 0.0000 0.0000 0.0000 0.0000 8.3695
#
#
#
# Elastic Compliance Matrix: (Units=1/GPa)
#
#
# Indices 1 2 3 4 5 6 
#
# 1 0.017763 -0.011668 -0.008061 0.000000 0.000000 0.000000
# 2 -0.011668 0.020445 0.007250 0.000000 0.000000 0.000000
# 3 -0.008061 0.007250 0.015253 0.000000 0.000000 0.000000
# 4 0.000000 0.000000 0.000000 -0.084994 0.000000 0.000000
# 5 0.000000 0.000000 0.000000 0.000000 0.038505 0.000000
# 6 0.000000 0.000000 0.000000 0.000000 0.000000 0.119481
#
#
# Mechanical properties :
#
#
# Convention : Reuss Voigt Hill
#
# Bulk Modulus (GPa) = 35.08270 44.29292 39.68781
# Shear Modulus (GPa) = 31.07292 18.22234 24.64763
#
# Velocity S-wave (km/s) = 3.80835 2.91641 3.39183
# Velocity P-wave (km/s) = 5.97606 5.65815 5.81928
#
# Compressibility (1/GPa) = 0.02850408
#
# Stress axis : x y z
#
# Youngs Moduli (GPa) = 56.29654 48.91270 65.55983
#
# Poissons Ratio (x) = 0.57072 0.52846
# Poissons Ratio (y) = 0.65688 -0.47534
# Poissons Ratio (z) = 0.45379 -0.35464
#
# Static dielectric constant tensor:
#      x y z
#    x 1.715890 0.000000 0.000000 
#    y 0.000000 1.764080 0.000000 
#    z 0.000000 0.000000 1.825300 
# 
# From -- ./inp_files/4353.got.cif
#   From: 2010.05.17/outbox.cif.g08.bks.cpg/sg26_3_cif.got.tgz:4353.got - 2010.06.04 01:07:29.
