data_PCOD9338191
_publ_section_title
;
Structure prediction by ZEFSAII (Michael W. Deem and Ramdas Pophale) SiO2 
 PCOD9338191
Probable space group: P M C 21
;
_chemical_formula_sum "Si O2"
_cell_formula_units_Z 32
_cell_length_a 8.451285
_cell_length_b 14.961305
_cell_length_c 12.863112
_cell_angle_alpha 90.000000
_cell_angle_beta 90.000000
_cell_angle_gamma 90.000000
_cell_volume 1626.440856
_symmetry_space_group_name_H-M "P M C 21"
_symmetry_group_IT_number 26
_symmetry_cell_setting 'orthorhombic'
loop_
_space_group_symop_operation_xyz
x,y,z
-x,-y,1/2+z
-x,y,z
x,-y,1/2+z
loop_
_atom_site_type_symbol
_atom_site_label
_atom_site_fract_x
_atom_site_fract_y
_atom_site_fract_z
Si Si1 0.691025 0.130667 0.039830
Si Si2 0.820205 0.165116 0.663488
Si Si3 0.810691 0.166424 0.266710
Si Si4 0.311655 0.060632 0.469258
Si Si5 0.807690 0.440435 0.764416
Si Si6 0.806155 0.361458 0.328000
Si Si7 0.819199 0.641146 0.058604
Si Si8 0.689286 0.739317 0.364824
O O1 0.500000 0.130651 0.042474
O O2 0.749958 0.127485 0.157939
O O3 0.742898 0.217584 0.973996
O O4 0.741421 0.042365 0.976400
O O5 0.732617 0.101530 0.582046
O O6 0.827704 0.259142 0.602217
O O7 0.741196 0.192650 0.772429
O O8 0.000000 0.133381 0.681163
O O9 0.759137 0.114210 0.371283
O O10 0.754926 0.270100 0.273050
O O11 0.000000 0.165468 0.265423
O O12 0.500000 0.063669 0.457281
O O13 0.759351 0.541185 0.788333
O O14 0.744519 0.416074 0.649939
O O15 0.754801 0.359503 0.839345
O O16 0.000000 0.436674 0.763307
O O17 0.745802 0.357311 0.446118
O O18 0.000000 0.358767 0.326932
O O19 0.000000 0.607843 0.044910
O O20 0.500000 0.734293 0.364091
#
# Coordination Sequence:
#
# PCOD9338191 Si02
#       8
#     4   4   4   4   4   4   4   4
#     4  10  25  44  60  82 122 169 201 239 305 373
#     4  10  19  35  60  87 114 146 195 255 301 345
#     4  11  23  40  63  93 122 152 202 259 304 353
#     4  11  23  40  62  86 118 161 201 239 300 373
#     4   9  18  32  56  85 113 157 204 244 296 358
#     4   9  17  32  55  84 119 153 192 244 305 359
#     4   8  14  28  49  76 111 144 183 238 292 341
#     4  10  21  39  59  83 119 160 202 248 301 360
#
# _framework density 19.674862000000001
#
# number of rings (size 3 to 8) (size 9 to 14) (size 15 to 20)
#    0.000    2.250    1.250    2.250    1.750    3.000 
#    0.000    3.750    0.000    1.500    0.000    0.000 
#    0.000    0.000    0.000    0.000    0.000    0.000 
#
# Total GULP energy -178380.274648 kJ/mol
# GULP energy per Si atom -5574.383583 kJ/mol
# Density = 1.963008 g / cm^3
# Si number density = 19.674862 Si / 1000 Ang^3
#
#
#
# Elastic Constant Matrix: (Units=GPa)
#
#
# Indices 1 2 3 4 5 6 
#
# 1 25.2750 16.7170 10.7834 0.0000 0.0000 0.0000
# 2 16.7170 106.1157 47.1588 0.0000 0.0000 0.0000
# 3 10.7834 47.1588 72.2785 0.0000 0.0000 0.0000
# 4 0.0000 0.0000 0.0000 14.4897 0.0000 0.0000
# 5 0.0000 0.0000 0.0000 0.0000 26.7100 0.0000
# 6 0.0000 0.0000 0.0000 0.0000 0.0000 20.4401
#
#
#
# Elastic Compliance Matrix: (Units=1/GPa)
#
#
# Indices 1 2 3 4 5 6 
#
# 1 0.044599 -0.005730 -0.002915 0.000000 0.000000 0.000000
# 2 -0.005730 0.014008 -0.008285 0.000000 0.000000 0.000000
# 3 -0.002915 -0.008285 0.019676 0.000000 0.000000 0.000000
# 4 0.000000 0.000000 0.000000 0.069015 0.000000 0.000000
# 5 0.000000 0.000000 0.000000 0.000000 0.037439 0.000000
# 6 0.000000 0.000000 0.000000 0.000000 0.000000 0.048924
#
#
# Mechanical properties :
#
#
# Convention : Reuss Voigt Hill
#
# Bulk Modulus (GPa) = 22.51126 39.22084 30.86605
# Shear Modulus (GPa) = 17.70989 20.92861 19.31925
#
# Velocity S-wave (km/s) = 3.00347 3.26502 3.13697
# Velocity P-wave (km/s) = 4.84708 5.84735 5.37056
#
# Compressibility (1/GPa) = 0.04442222
#
# Stress axis : x y z
#
# Youngs Moduli (GPa) = 22.42222 71.38616 50.82373
#
# Poissons Ratio (x) = 0.40907 0.14815
# Poissons Ratio (y) = 0.12849 0.42107
# Poissons Ratio (z) = 0.06536 0.59143
#
# Static dielectric constant tensor:
#      x y z
#    x 1.695170 0.000000 0.000000 
#    y 0.000000 1.710470 0.000000 
#    z 0.000000 0.000000 1.699850 
# 
# From -- ./inp_files/3105.got.cif
#   From: 2010.05.17/outbox.cif.g08.bks.cpg/sg26_2_cif.got.tgz:3105.got - 2010.06.04 01:07:29.
