data_PCOD9338222
_publ_section_title
;
Structure prediction by ZEFSAII (Michael W. Deem and Ramdas Pophale) SiO2 
 PCOD9338222
Probable space group: P M C 21
;
_chemical_formula_sum "Si O2"
_cell_formula_units_Z 32
_cell_length_a 8.950175
_cell_length_b 11.074096
_cell_length_c 14.276205
_cell_angle_alpha 90.000000
_cell_angle_beta 90.000000
_cell_angle_gamma 90.000000
_cell_volume 1414.987446
_symmetry_space_group_name_H-M "P M C 21"
_symmetry_group_IT_number 26
_symmetry_cell_setting 'orthorhombic'
loop_
_space_group_symop_operation_xyz
x,y,z
-x,-y,1/2+z
-x,y,z
x,-y,1/2+z
loop_
_atom_site_type_symbol
_atom_site_label
_atom_site_fract_x
_atom_site_fract_y
_atom_site_fract_z
Si Si1 0.678280 0.056781 0.866550
Si Si2 0.826819 0.836683 0.754122
Si Si3 0.177951 0.458482 0.710020
Si Si4 0.829036 0.290897 0.444956
Si Si5 0.824742 0.810218 0.213637
Si Si6 0.324160 0.074436 0.545669
Si Si7 0.175855 0.568230 0.429976
Si Si8 0.676723 0.319643 0.102122
O O1 0.500000 0.058424 0.862861
O O2 0.740952 0.944135 0.806357
O O3 0.745155 0.170233 0.812795
O O4 0.722114 0.030978 0.973880
O O5 0.824212 0.729695 0.832510
O O6 0.752634 0.789056 0.659570
O O7 0.000000 0.869093 0.739760
O O8 0.204619 0.322843 0.672828
O O9 0.272862 0.560224 0.659179
O O10 0.000000 0.486662 0.700012
O O11 0.212392 0.443398 0.820341
O O12 0.712848 0.197924 0.489236
O O13 0.804874 0.430608 0.466811
O O14 0.000000 0.257201 0.474091
O O15 0.766113 0.908890 0.140536
O O16 0.000000 0.820970 0.228206
O O17 0.500000 0.064431 0.565339
O O18 0.266676 0.657095 0.496792
O O19 0.000000 0.598661 0.436721
O O20 0.500000 0.303966 0.103312
#
# Coordination Sequence:
#
# PCOD9338222 Si02
#       8
#     4   4   4   4   4   4   4   4
#     4  10  22  41  63  89 121 156 197 252 310 358
#     4  10  19  37  62  85 112 151 199 246 294 349
#     4  10  22  42  63  87 120 162 208 253 298 354
#     4   9  17  32  58  85 111 148 197 248 290 343
#     4  11  23  40  64  91 120 159 207 254 299 360
#     4  10  21  37  60  89 121 158 197 246 306 363
#     4  10  20  37  58  82 117 160 202 245 297 356
#     4  12  24  36  56  90 126 160 197 244 306 369
#
# _framework density 22.61504
#
# number of rings (size 3 to 8) (size 9 to 14) (size 15 to 20)
#    0.000    1.750    1.250    3.375    0.000    7.000 
#    2.250    0.000    0.000    0.000    0.000    0.000 
#    0.000    0.000    0.000    0.000    0.000    0.000 
#
# Total GULP energy -179016.748775 kJ/mol
# GULP energy per Si atom -5594.273399 kJ/mol
# Density = 2.256357 g / cm^3
# Si number density = 22.615040 Si / 1000 Ang^3
#
#
#
# Elastic Constant Matrix: (Units=GPa)
#
#
# Indices 1 2 3 4 5 6 
#
# 1 53.0614 9.0170 28.2546 0.0000 0.0000 0.0000
# 2 9.0170 48.8659 11.4979 0.0000 0.0000 0.0000
# 3 28.2546 11.4979 105.3853 0.0000 0.0000 0.0000
# 4 0.0000 0.0000 0.0000 43.8319 0.0000 0.0000
# 5 0.0000 0.0000 0.0000 0.0000 27.9610 0.0000
# 6 0.0000 0.0000 0.0000 0.0000 0.0000 22.3265
#
#
#
# Elastic Compliance Matrix: (Units=1/GPa)
#
#
# Indices 1 2 3 4 5 6 
#
# 1 0.022348 -0.002785 -0.005688 0.000000 0.000000 0.000000
# 2 -0.002785 0.021351 -0.001583 0.000000 0.000000 0.000000
# 3 -0.005688 -0.001583 0.011187 0.000000 0.000000 0.000000
# 4 0.000000 0.000000 0.000000 0.022814 0.000000 0.000000
# 5 0.000000 0.000000 0.000000 0.000000 0.035764 0.000000
# 6 0.000000 0.000000 0.000000 0.000000 0.000000 0.044790
#
#
# Mechanical properties :
#
#
# Convention : Reuss Voigt Hill
#
# Bulk Modulus (GPa) = 28.75754 33.87239 31.31496
# Shear Modulus (GPa) = 26.32180 29.39341 27.85760
#
# Velocity S-wave (km/s) = 3.41531 3.60909 3.51353
# Velocity P-wave (km/s) = 5.31941 5.69014 5.50790
#
# Compressibility (1/GPa) = 0.03477349
#
# Stress axis : x y z
#
# Youngs Moduli (GPa) = 44.74650 46.83719 89.39269
#
# Poissons Ratio (x) = 0.13046 0.50845
# Poissons Ratio (y) = 0.12464 0.14147
# Poissons Ratio (z) = 0.25451 0.07413
#
# Static dielectric constant tensor:
#      x y z
#    x 1.750560 0.000000 0.000000 
#    y 0.000000 1.872000 0.000000 
#    z 0.000000 0.000000 1.891030 
# 
# From -- ./inp_files/4232.got.cif
#   From: 2010.05.17/outbox.cif.g08.bks.cpg/sg26_3_cif.got.tgz:4232.got - 2010.06.04 01:07:29.
