data_PCOD9338275
_publ_section_title
;
Structure prediction by ZEFSAII (Michael W. Deem and Ramdas Pophale) SiO2 
 PCOD9338275
Probable space group: P M C 21
;
_chemical_formula_sum "Si O2"
_cell_formula_units_Z 32
_cell_length_a 10.080572
_cell_length_b 14.385444
_cell_length_c 10.707350
_cell_angle_alpha 90.000000
_cell_angle_beta 90.000000
_cell_angle_gamma 90.000000
_cell_volume 1552.710342
_symmetry_space_group_name_H-M "P M C 21"
_symmetry_group_IT_number 26
_symmetry_cell_setting 'orthorhombic'
loop_
_space_group_symop_operation_xyz
x,y,z
-x,-y,1/2+z
-x,y,z
x,-y,1/2+z
loop_
_atom_site_type_symbol
_atom_site_label
_atom_site_fract_x
_atom_site_fract_y
_atom_site_fract_z
Si Si1 0.339826 0.090358 0.162590
Si Si2 0.844227 0.705838 0.286325
Si Si3 0.639433 0.478742 0.019652
Si Si4 0.656704 0.960489 0.939324
Si Si5 0.652160 0.241747 0.560770
Si Si6 0.646110 0.374696 0.323220
Si Si7 0.847264 0.497986 0.212853
Si Si8 0.349021 0.741989 0.503570
O O1 0.500000 0.078565 0.168269
O O2 0.289716 0.054199 0.297560
O O3 0.317956 0.198902 0.128391
O O4 0.290279 0.035812 0.038910
O O5 0.761374 0.733590 0.163197
O O6 0.840742 0.592387 0.295820
O O7 0.763632 0.753553 0.399175
O O8 0.000000 0.731213 0.280798
O O9 0.500000 0.507760 0.083232
O O10 0.763018 0.521380 0.090070
O O11 0.631767 0.522712 0.884353
O O12 0.645711 0.368545 0.020705
O O13 0.500000 0.982344 0.923921
O O14 0.665988 0.862987 0.011736
O O15 0.500000 0.254089 0.608849
O O16 0.664218 0.304794 0.437166
O O17 0.500000 0.351404 0.267242
O O18 0.780527 0.399647 0.252018
O O19 0.000000 0.482605 0.185474
O O20 0.500000 0.770373 0.463879
#
# Coordination Sequence:
#
# PCOD9338275 Si02
#       8
#     4   4   4   4   4   4   4   4
#     4   9  19  35  58  92 126 152 188 245 305 356
#     4  11  23  37  55  82 119 158 200 247 295 354
#     4  10  20  34  53  78 109 148 193 243 290 344
#     4   9  19  35  58  92 126 152 188 245 305 356
#     4  10  21  36  59  86 115 152 200 247 297 355
#     4  10  20  34  53  78 109 148 193 243 290 344
#     4  11  23  35  51  76 113 158 198 241 291 352
#     4  10  21  36  59  86 115 152 200 247 297 355
#
# _framework density 20.609123
#
# number of rings (size 3 to 8) (size 9 to 14) (size 15 to 20)
#    0.000    2.000    2.500    0.750    3.500    2.500 
#    0.000    0.000    0.000    0.750    0.000    0.000 
#    0.000    0.000    0.000    0.000    0.000    0.000 
#
# Total GULP energy -178170.870861 kJ/mol
# GULP energy per Si atom -5567.839714 kJ/mol
# Density = 2.056222 g / cm^3
# Si number density = 20.609123 Si / 1000 Ang^3
#
#
#
# Elastic Constant Matrix: (Units=GPa)
#
#
# Indices 1 2 3 4 5 6 
#
# 1 132.0144 3.2094 37.1042 0.0000 0.0000 0.0000
# 2 3.2094 68.8868 0.1786 0.0000 0.0000 0.0000
# 3 37.1042 0.1786 50.7700 0.0000 0.0000 0.0000
# 4 0.0000 0.0000 0.0000 20.0556 0.0000 0.0000
# 5 0.0000 0.0000 0.0000 0.0000 -7.2456 0.0000
# 6 0.0000 0.0000 0.0000 0.0000 0.0000 11.7118
#
#
#
# Elastic Compliance Matrix: (Units=1/GPa)
#
#
# Indices 1 2 3 4 5 6 
#
# 1 0.009546 -0.000427 -0.006975 0.000000 0.000000 0.000000
# 2 -0.000427 0.014536 0.000261 0.000000 0.000000 0.000000
# 3 -0.006975 0.000261 0.024793 0.000000 0.000000 0.000000
# 4 0.000000 0.000000 0.000000 0.049861 0.000000 0.000000
# 5 0.000000 0.000000 0.000000 0.000000 -0.138016 0.000000
# 6 0.000000 0.000000 0.000000 0.000000 0.000000 0.085384
#
#
# Mechanical properties :
#
#
# Convention : Reuss Voigt Hill
#
# Bulk Modulus (GPa) = 28.90750 36.96172 32.93461
# Shear Modulus (GPa) = 69.52478 18.98297 44.25388
#
# Velocity S-wave (km/s) = 5.81448 3.03825 4.63892
# Velocity P-wave (km/s) = 7.68990 5.50286 6.68641
#
# Compressibility (1/GPa) = 0.03459310
#
# Stress axis : x y z
#
# Youngs Moduli (GPa) = 104.75997 68.79585 40.33382
#
# Poissons Ratio (x) = 0.02935 0.28132
# Poissons Ratio (y) = 0.04469 -0.01051
# Poissons Ratio (z) = 0.73067 -0.01793
#
# Static dielectric constant tensor:
#      x y z
#    x 1.774820 0.000000 0.000000 
#    y 0.000000 1.794190 0.000000 
#    z 0.000000 0.000000 1.841350 
# 
# From -- ./inp_files/2985.got.cif
#   From: 2010.05.17/outbox.cif.g08.bks.cpg/sg26_2_cif.got.tgz:2985.got - 2010.06.04 01:07:29.
