data_PCOD9338635
_publ_section_title
;
Structure prediction by ZEFSAII (Michael W. Deem and Ramdas Pophale) SiO2 
 PCOD9338635
Probable space group: P M C 21
;
_chemical_formula_sum "Si O2"
_cell_formula_units_Z 32
_cell_length_a 7.404101
_cell_length_b 12.958638
_cell_length_c 13.078379
_cell_angle_alpha 90.000000
_cell_angle_beta 90.000000
_cell_angle_gamma 90.000000
_cell_volume 1254.832074
_symmetry_space_group_name_H-M "P M C 21"
_symmetry_group_IT_number 26
_symmetry_cell_setting 'orthorhombic'
loop_
_space_group_symop_operation_xyz
x,y,z
-x,-y,1/2+z
-x,y,z
x,-y,1/2+z
loop_
_atom_site_type_symbol
_atom_site_label
_atom_site_fract_x
_atom_site_fract_y
_atom_site_fract_z
Si Si1 0.779930 0.565489 0.758420
Si Si2 0.780972 0.373634 0.033768
Si Si3 0.217061 0.338974 0.697091
Si Si4 0.219746 0.398215 0.473822
Si Si5 0.798307 0.110975 0.259165
Si Si6 0.218941 0.930649 0.972936
Si Si7 0.221128 0.846682 0.531929
Si Si8 0.703765 0.888704 0.206373
O O1 0.727184 0.617498 0.652391
O O2 0.722622 0.444811 0.751487
O O3 0.720499 0.626149 0.859203
O O4 0.000000 0.563485 0.760121
O O5 0.720874 0.264115 0.990719
O O6 0.000000 0.373442 0.029633
O O7 0.728966 0.481087 0.984139
O O8 0.281826 0.345651 0.578593
O O9 0.260406 0.227404 0.742530
O O10 0.000000 0.344434 0.695197
O O11 0.000000 0.389100 0.475842
O O12 0.813557 0.985933 0.247962
O O13 0.000000 0.157726 0.261470
O O14 0.715200 0.125797 0.370942
O O15 0.718707 0.144175 0.150610
O O16 0.000000 0.927600 0.968271
O O17 0.269128 0.887202 0.083419
O O18 0.279276 0.050209 0.974906
O O19 0.000000 0.849945 0.532635
O O20 0.500000 0.916577 0.229270
#
# Coordination Sequence:
#
# PCOD9338635 Si02
#       8
#     4   4   4   4   4   4   4   4
#     4   8  14  24  40  65  94 119 146 188 238 280
#     4   8  13  21  34  57  88 115 139 174 225 281
#     4   9  17  30  48  70  96 125 161 201 238 287
#     4   8  14  24  40  65  94 119 146 188 238 280
#     4   9  18  33  52  73  96 124 161 204 248 292
#     4   9  18  33  52  73  96 124 161 204 248 292
#     4   8  14  25  42  67  96 119 143 184 240 293
#     4  11  22  34  49  70 100 135 167 203 247 297
#
# _framework density 25.501422000000002
#
# number of rings (size 3 to 8) (size 9 to 14) (size 15 to 20)
#    0.000    3.250    0.000    3.375    0.000    2.500 
#    0.000    7.500    0.000    0.750    0.000   14.000 
#    0.000    0.000    0.000    0.000    0.000    0.000 
#
# Total GULP energy -178691.143571 kJ/mol
# GULP energy per Si atom -5584.098237 kJ/mol
# Density = 2.544338 g / cm^3
# Si number density = 25.501422 Si / 1000 Ang^3
#
#
#
# Elastic Constant Matrix: (Units=GPa)
#
#
# Indices 1 2 3 4 5 6 
#
# 1 92.6945 -8.2391 -8.1399 0.0000 0.0000 0.0000
# 2 -8.2391 127.3043 -18.7082 0.0000 0.0000 0.0000
# 3 -8.1399 -18.7082 94.1168 0.0000 0.0000 0.0000
# 4 0.0000 0.0000 0.0000 -14.5547 0.0000 0.0000
# 5 0.0000 0.0000 0.0000 0.0000 11.8127 0.0000
# 6 0.0000 0.0000 0.0000 0.0000 0.0000 89.8666
#
#
#
# Elastic Compliance Matrix: (Units=1/GPa)
#
#
# Indices 1 2 3 4 5 6 
#
# 1 0.010964 0.000875 0.001122 0.000000 0.000000 0.000000
# 2 0.000875 0.008161 0.001698 0.000000 0.000000 0.000000
# 3 0.001122 0.001698 0.011060 0.000000 0.000000 0.000000
# 4 0.000000 0.000000 0.000000 -0.068706 0.000000 0.000000
# 5 0.000000 0.000000 0.000000 0.000000 0.084655 0.000000
# 6 0.000000 0.000000 0.000000 0.000000 0.000000 0.011128
#
#
# Mechanical properties :
#
#
# Convention : Reuss Voigt Hill
#
# Bulk Modulus (GPa) = 26.61386 27.10459 26.85922
# Shear Modulus (GPa) = 80.13168 40.70510 60.41839
#
# Velocity S-wave (km/s) = 5.61165 3.99957 4.87274
# Velocity P-wave (km/s) = 7.24199 5.65513 6.49719
#
# Compressibility (1/GPa) = 0.03757441
#
# Stress axis : x y z
#
# Youngs Moduli (GPa) = 91.20433 122.52939 90.41884
#
# Poissons Ratio (x) = -0.10715 -0.10146
# Poissons Ratio (y) = -0.07976 -0.15352
# Poissons Ratio (z) = -0.10234 -0.20804
#
# Static dielectric constant tensor:
#      x y z
#    x 2.023620 0.000000 0.000000 
#    y 0.000000 1.988740 0.000000 
#    z 0.000000 0.000000 1.991650 
# 
# From -- ./inp_files/4343.got.cif
#   From: 2010.05.17/outbox.cif.g08.bks.cpg/sg26_3_cif.got.tgz:4343.got - 2010.06.04 01:07:29.
