data_PCOD9338600
_publ_section_title
;
Structure prediction by ZEFSAII (Michael W. Deem and Ramdas Pophale) SiO2 
 PCOD9338600
Probable space group: P M C 21
;
_chemical_formula_sum "Si O2"
_cell_formula_units_Z 20
_cell_length_a 13.448146
_cell_length_b 5.114154
_cell_length_c 13.542027
_cell_angle_alpha 90.000000
_cell_angle_beta 90.000000
_cell_angle_gamma 90.000000
_cell_volume 931.364955
_symmetry_space_group_name_H-M "P M C 21"
_symmetry_group_IT_number 26
_symmetry_cell_setting 'orthorhombic'
loop_
_space_group_symop_operation_xyz
x,y,z
-x,-y,1/2+z
-x,y,z
x,-y,1/2+z
loop_
_atom_site_type_symbol
_atom_site_label
_atom_site_fract_x
_atom_site_fract_y
_atom_site_fract_z
Si Si1 0.186518 0.900816 0.720370
Si Si2 0.675252 0.957853 0.056543
Si Si3 0.607295 0.090849 0.767876
Si Si4 0.315317 0.548095 0.427345
Si Si5 0.111332 0.404052 0.821438
O O1 0.293684 0.913664 0.777503
O O2 0.139998 0.619980 0.738690
O O3 0.217878 0.988196 0.610363
O O4 0.120697 0.121349 0.771391
O O5 0.609367 0.872346 0.149924
O O6 0.669695 0.730507 0.976914
O O7 0.650145 0.231416 0.005786
O O8 0.500000 0.985474 0.798612
O O9 0.629854 0.356368 0.827450
O O10 0.197792 0.577124 0.402993
O O11 0.000000 0.450645 0.857864
#
# Coordination Sequence:
#
# PCOD9338600 Si02
#       5
#     4   4   4   4   4
#     4   9  21  40  62  90 129 169 206 277 316 380
#     4  10  23  40  64  91 134 169 217 267 326 381
#     4   9  22  41  66  96 132 176 217 266 332 390
#     4  11  22  41  65  94 133 171 215 273 325 390
#     4  11  21  40  66  93 126 173 216 267 332 391
#
# _framework density 21.473856999999999
#
# number of rings (size 3 to 8) (size 9 to 14) (size 15 to 20)
#    1.200    0.800    0.000    4.200    0.000    1.600 
#    0.000   20.000    0.000    0.000    0.000    0.000 
#    0.000    0.000    0.000    0.000    0.000    0.000 
#
# Total GULP energy -111430.506587 kJ/mol
# GULP energy per Si atom -5571.525329 kJ/mol
# Density = 2.142498 g / cm^3
# Si number density = 21.473857 Si / 1000 Ang^3
#
#
#
# Elastic Constant Matrix: (Units=GPa)
#
#
# Indices 1 2 3 4 5 6 
#
# 1 115.6542 2.2222 7.7637 0.0000 0.0000 0.0000
# 2 2.2222 69.0222 34.3318 0.0000 0.0000 0.0000
# 3 7.7637 34.3318 89.0642 0.0000 0.0000 0.0000
# 4 0.0000 0.0000 0.0000 17.3313 0.0000 0.0000
# 5 0.0000 0.0000 0.0000 0.0000 121.3064 0.0000
# 6 0.0000 0.0000 0.0000 0.0000 0.0000 10.2310
#
#
#
# Elastic Compliance Matrix: (Units=1/GPa)
#
#
# Indices 1 2 3 4 5 6 
#
# 1 0.008698 0.000120 -0.000805 0.000000 0.000000 0.000000
# 2 0.000120 0.017927 -0.006921 0.000000 0.000000 0.000000
# 3 -0.000805 -0.006921 0.013966 0.000000 0.000000 0.000000
# 4 0.000000 0.000000 0.000000 0.057699 0.000000 0.000000
# 5 0.000000 0.000000 0.000000 0.000000 0.008244 0.000000
# 6 0.000000 0.000000 0.000000 0.000000 0.000000 0.097742
#
#
# Mechanical properties :
#
#
# Convention : Reuss Voigt Hill
#
# Bulk Modulus (GPa) = 39.40058 40.26398 39.83228
# Shear Modulus (GPa) = 21.93504 45.06859 33.50182
#
# Velocity S-wave (km/s) = 3.19952 4.58620 3.95412
# Velocity P-wave (km/s) = 5.66015 6.84363 6.27983
#
# Compressibility (1/GPa) = 0.02538034
#
# Stress axis : x y z
#
# Youngs Moduli (GPa) = 114.96679 55.78309 71.60393
#
# Poissons Ratio (x) = -0.00670 0.05761
# Poissons Ratio (y) = -0.01381 0.49555
# Poissons Ratio (z) = 0.09249 0.38606
#
# Static dielectric constant tensor:
#      x y z
#    x 1.639400 0.000000 0.000000 
#    y 0.000000 1.770280 0.000000 
#    z 0.000000 0.000000 1.809510 
# 
# From -- ./inp_files/3476.got.cif
#   From: 2010.05.17/outbox.cif.g08.bks.cpg/sg26_2_cif.got.tgz:3476.got - 2010.06.04 01:07:29.
