data_PCOD9338944
_publ_section_title
;
Structure prediction by ZEFSAII (Michael W. Deem and Ramdas Pophale) SiO2 
 PCOD9338944
Probable space group: P C C 2
;
_chemical_formula_sum "Si O2"
_cell_formula_units_Z 16
_cell_length_a 6.259983
_cell_length_b 12.476186
_cell_length_c 9.469971
_cell_angle_alpha 90.000000
_cell_angle_beta 90.000000
_cell_angle_gamma 90.000000
_cell_volume 739.611480
_symmetry_space_group_name_H-M "P C C 2"
_symmetry_group_IT_number 27
_symmetry_cell_setting 'orthorhombic'
loop_
_space_group_symop_operation_xyz
x,y,z
-x,-y,z
-x,y,1/2+z
x,-y,1/2+z
loop_
_atom_site_type_symbol
_atom_site_label
_atom_site_fract_x
_atom_site_fract_y
_atom_site_fract_z
Si Si1 0.500000 0.000000 0.806551
Si Si2 0.391940 0.609208 0.904896
Si Si3 0.729910 0.691690 0.132835
Si Si4 0.798993 0.080591 0.554292
Si Si5 0.000000 0.500000 0.058529
O O1 0.661576 0.055824 0.695677
O O2 0.349841 0.065781 0.915934
O O3 0.500000 0.500000 0.844293
O O4 0.366250 0.700760 0.788378
O O5 0.171710 0.566392 0.968893
O O6 0.543956 0.656147 0.026158
O O7 0.853002 0.794294 0.073347
O O8 0.880542 0.589064 0.147564
O O9 0.000000 0.000000 0.545933
#
# Coordination Sequence:
#
# PCOD9338944 Si02
#       5
#     2   4   4   4   2
#     4  10  24  44  64  94 126 164 218 274 330 390
#     4  10  21  39  61  92 128 164 205 253 312 378
#     4  11  23  40  64  91 125 164 207 257 312 380
#     4  11  24  43  67  94 127 170 219 271 330 390
#     4  10  22  36  62  96 128 162 204 250 308 376
#
# _framework density 21.632981000000001
#
# number of rings (size 3 to 8) (size 9 to 14) (size 15 to 20)
#    0.000    1.500    0.000    5.250    0.000   10.000 
#    0.000    0.000    0.000    0.000    0.000    0.000 
#    0.000    0.000    0.000    0.000    0.000    0.000 
#
# Total GULP energy -89324.090501 kJ/mol
# GULP energy per Si atom -5582.755656 kJ/mol
# Density = 2.158374 g / cm^3
# Si number density = 21.632981 Si / 1000 Ang^3
#
#
#
# Elastic Constant Matrix: (Units=GPa)
#
#
# Indices 1 2 3 4 5 6 
#
# 1 93.7421 44.9730 20.4186 0.0000 0.0000 0.0000
# 2 44.9730 81.3271 29.4245 0.0000 0.0000 0.0000
# 3 20.4186 29.4245 82.9587 0.0000 0.0000 0.0000
# 4 0.0000 0.0000 0.0000 -14.3911 0.0000 0.0000
# 5 0.0000 0.0000 0.0000 0.0000 13.1138 0.0000
# 6 0.0000 0.0000 0.0000 0.0000 0.0000 28.1122
#
#
#
# Elastic Compliance Matrix: (Units=1/GPa)
#
#
# Indices 1 2 3 4 5 6 
#
# 1 0.014570 -0.007755 -0.000836 0.000000 0.000000 0.000000
# 2 -0.007755 0.018234 -0.004559 0.000000 0.000000 0.000000
# 3 -0.000836 -0.004559 0.013877 0.000000 0.000000 0.000000
# 4 0.000000 0.000000 0.000000 -0.069487 0.000000 0.000000
# 5 0.000000 0.000000 0.000000 0.000000 0.076255 0.000000
# 6 0.000000 0.000000 0.000000 0.000000 0.000000 0.035572
#
#
# Mechanical properties :
#
#
# Convention : Reuss Voigt Hill
#
# Bulk Modulus (GPa) = 49.06166 49.74001 49.40084
# Shear Modulus (GPa) = 40.94601 16.24777 28.59689
#
# Velocity S-wave (km/s) = 4.35530 2.74353 3.63975
# Velocity P-wave (km/s) = 6.92964 5.75139 6.36783
#
# Compressibility (1/GPa) = 0.02038251
#
# Stress axis : x y z
#
# Youngs Moduli (GPa) = 68.63467 54.84381 72.06308
#
# Poissons Ratio (x) = 0.42530 0.06021
# Poissons Ratio (y) = 0.53224 0.32851
# Poissons Ratio (z) = 0.05735 0.25001
#
# Static dielectric constant tensor:
#      x y z
#    x 1.830410 0.000000 0.000000 
#    y 0.000000 1.818620 0.000000 
#    z 0.000000 0.000000 1.767710 
# 
# From -- ./inp_files/836.got.cif
#   From: 2010.05.17/outbox.cif.g08.bks.cpg/sg27_1_cif.got.tgz:836.got - 2010.06.04 01:11:05.
