data_PCOD9338704
_publ_section_title
;
Structure prediction by ZEFSAII (Michael W. Deem and Ramdas Pophale) SiO2 
 PCOD9338704
Probable space group: P M C 21
;
_chemical_formula_sum "Si O2"
_cell_formula_units_Z 32
_cell_length_a 9.000000
_cell_length_b 15.000000
_cell_length_c 12.000000
_cell_angle_alpha 90.000000
_cell_angle_beta 90.000000
_cell_angle_gamma 90.000000
_cell_volume 1620.000000
_symmetry_space_group_name_H-M "P M C 21"
_symmetry_group_IT_number 26
_symmetry_cell_setting 'orthorhombic'
loop_
_space_group_symop_operation_xyz
x,y,z
-x,-y,1/2+z
-x,y,z
x,-y,1/2+z
loop_
_atom_site_type_symbol
_atom_site_label
_atom_site_fract_x
_atom_site_fract_y
_atom_site_fract_z
Si Si1 0.677912 0.161882 0.166520
Si Si2 0.322675 0.845276 0.406187
Si Si3 0.169071 0.716715 0.242889
Si Si4 0.178155 0.016767 0.735473
Si Si5 0.179127 0.450043 0.418479
Si Si6 0.179180 0.480919 0.669955
Si Si7 0.675520 0.734416 0.875609
Si Si8 0.830230 0.141917 0.541776
O O1 0.500000 0.145765 0.171349
O O2 0.706225 0.247902 0.244414
O O3 0.763758 0.082622 0.227739
O O4 0.720685 0.164317 0.036203
O O5 0.500000 0.855965 0.400689
O O6 0.271930 0.757710 0.338114
O O7 0.247076 0.926379 0.337139
O O8 0.213492 0.622411 0.193659
O O9 0.165684 0.784469 0.139784
O O10 0.000000 0.709278 0.287057
O O11 0.221531 0.057463 0.613845
O O12 0.000000 0.023061 0.743533
O O13 0.227714 0.496605 0.538322
O O14 0.229542 0.477775 0.291167
O O15 0.231609 0.347855 0.423030
O O16 0.000000 0.456442 0.418472
O O17 0.000000 0.494139 0.667683
O O18 0.500000 0.718978 0.889530
O O19 0.725034 0.820994 0.946257
O O20 0.000000 0.128322 0.500767
#
# Coordination Sequence:
#
# PCOD9338704 Si02
#       8
#     4   4   4   4   4   4   4   4
#     4  10  24  41  55  78 116 156 193 236 289 350
#     4  10  21  38  57  80 113 151 190 234 289 353
#     4   9  17  34  58  84 111 142 186 237 285 339
#     4  10  22  38  59  86 113 144 188 243 292 338
#     4  10  20  38  61  87 117 153 197 246 301 358
#     4   9  18  34  59  87 116 149 191 242 295 354
#     4  11  23  38  57  83 115 155 196 236 284 345
#     4   9  18  35  58  83 111 142 181 234 283 335
#
# _framework density 19.753086
#
# number of rings (size 3 to 8) (size 9 to 14) (size 15 to 20)
#    0.000    2.250    1.250    1.875    1.750    5.500 
#    0.000    2.500    0.000    0.000    0.000    0.000 
#    0.000    0.000    0.000    0.000    0.000    0.000 
#
# Total GULP energy -178235.280531 kJ/mol
# GULP energy per Si atom -5569.852517 kJ/mol
# Density = 1.970813 g / cm^3
# Si number density = 19.753086 Si / 1000 Ang^3
#
#
#
# Elastic Constant Matrix: (Units=GPa)
#
#
# Indices 1 2 3 4 5 6 
#
# 1 19.1917 0.2295 26.1052 0.0000 0.0000 0.0000
# 2 0.2295 36.5711 19.0470 0.0000 0.0000 0.0000
# 3 26.1052 19.0470 157.3415 0.0000 0.0000 0.0000
# 4 0.0000 0.0000 0.0000 23.3331 0.0000 0.0000
# 5 0.0000 0.0000 0.0000 0.0000 27.0932 0.0000
# 6 0.0000 0.0000 0.0000 0.0000 0.0000 12.5848
#
#
#
# Elastic Compliance Matrix: (Units=1/GPa)
#
#
# Indices 1 2 3 4 5 6 
#
# 1 0.068447 0.005854 -0.012065 0.000000 0.000000 0.000000
# 2 0.005854 0.029685 -0.004565 0.000000 0.000000 0.000000
# 3 -0.012065 -0.004565 0.008910 0.000000 0.000000 0.000000
# 4 0.000000 0.000000 0.000000 0.042858 0.000000 0.000000
# 5 0.000000 0.000000 0.000000 0.000000 0.036910 0.000000
# 6 0.000000 0.000000 0.000000 0.000000 0.000000 0.079461
#
#
# Mechanical properties :
#
#
# Convention : Reuss Voigt Hill
#
# Bulk Modulus (GPa) = 11.69719 33.76306 22.73013
# Shear Modulus (GPa) = 15.80687 23.78372 19.79529
#
# Velocity S-wave (km/s) = 2.83189 3.47371 3.16909
# Velocity P-wave (km/s) = 4.07767 5.76355 4.99229
#
# Compressibility (1/GPa) = 0.08549059
#
# Stress axis : x y z
#
# Youngs Moduli (GPa) = 14.60980 33.68738 112.23407
#
# Poissons Ratio (x) = -0.19721 1.35411
# Poissons Ratio (y) = -0.08553 0.51232
# Poissons Ratio (z) = 0.17627 0.15378
#
# Static dielectric constant tensor:
#      x y z
#    x 1.660400 0.000000 0.000000 
#    y 0.000000 1.723990 0.000000 
#    z 0.000000 0.000000 1.732830 
# 
# From -- ./inp_files/3006.got.cif
#   From: 2010.05.17/outbox.ucp.g08.bks.cvg/sg26_2_cif.got.tgz:3006.got - 2010.06.11 15:23:25.
