data_PCOD9338152
_publ_section_title
;
Structure prediction by ZEFSAII (Michael W. Deem and Ramdas Pophale) SiO2 
 PCOD9338152
Probable space group: P M C 21
;
_chemical_formula_sum "Si O2"
_cell_formula_units_Z 32
_cell_length_a 7.930497
_cell_length_b 12.809738
_cell_length_c 14.505287
_cell_angle_alpha 90.000000
_cell_angle_beta 90.000000
_cell_angle_gamma 90.000000
_cell_volume 1473.557131
_symmetry_space_group_name_H-M "P M C 21"
_symmetry_group_IT_number 26
_symmetry_cell_setting 'orthorhombic'
loop_
_space_group_symop_operation_xyz
x,y,z
-x,-y,1/2+z
-x,y,z
x,-y,1/2+z
loop_
_atom_site_type_symbol
_atom_site_label
_atom_site_fract_x
_atom_site_fract_y
_atom_site_fract_z
Si Si1 0.312124 0.240089 0.013170
Si Si2 0.793325 0.883205 0.985511
Si Si3 0.806076 0.078613 0.871928
Si Si4 0.798748 0.359681 0.184525
Si Si5 0.194481 0.442287 0.919866
Si Si6 0.204358 0.817756 0.182937
Si Si7 0.302627 0.416644 0.713462
Si Si8 0.794209 0.668062 0.894072
O O1 0.500000 0.196999 0.010868
O O2 0.258006 0.269338 0.115712
O O3 0.198126 0.163640 0.953441
O O4 0.302794 0.351406 0.962762
O O5 0.743547 0.883774 0.092967
O O6 0.000000 0.887722 0.984759
O O7 0.740470 0.771709 0.945119
O O8 0.731009 0.974982 0.918545
O O9 0.733029 0.131230 0.779112
O O10 0.000000 0.053395 0.848261
O O11 0.738382 0.476762 0.158567
O O12 0.737914 0.335608 0.287929
O O13 0.000000 0.362468 0.184955
O O14 0.200758 0.428335 0.809296
O O15 0.256819 0.558893 0.939580
O O16 0.000000 0.430168 0.951030
O O17 0.259126 0.696793 0.173091
O O18 0.000000 0.815182 0.186015
O O19 0.500000 0.417940 0.735399
O O20 0.000000 0.666542 0.893677
#
# Coordination Sequence:
#
# PCOD9338152 Si02
#       8
#     4   4   4   4   4   4   4   4
#     4  12  24  37  56  86 122 160 203 250 307 364
#     4   9  19  36  60  91 118 151 205 261 302 352
#     4  10  21  38  60  86 119 158 205 251 302 366
#     4  10  21  37  59  86 121 163 204 249 304 369
#     4  10  19  34  57  85 118 159 203 245 300 361
#     4  10  20  35  59  87 117 158 205 253 304 360
#     4  11  21  35  56  86 124 160 198 247 306 364
#     4   8  17  34  57  87 119 149 191 250 303 350
#
# _framework density 21.716156999999999
#
# number of rings (size 3 to 8) (size 9 to 14) (size 15 to 20)
#    0.000    2.000    1.250    3.750    1.750    1.000 
#    0.000    4.375    0.000    6.750    0.000    0.000 
#    0.000    0.000    0.000    0.000    0.000    0.000 
#
# Total GULP energy -178674.297956 kJ/mol
# GULP energy per Si atom -5583.571811 kJ/mol
# Density = 2.166673 g / cm^3
# Si number density = 21.716157 Si / 1000 Ang^3
#
#
#
# Elastic Constant Matrix: (Units=GPa)
#
#
# Indices 1 2 3 4 5 6 
#
# 1 48.8185 -2.2004 -2.7212 0.0000 0.0000 0.0000
# 2 -2.2004 99.4784 27.1319 0.0000 0.0000 0.0000
# 3 -2.7212 27.1319 72.9211 0.0000 0.0000 0.0000
# 4 0.0000 0.0000 0.0000 22.4893 0.0000 0.0000
# 5 0.0000 0.0000 0.0000 0.0000 -2.0905 0.0000
# 6 0.0000 0.0000 0.0000 0.0000 0.0000 -121.0537
#
#
#
# Elastic Compliance Matrix: (Units=1/GPa)
#
#
# Indices 1 2 3 4 5 6 
#
# 1 0.020533 0.000273 0.000665 0.000000 0.000000 0.000000
# 2 0.000273 0.011191 -0.004154 0.000000 0.000000 0.000000
# 3 0.000665 -0.004154 0.015284 0.000000 0.000000 0.000000
# 4 0.000000 0.000000 0.000000 0.044466 0.000000 0.000000
# 5 0.000000 0.000000 0.000000 0.000000 -0.478354 0.000000
# 6 0.000000 0.000000 0.000000 0.000000 0.000000 -0.008261
#
#
# Mechanical properties :
#
#
# Convention : Reuss Voigt Hill
#
# Bulk Modulus (GPa) = 24.64503 29.51539 27.08021
# Shear Modulus (GPa) = -13.32683 -6.86380 -10.09531
#
# Velocity S-wave (km/s) = -2.47995 -1.77976 -2.15844
# Velocity P-wave (km/s) = 1.78133 3.06554 2.50706
#
# Compressibility (1/GPa) = 0.04057613
#
# Stress axis : x y z
#
# Youngs Moduli (GPa) = 48.70119 89.35447 65.42884
#
# Poissons Ratio (x) = -0.02438 -0.04349
# Poissons Ratio (y) = -0.01329 0.27178
# Poissons Ratio (z) = -0.03237 0.37116
#
# Static dielectric constant tensor:
#      x y z
#    x 1.771420 0.000000 0.000000 
#    y 0.000000 1.776290 0.000000 
#    z 0.000000 0.000000 1.821700 
# 
# From -- ./inp_files/4228.got.cif
#   From: 2010.05.17/outbox.cif.g08.bks.cpg/sg26_3_cif.got.tgz:4228.got - 2010.06.04 01:07:29.
