data_PCOD9338427
_publ_section_title
;
Structure prediction by ZEFSAII (Michael W. Deem and Ramdas Pophale) SiO2 
 PCOD9338427
Probable space group: P M C 21
;
_chemical_formula_sum "Si O2"
_cell_formula_units_Z 32
_cell_length_a 13.853277
_cell_length_b 8.333976
_cell_length_c 13.789560
_cell_angle_alpha 90.000000
_cell_angle_beta 90.000000
_cell_angle_gamma 90.000000
_cell_volume 1592.044389
_symmetry_space_group_name_H-M "P M C 21"
_symmetry_group_IT_number 26
_symmetry_cell_setting 'orthorhombic'
loop_
_space_group_symop_operation_xyz
x,y,z
-x,-y,1/2+z
-x,y,z
x,-y,1/2+z
loop_
_atom_site_type_symbol
_atom_site_label
_atom_site_fract_x
_atom_site_fract_y
_atom_site_fract_z
Si Si1 0.769492 0.554609 0.853480
Si Si2 0.110529 0.243634 0.805170
Si Si3 0.607723 0.044746 0.882937
Si Si4 0.269470 0.726431 0.651861
Si Si5 0.109209 0.873953 0.526691
Si Si6 0.711030 0.099108 0.692288
Si Si7 0.241016 0.827142 0.993786
Si Si8 0.610003 0.383849 0.982923
O O1 0.845223 0.420421 0.819973
O O2 0.744440 0.652606 0.757123
O O3 0.803152 0.677510 0.937284
O O4 0.676917 0.471764 0.904213
O O5 0.185024 0.141609 0.740163
O O6 0.000000 0.243729 0.769342
O O7 0.110874 0.173847 0.913946
O O8 0.500000 0.976009 0.880719
O O9 0.635731 0.119325 0.779108
O O10 0.610587 0.195375 0.955006
O O11 0.686182 0.917469 0.920113
O O12 0.171675 0.748548 0.588966
O O13 0.341199 0.618494 0.588349
O O14 0.301068 0.911998 0.664335
O O15 0.000000 0.880208 0.561940
O O16 0.160224 0.046582 0.527254
O O17 0.702320 0.203682 0.594571
O O18 0.500000 0.441960 0.982105
#
# Coordination Sequence:
#
# PCOD9338427 Si02
#       8
#     4   4   4   4   4   4   4   4
#     4  12  24  41  65  95 140 171 207 267 330 400
#     4  11  23  41  65  92 128 168 210 261 323 388
#     4  11  21  41  66  93 126 168 223 267 317 383
#     4  11  22  41  69  91 129 170 216 270 320 380
#     4  10  20  41  68  91 122 167 220 267 316 377
#     4  11  21  42  66  93 125 165 220 266 324 370
#     4  11  23  40  64  98 132 166 214 272 322 383
#     4  11  24  43  65  93 132 175 218 264 326 389
#
# _framework density 20.099943
#
# number of rings (size 3 to 8) (size 9 to 14) (size 15 to 20)
#    0.000    1.000    7.500    0.000    1.750    5.000 
#    0.000    2.500    0.000    0.000    0.000    0.000 
#    0.000    0.000    0.000    0.000    0.000    0.000 
#
# Total GULP energy -178609.317643 kJ/mol
# GULP energy per Si atom -5581.541176 kJ/mol
# Density = 2.005419 g / cm^3
# Si number density = 20.099943 Si / 1000 Ang^3
#
#
#
# Elastic Constant Matrix: (Units=GPa)
#
#
# Indices 1 2 3 4 5 6 
#
# 1 87.0233 16.7904 15.1275 0.0000 0.0000 0.0000
# 2 16.7904 51.2827 14.6153 0.0000 0.0000 0.0000
# 3 15.1275 14.6153 102.2239 0.0000 0.0000 0.0000
# 4 0.0000 0.0000 0.0000 37.6931 0.0000 0.0000
# 5 0.0000 0.0000 0.0000 0.0000 1.2580 0.0000
# 6 0.0000 0.0000 0.0000 0.0000 0.0000 -5.6068
#
#
#
# Elastic Compliance Matrix: (Units=1/GPa)
#
#
# Indices 1 2 3 4 5 6 
#
# 1 0.012432 -0.003697 -0.001311 0.000000 0.000000 0.000000
# 2 -0.003697 0.021427 -0.002516 0.000000 0.000000 0.000000
# 3 -0.001311 -0.002516 0.010336 0.000000 0.000000 0.000000
# 4 0.000000 0.000000 0.000000 0.026530 0.000000 0.000000
# 5 0.000000 0.000000 0.000000 0.000000 0.794909 0.000000
# 6 0.000000 0.000000 0.000000 0.000000 0.000000 -0.178356
#
#
# Mechanical properties :
#
#
# Convention : Reuss Voigt Hill
#
# Bulk Modulus (GPa) = 34.30889 37.06625 35.68757
# Shear Modulus (GPa) = 7.02204 19.60199 13.31202
#
# Velocity S-wave (km/s) = 1.87114 3.12625 2.57629
# Velocity P-wave (km/s) = 4.66630 5.61358 5.16172
#
# Compressibility (1/GPa) = 0.02914697
#
# Stress axis : x y z
#
# Youngs Moduli (GPa) = 80.43517 46.66947 96.74664
#
# Poissons Ratio (x) = 0.17253 0.12686
# Poissons Ratio (y) = 0.29735 0.24346
# Poissons Ratio (z) = 0.10547 0.11744
#
# Static dielectric constant tensor:
#      x y z
#    x 1.723610 0.000000 0.000000 
#    y 0.000000 1.719320 0.000000 
#    z 0.000000 0.000000 1.729430 
# 
# From -- ./inp_files/3609.got.cif
#   From: 2010.05.17/outbox.cif.g08.bks.cpg/sg26_2_cif.got.tgz:3609.got - 2010.06.04 01:07:29.
