data_PCOD9338814
_publ_section_title
;
Structure prediction by ZEFSAII (Michael W. Deem and Ramdas Pophale) SiO2 
 PCOD9338814
Probable space group: P C C 2
;
_chemical_formula_sum "Si O2"
_cell_formula_units_Z 32
_cell_length_a 16.052056
_cell_length_b 5.386805
_cell_length_c 13.981959
_cell_angle_alpha 90.000000
_cell_angle_beta 90.000000
_cell_angle_gamma 90.000000
_cell_volume 1209.010145
_symmetry_space_group_name_H-M "P C C 2"
_symmetry_group_IT_number 27
_symmetry_cell_setting 'orthorhombic'
loop_
_space_group_symop_operation_xyz
x,y,z
-x,-y,z
-x,y,1/2+z
x,-y,1/2+z
loop_
_atom_site_type_symbol
_atom_site_label
_atom_site_fract_x
_atom_site_fract_y
_atom_site_fract_z
Si Si1 0.446068 0.748113 0.977530
Si Si2 0.879350 0.843913 0.551417
Si Si3 0.335401 0.993370 0.353188
Si Si4 0.443770 0.749129 0.194180
Si Si5 0.022572 0.757403 0.706446
Si Si6 0.261894 0.251973 0.026067
Si Si7 0.198322 0.646544 0.887461
Si Si8 0.800258 0.460734 0.690238
O O1 0.500000 0.500000 0.969466
O O2 0.393787 0.773389 0.879403
O O3 0.500000 0.000000 0.976446
O O4 0.408234 0.731760 0.085345
O O5 0.883662 0.716657 0.446626
O O6 0.820417 0.696995 0.625939
O O7 0.965527 0.791297 0.610036
O O8 0.823971 0.088156 0.523751
O O9 0.244722 0.117357 0.340511
O O10 0.373187 0.812689 0.273875
O O11 0.328863 0.879668 0.460630
O O12 0.500000 0.500000 0.208958
O O13 0.500000 0.000000 0.196352
O O14 0.119360 0.725161 0.685498
O O15 0.000000 0.500000 0.753504
O O16 0.000000 0.000000 0.764732
O O17 0.249544 0.507500 0.969053
O O18 0.274454 0.316435 0.137325
O O19 0.198682 0.461352 0.799253
#
# Coordination Sequence:
#
# PCOD9338814 Si02
#       8
#     4   4   4   4   4   4   4   4
#     4  10  24  46  73 101 137 180 237 291 360 433
#     4   9  20  41  63  96 132 184 237 300 359 433
#     4  11  25  41  70 103 140 195 233 297 371 428
#     4  10  24  46  70 103 139 179 236 296 349 430
#     4  10  19  38  69  96 129 187 233 291 365 412
#     4  10  22  42  64  94 142 182 238 287 361 434
#     4  10  24  42  63 103 138 188 240 302 358 447
#     4  10  21  41  68  96 141 179 242 300 363 426
#
# _framework density 26.467932000000001
#
# number of rings (size 3 to 8) (size 9 to 14) (size 15 to 20)
#    0.000    2.000    1.250    0.375    5.250    3.000 
#    4.500   10.000    0.000    0.000    0.000    0.000 
#    0.000    0.000    0.000    0.000    0.000    0.000 
#
# Total GULP energy -178256.143369 kJ/mol
# GULP energy per Si atom -5570.504480 kJ/mol
# Density = 2.640769 g / cm^3
# Si number density = 26.467932 Si / 1000 Ang^3
#
#
#
# Elastic Constant Matrix: (Units=GPa)
#
#
# Indices 1 2 3 4 5 6 
#
# 1 56.9854 11.0000 11.5695 0.0000 0.0000 0.0000
# 2 11.0000 126.0634 -0.7590 0.0000 0.0000 0.0000
# 3 11.5695 -0.7590 127.6525 0.0000 0.0000 0.0000
# 4 0.0000 0.0000 0.0000 22.5815 0.0000 0.0000
# 5 0.0000 0.0000 0.0000 0.0000 26.4253 0.0000
# 6 0.0000 0.0000 0.0000 0.0000 0.0000 38.9580
#
#
#
# Elastic Compliance Matrix: (Units=1/GPa)
#
#
# Indices 1 2 3 4 5 6 
#
# 1 0.018193 -0.001598 -0.001658 0.000000 0.000000 0.000000
# 2 -0.001598 0.008073 0.000193 0.000000 0.000000 0.000000
# 3 -0.001658 0.000193 0.007985 0.000000 0.000000 0.000000
# 4 0.000000 0.000000 0.000000 0.044284 0.000000 0.000000
# 5 0.000000 0.000000 0.000000 0.000000 0.037842 0.000000
# 6 0.000000 0.000000 0.000000 0.000000 0.000000 0.025669
#
#
# Mechanical properties :
#
#
# Convention : Reuss Voigt Hill
#
# Bulk Modulus (GPa) = 35.55499 39.36916 37.46207
# Shear Modulus (GPa) = 31.73628 36.85233 34.29430
#
# Velocity S-wave (km/s) = 3.46648 3.73545 3.60348
# Velocity P-wave (km/s) = 5.42995 5.78890 5.61230
#
# Compressibility (1/GPa) = 0.02812545
#
# Stress axis : x y z
#
# Youngs Moduli (GPa) = 54.96488 123.86856 125.23137
#
# Poissons Ratio (x) = 0.19788 0.20769
# Poissons Ratio (y) = 0.08781 -0.02414
# Poissons Ratio (z) = 0.09115 -0.02388
#
# Static dielectric constant tensor:
#      x y z
#    x 2.333920 0.000000 0.000000 
#    y 0.000000 2.268640 0.000000 
#    z 0.000000 0.000000 2.121960 
# 
# From -- ./inp_files/3769.got.cif
#   From: 2010.05.17/outbox.cif.g08.bks.cpg/sg27_2_cif.got.tgz:3769.got - 2010.06.04 01:11:05.
