data_PCOD9338904
_publ_section_title
;
Structure prediction by ZEFSAII (Michael W. Deem and Ramdas Pophale) SiO2 
 PCOD9338904
Probable space group: P C C 2
;
_chemical_formula_sum "Si O2"
_cell_formula_units_Z 24
_cell_length_a 25.162968
_cell_length_b 8.688349
_cell_length_c 5.392401
_cell_angle_alpha 90.000000
_cell_angle_beta 90.000000
_cell_angle_gamma 90.000000
_cell_volume 1178.911770
_symmetry_space_group_name_H-M "P C C 2"
_symmetry_group_IT_number 27
_symmetry_cell_setting 'orthorhombic'
loop_
_space_group_symop_operation_xyz
x,y,z
-x,-y,z
-x,y,1/2+z
x,-y,1/2+z
loop_
_atom_site_type_symbol
_atom_site_label
_atom_site_fract_x
_atom_site_fract_y
_atom_site_fract_z
Si Si1 0.611486 0.901717 0.356060
Si Si2 0.478062 0.678737 0.755000
Si Si3 0.204946 0.585762 0.841522
Si Si4 0.738043 0.907543 0.344589
Si Si5 0.060175 0.062119 0.329532
Si Si6 0.923288 0.584475 0.344603
O O1 0.580500 0.738343 0.329359
O O2 0.674772 0.874638 0.351832
O O3 0.599011 0.989629 0.616011
O O4 0.500000 0.500000 0.735943
O O5 0.487896 0.744096 0.482186
O O6 0.221825 0.514121 0.578994
O O7 0.228786 0.753368 0.868319
O O8 0.140894 0.591325 0.842989
O O9 0.749905 0.014131 0.581036
O O10 0.057124 0.243633 0.303929
O O11 0.086590 0.012983 0.588087
O O12 0.000000 0.000000 0.344705
O O13 0.939551 0.520670 0.612655
#
# Coordination Sequence:
#
# PCOD9338904 Si02
#       6
#     4   4   4   4   4   4
#     4  10  21  37  57  81 110 145 183 227 276 334
#     4  10  21  37  53  78 110 138 184 232 268 328
#     4  10  21  38  58  89 118 150 192 238 285 348
#     4  10  21  38  59  86 118 150 188 232 290 347
#     4  10  21  38  56  83 117 149 195 247 283 340
#     4  10  21  38  60  83 117 154 196 238 290 343
#
# _framework density 20.357758
#
# number of rings (size 3 to 8) (size 9 to 14) (size 15 to 20)
#    0.000    2.000    0.000    3.000    0.000    3.333 
#    6.000   10.000    0.000    0.000    0.000    0.000 
#    0.000    0.000    0.000    0.000    0.000    0.000 
#
# Total GULP energy -133865.508268 kJ/mol
# GULP energy per Si atom -5577.729511 kJ/mol
# Density = 2.031142 g / cm^3
# Si number density = 20.357758 Si / 1000 Ang^3
#
#
#
# Elastic Constant Matrix: (Units=GPa)
#
#
# Indices 1 2 3 4 5 6 
#
# 1 24.5320 12.8083 2.5153 0.0000 0.0000 0.0000
# 2 12.8083 49.4050 -12.4769 0.0000 0.0000 0.0000
# 3 2.5153 -12.4769 112.8284 0.0000 0.0000 0.0000
# 4 0.0000 0.0000 0.0000 23.7581 0.0000 0.0000
# 5 0.0000 0.0000 0.0000 0.0000 -24.5918 0.0000
# 6 0.0000 0.0000 0.0000 0.0000 0.0000 42.1957
#
#
#
# Elastic Compliance Matrix: (Units=1/GPa)
#
#
# Indices 1 2 3 4 5 6 
#
# 1 0.047824 -0.013032 -0.002507 0.000000 0.000000 0.000000
# 2 -0.013032 0.024373 0.002986 0.000000 0.000000 0.000000
# 3 -0.002507 0.002986 0.009249 0.000000 0.000000 0.000000
# 4 0.000000 0.000000 0.000000 0.042091 0.000000 0.000000
# 5 0.000000 0.000000 0.000000 0.000000 -0.040664 0.000000
# 6 0.000000 0.000000 0.000000 0.000000 0.000000 0.023699
#
#
# Mechanical properties :
#
#
# Convention : Reuss Voigt Hill
#
# Bulk Modulus (GPa) = 17.74926 21.38432 19.56679
# Shear Modulus (GPa) = 33.23166 20.53365 26.88265
#
# Velocity S-wave (km/s) = 4.04466 3.17935 3.63783
# Velocity P-wave (km/s) = 5.52720 4.89947 5.22277
#
# Compressibility (1/GPa) = 0.05634039
#
# Stress axis : x y z
#
# Youngs Moduli (GPa) = 20.90997 41.02836 108.11877
#
# Poissons Ratio (x) = 0.53467 0.27108
# Poissons Ratio (y) = 0.27249 -0.32282
# Poissons Ratio (z) = 0.05243 -0.12250
#
# Static dielectric constant tensor:
#      x y z
#    x 1.695860 0.000000 0.000000 
#    y 0.000000 2.029380 0.000000 
#    z 0.000000 0.000000 1.753940 
# 
# From -- ./inp_files/660.got.cif
#   From: 2010.05.17/outbox.cif.g08.bks.cpg/sg27_1_cif.got.tgz:660.got - 2010.06.04 01:11:05.
