data_PCOD9338263
_publ_section_title
;
Structure prediction by ZEFSAII (Michael W. Deem and Ramdas Pophale) SiO2 
 PCOD9338263
Probable space group: P M C 21
;
_chemical_formula_sum "Si O2"
_cell_formula_units_Z 32
_cell_length_a 13.964352
_cell_length_b 7.100605
_cell_length_c 11.568973
_cell_angle_alpha 90.000000
_cell_angle_beta 90.000000
_cell_angle_gamma 90.000000
_cell_volume 1147.125540
_symmetry_space_group_name_H-M "P M C 21"
_symmetry_group_IT_number 26
_symmetry_cell_setting 'orthorhombic'
loop_
_space_group_symop_operation_xyz
x,y,z
-x,-y,1/2+z
-x,y,z
x,-y,1/2+z
loop_
_atom_site_type_symbol
_atom_site_label
_atom_site_fract_x
_atom_site_fract_y
_atom_site_fract_z
Si Si1 0.828355 0.754135 0.326930
Si Si2 0.392016 0.774403 0.375791
Si Si3 0.397590 0.336604 0.318295
Si Si4 0.865318 0.221222 0.078899
Si Si5 0.604957 0.277902 0.579510
Si Si6 0.337735 0.121072 0.120505
Si Si7 0.176537 0.663590 0.081106
Si Si8 0.889649 0.670414 0.835962
O O1 0.717903 0.830885 0.340026
O O2 0.890403 0.810959 0.440416
O O3 0.861282 0.776183 0.193449
O O4 0.828046 0.523368 0.327649
O O5 0.500000 0.851764 0.349111
O O6 0.394010 0.558099 0.334569
O O7 0.388321 0.774774 0.514906
O O8 0.500000 0.286909 0.264602
O O9 0.393412 0.241911 0.442577
O O10 0.325023 0.247014 0.232233
O O11 0.769461 0.098301 0.079001
O O12 0.862589 0.450423 0.076675
O O13 0.894046 0.208739 0.216617
O O14 0.500000 0.364821 0.602870
O O15 0.708566 0.367322 0.598327
O O16 0.611373 0.076372 0.640437
O O17 0.150711 0.753228 0.956888
O O18 0.000000 0.615377 0.857244
#
# Coordination Sequence:
#
# PCOD9338263 Si02
#       8
#     4   4   4   4   4   4   4   4
#     4   9  19  32  52  86 120 147 190 247 304 358
#     4  10  20  35  56  82 117 162 208 249 293 356
#     4  10  20  34  51  74 110 156 205 255 300 346
#     4   9  19  36  57  83 114 150 197 253 311 366
#     4  11  23  36  54  84 124 170 212 247 293 360
#     4  11  21  37  57  82 118 160 209 261 305 356
#     4  10  20  37  57  86 124 159 200 249 307 370
#     4  10  20  37  63  89 113 148 196 253 318 378
#
# _framework density 27.895813
#
# number of rings (size 3 to 8) (size 9 to 14) (size 15 to 20)
#    0.000    2.000    0.000    5.625    0.000    7.000 
#    0.000    3.750    0.000    1.500    0.000   10.500 
#    0.000    0.000    0.000    0.000    0.000    0.000 
#
# Total GULP energy -178398.425958 kJ/mol
# GULP energy per Si atom -5574.950811 kJ/mol
# Density = 2.783232 g / cm^3
# Si number density = 27.895813 Si / 1000 Ang^3
#
#
#
# Elastic Constant Matrix: (Units=GPa)
#
#
# Indices 1 2 3 4 5 6 
#
# 1 127.2728 -3.3341 30.6441 0.0000 0.0000 0.0000
# 2 -3.3341 57.0009 3.6181 0.0000 0.0000 0.0000
# 3 30.6441 3.6181 251.8266 0.0000 0.0000 0.0000
# 4 0.0000 0.0000 0.0000 26.4329 0.0000 0.0000
# 5 0.0000 0.0000 0.0000 0.0000 -90.8070 0.0000
# 6 0.0000 0.0000 0.0000 0.0000 0.0000 0.0769
#
#
#
# Elastic Compliance Matrix: (Units=1/GPa)
#
#
# Indices 1 2 3 4 5 6 
#
# 1 0.008111 0.000538 -0.000995 0.000000 0.000000 0.000000
# 2 0.000538 0.017595 -0.000318 0.000000 0.000000 0.000000
# 3 -0.000995 -0.000318 0.004097 0.000000 0.000000 0.000000
# 4 0.000000 0.000000 0.000000 0.037832 0.000000 0.000000
# 5 0.000000 0.000000 0.000000 0.000000 -0.011012 0.000000
# 6 0.000000 0.000000 0.000000 0.000000 0.000000 12.995847
#
#
# Mechanical properties :
#
#
# Convention : Reuss Voigt Hill
#
# Bulk Modulus (GPa) = 35.39596 55.32851 45.36224
# Shear Modulus (GPa) = 0.38275 14.15205 7.26740
#
# Velocity S-wave (km/s) = 0.37082 2.25482 1.61581
# Velocity P-wave (km/s) = 3.59159 5.16294 4.44722
#
# Compressibility (1/GPa) = 0.02825181
#
# Stress axis : x y z
#
# Youngs Moduli (GPa) = 123.29367 56.83365 244.10485
#
# Poissons Ratio (x) = -0.03055 0.24281
# Poissons Ratio (y) = -0.06628 0.07768
# Poissons Ratio (z) = 0.12264 0.01809
#
# Static dielectric constant tensor:
#      x y z
#    x 2.191880 0.000000 0.000000 
#    y 0.000000 2.174010 0.000000 
#    z 0.000000 0.000000 2.276750 
# 
# From -- ./inp_files/3586.got.cif
#   From: 2010.05.17/outbox.cif.g08.bks.cpg/sg26_2_cif.got.tgz:3586.got - 2010.06.04 01:07:29.
