data_PCOD9338573
_publ_section_title
;
Structure prediction by ZEFSAII (Michael W. Deem and Ramdas Pophale) SiO2 
 PCOD9338573
Probable space group: P M C 21
;
_chemical_formula_sum "Si O2"
_cell_formula_units_Z 24
_cell_length_a 18.293453
_cell_length_b 4.839657
_cell_length_c 9.385799
_cell_angle_alpha 90.000000
_cell_angle_beta 90.000000
_cell_angle_gamma 90.000000
_cell_volume 830.962684
_symmetry_space_group_name_H-M "P M C 21"
_symmetry_group_IT_number 26
_symmetry_cell_setting 'orthorhombic'
loop_
_space_group_symop_operation_xyz
x,y,z
-x,-y,1/2+z
-x,y,z
x,-y,1/2+z
loop_
_atom_site_type_symbol
_atom_site_label
_atom_site_fract_x
_atom_site_fract_y
_atom_site_fract_z
Si Si1 0.500000 0.366327 0.988281
Si Si2 0.500000 0.815073 0.774950
Si Si3 0.742261 0.027531 0.157274
Si Si4 0.627513 0.748735 0.961359
Si Si5 0.123175 0.708497 0.208593
Si Si6 0.000000 0.574460 0.534230
Si Si7 0.245992 0.633125 0.405630
Si Si8 0.000000 0.935499 0.853880
O O1 0.500000 0.485738 0.823177
O O2 0.574714 0.522852 0.032849
O O3 0.500000 0.127269 0.108871
O O4 0.572039 0.920354 0.859149
O O5 0.816427 0.863874 0.113210
O O6 0.739232 0.922155 0.320562
O O7 0.670268 0.915481 0.080262
O O8 0.754004 0.315911 0.075077
O O9 0.687190 0.569777 0.873841
O O10 0.169302 0.555514 0.333521
O O11 0.071911 0.942421 0.279346
O O12 0.071618 0.512829 0.118911
O O13 0.000000 0.896361 0.502350
O O14 0.000000 0.385835 0.391720
#
# Coordination Sequence:
#
# PCOD9338573 Si02
#       8
#     2   2   4   4   4   2   4   2
#     4   8  18  34  58  88 123 169 221 267 338 405
#     4   8  18  34  58  88 123 169 221 267 338 405
#     4  10  22  40  61  97 128 170 221 275 346 404
#     4   9  20  36  64  85 130 170 218 271 336 414
#     4   9  24  40  64  97 126 180 220 285 352 406
#     4  11  24  47  68 100 141 182 238 284 353 421
#     4  10  22  40  61  97 128 170 221 275 346 404
#     4  11  24  47  68 100 141 182 238 284 353 421
#
# _framework density 28.882162000000001
#
# number of rings (size 3 to 8) (size 9 to 14) (size 15 to 20)
#    2.000    0.333    0.000    2.000    2.333    5.333 
#    6.000    3.333    0.000    2.000    0.000    0.000 
#    0.000    0.000    0.000    0.000    0.000    0.000 
#
# Total GULP energy -134189.664669 kJ/mol
# GULP energy per Si atom -5591.236028 kJ/mol
# Density = 2.881643 g / cm^3
# Si number density = 28.882162 Si / 1000 Ang^3
#
#
#
# Elastic Constant Matrix: (Units=GPa)
#
#
# Indices 1 2 3 4 5 6 
#
# 1 175.7574 14.2975 33.3818 0.0000 0.0000 0.0000
# 2 14.2975 64.0165 20.6188 0.0000 0.0000 0.0000
# 3 33.3818 20.6188 150.9986 0.0000 0.0000 0.0000
# 4 0.0000 0.0000 0.0000 47.7705 0.0000 0.0000
# 5 0.0000 0.0000 0.0000 0.0000 52.6575 0.0000
# 6 0.0000 0.0000 0.0000 0.0000 0.0000 21.1514
#
#
#
# Elastic Compliance Matrix: (Units=1/GPa)
#
#
# Indices 1 2 3 4 5 6 
#
# 1 0.005994 -0.000954 -0.001195 0.000000 0.000000 0.000000
# 2 -0.000954 0.016491 -0.002041 0.000000 0.000000 0.000000
# 3 -0.001195 -0.002041 0.007165 0.000000 0.000000 0.000000
# 4 0.000000 0.000000 0.000000 0.020933 0.000000 0.000000
# 5 0.000000 0.000000 0.000000 0.000000 0.018991 0.000000
# 6 0.000000 0.000000 0.000000 0.000000 0.000000 0.047278
#
#
# Mechanical properties :
#
#
# Convention : Reuss Voigt Hill
#
# Bulk Modulus (GPa) = 47.01141 58.59651 52.80396
# Shear Modulus (GPa) = 37.78622 45.81417 41.80019
#
# Velocity S-wave (km/s) = 3.62095 3.98709 3.80842
# Velocity P-wave (km/s) = 5.81326 6.44422 6.13686
#
# Compressibility (1/GPa) = 0.02127143
#
# Stress axis : x y z
#
# Youngs Moduli (GPa) = 166.82766 60.63764 139.55877
#
# Poissons Ratio (x) = 0.05784 0.16676
# Poissons Ratio (y) = 0.15914 0.28484
# Poissons Ratio (z) = 0.19934 0.12376
#
# Static dielectric constant tensor:
#      x y z
#    x 2.223120 0.000000 0.000000 
#    y 0.000000 2.305850 0.000000 
#    z 0.000000 0.000000 2.344550 
# 
# From -- ./inp_files/3670.got.cif
#   From: 2010.05.17/outbox.cif.g08.bks.cpg/sg26_2_cif.got.tgz:3670.got - 2010.06.04 01:07:29.
