data_PCOD9338494
_publ_section_title
;
Structure prediction by ZEFSAII (Michael W. Deem and Ramdas Pophale) SiO2 
 PCOD9338494
Probable space group: P M C 21
;
_chemical_formula_sum "Si O2"
_cell_formula_units_Z 26
_cell_length_a 7.390554
_cell_length_b 10.518022
_cell_length_c 14.378914
_cell_angle_alpha 90.000000
_cell_angle_beta 90.000000
_cell_angle_gamma 90.000000
_cell_volume 1117.730638
_symmetry_space_group_name_H-M "P M C 21"
_symmetry_group_IT_number 26
_symmetry_cell_setting 'orthorhombic'
loop_
_space_group_symop_operation_xyz
x,y,z
-x,-y,1/2+z
-x,y,z
x,-y,1/2+z
loop_
_atom_site_type_symbol
_atom_site_label
_atom_site_fract_x
_atom_site_fract_y
_atom_site_fract_z
Si Si1 0.209285 0.626748 0.969620
Si Si2 0.500000 0.581294 0.234480
Si Si3 0.219852 0.192123 0.313631
Si Si4 0.500000 0.557426 0.559092
Si Si5 0.500000 0.271620 0.902735
Si Si6 0.780164 0.944491 0.636020
Si Si7 0.783796 0.931714 0.419194
Si Si8 0.208488 0.772571 0.155668
O O1 0.278714 0.685206 0.872463
O O2 0.327464 0.518002 0.017076
O O3 0.000000 0.586003 0.959512
O O4 0.211711 0.742177 0.044804
O O5 0.500000 0.597507 0.344528
O O6 0.328623 0.664303 0.200972
O O7 0.500000 0.457148 0.170308
O O8 0.278315 0.164198 0.208097
O O9 0.000000 0.200350 0.314169
O O10 0.266577 0.063891 0.370229
O O11 0.500000 0.692480 0.510839
O O12 0.326360 0.186659 0.879264
O O13 0.734211 0.934374 0.528222
O O14 0.000000 0.946149 0.638894
O O15 0.723644 0.084477 0.670493
O O16 0.000000 0.916043 0.409688
O O17 0.000000 0.763892 0.185893
#
# Coordination Sequence:
#
# PCOD9338494 Si02
#       8
#     4   2   4   2   2   4   4   4
#     4   9  17  34  59  82 108 141 185 235 280 325
#     4  10  22  39  60  81 107 142 198 246 273 322
#     4   9  16  30  56  89 118 147 182 222 277 345
#     4  10  24  43  58  79 107 145 194 247 278 318
#     4  12  26  42  58  82 112 153 196 233 283 340
#     4   9  16  29  52  85 122 150 175 215 277 347
#     4  10  21  38  58  86 124 153 179 228 284 340
#     4   9  16  31  57  85 114 147 179 224 278 329
#
# _framework density 23.261417000000002
#
# number of rings (size 3 to 8) (size 9 to 14) (size 15 to 20)
#    0.000    2.462    1.538    0.923    0.000    3.692 
#    2.769    1.538    0.000    0.000    0.000    0.000 
#    0.000    0.000    0.000    0.000    0.000    0.000 
#
# Total GULP energy -145238.271395 kJ/mol
# GULP energy per Si atom -5586.087361 kJ/mol
# Density = 2.320847 g / cm^3
# Si number density = 23.261417 Si / 1000 Ang^3
#
#
#
# Elastic Constant Matrix: (Units=GPa)
#
#
# Indices 1 2 3 4 5 6 
#
# 1 89.8780 16.2712 1.2656 0.0000 0.0000 0.0000
# 2 16.2712 38.7331 -12.1937 0.0000 0.0000 0.0000
# 3 1.2656 -12.1937 94.0975 0.0000 0.0000 0.0000
# 4 0.0000 0.0000 0.0000 33.3509 0.0000 0.0000
# 5 0.0000 0.0000 0.0000 0.0000 10.8245 0.0000
# 6 0.0000 0.0000 0.0000 0.0000 0.0000 21.7204
#
#
#
# Elastic Compliance Matrix: (Units=1/GPa)
#
#
# Indices 1 2 3 4 5 6 
#
# 1 0.012108 -0.005356 -0.000857 0.000000 0.000000 0.000000
# 2 -0.005356 0.029285 0.003867 0.000000 0.000000 0.000000
# 3 -0.000857 0.003867 0.011140 0.000000 0.000000 0.000000
# 4 0.000000 0.000000 0.000000 0.029984 0.000000 0.000000
# 5 0.000000 0.000000 0.000000 0.000000 0.092383 0.000000
# 6 0.000000 0.000000 0.000000 0.000000 0.000000 0.046040
#
#
# Mechanical properties :
#
#
# Convention : Reuss Voigt Hill
#
# Bulk Modulus (GPa) = 20.90269 25.93277 23.41773
# Shear Modulus (GPa) = 20.69718 27.67019 24.18368
#
# Velocity S-wave (km/s) = 2.98613 3.45270 3.22786
# Velocity P-wave (km/s) = 4.57108 5.20264 4.89705
#
# Compressibility (1/GPa) = 0.04784074
#
# Stress axis : x y z
#
# Youngs Moduli (GPa) = 82.59063 34.14706 89.76737
#
# Poissons Ratio (x) = 0.18290 0.07692
# Poissons Ratio (y) = 0.44237 -0.34713
# Poissons Ratio (z) = 0.07077 -0.13205
#
# Static dielectric constant tensor:
#      x y z
#    x 1.845360 0.000000 0.000000 
#    y 0.000000 1.816350 0.000000 
#    z 0.000000 0.000000 1.923680 
# 
# From -- ./inp_files/4066.got.cif
#   From: 2010.05.17/outbox.cif.g08.bks.cpg/sg26_3_cif.got.tgz:4066.got - 2010.06.04 01:07:29.
