data_PCOD9338992
_publ_section_title
;
Structure prediction by ZEFSAII (Michael W. Deem and Ramdas Pophale) SiO2 
 PCOD9338992
Probable space group: P C C 2
;
_chemical_formula_sum "Si O2"
_cell_formula_units_Z 32
_cell_length_a 11.220066
_cell_length_b 14.419543
_cell_length_c 9.128070
_cell_angle_alpha 90.000000
_cell_angle_beta 90.000000
_cell_angle_gamma 90.000000
_cell_volume 1476.814235
_symmetry_space_group_name_H-M "P C C 2"
_symmetry_group_IT_number 27
_symmetry_cell_setting 'orthorhombic'
loop_
_space_group_symop_operation_xyz
x,y,z
-x,-y,z
-x,y,1/2+z
x,-y,1/2+z
loop_
_atom_site_type_symbol
_atom_site_label
_atom_site_fract_x
_atom_site_fract_y
_atom_site_fract_z
Si Si1 0.915276 0.717092 0.077510
Si Si2 0.758371 0.133484 0.427201
Si Si3 0.284907 0.579113 0.575110
Si Si4 0.443380 0.274143 0.938879
Si Si5 0.355253 0.410087 0.385355
Si Si6 0.683239 0.017714 0.711432
Si Si7 0.157129 0.742196 0.921363
Si Si8 0.635256 0.127882 0.983357
O O1 0.863421 0.795751 0.967146
O O2 0.847052 0.619424 0.043315
O O3 0.886840 0.740138 0.249842
O O4 0.053111 0.717090 0.034354
O O5 0.650321 0.200591 0.371039
O O6 0.769829 0.048593 0.311993
O O7 0.732307 0.086949 0.586327
O O8 0.363152 0.671984 0.555283
O O9 0.349455 0.496979 0.490823
O O10 0.296972 0.549681 0.740200
O O11 0.519673 0.355904 0.860112
O O12 0.544633 0.210595 0.006879
O O13 0.259911 0.334279 0.436059
O O14 0.617156 0.943679 0.611912
O O15 0.611268 0.077172 0.829274
O O16 0.228469 0.835924 0.964536
#
# Coordination Sequence:
#
# PCOD9338992 Si02
#       8
#     4   4   4   4   4   4   4   4
#     4  10  22  42  65  89 123 160 202 253 308 363
#     4  10  22  40  60  90 126 162 205 250 303 357
#     4  10  23  43  63  92 126 160 201 249 303 367
#     4  10  23  37  64  90 126 164 200 247 305 360
#     4  10  23  43  63  92 126 160 201 249 303 367
#     4  10  22  39  61  88 126 162 209 251 298 360
#     4  10  22  42  65  89 123 160 202 253 308 363
#     4  10  22  40  60  90 126 162 205 250 303 357
#
# _framework density 21.668261999999999
#
# number of rings (size 3 to 8) (size 9 to 14) (size 15 to 20)
#    0.000    2.000    1.250    0.375    5.250    6.500 
#    4.500    6.250    0.000    0.000    0.000    0.000 
#    0.000    0.000    0.000    0.000    0.000    0.000 
#
# Total GULP energy -178244.187858 kJ/mol
# GULP energy per Si atom -5570.130871 kJ/mol
# Density = 2.161894 g / cm^3
# Si number density = 21.668262 Si / 1000 Ang^3
#
#
#
# Elastic Constant Matrix: (Units=GPa)
#
#
# Indices 1 2 3 4 5 6 
#
# 1 81.8556 10.0565 11.6733 0.0000 0.0000 0.0000
# 2 10.0565 79.2741 30.4393 0.0000 0.0000 0.0000
# 3 11.6733 30.4393 50.6172 0.0000 0.0000 0.0000
# 4 0.0000 0.0000 0.0000 10.9586 0.0000 0.0000
# 5 0.0000 0.0000 0.0000 0.0000 12.1012 0.0000
# 6 0.0000 0.0000 0.0000 0.0000 0.0000 6.9185
#
#
#
# Elastic Compliance Matrix: (Units=1/GPa)
#
#
# Indices 1 2 3 4 5 6 
#
# 1 0.012656 -0.000630 -0.002540 0.000000 0.000000 0.000000
# 2 -0.000630 0.016433 -0.009737 0.000000 0.000000 0.000000
# 3 -0.002540 -0.009737 0.026197 0.000000 0.000000 0.000000
# 4 0.000000 0.000000 0.000000 0.091252 0.000000 0.000000
# 5 0.000000 0.000000 0.000000 0.000000 0.082636 0.000000
# 6 0.000000 0.000000 0.000000 0.000000 0.000000 0.144540
#
#
# Mechanical properties :
#
#
# Convention : Reuss Voigt Hill
#
# Bulk Modulus (GPa) = 33.92969 35.12058 34.52513
# Shear Modulus (GPa) = 12.21439 16.63420 14.42430
#
# Velocity S-wave (km/s) = 2.37681 2.77370 2.58289
# Velocity P-wave (km/s) = 4.81923 5.14795 4.98630
#
# Compressibility (1/GPa) = 0.02947271
#
# Stress axis : x y z
#
# Youngs Moduli (GPa) = 79.01231 60.85257 38.17191
#
# Poissons Ratio (x) = 0.03836 0.09695
# Poissons Ratio (y) = 0.04981 0.37168
# Poissons Ratio (z) = 0.20067 0.59252
#
# Static dielectric constant tensor:
#      x y z
#    x 1.824750 0.000000 0.000000 
#    y 0.000000 1.909280 0.000000 
#    z 0.000000 0.000000 1.788150 
# 
# From -- ./inp_files/1480.got.cif
#   From: 2010.05.17/outbox.cif.g08.bks.cpg/sg27_1_cif.got.tgz:1480.got - 2010.06.04 01:11:05.
