data_PCOD9338867
_publ_section_title
;
Structure prediction by ZEFSAII (Michael W. Deem and Ramdas Pophale) SiO2 
 PCOD9338867
Probable space group: P C C 2
;
_chemical_formula_sum "Si O2"
_cell_formula_units_Z 30
_cell_length_a 14.377843
_cell_length_b 11.478495
_cell_length_c 8.995314
_cell_angle_alpha 90.000000
_cell_angle_beta 90.000000
_cell_angle_gamma 90.000000
_cell_volume 1484.550632
_symmetry_space_group_name_H-M "P C C 2"
_symmetry_group_IT_number 27
_symmetry_cell_setting 'orthorhombic'
loop_
_space_group_symop_operation_xyz
x,y,z
-x,-y,z
-x,y,1/2+z
x,-y,1/2+z
loop_
_atom_site_type_symbol
_atom_site_label
_atom_site_fract_x
_atom_site_fract_y
_atom_site_fract_z
Si Si1 0.500000 0.000000 0.981540
Si Si2 0.150689 0.146264 0.035972
Si Si3 0.765327 0.496942 0.891668
Si Si4 0.394687 0.131641 0.234624
Si Si5 0.694779 0.657124 0.116312
Si Si6 0.114734 0.308147 0.504410
Si Si7 0.813197 0.079506 0.846380
Si Si8 0.938989 0.329364 0.336972
O O1 0.537047 0.099962 0.870322
O O2 0.422973 0.053059 0.092728
O O3 0.228859 0.243771 0.073203
O O4 0.126261 0.090834 0.195334
O O5 0.076082 0.216929 0.941262
O O6 0.182268 0.041786 0.930792
O O7 0.733540 0.425609 0.747229
O O8 0.854469 0.581352 0.866456
O O9 0.687351 0.576672 0.970641
O O10 0.799746 0.397820 0.006217
O O11 0.389410 0.265249 0.179694
O O12 0.293017 0.098167 0.295579
O O13 0.152728 0.184600 0.450188
O O14 0.067183 0.302112 0.663902
O O15 0.042486 0.363360 0.385429
#
# Coordination Sequence:
#
# PCOD9338867 Si02
#       8
#     2   4   4   4   4   4   4   4
#     4  10  22  38  70 104 132 162 198 256 344 396
#     4  10  21  38  57  90 123 169 214 267 329 379
#     4  11  21  39  61  88 118 173 216 270 310 366
#     4  10  20  40  64 101 131 161 205 261 317 411
#     4  10  21  39  64  92 129 164 220 261 313 379
#     4  12  23  38  57  89 120 174 219 280 325 375
#     4  11  21  38  65  87 132 163 216 265 331 387
#     4  11  25  36  58  85 127 165 230 275 327 366
#
# _framework density 20.208134999999999
#
# number of rings (size 3 to 8) (size 9 to 14) (size 15 to 20)
#    0.000    1.333    4.000    3.600    1.867    1.600 
#    0.000    6.667    0.000    2.400    0.000    0.000 
#    0.000    0.000    0.000    0.000    0.000    0.000 
#
# Total GULP energy -167324.308249 kJ/mol
# GULP energy per Si atom -5577.476942 kJ/mol
# Density = 2.016214 g / cm^3
# Si number density = 20.208135 Si / 1000 Ang^3
#
#
#
# Elastic Constant Matrix: (Units=GPa)
#
#
# Indices 1 2 3 4 5 6 
#
# 1 18.6398 -1.3091 9.6461 0.0000 0.0000 0.0000
# 2 -1.3091 85.9624 48.4101 0.0000 0.0000 0.0000
# 3 9.6461 48.4101 124.9239 0.0000 0.0000 0.0000
# 4 0.0000 0.0000 0.0000 51.2272 0.0000 0.0000
# 5 0.0000 0.0000 0.0000 0.0000 20.8766 0.0000
# 6 0.0000 0.0000 0.0000 0.0000 0.0000 28.1902
#
#
#
# Elastic Compliance Matrix: (Units=1/GPa)
#
#
# Indices 1 2 3 4 5 6 
#
# 1 0.057091 0.004288 -0.006070 0.000000 0.000000 0.000000
# 2 0.004288 0.015202 -0.006222 0.000000 0.000000 0.000000
# 3 -0.006070 -0.006222 0.010885 0.000000 0.000000 0.000000
# 4 0.000000 0.000000 0.000000 0.019521 0.000000 0.000000
# 5 0.000000 0.000000 0.000000 0.000000 0.047900 0.000000
# 6 0.000000 0.000000 0.000000 0.000000 0.000000 0.035473
#
#
# Mechanical properties :
#
#
# Convention : Reuss Voigt Hill
#
# Bulk Modulus (GPa) = 14.88776 38.11335 26.50056
# Shear Modulus (GPa) = 22.27456 31.57741 26.92599
#
# Velocity S-wave (km/s) = 3.32363 3.95727 3.65421
# Velocity P-wave (km/s) = 4.70233 6.30725 5.56297
#
# Compressibility (1/GPa) = 0.06716927
#
# Stress axis : x y z
#
# Youngs Moduli (GPa) = 17.51592 65.77916 91.87128
#
# Poissons Ratio (x) = -0.28204 0.55765
# Poissons Ratio (y) = -0.07510 0.57165
# Poissons Ratio (z) = 0.10632 0.40929
#
# Static dielectric constant tensor:
#      x y z
#    x 1.744580 0.000000 0.000000 
#    y 0.000000 1.510820 0.000000 
#    z 0.000000 0.000000 1.741730 
# 
# From -- ./inp_files/1464.got.cif
#   From: 2010.05.17/outbox.cif.g08.bks.cpg/sg27_1_cif.got.tgz:1464.got - 2010.06.04 01:11:05.
