data_PCOD9338848
_publ_section_title
;
Structure prediction by ZEFSAII (Michael W. Deem and Ramdas Pophale) SiO2 
 PCOD9338848
Probable space group: P C C 2
;
_chemical_formula_sum "Si O2"
_cell_formula_units_Z 32
_cell_length_a 7.236187
_cell_length_b 13.516717
_cell_length_c 15.202251
_cell_angle_alpha 90.000000
_cell_angle_beta 90.000000
_cell_angle_gamma 90.000000
_cell_volume 1486.924445
_symmetry_space_group_name_H-M "P C C 2"
_symmetry_group_IT_number 27
_symmetry_cell_setting 'orthorhombic'
loop_
_space_group_symop_operation_xyz
x,y,z
-x,-y,z
-x,y,1/2+z
x,-y,1/2+z
loop_
_atom_site_type_symbol
_atom_site_label
_atom_site_fract_x
_atom_site_fract_y
_atom_site_fract_z
Si Si1 0.305424 0.450373 0.054310
Si Si2 0.341854 0.738462 0.430594
Si Si3 0.444164 0.109017 0.199349
Si Si4 0.918932 0.627807 0.578690
Si Si5 0.969534 0.837089 0.489857
Si Si6 0.971506 0.108144 0.681235
Si Si7 0.389220 0.903703 0.909137
Si Si8 0.743169 0.263647 0.230004
O O1 0.500000 0.500000 0.086161
O O2 0.187555 0.545087 0.022558
O O3 0.130491 0.399838 0.107096
O O4 0.345740 0.362241 0.986160
O O5 0.520816 0.804699 0.448204
O O6 0.322825 0.711344 0.327501
O O7 0.172690 0.814430 0.452040
O O8 0.240924 0.135152 0.169011
O O9 0.428649 0.100257 0.305106
O O10 0.589384 0.195348 0.182537
O O11 0.500000 0.000000 0.166087
O O12 0.916869 0.726181 0.520811
O O13 0.802981 0.647575 0.667255
O O14 0.827949 0.893601 0.426701
O O15 0.954188 0.894212 0.582120
O O16 0.080034 0.190849 0.734725
O O17 0.000000 0.000000 0.721739
O O18 0.500000 0.000000 0.942743
#
# Coordination Sequence:
#
# PCOD9338848 Si02
#       8
#     4   4   4   4   4   4   4   4
#     4  10  20  40  67  88 119 158 200 260 327 382
#     4  10  22  40  64  90 120 165 212 257 319 373
#     4  10  20  38  58  85 122 174 212 254 309 368
#     4   9  21  39  59  90 122 156 200 259 326 374
#     4  10  22  38  55  88 125 159 208 260 307 376
#     4  11  22  35  56  86 123 174 218 255 309 371
#     4  10  22  37  58  88 128 168 209 255 307 370
#     4  10  21  40  62  89 129 164 213 265 308 387
#
# _framework density 21.520934
#
# number of rings (size 3 to 8) (size 9 to 14) (size 15 to 20)
#    0.000    2.000    1.250    1.500    1.750    5.000 
#    0.000    5.625    0.000    1.500    0.000    0.000 
#    0.000    0.000    0.000    0.000    0.000    0.000 
#
# Total GULP energy -178350.669047 kJ/mol
# GULP energy per Si atom -5573.458408 kJ/mol
# Density = 2.147195 g / cm^3
# Si number density = 21.520934 Si / 1000 Ang^3
#
#
#
# Elastic Constant Matrix: (Units=GPa)
#
#
# Indices 1 2 3 4 5 6 
#
# 1 122.6416 20.2999 5.2420 0.0000 0.0000 0.0000
# 2 20.2999 89.7303 11.0049 0.0000 0.0000 0.0000
# 3 5.2420 11.0049 32.9776 0.0000 0.0000 0.0000
# 4 0.0000 0.0000 0.0000 69.4978 0.0000 0.0000
# 5 0.0000 0.0000 0.0000 0.0000 17.2312 0.0000
# 6 0.0000 0.0000 0.0000 0.0000 0.0000 -20.9244
#
#
#
# Elastic Compliance Matrix: (Units=1/GPa)
#
#
# Indices 1 2 3 4 5 6 
#
# 1 0.008488 -0.001830 -0.000739 0.000000 0.000000 0.000000
# 2 -0.001830 0.012014 -0.003718 0.000000 0.000000 0.000000
# 3 -0.000739 -0.003718 0.031682 0.000000 0.000000 0.000000
# 4 0.000000 0.000000 0.000000 0.014389 0.000000 0.000000
# 5 0.000000 0.000000 0.000000 0.000000 0.058034 0.000000
# 6 0.000000 0.000000 0.000000 0.000000 0.000000 -0.047791
#
#
# Mechanical properties :
#
#
# Convention : Reuss Voigt Hill
#
# Bulk Modulus (GPa) = 25.24555 35.38256 30.31406
# Shear Modulus (GPa) = 48.73578 27.08112 37.90845
#
# Velocity S-wave (km/s) = 4.76392 3.55119 4.20154
# Velocity P-wave (km/s) = 6.48198 5.76986 6.13626
#
# Compressibility (1/GPa) = 0.03961094
#
# Stress axis : x y z
#
# Youngs Moduli (GPa) = 117.80958 83.23276 31.56372
#
# Poissons Ratio (x) = 0.15229 0.02332
# Poissons Ratio (y) = 0.21556 0.11737
# Poissons Ratio (z) = 0.08702 0.30950
#
# Static dielectric constant tensor:
#      x y z
#    x 1.834680 0.000000 0.000000 
#    y 0.000000 1.768370 0.000000 
#    z 0.000000 0.000000 1.796980 
# 
# From -- ./inp_files/4081.got.cif
#   From: 2010.05.17/outbox.cif.g08.bks.cpg/sg27_3_cif.got.tgz:4081.got - 2010.06.04 01:11:05.
