data_PCOD9338265
_publ_section_title
;
Structure prediction by ZEFSAII (Michael W. Deem and Ramdas Pophale) SiO2 
 PCOD9338265
Probable space group: P M C 21
;
_chemical_formula_sum "Si O2"
_cell_formula_units_Z 32
_cell_length_a 9.673644
_cell_length_b 29.485835
_cell_length_c 5.423508
_cell_angle_alpha 90.000000
_cell_angle_beta 90.000000
_cell_angle_gamma 90.000000
_cell_volume 1546.976858
_symmetry_space_group_name_H-M "P M C 21"
_symmetry_group_IT_number 26
_symmetry_cell_setting 'orthorhombic'
loop_
_space_group_symop_operation_xyz
x,y,z
-x,-y,1/2+z
-x,y,z
x,-y,1/2+z
loop_
_atom_site_type_symbol
_atom_site_label
_atom_site_fract_x
_atom_site_fract_y
_atom_site_fract_z
Si Si1 0.847787 0.348666 0.739380
Si Si2 0.331181 0.974330 0.697449
Si Si3 0.333295 0.129701 0.220536
Si Si4 0.333490 0.523254 0.591082
Si Si5 0.154978 0.745260 0.968998
Si Si6 0.332698 0.183384 0.724164
Si Si7 0.652343 0.393065 0.412798
Si Si8 0.653757 0.300891 0.130152
O O1 0.864675 0.306774 0.550192
O O2 0.774197 0.390907 0.609328
O O3 0.000000 0.358950 0.841617
O O4 0.742749 0.326907 0.930240
O O5 0.500000 0.974088 0.697393
O O6 0.283930 0.922171 0.705194
O O7 0.288505 0.999130 0.444936
O O8 0.500000 0.127977 0.212933
O O9 0.299639 0.152665 0.482361
O O10 0.294166 0.158100 0.977307
O O11 0.500000 0.518586 0.576683
O O12 0.282848 0.492884 0.823788
O O13 0.310721 0.574611 0.684389
O O14 0.259825 0.740746 0.740090
O O15 0.000000 0.763545 0.921279
O O16 0.239443 0.772469 0.175813
O O17 0.500000 0.191984 0.722379
O O18 0.500000 0.407976 0.508816
O O19 0.636325 0.341051 0.330477
O O20 0.500000 0.287244 0.048629
#
# Coordination Sequence:
#
# PCOD9338265 Si02
#       8
#     4   4   4   4   4   4   4   4
#     4  10  21  36  55  78 107 143 180 228 279 329
#     4   9  15  24  42  68 101 140 175 215 271 330
#     4   9  18  31  47  73 108 143 182 224 273 332
#     4   9  18  31  52  82 114 143 177 224 277 328
#     4  10  22  38  53  75 105 141 187 232 278 332
#     4  10  20  34  52  75 107 146 182 225 276 329
#     4   9  19  34  54  81 108 139 180 227 274 324
#     4  10  20  34  56  82 108 139 181 231 278 332
#
# _framework density 20.685504999999999
#
# number of rings (size 3 to 8) (size 9 to 14) (size 15 to 20)
#    0.000    2.500    0.000    1.875    3.500    5.000 
#    0.000    0.000    0.000    0.750    0.000    0.000 
#    0.000   10.000    0.000    0.000    0.000    0.000 
#
# Total GULP energy -178341.349959 kJ/mol
# GULP energy per Si atom -5573.167186 kJ/mol
# Density = 2.063842 g / cm^3
# Si number density = 20.685505 Si / 1000 Ang^3
#
#
#
# Elastic Constant Matrix: (Units=GPa)
#
#
# Indices 1 2 3 4 5 6 
#
# 1 95.3462 8.3144 20.9774 0.0000 0.0000 0.0000
# 2 8.3144 91.4864 28.7972 0.0000 0.0000 0.0000
# 3 20.9774 28.7972 95.2940 0.0000 0.0000 0.0000
# 4 0.0000 0.0000 0.0000 41.6760 0.0000 0.0000
# 5 0.0000 0.0000 0.0000 0.0000 2.6083 0.0000
# 6 0.0000 0.0000 0.0000 0.0000 0.0000 -21.1062
#
#
#
# Elastic Compliance Matrix: (Units=1/GPa)
#
#
# Indices 1 2 3 4 5 6 
#
# 1 0.011028 -0.000263 -0.002348 0.000000 0.000000 0.000000
# 2 -0.000263 0.012086 -0.003594 0.000000 0.000000 0.000000
# 3 -0.002348 -0.003594 0.012097 0.000000 0.000000 0.000000
# 4 0.000000 0.000000 0.000000 0.023995 0.000000 0.000000
# 5 0.000000 0.000000 0.000000 0.000000 0.383387 0.000000
# 6 0.000000 0.000000 0.000000 0.000000 0.000000 -0.047379
#
#
# Mechanical properties :
#
#
# Convention : Reuss Voigt Hill
#
# Bulk Modulus (GPa) = 43.86075 44.25607 44.05841
# Shear Modulus (GPa) = 12.04171 19.57147 15.80659
#
# Velocity S-wave (km/s) = 2.41536 3.07928 2.76730
# Velocity P-wave (km/s) = 5.38779 5.83813 5.61748
#
# Compressibility (1/GPa) = 0.02279943
#
# Stress axis : x y z
#
# Youngs Moduli (GPa) = 90.68128 82.74110 82.66577
#
# Poissons Ratio (x) = 0.02177 0.19410
# Poissons Ratio (y) = 0.02386 0.29713
# Poissons Ratio (z) = 0.21292 0.29740
#
# Static dielectric constant tensor:
#      x y z
#    x 1.796600 0.000000 0.000000 
#    y 0.000000 1.776880 0.000000 
#    z 0.000000 0.000000 1.801960 
# 
# From -- ./inp_files/229.got.cif
#   From: 2010.05.17/outbox.cif.g08.bks.cpg/sg26_1_cif.got.tgz:229.got - 2010.06.04 01:07:29.
