data_PCOD9338033
_publ_section_title
;
Structure prediction by ZEFSAII (Michael W. Deem and Ramdas Pophale) SiO2 
 PCOD9338033
Probable space group: P M C 21
;
_chemical_formula_sum "Si O2"
_cell_formula_units_Z 24
_cell_length_a 28.119005
_cell_length_b 8.921317
_cell_length_c 5.262017
_cell_angle_alpha 90.000000
_cell_angle_beta 90.000000
_cell_angle_gamma 90.000000
_cell_volume 1320.021993
_symmetry_space_group_name_H-M "P M C 21"
_symmetry_group_IT_number 26
_symmetry_cell_setting 'orthorhombic'
loop_
_space_group_symop_operation_xyz
x,y,z
-x,-y,1/2+z
-x,y,z
x,-y,1/2+z
loop_
_atom_site_type_symbol
_atom_site_label
_atom_site_fract_x
_atom_site_fract_y
_atom_site_fract_z
Si Si1 0.242976 0.897217 0.480660
Si Si2 0.650785 0.098069 0.044940
Si Si3 0.551692 0.897483 0.430643
Si Si4 0.072844 0.587910 0.517440
Si Si5 0.187625 0.408977 0.020586
Si Si6 0.945035 0.066387 0.038619
O O1 0.297266 0.834338 0.498574
O O2 0.207791 0.757792 0.499807
O O3 0.237316 0.010943 0.718335
O O4 0.649462 0.963377 0.833904
O O5 0.601814 0.185107 0.981592
O O6 0.500000 0.820438 0.456190
O O7 0.552503 0.025007 0.652887
O O8 0.057836 0.483565 0.751034
O O9 0.130206 0.596542 0.519412
O O10 0.055068 0.755990 0.551657
O O11 0.202572 0.508988 0.779683
O O12 0.000000 0.011788 0.031087
O O13 0.921480 0.007457 0.782768
#
# Coordination Sequence:
#
# PCOD9338033 Si02
#       6
#     4   4   4   4   4   4
#     4  10  19  31  49  71  93 122 159 195 235 283
#     4   8  14  23  35  55  82 108 140 183 223 265
#     4   8  12  18  29  46  72 106 136 166 215 270
#     4  10  21  36  54  75  99 130 165 199 236 280
#     4  10  21  36  51  71 100 128 158 199 241 280
#     4  10  21  36  54  78 106 132 160 198 240 280
#
# _framework density 18.181518000000001
#
# number of rings (size 3 to 8) (size 9 to 14) (size 15 to 20)
#    0.000    2.667    0.000    2.000    0.000    2.000 
#    0.000    0.000    0.000    0.000    0.000    0.000 
#    0.000    1.333    0.000    0.000    0.000   10.667 
#
# Total GULP energy -133625.095154 kJ/mol
# GULP energy per Si atom -5567.712298 kJ/mol
# Density = 1.814014 g / cm^3
# Si number density = 18.181518 Si / 1000 Ang^3
#
#
#
# Elastic Constant Matrix: (Units=GPa)
#
#
# Indices 1 2 3 4 5 6 
#
# 1 53.2459 8.1004 7.5430 0.0000 0.0000 0.0000
# 2 8.1004 33.7091 4.0882 0.0000 0.0000 0.0000
# 3 7.5430 4.0882 100.1785 0.0000 0.0000 0.0000
# 4 0.0000 0.0000 0.0000 23.7149 0.0000 0.0000
# 5 0.0000 0.0000 0.0000 0.0000 10.8138 0.0000
# 6 0.0000 0.0000 0.0000 0.0000 0.0000 15.5811
#
#
#
# Elastic Compliance Matrix: (Units=1/GPa)
#
#
# Indices 1 2 3 4 5 6 
#
# 1 0.019659 -0.004567 -0.001294 0.000000 0.000000 0.000000
# 2 -0.004567 0.030874 -0.000916 0.000000 0.000000 0.000000
# 3 -0.001294 -0.000916 0.010117 0.000000 0.000000 0.000000
# 4 0.000000 0.000000 0.000000 0.042168 0.000000 0.000000
# 5 0.000000 0.000000 0.000000 0.000000 0.092475 0.000000
# 6 0.000000 0.000000 0.000000 0.000000 0.000000 0.064180
#
#
# Mechanical properties :
#
#
# Convention : Reuss Voigt Hill
#
# Bulk Modulus (GPa) = 21.23325 25.17739 23.20532
# Shear Modulus (GPa) = 17.31748 21.18207 19.24978
#
# Velocity S-wave (km/s) = 3.08957 3.41696 3.25738
# Velocity P-wave (km/s) = 4.94278 5.42636 5.19020
#
# Compressibility (1/GPa) = 0.04709594
#
# Stress axis : x y z
#
# Youngs Moduli (GPa) = 50.86759 32.38949 98.84363
#
# Poissons Ratio (x) = 0.14793 0.12789
# Poissons Ratio (y) = 0.23232 0.09055
# Poissons Ratio (z) = 0.06581 0.02967
#
# Static dielectric constant tensor:
#      x y z
#    x 1.716980 0.000000 0.000000 
#    y 0.000000 1.549630 0.000000 
#    z 0.000000 0.000000 1.643520 
# 
# From -- ./inp_files/1028.got.cif
#   From: 2010.05.17/outbox.cif.g08.bks.cpg/sg26_1_cif.got.tgz:1028.got - 2010.06.04 01:07:29.
