data_PCOD9338327
_publ_section_title
;
Structure prediction by ZEFSAII (Michael W. Deem and Ramdas Pophale) SiO2 
 PCOD9338327
Probable space group: P M C 21
;
_chemical_formula_sum "Si O2"
_cell_formula_units_Z 32
_cell_length_a 8.656138
_cell_length_b 14.891082
_cell_length_c 12.730827
_cell_angle_alpha 90.000000
_cell_angle_beta 90.000000
_cell_angle_gamma 90.000000
_cell_volume 1640.994189
_symmetry_space_group_name_H-M "P M C 21"
_symmetry_group_IT_number 26
_symmetry_cell_setting 'orthorhombic'
loop_
_space_group_symop_operation_xyz
x,y,z
-x,-y,1/2+z
-x,y,z
x,-y,1/2+z
loop_
_atom_site_type_symbol
_atom_site_label
_atom_site_fract_x
_atom_site_fract_y
_atom_site_fract_z
Si Si1 0.687589 0.560900 0.612040
Si Si2 0.682382 0.864586 0.890557
Si Si3 0.312568 0.359230 0.670287
Si Si4 0.817706 0.819886 0.500608
Si Si5 0.183713 0.263191 0.222386
Si Si6 0.318495 0.351890 0.904092
Si Si7 0.183901 0.954757 0.317204
Si Si8 0.184809 0.167198 0.616045
O O1 0.500000 0.567926 0.617129
O O2 0.728791 0.457660 0.629293
O O3 0.752638 0.638854 0.688192
O O4 0.745017 0.586247 0.495849
O O5 0.500000 0.859323 0.902924
O O6 0.742021 0.777826 0.826685
O O7 0.729430 0.951233 0.822053
O O8 0.757926 0.872708 0.005730
O O9 0.500000 0.351963 0.667403
O O10 0.251931 0.360236 0.789507
O O11 0.246699 0.269153 0.619830
O O12 0.786018 0.805864 0.624250
O O13 0.710247 0.747746 0.444212
O O14 0.794321 0.909020 0.432174
O O15 0.000000 0.796412 0.486817
O O16 0.000000 0.268766 0.235313
O O17 0.500000 0.371371 0.895591
O O18 0.233123 0.889353 0.220717
O O19 0.000000 0.970676 0.304062
O O20 0.000000 0.168311 0.617223
#
# Coordination Sequence:
#
# PCOD9338327 Si02
#       8
#     4   4   4   4   4   4   4   4
#     4   9  19  35  56  86 124 168 212 255 309 365
#     4  12  27  43  62  90 127 165 204 253 312 378
#     4  10  20  35  58  88 124 164 209 257 308 365
#     4   9  18  35  60  86 112 148 194 247 301 356
#     4  10  21  39  62  89 122 160 208 258 307 365
#     4   9  17  31  52  80 114 153 199 250 300 353
#     4  10  22  41  64  90 119 157 202 251 306 366
#     4  11  24  43  66  91 124 161 206 257 309 368
#
# _framework density 19.500373
#
# number of rings (size 3 to 8) (size 9 to 14) (size 15 to 20)
#    0.000    2.000    1.250    1.875    1.750    3.500 
#    0.000    2.500    0.000    0.000    0.000    0.000 
#    0.000    0.000    0.000    0.000    0.000    0.000 
#
# Total GULP energy -178426.356960 kJ/mol
# GULP energy per Si atom -5575.823655 kJ/mol
# Density = 1.945599 g / cm^3
# Si number density = 19.500373 Si / 1000 Ang^3
#
#
#
# Elastic Constant Matrix: (Units=GPa)
#
#
# Indices 1 2 3 4 5 6 
#
# 1 30.6693 36.9120 21.8668 0.0000 0.0000 0.0000
# 2 36.9120 90.4863 46.8071 0.0000 0.0000 0.0000
# 3 21.8668 46.8071 70.3015 0.0000 0.0000 0.0000
# 4 0.0000 0.0000 0.0000 8.6315 0.0000 0.0000
# 5 0.0000 0.0000 0.0000 0.0000 23.6371 0.0000
# 6 0.0000 0.0000 0.0000 0.0000 0.0000 48.7347
#
#
#
# Elastic Compliance Matrix: (Units=1/GPa)
#
#
# Indices 1 2 3 4 5 6 
#
# 1 0.064746 -0.024397 -0.003895 0.000000 0.000000 0.000000
# 2 -0.024397 0.026050 -0.009756 0.000000 0.000000 0.000000
# 3 -0.003895 -0.009756 0.021931 0.000000 0.000000 0.000000
# 4 0.000000 0.000000 0.000000 0.115855 0.000000 0.000000
# 5 0.000000 0.000000 0.000000 0.000000 0.042306 0.000000
# 6 0.000000 0.000000 0.000000 0.000000 0.000000 0.020519
#
#
# Mechanical properties :
#
#
# Convention : Reuss Voigt Hill
#
# Bulk Modulus (GPa) = 27.29877 44.73655 36.01766
# Shear Modulus (GPa) = 13.16780 21.92540 17.54660
#
# Velocity S-wave (km/s) = 2.60139 3.35678 3.00294
# Velocity P-wave (km/s) = 4.80130 6.16564 5.52574
#
# Compressibility (1/GPa) = 0.03663169
#
# Stress axis : x y z
#
# Youngs Moduli (GPa) = 15.44505 38.38770 45.59654
#
# Poissons Ratio (x) = 0.93653 0.17761
# Poissons Ratio (y) = 0.37681 0.44483
# Poissons Ratio (z) = 0.06016 0.37450
#
# Static dielectric constant tensor:
#      x y z
#    x 1.669210 0.000000 0.000000 
#    y 0.000000 1.702310 0.000000 
#    z 0.000000 0.000000 1.735910 
# 
# From -- ./inp_files/2973.got.cif
#   From: 2010.05.17/outbox.cif.g08.bks.cpg/sg26_2_cif.got.tgz:2973.got - 2010.06.04 01:07:29.
