data_PCOD9338450
_publ_section_title
;
Structure prediction by ZEFSAII (Michael W. Deem and Ramdas Pophale) SiO2 
 PCOD9338450
Probable space group: P M C 21
;
_chemical_formula_sum "Si O2"
_cell_formula_units_Z 24
_cell_length_a 9.137329
_cell_length_b 9.669104
_cell_length_c 15.407602
_cell_angle_alpha 90.000000
_cell_angle_beta 90.000000
_cell_angle_gamma 90.000000
_cell_volume 1361.258315
_symmetry_space_group_name_H-M "P M C 21"
_symmetry_group_IT_number 26
_symmetry_cell_setting 'orthorhombic'
loop_
_space_group_symop_operation_xyz
x,y,z
-x,-y,1/2+z
-x,y,z
x,-y,1/2+z
loop_
_atom_site_type_symbol
_atom_site_label
_atom_site_fract_x
_atom_site_fract_y
_atom_site_fract_z
Si Si1 0.674794 0.855318 0.185450
Si Si2 0.825208 0.345207 0.031122
Si Si3 0.675232 0.840492 0.874503
Si Si4 0.324230 0.642405 0.034900
Si Si5 0.174922 0.852899 0.691340
Si Si6 0.673739 0.159819 0.887828
O O1 0.500000 0.880991 0.177415
O O2 0.714729 0.735408 0.118415
O O3 0.702906 0.815796 0.285653
O O4 0.758028 0.997954 0.167040
O O5 0.754926 0.496262 0.034519
O O6 0.787883 0.258487 0.117773
O O7 0.000000 0.355127 0.025229
O O8 0.762754 0.259712 0.949873
O O9 0.500000 0.836646 0.858934
O O10 0.757281 0.814130 0.784465
O O11 0.708984 0.997883 0.903824
O O12 0.711552 0.731917 0.949321
O O13 0.500000 0.621880 0.036011
O O14 0.000000 0.863463 0.697942
O O15 0.500000 0.178960 0.902783
#
# Coordination Sequence:
#
# PCOD9338450 Si02
#       6
#     4   4   4   4   4   4
#     4   9  19  37  60  83 105 134 177 225 268 312
#     4  11  24  37  50  76 113 148 179 213 260 318
#     4   9  19  36  59  84 105 132 177 226 267 311
#     4  10  21  37  57  80 107 141 179 220 267 315
#     4  10  21  36  55  80 109 142 178 216 263 317
#     4   9  18  35  59  83 105 133 174 222 267 313
#
# _framework density 17.630745000000001
#
# number of rings (size 3 to 8) (size 9 to 14) (size 15 to 20)
#    0.000    2.333    0.000    3.000    0.000    9.333 
#    0.000    5.000    0.000    0.000    0.000    0.000 
#    0.000    0.000    0.000    0.000    0.000    0.000 
#
# Total GULP energy -133999.471987 kJ/mol
# GULP energy per Si atom -5583.311333 kJ/mol
# Density = 1.759062 g / cm^3
# Si number density = 17.630745 Si / 1000 Ang^3
#
#
#
# Elastic Constant Matrix: (Units=GPa)
#
#
# Indices 1 2 3 4 5 6 
#
# 1 47.7597 80.0303 70.8177 0.0000 0.0000 0.0000
# 2 80.0303 177.0913 131.4649 0.0000 0.0000 0.0000
# 3 70.8177 131.4649 129.0583 0.0000 0.0000 0.0000
# 4 0.0000 0.0000 0.0000 -6.6241 0.0000 0.0000
# 5 0.0000 0.0000 0.0000 0.0000 24.0678 0.0000
# 6 0.0000 0.0000 0.0000 0.0000 0.0000 11.6000
#
#
#
# Elastic Compliance Matrix: (Units=1/GPa)
#
#
# Indices 1 2 3 4 5 6 
#
# 1 0.134093 -0.024511 -0.048613 0.000000 0.000000 0.000000
# 2 -0.024511 0.027642 -0.014708 0.000000 0.000000 0.000000
# 3 -0.048613 -0.014708 0.049405 0.000000 0.000000 0.000000
# 4 0.000000 0.000000 0.000000 -0.150964 0.000000 0.000000
# 5 0.000000 0.000000 0.000000 0.000000 0.041549 0.000000
# 6 0.000000 0.000000 0.000000 0.000000 0.000000 0.086207
#
#
# Mechanical properties :
#
#
# Convention : Reuss Voigt Hill
#
# Bulk Modulus (GPa) = 28.18626 102.05945 65.12285
# Shear Modulus (GPa) = 13.31838 10.58183 11.95011
#
# Velocity S-wave (km/s) = 2.75145 2.45254 2.60628
# Velocity P-wave (km/s) = 5.11035 8.12606 6.78780
#
# Compressibility (1/GPa) = 0.03547828
#
# Stress axis : x y z
#
# Youngs Moduli (GPa) = 7.45751 36.17686 20.24070
#
# Poissons Ratio (x) = 0.88673 0.98395
# Poissons Ratio (y) = 0.18279 0.29769
# Poissons Ratio (z) = 0.36253 0.53208
#
# Static dielectric constant tensor:
#      x y z
#    x 1.584230 0.000000 0.000000 
#    y 0.000000 1.568830 0.000000 
#    z 0.000000 0.000000 1.591430 
# 
# From -- ./inp_files/3911.got.cif
#   From: 2010.05.17/outbox.cif.g08.bks.cpg/sg26_2_cif.got.tgz:3911.got - 2010.06.04 01:07:29.
