data_PCOD9338385
_publ_section_title
;
Structure prediction by ZEFSAII (Michael W. Deem and Ramdas Pophale) SiO2 
 PCOD9338385
Probable space group: P M C 21
;
_chemical_formula_sum "Si O2"
_cell_formula_units_Z 32
_cell_length_a 11.021534
_cell_length_b 16.603772
_cell_length_c 8.996611
_cell_angle_alpha 90.000000
_cell_angle_beta 90.000000
_cell_angle_gamma 90.000000
_cell_volume 1646.371155
_symmetry_space_group_name_H-M "P M C 21"
_symmetry_group_IT_number 26
_symmetry_cell_setting 'orthorhombic'
loop_
_space_group_symop_operation_xyz
x,y,z
-x,-y,1/2+z
-x,y,z
x,-y,1/2+z
loop_
_atom_site_type_symbol
_atom_site_label
_atom_site_fract_x
_atom_site_fract_y
_atom_site_fract_z
Si Si1 0.136964 0.771272 0.445250
Si Si2 0.140404 0.406943 0.064459
Si Si3 0.716370 0.498359 0.317408
Si Si4 0.136963 0.271272 0.594406
Si Si5 0.631353 0.884525 0.470720
Si Si6 0.283629 0.001643 0.222238
Si Si7 0.859597 0.906945 0.975190
Si Si8 0.631353 0.615476 0.068922
O O1 0.151197 0.688227 0.535281
O O2 0.141294 0.749997 0.269829
O O3 0.249021 0.829352 0.479430
O O4 0.000000 0.804185 0.474911
O O5 0.217075 0.439195 0.202439
O O6 0.000000 0.426141 0.088670
O O7 0.188053 0.452817 0.918184
O O8 0.644565 0.562713 0.218336
O O9 0.638611 0.445929 0.431259
O O10 0.151192 0.188224 0.504381
O O11 0.249022 0.329350 0.560219
O O12 0.000000 0.304186 0.564745
O O13 0.500000 0.842334 0.471064
O O14 0.638611 0.945932 0.608380
O O15 0.644568 0.937284 0.321302
O O16 0.217086 0.060808 0.337216
O O17 0.188041 0.952824 0.121468
O O18 0.000000 0.926144 0.950959
O O19 0.500000 0.657668 0.068581
#
# Coordination Sequence:
#
# PCOD9338385 Si02
#       8
#     4   4   4   4   4   4   4   4
#     4  10  21  39  60  89 123 156 196 247 295 354
#     4  10  20  37  61  89 121 155 196 244 300 353
#     4  10  22  38  59  89 118 155 200 249 292 351
#     4  10  21  39  60  89 123 156 196 247 295 354
#     4  11  23  41  62  87 119 160 200 244 297 354
#     4  10  22  38  59  89 118 155 200 249 292 351
#     4  10  20  37  61  89 121 155 196 244 300 353
#     4  11  23  41  62  87 119 160 200 244 297 354
#
# _framework density 19.436685000000001
#
# number of rings (size 3 to 8) (size 9 to 14) (size 15 to 20)
#    0.000    1.750    2.500    1.500    0.000    6.500 
#    0.000    6.250    0.000    0.000    0.000    0.000 
#    0.000    0.000    0.000    0.000    0.000    0.000 
#
# Total GULP energy -178683.435598 kJ/mol
# GULP energy per Si atom -5583.857362 kJ/mol
# Density = 1.939245 g / cm^3
# Si number density = 19.436685 Si / 1000 Ang^3
#
#
#
# Elastic Constant Matrix: (Units=GPa)
#
#
# Indices 1 2 3 4 5 6 
#
# 1 149.0625 54.9961 10.6472 0.0000 0.0000 0.0000
# 2 54.9961 55.9776 9.1564 0.0000 0.0000 0.0000
# 3 10.6472 9.1564 60.6210 0.0000 0.0000 0.0000
# 4 0.0000 0.0000 0.0000 20.4243 0.0000 0.0000
# 5 0.0000 0.0000 0.0000 0.0000 -3.3026 0.0000
# 6 0.0000 0.0000 0.0000 0.0000 0.0000 7.6410
#
#
#
# Elastic Compliance Matrix: (Units=1/GPa)
#
#
# Indices 1 2 3 4 5 6 
#
# 1 0.010528 -0.010295 -0.000294 0.000000 0.000000 0.000000
# 2 -0.010295 0.028385 -0.002479 0.000000 0.000000 0.000000
# 3 -0.000294 -0.002479 0.016922 0.000000 0.000000 0.000000
# 4 0.000000 0.000000 0.000000 0.048961 0.000000 0.000000
# 5 0.000000 0.000000 0.000000 0.000000 -0.302790 0.000000
# 6 0.000000 0.000000 0.000000 0.000000 0.000000 0.130874
#
#
# Mechanical properties :
#
#
# Convention : Reuss Voigt Hill
#
# Bulk Modulus (GPa) = 33.67260 46.14007 39.90633
# Shear Modulus (GPa) = -160.85458 17.67662 -71.58898
#
# Velocity S-wave (km/s) = -9.10702 3.01897 -6.07551
# Velocity P-wave (km/s) = 9.65515 5.99520 5.35161
#
# Compressibility (1/GPa) = 0.02969774
#
# Stress axis : x y z
#
# Youngs Moduli (GPa) = 94.98461 35.23039 59.09454
#
# Poissons Ratio (x) = 0.36271 0.01738
# Poissons Ratio (y) = 0.97790 0.14650
# Poissons Ratio (z) = 0.02793 0.08734
#
# Static dielectric constant tensor:
#      x y z
#    x 1.691080 0.000000 0.000000 
#    y 0.000000 1.669710 0.000000 
#    z 0.000000 0.000000 1.659710 
# 
# From -- ./inp_files/1974.got.cif
#   From: 2010.05.17/outbox.cif.g08.bks.cpg/sg26_1_cif.got.tgz:1974.got - 2010.06.04 01:07:29.
