data_PCOD9338094
_publ_section_title
;
Structure prediction by ZEFSAII (Michael W. Deem and Ramdas Pophale) SiO2 
 PCOD9338094
Probable space group: P M C 21
;
_chemical_formula_sum "Si O2"
_cell_formula_units_Z 32
_cell_length_a 9.533888
_cell_length_b 12.464774
_cell_length_c 13.964746
_cell_angle_alpha 90.000000
_cell_angle_beta 90.000000
_cell_angle_gamma 90.000000
_cell_volume 1659.539123
_symmetry_space_group_name_H-M "P M C 21"
_symmetry_group_IT_number 26
_symmetry_cell_setting 'orthorhombic'
loop_
_space_group_symop_operation_xyz
x,y,z
-x,-y,1/2+z
-x,y,z
x,-y,1/2+z
loop_
_atom_site_type_symbol
_atom_site_label
_atom_site_fract_x
_atom_site_fract_y
_atom_site_fract_z
Si Si1 0.159717 0.546661 0.789460
Si Si2 0.334657 0.894110 0.221538
Si Si3 0.667413 0.160339 0.508999
Si Si4 0.340243 0.638779 0.515346
Si Si5 0.830690 0.922392 0.822592
Si Si6 0.158394 0.753733 0.657249
Si Si7 0.332007 0.594746 0.978980
Si Si8 0.342004 0.349506 0.785015
O O1 0.158211 0.639961 0.711807
O O2 0.251383 0.588780 0.878427
O O3 0.230987 0.437823 0.753600
O O4 0.000000 0.526470 0.820849
O O5 0.500000 0.921275 0.235743
O O6 0.317478 0.769610 0.248496
O O7 0.236303 0.966602 0.287129
O O8 0.302668 0.901126 0.108143
O O9 0.500000 0.149902 0.489002
O O10 0.757991 0.117776 0.420232
O O11 0.694502 0.288344 0.523184
O O12 0.500000 0.646490 0.549500
O O13 0.253255 0.731406 0.566064
O O14 0.291109 0.515567 0.532666
O O15 0.337578 0.651776 0.400740
O O16 0.795663 0.839794 0.736168
O O17 0.000000 0.925636 0.832705
O O18 0.000000 0.781198 0.628293
O O19 0.500000 0.586087 0.963046
O O20 0.500000 0.382240 0.755188
#
# Coordination Sequence:
#
# PCOD9338094 Si02
#       8
#     4   4   4   4   4   4   4   4
#     4  10  19  33  54  82 117 155 193 236 290 351
#     4  10  23  42  65  91 118 153 202 255 304 355
#     4  10  21  39  64  90 116 152 199 251 302 356
#     4   9  19  33  55  87 119 155 194 236 291 352
#     4  11  24  43  62  85 123 162 202 249 298 356
#     4  10  22  37  53  81 118 158 197 238 287 344
#     4   9  18  34  56  86 118 151 195 243 296 350
#     4   9  20  39  59  84 119 152 190 244 298 352
#
# _framework density 19.282461000000001
#
# number of rings (size 3 to 8) (size 9 to 14) (size 15 to 20)
#    0.000    2.250    1.250    1.500    1.750    6.000 
#    0.000    3.750    0.000    0.000    0.000    0.000 
#    0.000    0.000    0.000    0.000    0.000    0.000 
#
# Total GULP energy -178541.854019 kJ/mol
# GULP energy per Si atom -5579.432938 kJ/mol
# Density = 1.923857 g / cm^3
# Si number density = 19.282461 Si / 1000 Ang^3
#
#
#
# Elastic Constant Matrix: (Units=GPa)
#
#
# Indices 1 2 3 4 5 6 
#
# 1 35.4030 27.1161 18.8427 0.0000 0.0000 0.0000
# 2 27.1161 53.2133 19.4617 0.0000 0.0000 0.0000
# 3 18.8427 19.4617 48.5067 0.0000 0.0000 0.0000
# 4 0.0000 0.0000 0.0000 23.3864 0.0000 0.0000
# 5 0.0000 0.0000 0.0000 0.0000 6.0462 0.0000
# 6 0.0000 0.0000 0.0000 0.0000 0.0000 24.9938
#
#
#
# Elastic Compliance Matrix: (Units=1/GPa)
#
#
# Indices 1 2 3 4 5 6 
#
# 1 0.050863 -0.021907 -0.010969 0.000000 0.000000 0.000000
# 2 -0.021907 0.031459 -0.004112 0.000000 0.000000 0.000000
# 3 -0.010969 -0.004112 0.026526 0.000000 0.000000 0.000000
# 4 0.000000 0.000000 0.000000 0.042760 0.000000 0.000000
# 5 0.000000 0.000000 0.000000 0.000000 0.165392 0.000000
# 6 0.000000 0.000000 0.000000 0.000000 0.000000 0.040010
#
#
# Mechanical properties :
#
#
# Convention : Reuss Voigt Hill
#
# Bulk Modulus (GPa) = 28.67508 29.77377 29.22443
# Shear Modulus (GPa) = 11.29659 15.66545 13.48102
#
# Velocity S-wave (km/s) = 2.42306 2.85339 2.64698
# Velocity P-wave (km/s) = 4.76777 5.13129 4.95287
#
# Compressibility (1/GPa) = 0.03487349
#
# Stress axis : x y z
#
# Youngs Moduli (GPa) = 19.66058 31.78694 37.69826
#
# Poissons Ratio (x) = 0.69636 0.41350
# Poissons Ratio (y) = 0.43070 0.15502
# Poissons Ratio (z) = 0.21565 0.13071
#
# Static dielectric constant tensor:
#      x y z
#    x 1.673840 0.000000 0.000000 
#    y 0.000000 1.675800 0.000000 
#    z 0.000000 0.000000 1.675530 
# 
# From -- ./inp_files/4129.got.cif
#   From: 2010.05.17/outbox.cif.g08.bks.cpg/sg26_3_cif.got.tgz:4129.got - 2010.06.04 01:07:29.
