data_PCOD9338164
_publ_section_title
;
Structure prediction by ZEFSAII (Michael W. Deem and Ramdas Pophale) SiO2 
 PCOD9338164
Probable space group: P M C 21
;
_chemical_formula_sum "Si O2"
_cell_formula_units_Z 32
_cell_length_a 8.999102
_cell_length_b 12.120322
_cell_length_c 14.641114
_cell_angle_alpha 90.000000
_cell_angle_beta 90.000000
_cell_angle_gamma 90.000000
_cell_volume 1596.935790
_symmetry_space_group_name_H-M "P M C 21"
_symmetry_group_IT_number 26
_symmetry_cell_setting 'orthorhombic'
loop_
_space_group_symop_operation_xyz
x,y,z
-x,-y,1/2+z
-x,y,z
x,-y,1/2+z
loop_
_atom_site_type_symbol
_atom_site_label
_atom_site_fract_x
_atom_site_fract_y
_atom_site_fract_z
Si Si1 0.172941 0.498010 0.610350
Si Si2 0.322086 0.660541 0.746256
Si Si3 0.668065 0.162782 0.522880
Si Si4 0.831838 0.738353 0.187950
Si Si5 0.322637 0.506394 0.921433
Si Si6 0.329030 0.055570 0.931655
Si Si7 0.826170 0.269286 0.898505
Si Si8 0.176122 0.142257 0.342471
O O1 0.256970 0.599836 0.657230
O O2 0.180888 0.393592 0.677871
O O3 0.247327 0.458301 0.516348
O O4 0.000000 0.524962 0.595425
O O5 0.500000 0.670057 0.740090
O O6 0.285960 0.581624 0.833675
O O7 0.248605 0.778689 0.767215
O O8 0.500000 0.198291 0.499100
O O9 0.717800 0.206520 0.619458
O O10 0.778178 0.196339 0.440767
O O11 0.671550 0.029814 0.516379
O O12 0.811434 0.766748 0.292902
O O13 0.000000 0.768638 0.159666
O O14 0.500000 0.506735 0.931184
O O15 0.262427 0.382320 0.909062
O O16 0.500000 0.078427 0.906998
O O17 0.242762 0.167009 0.952384
O O18 0.250479 0.978759 0.854160
O O19 0.000000 0.286498 0.918459
O O20 0.000000 0.134489 0.332785
#
# Coordination Sequence:
#
# PCOD9338164 Si02
#       8
#     4   4   4   4   4   4   4   4
#     4  11  23  39  59  88 123 161 203 253 309 370
#     4  11  22  38  60  89 123 159 202 251 304 366
#     4   9  19  34  56  85 115 151 197 247 297 352
#     4  10  21  36  58  89 121 154 201 253 301 362
#     4  11  24  40  60  88 123 165 203 249 308 367
#     4   9  20  38  58  86 117 154 201 246 298 361
#     4  11  22  39  62  89 122 162 205 251 307 370
#     4  10  19  34  59  86 116 156 198 246 302 354
#
# _framework density 20.038376
#
# number of rings (size 3 to 8) (size 9 to 14) (size 15 to 20)
#    0.750    1.000    1.250    3.750    0.000    5.500 
#    0.000    1.250    0.000    3.000    0.000    0.000 
#    0.000    0.000    0.000    0.000    0.000    0.000 
#
# Total GULP energy -178539.506376 kJ/mol
# GULP energy per Si atom -5579.359574 kJ/mol
# Density = 1.999277 g / cm^3
# Si number density = 20.038376 Si / 1000 Ang^3
#
#
#
# Elastic Constant Matrix: (Units=GPa)
#
#
# Indices 1 2 3 4 5 6 
#
# 1 81.5327 11.6804 8.0480 0.0000 0.0000 0.0000
# 2 11.6804 59.1929 -11.8134 0.0000 0.0000 0.0000
# 3 8.0480 -11.8134 22.7000 0.0000 0.0000 0.0000
# 4 0.0000 0.0000 0.0000 17.0284 0.0000 0.0000
# 5 0.0000 0.0000 0.0000 0.0000 27.7019 0.0000
# 6 0.0000 0.0000 0.0000 0.0000 0.0000 18.5916
#
#
#
# Elastic Compliance Matrix: (Units=1/GPa)
#
#
# Indices 1 2 3 4 5 6 
#
# 1 0.013526 -0.004046 -0.006901 0.000000 0.000000 0.000000
# 2 -0.004046 0.020062 0.011875 0.000000 0.000000 0.000000
# 3 -0.006901 0.011875 0.052680 0.000000 0.000000 0.000000
# 4 0.000000 0.000000 0.000000 0.058726 0.000000 0.000000
# 5 0.000000 0.000000 0.000000 0.000000 0.036099 0.000000
# 6 0.000000 0.000000 0.000000 0.000000 0.000000 0.053788
#
#
# Mechanical properties :
#
#
# Convention : Reuss Voigt Hill
#
# Bulk Modulus (GPa) = 11.34771 19.91728 15.63250
# Shear Modulus (GPa) = 19.05498 23.03177 21.04337
#
# Velocity S-wave (km/s) = 3.08705 3.39393 3.24412
# Velocity P-wave (km/s) = 4.28740 5.03185 4.67447
#
# Compressibility (1/GPa) = 0.08812348
#
# Stress axis : x y z
#
# Youngs Moduli (GPa) = 73.93227 49.84451 18.98268
#
# Poissons Ratio (x) = 0.20169 0.13100
# Poissons Ratio (y) = 0.29915 -0.22543
# Poissons Ratio (z) = 0.51022 -0.59192
#
# Static dielectric constant tensor:
#      x y z
#    x 1.681560 0.000000 0.000000 
#    y 0.000000 1.727550 0.000000 
#    z 0.000000 0.000000 1.715840 
# 
# From -- ./inp_files/4321.got.cif
#   From: 2010.05.17/outbox.cif.g08.bks.cpg/sg26_3_cif.got.tgz:4321.got - 2010.06.04 01:07:29.
