data_PCOD9338922
_publ_section_title
;
Structure prediction by ZEFSAII (Michael W. Deem and Ramdas Pophale) SiO2 
 PCOD9338922
Probable space group: P C C 2
;
_chemical_formula_sum "Si O2"
_cell_formula_units_Z 32
_cell_length_a 8.312444
_cell_length_b 14.038780
_cell_length_c 12.192563
_cell_angle_alpha 90.000000
_cell_angle_beta 90.000000
_cell_angle_gamma 90.000000
_cell_volume 1422.830313
_symmetry_space_group_name_H-M "P C C 2"
_symmetry_group_IT_number 27
_symmetry_cell_setting 'orthorhombic'
loop_
_space_group_symop_operation_xyz
x,y,z
-x,-y,z
-x,y,1/2+z
x,-y,1/2+z
loop_
_atom_site_type_symbol
_atom_site_label
_atom_site_fract_x
_atom_site_fract_y
_atom_site_fract_z
Si Si1 0.898572 0.205038 0.469040
Si Si2 0.349957 0.429414 0.027258
Si Si3 0.883964 0.654307 0.177703
Si Si4 0.814564 0.966987 0.109999
Si Si5 0.333330 0.177129 0.267809
Si Si6 0.793558 0.635883 0.809194
Si Si7 0.573801 0.287466 0.135316
Si Si8 0.252909 0.154210 0.494966
O O1 0.918834 0.281581 0.568794
O O2 0.802870 0.116361 0.518953
O O3 0.822616 0.260758 0.367502
O O4 0.074140 0.161593 0.444725
O O5 0.500000 0.500000 0.027549
O O6 0.224261 0.431605 0.128403
O O7 0.442463 0.330280 0.052669
O O8 0.255005 0.430355 0.912272
O O9 0.777779 0.727463 0.251626
O O10 0.040088 0.620494 0.243808
O O11 0.752171 0.915585 0.218466
O O12 0.727576 0.060391 0.066523
O O13 0.000000 0.000000 0.624058
O O14 0.489055 0.201736 0.198109
O O15 0.371740 0.160552 0.393607
O O16 0.644318 0.641007 0.725600
O O17 0.721539 0.246347 0.068753
#
# Coordination Sequence:
#
# PCOD9338922 Si02
#       8
#     4   4   4   4   4   4   4   4
#     4   9  18  35  60  96 125 165 228 279 314 380
#     4  10  24  45  69 102 142 168 211 284 359 421
#     4   9  18  38  68  97 128 167 225 269 315 408
#     4   9  21  35  55  90 132 172 225 287 335 382
#     4  10  21  38  57  89 127 175 225 270 345 402
#     4  11  20  39  75  98 124 182 229 270 334 415
#     4  11  24  40  64  94 131 178 218 281 352 417
#     4  11  20  36  60  86 128 175 225 284 328 396
#
# _framework density 22.490383000000001
#
# number of rings (size 3 to 8) (size 9 to 14) (size 15 to 20)
#    0.000    2.000    2.500    1.500    0.000    3.500 
#    0.000    1.875    2.750    0.000    0.000    3.500 
#    0.000    0.000    0.000    0.000    0.000    0.000 
#
# Total GULP energy -178621.228827 kJ/mol
# GULP energy per Si atom -5581.913401 kJ/mol
# Density = 2.243919 g / cm^3
# Si number density = 22.490383 Si / 1000 Ang^3
#
#
#
# Elastic Constant Matrix: (Units=GPa)
#
#
# Indices 1 2 3 4 5 6 
#
# 1 90.5336 18.6032 35.7293 0.0000 0.0000 0.0000
# 2 18.6032 50.9038 28.6046 0.0000 0.0000 0.0000
# 3 35.7293 28.6046 92.2387 0.0000 0.0000 0.0000
# 4 0.0000 0.0000 0.0000 9.1357 0.0000 0.0000
# 5 0.0000 0.0000 0.0000 0.0000 30.9561 0.0000
# 6 0.0000 0.0000 0.0000 0.0000 0.0000 34.0825
#
#
#
# Elastic Compliance Matrix: (Units=1/GPa)
#
#
# Indices 1 2 3 4 5 6 
#
# 1 0.013272 -0.002375 -0.004404 0.000000 0.000000 0.000000
# 2 -0.002375 0.024216 -0.006590 0.000000 0.000000 0.000000
# 3 -0.004404 -0.006590 0.014591 0.000000 0.000000 0.000000
# 4 0.000000 0.000000 0.000000 0.109460 0.000000 0.000000
# 5 0.000000 0.000000 0.000000 0.000000 0.032304 0.000000
# 6 0.000000 0.000000 0.000000 0.000000 0.000000 0.029341
#
#
# Mechanical properties :
#
#
# Convention : Reuss Voigt Hill
#
# Bulk Modulus (GPa) = 39.46293 44.39448 41.92870
# Shear Modulus (GPa) = 19.35216 24.88413 22.11814
#
# Velocity S-wave (km/s) = 2.93655 3.32992 3.13940
# Velocity P-wave (km/s) = 5.39281 5.87934 5.64132
#
# Compressibility (1/GPa) = 0.02534024
#
# Stress axis : x y z
#
# Youngs Moduli (GPa) = 75.34719 41.29512 68.53533
#
# Poissons Ratio (x) = 0.09809 0.30185
# Poissons Ratio (y) = 0.17898 0.45162
# Poissons Ratio (z) = 0.33185 0.27212
#
# Static dielectric constant tensor:
#      x y z
#    x 1.857140 0.000000 0.000000 
#    y 0.000000 1.856030 0.000000 
#    z 0.000000 0.000000 1.810580 
# 
# From -- ./inp_files/2443.got.cif
#   From: 2010.05.17/outbox.cif.g08.bks.cpg/sg27_2_cif.got.tgz:2443.got - 2010.06.04 01:11:05.
