data_PCOD9338979
_publ_section_title
;
Structure prediction by ZEFSAII (Michael W. Deem and Ramdas Pophale) SiO2 
 PCOD9338979
Probable space group: P C C 2
;
_chemical_formula_sum "Si O2"
_cell_formula_units_Z 24
_cell_length_a 9.845142
_cell_length_b 11.901092
_cell_length_c 9.318847
_cell_angle_alpha 90.000000
_cell_angle_beta 90.000000
_cell_angle_gamma 90.000000
_cell_volume 1091.870113
_symmetry_space_group_name_H-M "P C C 2"
_symmetry_group_IT_number 27
_symmetry_cell_setting 'orthorhombic'
loop_
_space_group_symop_operation_xyz
x,y,z
-x,-y,z
-x,y,1/2+z
x,-y,1/2+z
loop_
_atom_site_type_symbol
_atom_site_label
_atom_site_fract_x
_atom_site_fract_y
_atom_site_fract_z
Si Si1 0.572397 0.759879 0.596830
Si Si2 0.435263 0.620515 0.362046
Si Si3 0.278454 0.850981 0.689951
Si Si4 0.663715 0.022985 0.971274
Si Si5 0.912823 0.642019 0.260383
Si Si6 0.147724 0.577843 0.442677
O O1 0.539583 0.699492 0.446950
O O2 0.618679 0.670642 0.713507
O O3 0.429431 0.802745 0.662110
O O4 0.669110 0.864834 0.568881
O O5 0.500000 0.500000 0.336118
O O6 0.303526 0.610922 0.461002
O O7 0.175417 0.754437 0.740338
O O8 0.256303 0.920012 0.542440
O O9 0.287529 0.942829 0.815210
O O10 0.500000 0.000000 0.963249
O O11 0.853335 0.545783 0.368252
O O12 0.061325 0.654694 0.331984
O O13 0.915064 0.592114 0.099999
#
# Coordination Sequence:
#
# PCOD9338979 Si02
#       6
#     4   4   4   4   4   4
#     4  11  22  39  62  99 140 178 220 293 366 410
#     4  12  25  39  64 105 145 180 227 292 356 427
#     4  11  22  41  65  99 133 179 236 286 345 417
#     4  10  22  37  65  98 135 179 231 291 360 412
#     4  11  24  45  68  99 136 187 235 281 341 425
#     4  11  25  43  68  98 140 184 233 277 352 427
#
# _framework density 21.980634999999999
#
# number of rings (size 3 to 8) (size 9 to 14) (size 15 to 20)
#    0.000    1.000    3.333    5.000    4.667    1.333 
#    0.000    0.000    0.000    8.000    0.000    0.000 
#    0.000    0.000    0.000    0.000    0.000    0.000 
#
# Total GULP energy -134018.631761 kJ/mol
# GULP energy per Si atom -5584.109657 kJ/mol
# Density = 2.193061 g / cm^3
# Si number density = 21.980635 Si / 1000 Ang^3
#
#
#
# Elastic Constant Matrix: (Units=GPa)
#
#
# Indices 1 2 3 4 5 6 
#
# 1 35.0539 10.9385 -6.6303 0.0000 0.0000 0.0000
# 2 10.9385 77.2531 37.1719 0.0000 0.0000 0.0000
# 3 -6.6303 37.1719 129.6640 0.0000 0.0000 0.0000
# 4 0.0000 0.0000 0.0000 33.4881 0.0000 0.0000
# 5 0.0000 0.0000 0.0000 0.0000 9.6269 0.0000
# 6 0.0000 0.0000 0.0000 0.0000 0.0000 33.8598
#
#
#
# Elastic Compliance Matrix: (Units=1/GPa)
#
#
# Indices 1 2 3 4 5 6 
#
# 1 0.031018 -0.005980 0.003300 0.000000 0.000000 0.000000
# 2 -0.005980 0.016169 -0.004941 0.000000 0.000000 0.000000
# 3 0.003300 -0.004941 0.009297 0.000000 0.000000 0.000000
# 4 0.000000 0.000000 0.000000 0.029861 0.000000 0.000000
# 5 0.000000 0.000000 0.000000 0.000000 0.103876 0.000000
# 6 0.000000 0.000000 0.000000 0.000000 0.000000 0.029534
#
#
# Mechanical properties :
#
#
# Convention : Reuss Voigt Hill
#
# Bulk Modulus (GPa) = 24.24662 36.10346 30.17504
# Shear Modulus (GPa) = 20.10106 28.76102 24.43104
#
# Velocity S-wave (km/s) = 3.02733 3.62120 3.33750
# Velocity P-wave (km/s) = 4.82437 5.82623 5.34881
#
# Compressibility (1/GPa) = 0.04124285
#
# Stress axis : x y z
#
# Youngs Moduli (GPa) = 32.23955 61.84810 107.55599
#
# Poissons Ratio (x) = 0.36985 -0.35498
# Poissons Ratio (y) = 0.19279 0.53143
# Poissons Ratio (z) = -0.10640 0.30559
#
# Static dielectric constant tensor:
#      x y z
#    x 1.822750 0.000000 0.000000 
#    y 0.000000 1.870500 0.000000 
#    z 0.000000 0.000000 1.805430 
# 
# From -- ./inp_files/1386.got.cif
#   From: 2010.05.17/outbox.cif.g08.bks.cpg/sg27_1_cif.got.tgz:1386.got - 2010.06.04 01:11:05.
