data_PCOD9338064
_publ_section_title
;
Structure prediction by ZEFSAII (Michael W. Deem and Ramdas Pophale) SiO2 
 PCOD9338064
Probable space group: P M C 21
;
_chemical_formula_sum "Si O2"
_cell_formula_units_Z 32
_cell_length_a 11.332252
_cell_length_b 17.188383
_cell_length_c 8.345710
_cell_angle_alpha 90.000000
_cell_angle_beta 90.000000
_cell_angle_gamma 90.000000
_cell_volume 1625.603162
_symmetry_space_group_name_H-M "P M C 21"
_symmetry_group_IT_number 26
_symmetry_cell_setting 'orthorhombic'
loop_
_space_group_symop_operation_xyz
x,y,z
-x,-y,1/2+z
-x,y,z
x,-y,1/2+z
loop_
_atom_site_type_symbol
_atom_site_label
_atom_site_fract_x
_atom_site_fract_y
_atom_site_fract_z
Si Si1 0.137925 0.760397 0.184490
Si Si2 0.636576 0.606902 0.861453
Si Si3 0.867239 0.405804 0.756901
Si Si4 0.364507 0.782040 0.779085
Si Si5 0.756963 0.898645 0.983172
Si Si6 0.866805 0.023356 0.176445
Si Si7 0.863763 0.190977 0.052152
Si Si8 0.754154 0.475421 0.062335
O O1 0.175567 0.671250 0.167495
O O2 0.154996 0.781327 0.371169
O O3 0.000000 0.763950 0.149468
O O4 0.194800 0.821879 0.067982
O O5 0.500000 0.592382 0.833518
O O6 0.649465 0.700302 0.874642
O O7 0.702646 0.577887 0.701522
O O8 0.674627 0.547962 0.002606
O O9 0.864038 0.479332 0.639984
O O10 0.000000 0.390324 0.813218
O O11 0.787412 0.425762 0.908224
O O12 0.500000 0.780477 0.711518
O O13 0.351712 0.861002 0.885370
O O14 0.249661 0.784453 0.660096
O O15 0.839991 0.937844 0.848073
O O16 0.765228 0.963501 0.122546
O O17 0.865259 0.097213 0.058003
O O18 0.000000 0.988740 0.176130
O O19 0.000000 0.214780 0.102747
#
# Coordination Sequence:
#
# PCOD9338064 Si02
#       8
#     4   4   4   4   4   4   4   4
#     4  10  19  32  53  82 115 147 186 235 288 343
#     4  10  20  36  57  80 109 144 188 239 288 336
#     4  10  20  33  50  75 110 149 184 228 282 340
#     4  10  22  40  59  83 117 156 194 236 285 341
#     4  11  21  35  55  83 114 147 184 227 280 338
#     4  10  19  32  54  83 113 143 178 224 275 326
#     4   9  19  36  59  88 117 149 190 236 284 338
#     4  10  20  34  53  78 106 143 192 237 283 336
#
# _framework density 19.685002000000001
#
# number of rings (size 3 to 8) (size 9 to 14) (size 15 to 20)
#    0.000    2.000    0.000    4.125    0.000    2.000 
#    0.000    6.250    0.000    4.500    0.000    0.000 
#    0.000    0.000    0.000    0.000    0.000    0.000 
#
# Total GULP energy -178135.396315 kJ/mol
# GULP energy per Si atom -5566.731135 kJ/mol
# Density = 1.964020 g / cm^3
# Si number density = 19.685002 Si / 1000 Ang^3
#
#
#
# Elastic Constant Matrix: (Units=GPa)
#
#
# Indices 1 2 3 4 5 6 
#
# 1 85.6739 33.1020 23.7203 0.0000 0.0000 0.0000
# 2 33.1020 75.2309 6.4261 0.0000 0.0000 0.0000
# 3 23.7203 6.4261 25.2253 0.0000 0.0000 0.0000
# 4 0.0000 0.0000 0.0000 36.3091 0.0000 0.0000
# 5 0.0000 0.0000 0.0000 0.0000 10.3486 0.0000
# 6 0.0000 0.0000 0.0000 0.0000 0.0000 25.4839
#
#
#
# Elastic Compliance Matrix: (Units=1/GPa)
#
#
# Indices 1 2 3 4 5 6 
#
# 1 0.018720 -0.006883 -0.015849 0.000000 0.000000 0.000000
# 2 -0.006883 0.016119 0.002366 0.000000 0.000000 0.000000
# 3 -0.015849 0.002366 0.053944 0.000000 0.000000 0.000000
# 4 0.000000 0.000000 0.000000 0.027541 0.000000 0.000000
# 5 0.000000 0.000000 0.000000 0.000000 0.096631 0.000000
# 6 0.000000 0.000000 0.000000 0.000000 0.000000 0.039240
#
#
# Mechanical properties :
#
#
# Convention : Reuss Voigt Hill
#
# Bulk Modulus (GPa) = 20.81180 34.73631 27.77406
# Shear Modulus (GPa) = 16.18415 22.62046 19.40231
#
# Velocity S-wave (km/s) = 2.87044 3.39355 3.14289
# Velocity P-wave (km/s) = 4.64556 5.74798 5.22592
#
# Compressibility (1/GPa) = 0.04804966
#
# Stress axis : x y z
#
# Youngs Moduli (GPa) = 53.41957 62.03918 18.53785
#
# Poissons Ratio (x) = 0.42701 0.29381
# Poissons Ratio (y) = 0.36768 -0.04386
# Poissons Ratio (z) = 0.84667 -0.14679
#
# Static dielectric constant tensor:
#      x y z
#    x 1.687420 0.000000 0.000000 
#    y 0.000000 1.717290 0.000000 
#    z 0.000000 0.000000 1.740570 
# 
# From -- ./inp_files/1987.got.cif
#   From: 2010.05.17/outbox.cif.g08.bks.cpg/sg26_1_cif.got.tgz:1987.got - 2010.06.04 01:07:29.
