data_PCOD9338924
_publ_section_title
;
Structure prediction by ZEFSAII (Michael W. Deem and Ramdas Pophale) SiO2 
 PCOD9338924
Probable space group: P C C 2
;
_chemical_formula_sum "Si O2"
_cell_formula_units_Z 20
_cell_length_a 14.654375
_cell_length_b 4.806212
_cell_length_c 10.547529
_cell_angle_alpha 90.000000
_cell_angle_beta 90.000000
_cell_angle_gamma 90.000000
_cell_volume 742.883910
_symmetry_space_group_name_H-M "P C C 2"
_symmetry_group_IT_number 27
_symmetry_cell_setting 'orthorhombic'
loop_
_space_group_symop_operation_xyz
x,y,z
-x,-y,z
-x,y,1/2+z
x,-y,1/2+z
loop_
_atom_site_type_symbol
_atom_site_label
_atom_site_fract_x
_atom_site_fract_y
_atom_site_fract_z
Si Si1 0.710289 0.454012 0.806460
Si Si2 0.440293 0.750000 0.471861
Si Si3 0.289711 0.954012 0.137262
Si Si4 0.094517 0.079472 0.131474
Si Si5 0.905483 0.579472 0.812248
O O1 0.624769 0.571232 0.880897
O O2 0.708799 0.133196 0.767768
O O3 0.807742 0.514992 0.872051
O O4 0.708799 0.633196 0.675954
O O5 0.500000 0.500000 0.534125
O O6 0.375231 0.928768 0.562825
O O7 0.500000 0.000000 0.409597
O O8 0.192258 0.014992 0.071671
O O9 0.093813 0.890138 0.259411
O O10 0.093813 0.390138 0.184311
O O11 0.000000 0.000000 0.064106
O O12 0.000000 0.500000 0.879616
#
# Coordination Sequence:
#
# PCOD9338924 Si02
#       5
#     4   4   4   4   4
#     4  10  21  38  60  84 114 150 188 236 292 346
#     4  12  26  40  58  84 114 152 202 250 288 338
#     4  10  21  38  60  84 114 150 188 236 292 346
#     4   8  14  27  51  80 107 138 174 216 273 337
#     4   8  14  27  51  80 107 138 174 216 273 337
#
# _framework density 26.922107
#
# number of rings (size 3 to 8) (size 9 to 14) (size 15 to 20)
#    0.000    2.400    0.000    2.400    0.000    4.800 
#    0.000    0.000    0.000   26.400    0.000    0.000 
#    0.000    0.000    0.000    0.000    0.000    0.000 
#
# Total GULP energy -111891.141242 kJ/mol
# GULP energy per Si atom -5594.557062 kJ/mol
# Density = 2.686083 g / cm^3
# Si number density = 26.922107 Si / 1000 Ang^3
#
#
#
# Elastic Constant Matrix: (Units=GPa)
#
#
# Indices 1 2 3 4 5 6 
#
# 1 191.7560 33.5007 25.7625 0.0000 0.0000 0.0000
# 2 33.5007 118.0074 18.5927 0.0000 0.0000 0.0000
# 3 25.7625 18.5927 45.6897 0.0000 0.0000 0.0000
# 4 0.0000 0.0000 0.0000 42.6018 0.0000 0.0000
# 5 0.0000 0.0000 0.0000 0.0000 62.4279 0.0000
# 6 0.0000 0.0000 0.0000 0.0000 0.0000 56.2365
#
#
#
# Elastic Compliance Matrix: (Units=1/GPa)
#
#
# Indices 1 2 3 4 5 6 
#
# 1 0.005799 -0.001209 -0.002778 0.000000 0.000000 0.000000
# 2 -0.001209 0.009306 -0.003106 0.000000 0.000000 0.000000
# 3 -0.002778 -0.003106 0.024717 0.000000 0.000000 0.000000
# 4 0.000000 0.000000 0.000000 0.023473 0.000000 0.000000
# 5 0.000000 0.000000 0.000000 0.000000 0.016018 0.000000
# 6 0.000000 0.000000 0.000000 0.000000 0.000000 0.017782
#
#
# Mechanical properties :
#
#
# Convention : Reuss Voigt Hill
#
# Bulk Modulus (GPa) = 39.00462 56.79612 47.90037
# Shear Modulus (GPa) = 41.72668 50.75975 46.24321
#
# Velocity S-wave (km/s) = 3.94115 4.34686 4.14897
# Velocity P-wave (km/s) = 5.93546 6.80705 6.38614
#
# Compressibility (1/GPa) = 0.02563799
#
# Stress axis : x y z
#
# Youngs Moduli (GPa) = 172.43266 107.45216 40.45793
#
# Poissons Ratio (x) = 0.12987 0.11240
# Poissons Ratio (y) = 0.20841 0.12565
# Poissons Ratio (z) = 0.47905 0.33370
#
# Static dielectric constant tensor:
#      x y z
#    x 2.193530 0.000000 0.000000 
#    y 0.000000 1.982000 0.000000 
#    z 0.000000 0.000000 2.095180 
# 
# From -- ./inp_files/1937.got.cif
#   From: 2010.05.17/outbox.cif.g08.bks.cpg/sg27_1_cif.got.tgz:1937.got - 2010.06.04 01:11:05.
