data_PCOD9338460
_publ_section_title
;
Structure prediction by ZEFSAII (Michael W. Deem and Ramdas Pophale) SiO2 
 PCOD9338460
Probable space group: P M C 21
;
_chemical_formula_sum "Si O2"
_cell_formula_units_Z 32
_cell_length_a 7.515934
_cell_length_b 7.370367
_cell_length_c 22.892606
_cell_angle_alpha 90.000000
_cell_angle_beta 90.000000
_cell_angle_gamma 90.000000
_cell_volume 1268.140303
_symmetry_space_group_name_H-M "P M C 21"
_symmetry_group_IT_number 26
_symmetry_cell_setting 'orthorhombic'
loop_
_space_group_symop_operation_xyz
x,y,z
-x,-y,1/2+z
-x,y,z
x,-y,1/2+z
loop_
_atom_site_type_symbol
_atom_site_label
_atom_site_fract_x
_atom_site_fract_y
_atom_site_fract_z
Si Si1 0.796950 0.662860 0.704220
Si Si2 0.784386 0.935008 0.800766
Si Si3 0.296841 0.866120 0.488225
Si Si4 0.217182 0.542376 0.021528
Si Si5 0.214660 0.317570 0.647745
Si Si6 0.290534 0.268704 0.867431
Si Si7 0.289736 0.933792 0.610426
Si Si8 0.793216 0.328325 0.399082
O O1 0.716774 0.812112 0.747327
O O2 0.716310 0.464470 0.694231
O O3 0.000000 0.634750 0.724196
O O4 0.797225 0.761292 0.641305
O O5 0.716011 0.822384 0.856852
O O6 0.000000 0.934865 0.797877
O O7 0.735795 0.144038 0.810932
O O8 0.500000 0.928872 0.480619
O O9 0.290632 0.658728 0.511344
O O10 0.214369 0.842285 0.423873
O O11 0.218008 0.969220 0.544580
O O12 0.274854 0.621128 0.083214
O O13 0.000000 0.532133 0.020444
O O14 0.278070 0.654794 0.964624
O O15 0.261433 0.107864 0.651263
O O16 0.000000 0.329247 0.649185
O O17 0.500000 0.290329 0.877688
O O18 0.217074 0.472426 0.869177
O O19 0.500000 0.900007 0.605623
O O20 0.000000 0.282597 0.405286
#
# Coordination Sequence:
#
# PCOD9338460 Si02
#       8
#     4   4   4   4   4   4   4   4
#     4  10  22  42  61  80 111 150 193 238 284 336
#     4  10  22  39  61  84 110 149 193 236 283 339
#     4   9  19  35  54  81 119 155 185 225 284 342
#     4   9  17  32  56  84 114 146 186 235 282 330
#     4  10  21  36  57  85 114 149 190 236 286 337
#     4  10  21  37  57  85 119 153 188 231 283 340
#     4  11  23  37  57  86 117 152 190 233 285 342
#     4   9  19  36  57  85 116 148 189 236 283 334
#
# _framework density 25.233802000000001
#
# number of rings (size 3 to 8) (size 9 to 14) (size 15 to 20)
#    0.000    2.250    1.250    0.750    1.750    4.000 
#    0.000    2.500    0.000    0.000    0.000    0.000 
#    0.000    0.000    0.000    0.000    0.000    0.000 
#
# Total GULP energy -178807.691663 kJ/mol
# GULP energy per Si atom -5587.740364 kJ/mol
# Density = 2.517637 g / cm^3
# Si number density = 25.233802 Si / 1000 Ang^3
#
#
#
# Elastic Constant Matrix: (Units=GPa)
#
#
# Indices 1 2 3 4 5 6 
#
# 1 80.3954 -11.2201 -5.1109 0.0000 0.0000 0.0000
# 2 -11.2201 96.2110 17.6047 0.0000 0.0000 0.0000
# 3 -5.1109 17.6047 32.6196 0.0000 0.0000 0.0000
# 4 0.0000 0.0000 0.0000 38.1443 0.0000 0.0000
# 5 0.0000 0.0000 0.0000 0.0000 -2.5282 0.0000
# 6 0.0000 0.0000 0.0000 0.0000 0.0000 18.7498
#
#
#
# Elastic Compliance Matrix: (Units=1/GPa)
#
#
# Indices 1 2 3 4 5 6 
#
# 1 0.012695 0.001239 0.001320 0.000000 0.000000 0.000000
# 2 0.001239 0.011654 -0.006095 0.000000 0.000000 0.000000
# 3 0.001320 -0.006095 0.034153 0.000000 0.000000 0.000000
# 4 0.000000 0.000000 0.000000 0.026216 0.000000 0.000000
# 5 0.000000 0.000000 0.000000 0.000000 -0.395541 0.000000
# 6 0.000000 0.000000 0.000000 0.000000 0.000000 0.053334
#
#
# Mechanical properties :
#
#
# Convention : Reuss Voigt Hill
#
# Bulk Modulus (GPa) = 19.44386 23.53039 21.48712
# Shear Modulus (GPa) = -21.43401 24.73668 1.65133
#
# Velocity S-wave (km/s) = -2.91764 3.13437 0.80984
# Velocity P-wave (km/s) = 1.90471 4.73753 3.06727
#
# Compressibility (1/GPa) = 0.05143013
#
# Stress axis : x y z
#
# Youngs Moduli (GPa) = 78.76889 85.81019 29.28000
#
# Poissons Ratio (x) = -0.10631 -0.03866
# Poissons Ratio (y) = -0.09759 0.17847
# Poissons Ratio (z) = -0.10401 0.52304
#
# Static dielectric constant tensor:
#      x y z
#    x 2.118550 0.000000 0.000000 
#    y 0.000000 1.978660 0.000000 
#    z 0.000000 0.000000 2.073500 
# 
# From -- ./inp_files/5575.got.cif
#   From: 2010.05.17/outbox.cif.g08.bks.cpg/sg26_3_cif.got.tgz:5575.got - 2010.06.04 01:07:29.
