data_PCOD9338931
_publ_section_title
;
Structure prediction by ZEFSAII (Michael W. Deem and Ramdas Pophale) SiO2 
 PCOD9338931
Probable space group: P C C 2
;
_chemical_formula_sum "Si O2"
_cell_formula_units_Z 18
_cell_length_a 7.096489
_cell_length_b 8.178939
_cell_length_c 14.214847
_cell_angle_alpha 90.000000
_cell_angle_beta 90.000000
_cell_angle_gamma 90.000000
_cell_volume 825.054605
_symmetry_space_group_name_H-M "P C C 2"
_symmetry_group_IT_number 27
_symmetry_cell_setting 'orthorhombic'
loop_
_space_group_symop_operation_xyz
x,y,z
-x,-y,z
-x,y,1/2+z
x,-y,1/2+z
loop_
_atom_site_type_symbol
_atom_site_label
_atom_site_fract_x
_atom_site_fract_y
_atom_site_fract_z
Si Si1 0.350071 0.350647 0.833030
Si Si2 0.773315 0.011273 0.626778
Si Si3 0.224434 0.656148 0.119092
Si Si4 0.500000 0.000000 0.295400
Si Si5 0.806925 0.336019 0.529586
O O1 0.500000 0.500000 0.836564
O O2 0.247114 0.353043 0.731691
O O3 0.448875 0.172006 0.843882
O O4 0.204012 0.363694 0.918731
O O5 0.730521 0.159163 0.557607
O O6 0.698713 0.834853 0.592668
O O7 0.675478 0.041422 0.726622
O O8 0.000000 0.000000 0.638381
O O9 0.299745 0.487741 0.077097
O O10 0.013449 0.663191 0.076699
#
# Coordination Sequence:
#
# PCOD9338931 Si02
#       5
#     4   4   4   2   4
#     4  11  24  40  63  96 128 165 214 266 321 382
#     4   9  19  39  63  89 122 165 208 253 314 379
#     4   9  21  41  61  87 128 168 205 259 321 379
#     4  10  22  40  64  90 128 170 206 258 320 376
#     4  10  21  38  63  92 123 164 213 262 314 378
#
# _framework density 21.816738000000001
#
# number of rings (size 3 to 8) (size 9 to 14) (size 15 to 20)
#    0.000    2.222    0.000    1.333    0.000   10.667 
#    0.000   31.111    0.000    0.000    0.000    0.000 
#    0.000    0.000    0.000    0.000    0.000    0.000 
#
# Total GULP energy -100338.596705 kJ/mol
# GULP energy per Si atom -5574.366484 kJ/mol
# Density = 2.176708 g / cm^3
# Si number density = 21.816738 Si / 1000 Ang^3
#
#
#
# Elastic Constant Matrix: (Units=GPa)
#
#
# Indices 1 2 3 4 5 6 
#
# 1 121.9159 16.2861 45.3049 0.0000 0.0000 0.0000
# 2 16.2861 181.2397 86.6223 0.0000 0.0000 0.0000
# 3 45.3049 86.6223 123.7566 0.0000 0.0000 0.0000
# 4 0.0000 0.0000 0.0000 -130.5488 0.0000 0.0000
# 5 0.0000 0.0000 0.0000 0.0000 -49.2655 0.0000
# 6 0.0000 0.0000 0.0000 0.0000 0.0000 -8.4081
#
#
#
# Elastic Compliance Matrix: (Units=1/GPa)
#
#
# Indices 1 2 3 4 5 6 
#
# 1 0.009675 0.001237 -0.004408 0.000000 0.000000 0.000000
# 2 0.001237 0.008449 -0.006367 0.000000 0.000000 0.000000
# 3 -0.004408 -0.006367 0.014151 0.000000 0.000000 0.000000
# 4 0.000000 0.000000 0.000000 -0.007660 0.000000 0.000000
# 5 0.000000 0.000000 0.000000 0.000000 -0.020298 0.000000
# 6 0.000000 0.000000 0.000000 0.000000 0.000000 -0.118933
#
#
# Mechanical properties :
#
#
# Convention : Reuss Voigt Hill
#
# Bulk Modulus (GPa) = 75.75854 80.37095 78.06475
# Shear Modulus (GPa) = -54.86052 -19.06456 -36.96254
#
# Velocity S-wave (km/s) = -5.02003 -2.95930 -4.12057
# Velocity P-wave (km/s) = 1.09520 5.02419 3.63607
#
# Compressibility (1/GPa) = 0.01319983
#
# Stress axis : x y z
#
# Youngs Moduli (GPa) = 103.35797 118.35045 70.66824
#
# Poissons Ratio (x) = -0.14644 0.31150
# Poissons Ratio (y) = -0.12789 0.44995
# Poissons Ratio (z) = 0.45560 0.75355
#
# Static dielectric constant tensor:
#      x y z
#    x 1.875760 0.000000 0.000000 
#    y 0.000000 1.972360 0.000000 
#    z 0.000000 0.000000 1.739460 
# 
# From -- ./inp_files/2183.got.cif
#   From: 2010.05.17/outbox.cif.g08.bks.cpg/sg27_2_cif.got.tgz:2183.got - 2010.06.04 01:11:05.
