data_PCOD9338874
_publ_section_title
;
Structure prediction by ZEFSAII (Michael W. Deem and Ramdas Pophale) SiO2 
 PCOD9338874
Probable space group: P C C 2
;
_chemical_formula_sum "Si O2"
_cell_formula_units_Z 22
_cell_length_a 14.056899
_cell_length_b 8.064622
_cell_length_c 8.943393
_cell_angle_alpha 90.000000
_cell_angle_beta 90.000000
_cell_angle_gamma 90.000000
_cell_volume 1013.855020
_symmetry_space_group_name_H-M "P C C 2"
_symmetry_group_IT_number 27
_symmetry_cell_setting 'orthorhombic'
loop_
_space_group_symop_operation_xyz
x,y,z
-x,-y,z
-x,y,1/2+z
x,-y,1/2+z
loop_
_atom_site_type_symbol
_atom_site_label
_atom_site_fract_x
_atom_site_fract_y
_atom_site_fract_z
Si Si1 0.134887 0.615291 0.564520
Si Si2 0.000000 0.500000 0.817665
Si Si3 0.711814 0.363827 0.145752
Si Si4 0.709385 0.817364 0.942948
Si Si5 0.580311 0.361835 0.669213
Si Si6 0.586108 0.873721 0.442468
O O1 0.071718 0.600411 0.711744
O O2 0.201394 0.448137 0.556907
O O3 0.204976 0.771569 0.553279
O O4 0.063644 0.612494 0.425489
O O5 0.739541 0.246399 0.280999
O O6 0.666859 0.525422 0.226751
O O7 0.629905 0.266064 0.052796
O O8 0.674915 0.003161 0.925310
O O9 0.619576 0.714843 0.014327
O O10 0.500000 0.500000 0.650627
O O11 0.558433 0.218913 0.788573
O O12 0.500000 0.000000 0.487790
#
# Coordination Sequence:
#
# PCOD9338874 Si02
#       6
#     4   2   4   4   4   4
#     4  10  21  40  71 106 132 175 223 286 328 415
#     4  10  20  40  74 106 130 172 238 274 340 406
#     4  11  23  41  64  97 132 178 226 276 331 398
#     4  11  23  40  62  98 138 175 216 281 346 392
#     4  11  23  41  64  90 129 181 241 278 315 392
#     4  12  26  43  65  96 140 187 228 278 337 398
#
# _framework density 21.699355000000001
#
# number of rings (size 3 to 8) (size 9 to 14) (size 15 to 20)
#    0.000    1.091    1.818    5.455    2.545    2.909 
#    0.000    0.000    0.000    6.545    0.000    0.000 
#    0.000    0.000    0.000    0.000    0.000    0.000 
#
# Total GULP energy -122734.321262 kJ/mol
# GULP energy per Si atom -5578.832785 kJ/mol
# Density = 2.164997 g / cm^3
# Si number density = 21.699355 Si / 1000 Ang^3
#
#
#
# Elastic Constant Matrix: (Units=GPa)
#
#
# Indices 1 2 3 4 5 6 
#
# 1 103.6912 41.0594 29.7067 0.0000 0.0000 0.0000
# 2 41.0594 102.9580 18.3689 0.0000 0.0000 0.0000
# 3 29.7067 18.3689 67.1939 0.0000 0.0000 0.0000
# 4 0.0000 0.0000 0.0000 31.9466 0.0000 0.0000
# 5 0.0000 0.0000 0.0000 0.0000 36.0997 0.0000
# 6 0.0000 0.0000 0.0000 0.0000 0.0000 24.4337
#
#
#
# Elastic Compliance Matrix: (Units=1/GPa)
#
#
# Indices 1 2 3 4 5 6 
#
# 1 0.012582 -0.004232 -0.004406 0.000000 0.000000 0.000000
# 2 -0.004232 0.011634 -0.001310 0.000000 0.000000 0.000000
# 3 -0.004406 -0.001310 0.017188 0.000000 0.000000 0.000000
# 4 0.000000 0.000000 0.000000 0.031302 0.000000 0.000000
# 5 0.000000 0.000000 0.000000 0.000000 0.027701 0.000000
# 6 0.000000 0.000000 0.000000 0.000000 0.000000 0.040927
#
#
# Mechanical properties :
#
#
# Convention : Reuss Voigt Hill
#
# Bulk Modulus (GPa) = 46.48975 50.23477 48.36226
# Shear Modulus (GPa) = 29.69159 30.80987 30.25073
#
# Velocity S-wave (km/s) = 3.70309 3.77218 3.73779
# Velocity P-wave (km/s) = 6.30514 6.49408 6.40031
#
# Compressibility (1/GPa) = 0.02151012
#
# Stress axis : x y z
#
# Youngs Moduli (GPa) = 79.47975 85.95579 58.17992
#
# Poissons Ratio (x) = 0.36373 0.25632
# Poissons Ratio (y) = 0.33632 0.07619
# Poissons Ratio (z) = 0.35016 0.11256
#
# Static dielectric constant tensor:
#      x y z
#    x 1.895490 0.000000 0.000000 
#    y 0.000000 1.784900 0.000000 
#    z 0.000000 0.000000 1.809930 
# 
# From -- ./inp_files/1565.got.cif
#   From: 2010.05.17/outbox.cif.g08.bks.cpg/sg27_1_cif.got.tgz:1565.got - 2010.06.04 01:11:05.
