data_PCOD9338238
_publ_section_title
;
Structure prediction by ZEFSAII (Michael W. Deem and Ramdas Pophale) SiO2 
 PCOD9338238
Probable space group: P M C 21
;
_chemical_formula_sum "Si O2"
_cell_formula_units_Z 24
_cell_length_a 11.974712
_cell_length_b 11.913327
_cell_length_c 8.372703
_cell_angle_alpha 90.000000
_cell_angle_beta 90.000000
_cell_angle_gamma 90.000000
_cell_volume 1194.438589
_symmetry_space_group_name_H-M "P M C 21"
_symmetry_group_IT_number 26
_symmetry_cell_setting 'orthorhombic'
loop_
_space_group_symop_operation_xyz
x,y,z
-x,-y,1/2+z
-x,y,z
x,-y,1/2+z
loop_
_atom_site_type_symbol
_atom_site_label
_atom_site_fract_x
_atom_site_fract_y
_atom_site_fract_z
Si Si1 0.500000 0.323343 0.576810
Si Si2 0.308486 0.686069 0.532399
Si Si3 0.868011 0.171591 0.158297
Si Si4 0.500000 0.837326 0.674393
Si Si5 0.311005 0.821543 0.215703
Si Si6 0.866543 0.056741 0.500017
Si Si7 0.500000 0.025927 0.871562
Si Si8 0.500000 0.535290 0.409274
O O1 0.610033 0.248836 0.596487
O O2 0.500000 0.401536 0.421340
O O3 0.500000 0.405161 0.736066
O O4 0.195941 0.711138 0.630186
O O5 0.393491 0.767346 0.625651
O O6 0.282615 0.735375 0.357262
O O7 0.386461 0.577979 0.498929
O O8 0.842677 0.109168 0.326239
O O9 0.000000 0.190605 0.152579
O O10 0.839689 0.075460 0.025535
O O11 0.500000 0.944183 0.556392
O O12 0.500000 0.894311 0.843903
O O13 0.207331 0.875668 0.126533
O O14 0.391130 0.914781 0.296757
O O15 0.000000 0.067515 0.529936
#
# Coordination Sequence:
#
# PCOD9338238 Si02
#       8
#     2   4   4   2   4   4   2   2
#     4   9  19  35  54  76  99 123 155 199 250 298
#     4   9  18  32  48  68  95 125 158 196 238 285
#     4  10  20  32  47  70 100 133 167 200 234 277
#     4   9  17  27  40  62  92 121 149 185 227 274
#     4   9  18  32  48  68  95 125 158 196 238 285
#     4  10  20  32  47  70 100 133 167 200 234 277
#     4   9  17  27  40  62  92 121 149 185 227 274
#     4   9  19  35  54  76  99 123 155 199 250 298
#
# _framework density 20.093122999999999
#
# number of rings (size 3 to 8) (size 9 to 14) (size 15 to 20)
#    0.000    2.667    0.000    4.000    0.000    7.333 
#    0.000    3.333    0.000    1.000    0.000    0.000 
#    0.000    0.000    0.000    0.000    0.000    0.000 
#
# Total GULP energy -133897.327129 kJ/mol
# GULP energy per Si atom -5579.055297 kJ/mol
# Density = 2.004739 g / cm^3
# Si number density = 20.093123 Si / 1000 Ang^3
#
#
#
# Elastic Constant Matrix: (Units=GPa)
#
#
# Indices 1 2 3 4 5 6 
#
# 1 71.0573 12.3671 30.9296 0.0000 0.0000 0.0000
# 2 12.3671 27.7593 13.2437 0.0000 0.0000 0.0000
# 3 30.9296 13.2437 58.4870 0.0000 0.0000 0.0000
# 4 0.0000 0.0000 0.0000 33.4692 0.0000 0.0000
# 5 0.0000 0.0000 0.0000 0.0000 17.3422 0.0000
# 6 0.0000 0.0000 0.0000 0.0000 0.0000 197.3076
#
#
#
# Elastic Compliance Matrix: (Units=1/GPa)
#
#
# Indices 1 2 3 4 5 6 
#
# 1 0.018678 -0.004046 -0.008961 0.000000 0.000000 0.000000
# 2 -0.004046 0.041264 -0.007204 0.000000 0.000000 0.000000
# 3 -0.008961 -0.007204 0.023468 0.000000 0.000000 0.000000
# 4 0.000000 0.000000 0.000000 0.029878 0.000000 0.000000
# 5 0.000000 0.000000 0.000000 0.000000 0.057663 0.000000
# 6 0.000000 0.000000 0.000000 0.000000 0.000000 0.005068
#
#
# Mechanical properties :
#
#
# Convention : Reuss Voigt Hill
#
# Bulk Modulus (GPa) = 23.26283 30.04271 26.65277
# Shear Modulus (GPa) = 21.66654 56.34132 39.00393
#
# Velocity S-wave (km/s) = 3.28732 5.30104 4.41064
# Velocity P-wave (km/s) = 5.10012 7.24239 6.26352
#
# Compressibility (1/GPa) = 0.04298703
#
# Stress axis : x y z
#
# Youngs Moduli (GPa) = 53.53898 24.23446 42.61101
#
# Poissons Ratio (x) = 0.09805 0.38185
# Poissons Ratio (y) = 0.21661 0.30697
# Poissons Ratio (z) = 0.47978 0.17459
#
# Static dielectric constant tensor:
#      x y z
#    x 1.775150 0.000000 0.000000 
#    y 0.000000 1.710290 0.000000 
#    z 0.000000 0.000000 1.793380 
# 
# From -- ./inp_files/1867.got.cif
#   From: 2010.05.17/outbox.cif.g08.bks.cpg/sg26_1_cif.got.tgz:1867.got - 2010.06.04 01:07:29.
