data_PCOD9338484
_publ_section_title
;
Structure prediction by ZEFSAII (Michael W. Deem and Ramdas Pophale) SiO2 
 PCOD9338484
Probable space group: P M C 21
;
_chemical_formula_sum "Si O2"
_cell_formula_units_Z 32
_cell_length_a 7.839871
_cell_length_b 15.957632
_cell_length_c 11.491742
_cell_angle_alpha 90.000000
_cell_angle_beta 90.000000
_cell_angle_gamma 90.000000
_cell_volume 1437.683304
_symmetry_space_group_name_H-M "P M C 21"
_symmetry_group_IT_number 26
_symmetry_cell_setting 'orthorhombic'
loop_
_space_group_symop_operation_xyz
x,y,z
-x,-y,1/2+z
-x,y,z
x,-y,1/2+z
loop_
_atom_site_type_symbol
_atom_site_label
_atom_site_fract_x
_atom_site_fract_y
_atom_site_fract_z
Si Si1 0.695045 0.141252 0.729010
Si Si2 0.303008 0.272938 0.554853
Si Si3 0.199426 0.459855 0.590939
Si Si4 0.293081 0.981670 0.415193
Si Si5 0.293488 0.157918 0.097669
Si Si6 0.695553 0.711525 0.420663
Si Si7 0.801700 0.467109 0.849169
Si Si8 0.196759 0.165925 0.364226
O O1 0.500000 0.118813 0.693132
O O2 0.774778 0.193855 0.624813
O O3 0.769327 0.060627 0.793896
O O4 0.688803 0.211579 0.830156
O O5 0.500000 0.283255 0.593114
O O6 0.212641 0.359547 0.580536
O O7 0.297650 0.242126 0.422763
O O8 0.274340 0.494759 0.468997
O O9 0.271219 0.484598 0.719146
O O10 0.000000 0.484718 0.592429
O O11 0.500000 0.978730 0.411434
O O12 0.236966 0.922159 0.521210
O O13 0.239149 0.076929 0.423033
O O14 0.500000 0.158719 0.091639
O O15 0.239049 0.154340 0.229537
O O16 0.234037 0.244028 0.036135
O O17 0.500000 0.683857 0.439861
O O18 0.793147 0.632863 0.369472
O O19 0.000000 0.493928 0.845275
O O20 0.000000 0.185882 0.378558
#
# Coordination Sequence:
#
# PCOD9338484 Si02
#       8
#     4   4   4   4   4   4   4   4
#     4   8  16  33  60  87 110 140 186 242 290 339
#     4  11  22  39  63  88 115 155 202 247 299 359
#     4  10  22  40  59  86 123 163 205 253 307 371
#     4   9  19  38  62  85 111 152 200 245 296 352
#     4   9  20  39  61  84 113 151 197 248 298 355
#     4   9  17  35  62  89 112 140 191 248 294 344
#     4  10  21  37  59  87 123 164 203 244 306 376
#     4  12  26  39  54  84 125 159 194 245 300 360
#
# _framework density 22.258030000000002
#
# number of rings (size 3 to 8) (size 9 to 14) (size 15 to 20)
#    0.000    2.250    1.250    3.000    1.750    2.500 
#    0.000    3.750    0.000    0.000    0.000    0.000 
#    0.000    0.000    0.000    0.000    0.000    0.000 
#
# Total GULP energy -178510.736428 kJ/mol
# GULP energy per Si atom -5578.460513 kJ/mol
# Density = 2.220737 g / cm^3
# Si number density = 22.258030 Si / 1000 Ang^3
#
#
#
# Elastic Constant Matrix: (Units=GPa)
#
#
# Indices 1 2 3 4 5 6 
#
# 1 33.5591 -4.9769 2.0990 0.0000 0.0000 0.0000
# 2 -4.9769 52.0544 43.4637 0.0000 0.0000 0.0000
# 3 2.0990 43.4637 149.4234 0.0000 0.0000 0.0000
# 4 0.0000 0.0000 0.0000 28.6185 0.0000 0.0000
# 5 0.0000 0.0000 0.0000 0.0000 3.7123 0.0000
# 6 0.0000 0.0000 0.0000 0.0000 0.0000 23.1427
#
#
#
# Elastic Compliance Matrix: (Units=1/GPa)
#
#
# Indices 1 2 3 4 5 6 
#
# 1 0.030546 0.004331 -0.001689 0.000000 0.000000 0.000000
# 2 0.004331 0.025987 -0.007620 0.000000 0.000000 0.000000
# 3 -0.001689 -0.007620 0.008933 0.000000 0.000000 0.000000
# 4 0.000000 0.000000 0.000000 0.034942 0.000000 0.000000
# 5 0.000000 0.000000 0.000000 0.000000 0.269376 0.000000
# 6 0.000000 0.000000 0.000000 0.000000 0.000000 0.043210
#
#
# Mechanical properties :
#
#
# Convention : Reuss Voigt Hill
#
# Bulk Modulus (GPa) = 18.01493 35.13429 26.57461
# Shear Modulus (GPa) = 11.32623 24.05811 17.69217
#
# Velocity S-wave (km/s) = 2.25824 3.29123 2.82240
# Velocity P-wave (km/s) = 3.86145 5.50111 4.75252
#
# Compressibility (1/GPa) = 0.05550952
#
# Stress axis : x y z
#
# Youngs Moduli (GPa) = 32.73749 38.48070 111.95006
#
# Poissons Ratio (x) = -0.16664 0.18906
# Poissons Ratio (y) = -0.14177 0.85304
# Poissons Ratio (z) = 0.05529 0.29322
#
# Static dielectric constant tensor:
#      x y z
#    x 1.848170 0.000000 0.000000 
#    y 0.000000 1.779380 0.000000 
#    z 0.000000 0.000000 1.907770 
# 
# From -- ./inp_files/3052.got.cif
#   From: 2010.05.17/outbox.cif.g08.bks.cpg/sg26_2_cif.got.tgz:3052.got - 2010.06.04 01:07:29.
