data_PCOD9338857
_publ_section_title
;
Structure prediction by ZEFSAII (Michael W. Deem and Ramdas Pophale) SiO2 
 PCOD9338857
Probable space group: P C C 2
;
_chemical_formula_sum "Si O2"
_cell_formula_units_Z 24
_cell_length_a 8.469238
_cell_length_b 5.389649
_cell_length_c 23.634420
_cell_angle_alpha 90.000000
_cell_angle_beta 90.000000
_cell_angle_gamma 90.000000
_cell_volume 1078.821938
_symmetry_space_group_name_H-M "P C C 2"
_symmetry_group_IT_number 27
_symmetry_cell_setting 'orthorhombic'
loop_
_space_group_symop_operation_xyz
x,y,z
-x,-y,z
-x,y,1/2+z
x,-y,1/2+z
loop_
_atom_site_type_symbol
_atom_site_label
_atom_site_fract_x
_atom_site_fract_y
_atom_site_fract_z
Si Si1 0.272092 0.352465 0.306500
Si Si2 0.310637 0.546292 0.071546
Si Si3 0.812414 0.948080 0.015630
Si Si4 0.000000 0.000000 0.321736
Si Si5 0.500000 0.000000 0.256605
Si Si6 0.156655 0.365083 0.910118
Si Si7 0.328516 0.639133 0.197527
O O1 0.135668 0.154904 0.293127
O O2 0.438889 0.218115 0.296310
O O3 0.256361 0.444527 0.371349
O O4 0.249909 0.544151 0.255135
O O5 0.500000 0.500000 0.068357
O O6 0.230145 0.283815 0.056076
O O7 0.258997 0.609249 0.135794
O O8 0.267214 0.788516 0.033031
O O9 0.766379 0.819236 0.955448
O O10 0.000000 0.000000 0.014036
O O11 0.912763 0.193097 0.361686
O O12 0.635232 0.078586 0.213099
O O13 0.000000 0.500000 0.936058
O O14 0.500000 0.500000 0.194352
#
# Coordination Sequence:
#
# PCOD9338857 Si02
#       7
#     4   4   4   2   2   4   4
#     4  10  21  38  66 103 129 178 228 279 350 421
#     4  11  26  46  76 107 143 189 241 294 358 421
#     4  12  25  47  75 104 140 191 245 295 354 419
#     4  10  20  38  66  92 132 176 224 278 342 422
#     4  10  20  40  70  94 136 180 224 280 346 434
#     4  10  21  40  68  96 131 186 229 281 356 423
#     4   9  21  40  68  97 135 184 223 277 358 424
#
# _framework density 22.246489
#
# number of rings (size 3 to 8) (size 9 to 14) (size 15 to 20)
#    0.000    1.667    0.833    3.000    9.333    0.000 
#    1.500    9.167    7.333    0.000    0.000    0.000 
#    0.000    0.000    0.000    0.000    0.000    0.000 
#
# Total GULP energy -133732.744780 kJ/mol
# GULP energy per Si atom -5572.197699 kJ/mol
# Density = 2.219585 g / cm^3
# Si number density = 22.246489 Si / 1000 Ang^3
#
#
#
# Elastic Constant Matrix: (Units=GPa)
#
#
# Indices 1 2 3 4 5 6 
#
# 1 36.7878 31.4701 37.7999 0.0000 0.0000 0.0000
# 2 31.4701 116.6802 32.0438 0.0000 0.0000 0.0000
# 3 37.7999 32.0438 82.9052 0.0000 0.0000 0.0000
# 4 0.0000 0.0000 0.0000 50.2796 0.0000 0.0000
# 5 0.0000 0.0000 0.0000 0.0000 128.5580 0.0000
# 6 0.0000 0.0000 0.0000 0.0000 0.0000 46.1330
#
#
#
# Elastic Compliance Matrix: (Units=1/GPa)
#
#
# Indices 1 2 3 4 5 6 
#
# 1 0.059425 -0.009607 -0.023381 0.000000 0.000000 0.000000
# 2 -0.009607 0.011141 0.000074 0.000000 0.000000 0.000000
# 3 -0.023381 0.000074 0.022694 0.000000 0.000000 0.000000
# 4 0.000000 0.000000 0.000000 0.019889 0.000000 0.000000
# 5 0.000000 0.000000 0.000000 0.000000 0.007779 0.000000
# 6 0.000000 0.000000 0.000000 0.000000 0.000000 0.021676
#
#
# Mechanical properties :
#
#
# Convention : Reuss Voigt Hill
#
# Bulk Modulus (GPa) = 36.45342 48.77786 42.61564
# Shear Modulus (GPa) = 22.98040 53.99809 38.48925
#
# Velocity S-wave (km/s) = 3.21750 4.93207 4.16399
# Velocity P-wave (km/s) = 5.49771 7.37614 6.50509
#
# Compressibility (1/GPa) = 0.02743227
#
# Stress axis : x y z
#
# Youngs Moduli (GPa) = 16.82782 89.75720 44.06458
#
# Poissons Ratio (x) = 0.86226 1.03029
# Poissons Ratio (y) = 0.16166 -0.00325
# Poissons Ratio (z) = 0.39346 -0.00663
#
# Static dielectric constant tensor:
#      x y z
#    x 1.895210 0.000000 0.000000 
#    y 0.000000 1.789630 0.000000 
#    z 0.000000 0.000000 1.822590 
# 
# From -- ./inp_files/5080.got.cif
#   From: 2010.05.17/outbox.cif.g08.bks.cpg/sg27_3_cif.got.tgz:5080.got - 2010.06.04 01:11:05.
