data_PCOD9338013
_publ_section_title
;
Structure prediction by ZEFSAII (Michael W. Deem and Ramdas Pophale) SiO2 
 PCOD9338013
Probable space group: P M C 21
;
_chemical_formula_sum "Si O2"
_cell_formula_units_Z 24
_cell_length_a 13.988959
_cell_length_b 8.776599
_cell_length_c 7.533566
_cell_angle_alpha 90.000000
_cell_angle_beta 90.000000
_cell_angle_gamma 90.000000
_cell_volume 924.937209
_symmetry_space_group_name_H-M "P M C 21"
_symmetry_group_IT_number 26
_symmetry_cell_setting 'orthorhombic'
loop_
_space_group_symop_operation_xyz
x,y,z
-x,-y,1/2+z
-x,y,z
x,-y,1/2+z
loop_
_atom_site_type_symbol
_atom_site_label
_atom_site_fract_x
_atom_site_fract_y
_atom_site_fract_z
Si Si1 0.192523 0.193793 0.302900
Si Si2 0.707864 0.688208 0.224470
Si Si3 0.708294 0.953481 0.479961
Si Si4 0.500000 0.035350 0.962566
Si Si5 0.000000 0.052131 0.284696
Si Si6 0.813622 0.448638 0.037284
Si Si7 0.500000 0.258143 0.623937
Si Si8 0.000000 0.265064 0.932676
O O1 0.095956 0.117412 0.373815
O O2 0.185553 0.364381 0.231344
O O3 0.276156 0.128451 0.426217
O O4 0.214521 0.112844 0.112302
O O5 0.718118 0.860618 0.294562
O O6 0.790799 0.621343 0.096504
O O7 0.725488 0.605015 0.415275
O O8 0.600938 0.657766 0.151804
O O9 0.601592 0.923403 0.547748
O O10 0.500000 0.851285 0.952107
O O11 0.500000 0.130563 0.781255
O O12 0.000000 0.867200 0.281675
O O13 0.000000 0.149961 0.101605
O O14 0.909237 0.378976 0.947509
#
# Coordination Sequence:
#
# PCOD9338013 Si02
#       8
#     4   4   4   2   2   4   2   2
#     4  10  20  35  59  88 120 155 205 263 313 363
#     4  10  22  40  60  87 127 168 209 252 308 377
#     4  10  20  36  59  90 122 159 206 261 312 368
#     4  10  20  36  60  90 124 156 204 262 312 360
#     4  10  18  36  62  92 120 154 206 264 314 362
#     4  10  23  41  59  87 127 167 207 254 309 377
#     4  10  22  40  64  96 128 164 212 266 318 374
#     4  10  22  40  64  94 128 164 212 268 320 374
#
# _framework density 25.947704999999999
#
# number of rings (size 3 to 8) (size 9 to 14) (size 15 to 20)
#    0.000    2.000    0.000    5.000    0.000    4.000 
#    0.000    6.667    0.000    0.000    0.000    0.000 
#    0.000    0.000    0.000    0.000    0.000    0.000 
#
# Total GULP energy -133924.387716 kJ/mol
# GULP energy per Si atom -5580.182822 kJ/mol
# Density = 2.588865 g / cm^3
# Si number density = 25.947705 Si / 1000 Ang^3
#
#
#
# Elastic Constant Matrix: (Units=GPa)
#
#
# Indices 1 2 3 4 5 6 
#
# 1 179.8492 56.6871 25.6782 0.0000 0.0000 0.0000
# 2 56.6871 149.8128 -3.1437 0.0000 0.0000 0.0000
# 3 25.6782 -3.1437 48.9839 0.0000 0.0000 0.0000
# 4 0.0000 0.0000 0.0000 45.7153 0.0000 0.0000
# 5 0.0000 0.0000 0.0000 0.0000 36.5641 0.0000
# 6 0.0000 0.0000 0.0000 0.0000 0.0000 36.7788
#
#
#
# Elastic Compliance Matrix: (Units=1/GPa)
#
#
# Indices 1 2 3 4 5 6 
#
# 1 0.006962 -0.002714 -0.003824 0.000000 0.000000 0.000000
# 2 -0.002714 0.007742 0.001920 0.000000 0.000000 0.000000
# 3 -0.003824 0.001920 0.022543 0.000000 0.000000 0.000000
# 4 0.000000 0.000000 0.000000 0.021874 0.000000 0.000000
# 5 0.000000 0.000000 0.000000 0.000000 0.027349 0.000000
# 6 0.000000 0.000000 0.000000 0.000000 0.000000 0.027190
#
#
# Mechanical properties :
#
#
# Convention : Reuss Voigt Hill
#
# Bulk Modulus (GPa) = 35.70140 59.67658 47.68899
# Shear Modulus (GPa) = 37.81200 43.77327 40.79263
#
# Velocity S-wave (km/s) = 3.82152 4.11174 3.96929
# Velocity P-wave (km/s) = 5.76722 6.75208 6.27899
#
# Compressibility (1/GPa) = 0.02801010
#
# Stress axis : x y z
#
# Youngs Moduli (GPa) = 143.64274 129.15898 44.36061
#
# Poissons Ratio (x) = 0.35060 0.16962
# Poissons Ratio (y) = 0.38991 -0.08517
# Poissons Ratio (z) = 0.54924 -0.24797
#
# Static dielectric constant tensor:
#      x y z
#    x 1.970200 0.000000 0.000000 
#    y 0.000000 2.144640 0.000000 
#    z 0.000000 0.000000 2.187110 
# 
# From -- ./inp_files/2161.got.cif
#   From: 2010.05.17/outbox.cif.g08.bks.cpg/sg26_2_cif.got.tgz:2161.got - 2010.06.04 01:07:29.
