data_PCOD9338331
_publ_section_title
;
Structure prediction by ZEFSAII (Michael W. Deem and Ramdas Pophale) SiO2 
 PCOD9338331
Probable space group: P M C 21
;
_chemical_formula_sum "Si O2"
_cell_formula_units_Z 32
_cell_length_a 15.500436
_cell_length_b 11.448327
_cell_length_c 8.729197
_cell_angle_alpha 90.000000
_cell_angle_beta 90.000000
_cell_angle_gamma 90.000000
_cell_volume 1549.031448
_symmetry_space_group_name_H-M "P M C 21"
_symmetry_group_IT_number 26
_symmetry_cell_setting 'orthorhombic'
loop_
_space_group_symop_operation_xyz
x,y,z
-x,-y,1/2+z
-x,y,z
x,-y,1/2+z
loop_
_atom_site_type_symbol
_atom_site_label
_atom_site_fract_x
_atom_site_fract_y
_atom_site_fract_z
Si Si1 0.735089 0.650556 0.451390
Si Si2 0.316678 0.033009 0.688531
Si Si3 0.899239 0.651581 0.943511
Si Si4 0.591796 0.329884 0.380474
Si Si5 0.753268 0.838608 0.902816
Si Si6 0.899736 0.603918 0.306686
Si Si7 0.346866 0.472425 0.662990
Si Si8 0.400353 0.152094 0.973021
O O1 0.833620 0.677889 0.411190
O O2 0.695624 0.608238 0.290191
O O3 0.724849 0.542753 0.566986
O O4 0.671389 0.750402 0.509940
O O5 0.260695 0.111487 0.573735
O O6 0.374089 0.108524 0.804151
O O7 0.255287 0.947498 0.787559
O O8 0.380694 0.954730 0.586248
O O9 0.836007 0.755415 0.893465
O O10 0.881439 0.531656 0.850656
O O11 0.000000 0.680477 0.919252
O O12 0.887825 0.627575 0.125953
O O13 0.500000 0.268208 0.368205
O O14 0.670692 0.242559 0.370111
O O15 0.599228 0.430184 0.252807
O O16 0.600585 0.396752 0.541979
O O17 0.000000 0.625603 0.344183
O O18 0.500000 0.190617 0.981051
#
# Coordination Sequence:
#
# PCOD9338331 Si02
#       8
#     4   4   4   4   4   4   4   4
#     4  11  21  36  56  82 116 154 189 227 280 342
#     4  10  24  41  59  81 111 148 198 256 299 335
#     4  10  21  39  64  92 122 154 187 229 286 351
#     4  11  22  36  56  82 115 154 191 234 292 356
#     4  11  23  41  60  82 114 153 198 245 294 343
#     4  10  20  35  59  92 125 154 186 226 278 347
#     4  10  22  35  52  81 119 151 186 231 281 350
#     4  11  23  39  60  84 112 150 197 246 294 340
#
# _framework density 20.658072000000001
#
# number of rings (size 3 to 8) (size 9 to 14) (size 15 to 20)
#    0.000    1.500    0.000    6.000    0.000    9.000 
#    0.000    0.625    0.000    3.000    0.000    0.000 
#    0.000    0.000    0.000    0.000    0.000    0.000 
#
# Total GULP energy -178958.711719 kJ/mol
# GULP energy per Si atom -5592.459741 kJ/mol
# Density = 2.061105 g / cm^3
# Si number density = 20.658072 Si / 1000 Ang^3
#
#
#
# Elastic Constant Matrix: (Units=GPa)
#
#
# Indices 1 2 3 4 5 6 
#
# 1 131.5863 40.5885 13.5016 0.0000 0.0000 0.0000
# 2 40.5885 63.3163 12.8766 0.0000 0.0000 0.0000
# 3 13.5016 12.8766 82.2235 0.0000 0.0000 0.0000
# 4 0.0000 0.0000 0.0000 23.3030 0.0000 0.0000
# 5 0.0000 0.0000 0.0000 0.0000 -9.2918 0.0000
# 6 0.0000 0.0000 0.0000 0.0000 0.0000 43.4407
#
#
#
# Elastic Compliance Matrix: (Units=1/GPa)
#
#
# Indices 1 2 3 4 5 6 
#
# 1 0.009504 -0.005965 -0.000626 0.000000 0.000000 0.000000
# 2 -0.005965 0.020057 -0.002162 0.000000 0.000000 0.000000
# 3 -0.000626 -0.002162 0.012603 0.000000 0.000000 0.000000
# 4 0.000000 0.000000 0.000000 0.042913 0.000000 0.000000
# 5 0.000000 0.000000 0.000000 0.000000 -0.107621 0.000000
# 6 0.000000 0.000000 0.000000 0.000000 0.000000 0.023020
#
#
# Mechanical properties :
#
#
# Convention : Reuss Voigt Hill
#
# Bulk Modulus (GPa) = 40.55422 45.67328 43.11375
# Shear Modulus (GPa) = 190.83307 25.50100 108.16703
#
# Velocity S-wave (km/s) = 9.62172 3.51726 7.24392
# Velocity P-wave (km/s) = 11.96288 6.21707 9.53317
#
# Compressibility (1/GPa) = 0.02465835
#
# Stress axis : x y z
#
# Youngs Moduli (GPa) = 105.22140 49.85768 79.34399
#
# Poissons Ratio (x) = 0.29740 0.04970
# Poissons Ratio (y) = 0.62764 0.17151
# Poissons Ratio (z) = 0.06591 0.10777
#
# Static dielectric constant tensor:
#      x y z
#    x 1.741410 0.000000 0.000000 
#    y 0.000000 1.751140 0.000000 
#    z 0.000000 0.000000 1.760330 
# 
# From -- ./inp_files/2248.got.cif
#   From: 2010.05.17/outbox.cif.g08.bks.cpg/sg26_2_cif.got.tgz:2248.got - 2010.06.04 01:07:29.
