data_PCOD9338049
_publ_section_title
;
Structure prediction by ZEFSAII (Michael W. Deem and Ramdas Pophale) SiO2 
 PCOD9338049
Probable space group: P M C 21
;
_chemical_formula_sum "Si O2"
_cell_formula_units_Z 32
_cell_length_a 14.013932
_cell_length_b 14.073110
_cell_length_c 8.546655
_cell_angle_alpha 90.000000
_cell_angle_beta 90.000000
_cell_angle_gamma 90.000000
_cell_volume 1685.567937
_symmetry_space_group_name_H-M "P M C 21"
_symmetry_group_IT_number 26
_symmetry_cell_setting 'orthorhombic'
loop_
_space_group_symop_operation_xyz
x,y,z
-x,-y,1/2+z
-x,y,z
x,-y,1/2+z
loop_
_atom_site_type_symbol
_atom_site_label
_atom_site_fract_x
_atom_site_fract_y
_atom_site_fract_z
Si Si1 0.667527 0.867671 0.144240
Si Si2 0.635489 0.312705 0.454195
Si Si3 0.784379 0.424026 0.325245
Si Si4 0.738586 0.270460 0.872506
Si Si5 0.886853 0.593332 0.502992
Si Si6 0.396811 0.790520 0.641662
Si Si7 0.393411 0.970873 0.865252
Si Si8 0.609806 0.440395 0.735434
O O1 0.747085 0.808605 0.237924
O O2 0.619213 0.928804 0.281071
O O3 0.613738 0.780499 0.057535
O O4 0.680491 0.941228 0.001014
O O5 0.747291 0.334513 0.424465
O O6 0.600733 0.287008 0.281228
O O7 0.604703 0.403632 0.555459
O O8 0.840277 0.497447 0.433929
O O9 0.687341 0.475708 0.258669
O O10 0.849996 0.397832 0.180091
O O11 0.837003 0.322184 0.907521
O O12 0.661319 0.351721 0.822262
O O13 0.690595 0.227114 0.027367
O O14 0.000000 0.591651 0.491847
O O15 0.500000 0.787264 0.559216
O O16 0.388034 0.890614 0.731125
O O17 0.500000 0.966550 0.936286
O O18 0.500000 0.458561 0.784962
#
# Coordination Sequence:
#
# PCOD9338049 Si02
#       8
#     4   4   4   4   4   4   4   4
#     4  10  21  35  55  79 116 154 190 243 287 337
#     4  10  20  36  52  76 117 158 199 239 285 333
#     4  11  21  40  57  85 118 152 202 251 293 362
#     4  10  21  36  54  82 117 148 196 245 294 356
#     4  11  23  41  65  87 113 151 197 260 316 353
#     4  10  19  31  52  81 116 155 194 235 283 340
#     4  10  20  33  53  83 118 161 203 234 276 345
#     4  10  21  34  51  75 115 165 201 233 278 342
#
# _framework density 18.984701000000001
#
# number of rings (size 3 to 8) (size 9 to 14) (size 15 to 20)
#    0.000    1.750    2.500    2.250    0.000    8.500 
#    0.000    0.000    0.000    0.000    0.000    3.500 
#    0.000    0.000    0.000    0.000    0.000    0.000 
#
# Total GULP energy -178354.864217 kJ/mol
# GULP energy per Si atom -5573.589507 kJ/mol
# Density = 1.894149 g / cm^3
# Si number density = 18.984701 Si / 1000 Ang^3
#
#
#
# Elastic Constant Matrix: (Units=GPa)
#
#
# Indices 1 2 3 4 5 6 
#
# 1 119.8363 36.6661 29.9861 0.0000 0.0000 0.0000
# 2 36.6661 76.7706 30.3972 0.0000 0.0000 0.0000
# 3 29.9861 30.3972 71.5868 0.0000 0.0000 0.0000
# 4 0.0000 0.0000 0.0000 40.7233 0.0000 0.0000
# 5 0.0000 0.0000 0.0000 0.0000 16.8367 0.0000
# 6 0.0000 0.0000 0.0000 0.0000 0.0000 11.8423
#
#
#
# Elastic Compliance Matrix: (Units=1/GPa)
#
#
# Indices 1 2 3 4 5 6 
#
# 1 0.010172 -0.003812 -0.002642 0.000000 0.000000 0.000000
# 2 -0.003812 0.017087 -0.005659 0.000000 0.000000 0.000000
# 3 -0.002642 -0.005659 0.017479 0.000000 0.000000 0.000000
# 4 0.000000 0.000000 0.000000 0.024556 0.000000 0.000000
# 5 0.000000 0.000000 0.000000 0.000000 0.059394 0.000000
# 6 0.000000 0.000000 0.000000 0.000000 0.000000 0.084443
#
#
# Mechanical properties :
#
#
# Convention : Reuss Voigt Hill
#
# Bulk Modulus (GPa) = 48.75235 51.36583 50.05909
# Shear Modulus (GPa) = 20.47548 25.29009 22.88278
#
# Velocity S-wave (km/s) = 3.28765 3.65379 3.47555
# Velocity P-wave (km/s) = 6.33617 6.70190 6.52160
#
# Compressibility (1/GPa) = 0.02051183
#
# Stress axis : x y z
#
# Youngs Moduli (GPa) = 98.30653 58.52378 57.21281
#
# Poissons Ratio (x) = 0.22310 0.15117
# Poissons Ratio (y) = 0.37476 0.32375
# Poissons Ratio (z) = 0.25975 0.33117
#
# Static dielectric constant tensor:
#      x y z
#    x 1.621830 0.000000 0.000000 
#    y 0.000000 1.728490 0.000000 
#    z 0.000000 0.000000 1.738140 
# 
# From -- ./inp_files/1981.got.cif
#   From: 2010.05.17/outbox.cif.g08.bks.cpg/sg26_1_cif.got.tgz:1981.got - 2010.06.04 01:07:29.
