data_PCOD9338092
_publ_section_title
;
Structure prediction by ZEFSAII (Michael W. Deem and Ramdas Pophale) SiO2 
 PCOD9338092
Probable space group: P M C 21
;
_chemical_formula_sum "Si O2"
_cell_formula_units_Z 20
_cell_length_a 13.580701
_cell_length_b 9.200726
_cell_length_c 8.003461
_cell_angle_alpha 90.000000
_cell_angle_beta 90.000000
_cell_angle_gamma 90.000000
_cell_volume 1000.050930
_symmetry_space_group_name_H-M "P M C 21"
_symmetry_group_IT_number 26
_symmetry_cell_setting 'orthorhombic'
loop_
_space_group_symop_operation_xyz
x,y,z
-x,-y,1/2+z
-x,y,z
x,-y,1/2+z
loop_
_atom_site_type_symbol
_atom_site_label
_atom_site_fract_x
_atom_site_fract_y
_atom_site_fract_z
Si Si1 0.389055 0.411618 0.231430
Si Si2 0.784872 0.223174 0.099909
Si Si3 0.389530 0.721334 0.101590
Si Si4 0.000000 0.778498 0.613242
Si Si5 0.215068 0.907831 0.227432
Si Si6 0.000000 0.909215 0.239231
O O1 0.500000 0.383627 0.164654
O O2 0.303399 0.332797 0.130403
O O3 0.375406 0.584744 0.225387
O O4 0.385038 0.349268 0.418112
O O5 0.893106 0.294467 0.128345
O O6 0.776117 0.081921 0.219216
O O7 0.780578 0.154453 0.914830
O O8 0.500000 0.781782 0.126075
O O9 0.304177 0.836650 0.127764
O O10 0.000000 0.848852 0.427173
O O11 0.000000 0.915813 0.737854
O O12 0.105235 0.868288 0.160077
#
# Coordination Sequence:
#
# PCOD9338092 Si02
#       6
#     4   4   4   2   4   2
#     4  10  21  37  55  75 101 134 171 211 257 306
#     4  10  19  33  54  79 106 135 170 210 252 299
#     4  10  21  37  55  75 101 134 171 211 257 306
#     4   8  16  30  49  74 103 134 166 204 250 298
#     4  10  19  33  54  79 106 135 170 210 252 299
#     4   8  16  30  49  74 103 134 166 204 250 298
#
# _framework density 19.998981000000001
#
# number of rings (size 3 to 8) (size 9 to 14) (size 15 to 20)
#    0.000    2.400    0.000    2.400    0.000    4.800 
#    0.000    1.000    0.000    0.000    0.000    0.000 
#    0.000    0.000    0.000    0.000    0.000    0.000 
#
# Total GULP energy -111532.029683 kJ/mol
# GULP energy per Si atom -5576.601484 kJ/mol
# Density = 1.995346 g / cm^3
# Si number density = 19.998981 Si / 1000 Ang^3
#
#
#
# Elastic Constant Matrix: (Units=GPa)
#
#
# Indices 1 2 3 4 5 6 
#
# 1 173.9410 50.3447 23.7881 0.0000 0.0000 0.0000
# 2 50.3447 25.5563 -3.2144 0.0000 0.0000 0.0000
# 3 23.7881 -3.2144 31.7251 0.0000 0.0000 0.0000
# 4 0.0000 0.0000 0.0000 28.1840 0.0000 0.0000
# 5 0.0000 0.0000 0.0000 0.0000 26.1454 0.0000
# 6 0.0000 0.0000 0.0000 0.0000 0.0000 6.7379
#
#
#
# Elastic Compliance Matrix: (Units=1/GPa)
#
#
# Indices 1 2 3 4 5 6 
#
# 1 0.021835 -0.045654 -0.020998 0.000000 0.000000 0.000000
# 2 -0.045654 0.135092 0.047920 0.000000 0.000000 0.000000
# 3 -0.020998 0.047920 0.052120 0.000000 0.000000 0.000000
# 4 0.000000 0.000000 0.000000 0.035481 0.000000 0.000000
# 5 0.000000 0.000000 0.000000 0.000000 0.038248 0.000000
# 6 0.000000 0.000000 0.000000 0.000000 0.000000 0.148413
#
#
# Mechanical properties :
#
#
# Convention : Reuss Voigt Hill
#
# Bulk Modulus (GPa) = 5.82807 41.45102 23.63955
# Shear Modulus (GPa) = 9.50846 22.90040 16.20443
#
# Velocity S-wave (km/s) = 2.18284 3.38757 2.84960
# Velocity P-wave (km/s) = 3.04525 6.00603 4.76162
#
# Compressibility (1/GPa) = 0.17158330
#
# Stress axis : x y z
#
# Youngs Moduli (GPa) = 45.79895 7.40235 19.18637
#
# Poissons Ratio (x) = 0.33795 0.40287
# Poissons Ratio (y) = 2.09090 -0.91940
# Poissons Ratio (z) = 0.96167 -0.35472
#
# Static dielectric constant tensor:
#      x y z
#    x 1.741750 0.000000 0.000000 
#    y 0.000000 1.655990 0.000000 
#    z 0.000000 0.000000 1.747130 
# 
# From -- ./inp_files/1756.got.cif
#   From: 2010.05.17/outbox.cif.g08.bks.cpg/sg26_1_cif.got.tgz:1756.got - 2010.06.04 01:07:29.
