data_PCOD9338180
_publ_section_title
;
Structure prediction by ZEFSAII (Michael W. Deem and Ramdas Pophale) SiO2 
 PCOD9338180
Probable space group: P M C 21
;
_chemical_formula_sum "Si O2"
_cell_formula_units_Z 16
_cell_length_a 10.986143
_cell_length_b 8.505120
_cell_length_c 7.783714
_cell_angle_alpha 90.000000
_cell_angle_beta 90.000000
_cell_angle_gamma 90.000000
_cell_volume 727.298285
_symmetry_space_group_name_H-M "P M C 21"
_symmetry_group_IT_number 26
_symmetry_cell_setting 'orthorhombic'
loop_
_space_group_symop_operation_xyz
x,y,z
-x,-y,1/2+z
-x,y,z
x,-y,1/2+z
loop_
_atom_site_type_symbol
_atom_site_label
_atom_site_fract_x
_atom_site_fract_y
_atom_site_fract_z
Si Si1 0.000000 0.079323 0.722770
Si Si2 0.765068 0.593528 0.719899
Si Si3 0.500000 0.745412 0.108858
Si Si4 0.500000 0.595281 0.728001
Si Si5 0.000000 0.754150 0.588249
Si Si6 0.234824 0.251741 0.597946
O O1 0.122755 0.137920 0.630392
O O2 0.000000 0.892287 0.728943
O O3 0.000000 0.158369 0.908037
O O4 0.630675 0.636409 0.646765
O O5 0.773037 0.404504 0.721274
O O6 0.879173 0.653549 0.613222
O O7 0.771587 0.671791 0.907912
O O8 0.500000 0.594369 0.234004
O O9 0.631559 0.826060 0.124723
O O10 0.500000 0.667912 0.918169
#
# Coordination Sequence:
#
# PCOD9338180 Si02
#       6
#     2   4   2   2   2   4
#     4  12  25  40  55  76 106 144 184 226 271 320
#     4  10  19  35  58  85 112 142 178 220 265 316
#     4   8  16  30  53  82 111 138 172 216 264 312
#     4   8  16  30  53  82 111 138 172 216 264 312
#     4  12  25  40  55  76 106 144 184 226 271 320
#     4  10  19  35  58  85 112 142 178 220 265 316
#
# _framework density 21.999224999999999
#
# number of rings (size 3 to 8) (size 9 to 14) (size 15 to 20)
#    0.000    2.000    0.000    4.500    0.000    2.000 
#    0.000    1.250    0.000    0.000    0.000    0.000 
#    0.000    0.000    0.000    0.000    0.000    0.000 
#
# Total GULP energy -89329.977175 kJ/mol
# GULP energy per Si atom -5583.123573 kJ/mol
# Density = 2.194915 g / cm^3
# Si number density = 21.999225 Si / 1000 Ang^3
#
#
#
# Elastic Constant Matrix: (Units=GPa)
#
#
# Indices 1 2 3 4 5 6 
#
# 1 230.8551 45.2996 26.0562 0.0000 0.0000 0.0000
# 2 45.2996 30.3943 -13.0620 0.0000 0.0000 0.0000
# 3 26.0562 -13.0620 48.1004 0.0000 0.0000 0.0000
# 4 0.0000 0.0000 0.0000 25.2327 0.0000 0.0000
# 5 0.0000 0.0000 0.0000 0.0000 4.4470 0.0000
# 6 0.0000 0.0000 0.0000 0.0000 0.0000 -2.0006
#
#
#
# Elastic Compliance Matrix: (Units=1/GPa)
#
#
# Indices 1 2 3 4 5 6 
#
# 1 0.008729 -0.017029 -0.009353 0.000000 0.000000 0.000000
# 2 -0.017029 0.070469 0.028361 0.000000 0.000000 0.000000
# 3 -0.009353 0.028361 0.033558 0.000000 0.000000 0.000000
# 4 0.000000 0.000000 0.000000 0.039631 0.000000 0.000000
# 5 0.000000 0.000000 0.000000 0.000000 0.224873 0.000000
# 6 0.000000 0.000000 0.000000 0.000000 0.000000 -0.499851
#
#
# Mechanical properties :
#
#
# Convention : Reuss Voigt Hill
#
# Bulk Modulus (GPa) = 8.56797 47.32641 27.94719
# Shear Modulus (GPa) = -57.04762 22.27288 -17.38737
#
# Velocity S-wave (km/s) = -5.09784 3.18534 -2.81439
# Velocity P-wave (km/s) = 5.54504 5.92351 1.47317
#
# Compressibility (1/GPa) = 0.11671379
#
# Stress axis : x y z
#
# Youngs Moduli (GPa) = 114.56306 14.19073 29.79931
#
# Poissons Ratio (x) = 0.24165 0.27870
# Poissons Ratio (y) = 1.95086 -0.84513
# Poissons Ratio (z) = 1.07148 -0.40246
#
# Static dielectric constant tensor:
#      x y z
#    x 1.843340 0.000000 0.000000 
#    y 0.000000 1.738100 0.000000 
#    z 0.000000 0.000000 1.839760 
# 
# From -- ./inp_files/1693.got.cif
#   From: 2010.05.17/outbox.cif.g08.bks.cpg/sg26_1_cif.got.tgz:1693.got - 2010.06.04 01:07:29.
