data_PCOD9338196
_publ_section_title
;
Structure prediction by ZEFSAII (Michael W. Deem and Ramdas Pophale) SiO2 
 PCOD9338196
Probable space group: P M C 21
;
_chemical_formula_sum "Si O2"
_cell_formula_units_Z 24
_cell_length_a 8.226111
_cell_length_b 10.241006
_cell_length_c 14.528767
_cell_angle_alpha 90.000000
_cell_angle_beta 90.000000
_cell_angle_gamma 90.000000
_cell_volume 1223.956393
_symmetry_space_group_name_H-M "P M C 21"
_symmetry_group_IT_number 26
_symmetry_cell_setting 'orthorhombic'
loop_
_space_group_symop_operation_xyz
x,y,z
-x,-y,1/2+z
-x,y,z
x,-y,1/2+z
loop_
_atom_site_type_symbol
_atom_site_label
_atom_site_fract_x
_atom_site_fract_y
_atom_site_fract_z
Si Si1 0.693125 0.279552 0.216780
Si Si2 0.691744 0.600632 0.909673
Si Si3 0.192842 0.649856 0.518890
Si Si4 0.803759 0.147964 0.513649
Si Si5 0.802986 0.107897 0.898609
Si Si6 0.803588 0.021659 0.704572
O O1 0.500000 0.270979 0.226485
O O2 0.754919 0.353727 0.308743
O O3 0.734141 0.352103 0.121332
O O4 0.757007 0.130767 0.209679
O O5 0.500000 0.573578 0.901719
O O6 0.773940 0.475554 0.956044
O O7 0.721590 0.721656 0.977945
O O8 0.257841 0.775797 0.462935
O O9 0.000000 0.665787 0.531402
O O10 0.749334 0.093976 0.612341
O O11 0.000000 0.167224 0.515258
O O12 0.767127 0.031440 0.443206
O O13 0.744501 0.099725 0.794157
O O14 0.000000 0.120830 0.896476
O O15 0.000000 0.023814 0.703898
#
# Coordination Sequence:
#
# PCOD9338196 Si02
#       6
#     4   4   4   4   4   4
#     4  11  23  39  60  87 122 162 200 244 309 370
#     4  11  25  42  59  88 127 163 199 247 306 371
#     4  11  23  41  64  90 120 161 207 254 304 356
#     4  10  19  35  61  90 117 154 201 250 298 351
#     4   9  18  34  59  90 118 146 196 253 297 346
#     4  10  19  35  61  91 122 154 201 254 298 354
#
# _framework density 19.608542
#
# number of rings (size 3 to 8) (size 9 to 14) (size 15 to 20)
#    0.000    1.667    3.333    1.500    0.000    4.000 
#    0.000    3.333    0.000    0.000    0.000    0.000 
#    0.000    0.000    0.000    0.000    0.000    0.000 
#
# Total GULP energy -134009.579853 kJ/mol
# GULP energy per Si atom -5583.732494 kJ/mol
# Density = 1.956391 g / cm^3
# Si number density = 19.608542 Si / 1000 Ang^3
#
#
#
# Elastic Constant Matrix: (Units=GPa)
#
#
# Indices 1 2 3 4 5 6 
#
# 1 10.8496 -9.6390 -0.9880 0.0000 0.0000 0.0000
# 2 -9.6390 54.9187 -0.5115 0.0000 0.0000 0.0000
# 3 -0.9880 -0.5115 101.5954 0.0000 0.0000 0.0000
# 4 0.0000 0.0000 0.0000 30.0851 0.0000 0.0000
# 5 0.0000 0.0000 0.0000 0.0000 17.1272 0.0000
# 6 0.0000 0.0000 0.0000 0.0000 0.0000 -12.5536
#
#
#
# Elastic Compliance Matrix: (Units=1/GPa)
#
#
# Indices 1 2 3 4 5 6 
#
# 1 0.109332 0.019200 0.001160 0.000000 0.000000 0.000000
# 2 0.019200 0.021581 0.000295 0.000000 0.000000 0.000000
# 3 0.001160 0.000295 0.009856 0.000000 0.000000 0.000000
# 4 0.000000 0.000000 0.000000 0.033239 0.000000 0.000000
# 5 0.000000 0.000000 0.000000 0.000000 0.058387 0.000000
# 6 0.000000 0.000000 0.000000 0.000000 0.000000 -0.079658
#
#
# Mechanical properties :
#
#
# Convention : Reuss Voigt Hill
#
# Bulk Modulus (GPa) = 5.49209 16.12076 10.80643
# Shear Modulus (GPa) = 29.04962 18.83189 23.94075
#
# Velocity S-wave (km/s) = 3.85317 3.10238 3.49798
# Velocity P-wave (km/s) = 4.75425 4.59044 4.67306
#
# Compressibility (1/GPa) = 0.18207997
#
# Stress axis : x y z
#
# Youngs Moduli (GPa) = 9.14644 46.33631 101.46381
#
# Poissons Ratio (x) = -0.88966 -0.11769
# Poissons Ratio (y) = -0.17561 -0.02997
# Poissons Ratio (z) = -0.01061 -0.01369
#
# Static dielectric constant tensor:
#      x y z
#    x 1.697920 0.000000 0.000000 
#    y 0.000000 1.651650 0.000000 
#    z 0.000000 0.000000 1.713110 
# 
# From -- ./inp_files/3927.got.cif
#   From: 2010.05.17/outbox.cif.g08.bks.cpg/sg26_2_cif.got.tgz:3927.got - 2010.06.04 01:07:29.
