data_PCOD9338827
_publ_section_title
;
Structure prediction by ZEFSAII (Michael W. Deem and Ramdas Pophale) SiO2 
 PCOD9338827
Probable space group: P C C 2
;
_chemical_formula_sum "Si O2"
_cell_formula_units_Z 26
_cell_length_a 11.626524
_cell_length_b 11.319135
_cell_length_c 9.440632
_cell_angle_alpha 90.000000
_cell_angle_beta 90.000000
_cell_angle_gamma 90.000000
_cell_volume 1242.407891
_symmetry_space_group_name_H-M "P C C 2"
_symmetry_group_IT_number 27
_symmetry_cell_setting 'orthorhombic'
loop_
_space_group_symop_operation_xyz
x,y,z
-x,-y,z
-x,y,1/2+z
x,-y,1/2+z
loop_
_atom_site_type_symbol
_atom_site_label
_atom_site_fract_x
_atom_site_fract_y
_atom_site_fract_z
Si Si1 0.143058 0.748385 0.159710
Si Si2 0.889535 0.729990 0.121917
Si Si3 0.238330 0.831458 0.880078
Si Si4 0.137346 0.503908 0.775308
Si Si5 0.121715 0.068631 0.903408
Si Si6 0.361985 0.381107 0.353485
Si Si7 0.500000 0.500000 0.600642
O O1 0.172808 0.630409 0.244649
O O2 0.115111 0.859345 0.258453
O O3 0.022798 0.720592 0.083946
O O4 0.229892 0.786330 0.040325
O O5 0.864012 0.783182 0.277968
O O6 0.853145 0.593545 0.139688
O O7 0.844879 0.830956 0.017369
O O8 0.346964 0.758602 0.824323
O O9 0.219529 0.970045 0.886648
O O10 0.234408 0.561645 0.875000
O O11 0.000000 0.500000 0.814296
O O12 0.000000 0.000000 0.935882
O O13 0.436731 0.411798 0.491063
O O14 0.413284 0.437839 0.210668
#
# Coordination Sequence:
#
# PCOD9338827 Si02
#       7
#     4   4   4   4   4   4   2
#     4  11  20  34  53  84 126 180 213 261 315 403
#     4  10  20  35  52  82 124 180 217 257 310 400
#     4  11  22  34  56  86 124 159 224 275 317 392
#     4   9  21  37  61  97 142 169 210 273 355 415
#     4  12  22  34  54  81 128 184 230 248 310 410
#     4  10  22  43  67 102 127 175 228 289 343 401
#     4  10  22  44  74  92 130 178 246 294 334 400
#
# _framework density 20.927105000000001
#
# number of rings (size 3 to 8) (size 9 to 14) (size 15 to 20)
#    0.000    1.538    3.077    1.846    0.000    4.923 
#    0.000   12.308    0.000    0.000    0.000   61.385 
#    0.000    0.000    0.000    0.000    0.000    0.000 
#
# Total GULP energy -144864.575160 kJ/mol
# GULP energy per Si atom -5571.714429 kJ/mol
# Density = 2.087947 g / cm^3
# Si number density = 20.927105 Si / 1000 Ang^3
#
#
#
# Elastic Constant Matrix: (Units=GPa)
#
#
# Indices 1 2 3 4 5 6 
#
# 1 56.5342 30.0661 24.0819 0.0000 0.0000 0.0000
# 2 30.0661 138.0657 20.7094 0.0000 0.0000 0.0000
# 3 24.0819 20.7094 72.1171 0.0000 0.0000 0.0000
# 4 0.0000 0.0000 0.0000 29.4405 0.0000 0.0000
# 5 0.0000 0.0000 0.0000 0.0000 16.2315 0.0000
# 6 0.0000 0.0000 0.0000 0.0000 0.0000 27.4670
#
#
#
# Elastic Compliance Matrix: (Units=1/GPa)
#
#
# Indices 1 2 3 4 5 6 
#
# 1 0.022504 -0.003943 -0.006382 0.000000 0.000000 0.000000
# 2 -0.003943 0.008260 -0.001055 0.000000 0.000000 0.000000
# 3 -0.006382 -0.001055 0.016301 0.000000 0.000000 0.000000
# 4 0.000000 0.000000 0.000000 0.033967 0.000000 0.000000
# 5 0.000000 0.000000 0.000000 0.000000 0.061609 0.000000
# 6 0.000000 0.000000 0.000000 0.000000 0.000000 0.036407
#
#
# Mechanical properties :
#
#
# Convention : Reuss Voigt Hill
#
# Bulk Modulus (GPa) = 41.14726 46.27023 43.70875
# Shear Modulus (GPa) = 23.81967 27.41843 25.61905
#
# Velocity S-wave (km/s) = 3.37741 3.62358 3.50266
# Velocity P-wave (km/s) = 5.90881 6.29804 6.10653
#
# Compressibility (1/GPa) = 0.02430296
#
# Stress axis : x y z
#
# Youngs Moduli (GPa) = 44.43599 121.06644 61.34742
#
# Poissons Ratio (x) = 0.47741 0.39155
# Poissons Ratio (y) = 0.17523 0.06473
# Poissons Ratio (z) = 0.28361 0.12774
#
# Static dielectric constant tensor:
#      x y z
#    x 1.803860 0.000000 0.000000 
#    y 0.000000 1.820300 0.000000 
#    z 0.000000 0.000000 1.788870 
# 
# From -- ./inp_files/1415.got.cif
#   From: 2010.05.17/outbox.cif.g08.bks.cpg/sg27_1_cif.got.tgz:1415.got - 2010.06.04 01:11:05.
