data_PCOD9338805
_publ_section_title
;
Structure prediction by ZEFSAII (Michael W. Deem and Ramdas Pophale) SiO2 
 PCOD9338805
Probable space group: P C C 2
;
_chemical_formula_sum "Si O2"
_cell_formula_units_Z 30
_cell_length_a 12.933052
_cell_length_b 8.281313
_cell_length_c 13.618121
_cell_angle_alpha 90.000000
_cell_angle_beta 90.000000
_cell_angle_gamma 90.000000
_cell_volume 1458.536870
_symmetry_space_group_name_H-M "P C C 2"
_symmetry_group_IT_number 27
_symmetry_cell_setting 'orthorhombic'
loop_
_space_group_symop_operation_xyz
x,y,z
-x,-y,z
-x,y,1/2+z
x,-y,1/2+z
loop_
_atom_site_type_symbol
_atom_site_label
_atom_site_fract_x
_atom_site_fract_y
_atom_site_fract_z
Si Si1 0.179245 0.302426 0.330080
Si Si2 0.779373 0.679382 0.811440
Si Si3 0.982045 0.188952 0.229984
Si Si4 0.500000 0.500000 0.086269
Si Si5 0.301153 0.656221 0.113837
Si Si6 0.090105 0.370766 0.539335
Si Si7 0.587528 0.224999 0.439914
Si Si8 0.632699 0.145145 0.920751
O O1 0.215057 0.485305 0.311271
O O2 0.118418 0.297648 0.434219
O O3 0.275858 0.180807 0.343360
O O4 0.093702 0.265015 0.249662
O O5 0.896503 0.746942 0.808957
O O6 0.734271 0.751057 0.709675
O O7 0.693672 0.716507 0.891928
O O8 0.943921 0.243648 0.122389
O O9 0.000000 0.000000 0.238444
O O10 0.402958 0.562758 0.146225
O O11 0.448257 0.355525 0.021520
O O12 0.199382 0.558215 0.079750
O O13 0.334526 0.754565 0.017662
O O14 0.000000 0.500000 0.529448
O O15 0.478215 0.208314 0.381116
O O16 0.615248 0.036942 0.458798
#
# Coordination Sequence:
#
# PCOD9338805 Si02
#       8
#     4   4   4   2   4   4   4   4
#     4  11  22  39  62  86 117 156 199 248 302 361
#     4  11  21  37  60  85 115 151 198 251 299 359
#     4  11  23  38  57  85 118 152 196 248 301 362
#     4  10  20  36  58  84 114 154 200 240 294 362
#     4   9  20  36  54  82 115 147 193 247 297 357
#     4  10  20  38  59  81 112 151 193 240 298 359
#     4  10  19  36  60  83 115 156 196 240 294 360
#     4   9  20  38  57  83 119 157 194 242 303 361
#
# _framework density 20.568556999999998
#
# number of rings (size 3 to 8) (size 9 to 14) (size 15 to 20)
#    0.000    1.867    0.000    6.000    0.000    2.133 
#    0.000   20.000    0.000    0.000    0.000    0.000 
#    0.000    0.000    0.000    0.000    0.000    0.000 
#
# Total GULP energy -167013.303479 kJ/mol
# GULP energy per Si atom -5567.110116 kJ/mol
# Density = 2.052174 g / cm^3
# Si number density = 20.568557 Si / 1000 Ang^3
#
#
#
# Elastic Constant Matrix: (Units=GPa)
#
#
# Indices 1 2 3 4 5 6 
#
# 1 121.7177 42.2847 4.3156 0.0000 0.0000 0.0000
# 2 42.2847 79.3039 -7.4795 0.0000 0.0000 0.0000
# 3 4.3156 -7.4795 27.6219 0.0000 0.0000 0.0000
# 4 0.0000 0.0000 0.0000 -5.3378 0.0000 0.0000
# 5 0.0000 0.0000 0.0000 0.0000 53.5090 0.0000
# 6 0.0000 0.0000 0.0000 0.0000 0.0000 36.9963
#
#
#
# Elastic Compliance Matrix: (Units=1/GPa)
#
#
# Indices 1 2 3 4 5 6 
#
# 1 0.010351 -0.005820 -0.003193 0.000000 0.000000 0.000000
# 2 -0.005820 0.016213 0.005299 0.000000 0.000000 0.000000
# 3 -0.003193 0.005299 0.038137 0.000000 0.000000 0.000000
# 4 0.000000 0.000000 0.000000 -0.187343 0.000000 0.000000
# 5 0.000000 0.000000 0.000000 0.000000 0.018688 0.000000
# 6 0.000000 0.000000 0.000000 0.000000 0.000000 0.027030
#
#
# Mechanical properties :
#
#
# Convention : Reuss Voigt Hill
#
# Bulk Modulus (GPa) = 17.46026 34.09835 25.77931
# Shear Modulus (GPa) = -99.19708 29.66833 -34.76437
#
# Velocity S-wave (km/s) = -6.95214 3.80203 -4.11563
# Velocity P-wave (km/s) = 7.47902 5.99064 3.16606
#
# Compressibility (1/GPa) = 0.05727290
#
# Stress axis : x y z
#
# Youngs Moduli (GPa) = 96.60987 61.67936 26.22120
#
# Poissons Ratio (x) = 0.35899 0.08373
# Poissons Ratio (y) = 0.56229 -0.13896
# Poissons Ratio (z) = 0.30850 -0.32687
#
# Static dielectric constant tensor:
#      x y z
#    x 1.775690 0.000000 0.000000 
#    y 0.000000 1.769040 0.000000 
#    z 0.000000 0.000000 1.761780 
# 
# From -- ./inp_files/3628.got.cif
#   From: 2010.05.17/outbox.cif.g08.bks.cpg/sg27_2_cif.got.tgz:3628.got - 2010.06.04 01:11:05.
