data_PCOD9338315
_publ_section_title
;
Structure prediction by ZEFSAII (Michael W. Deem and Ramdas Pophale) SiO2 
 PCOD9338315
Probable space group: P M C 21
;
_chemical_formula_sum "Si O2"
_cell_formula_units_Z 32
_cell_length_a 7.532016
_cell_length_b 12.350594
_cell_length_c 15.760809
_cell_angle_alpha 90.000000
_cell_angle_beta 90.000000
_cell_angle_gamma 90.000000
_cell_volume 1466.147234
_symmetry_space_group_name_H-M "P M C 21"
_symmetry_group_IT_number 26
_symmetry_cell_setting 'orthorhombic'
loop_
_space_group_symop_operation_xyz
x,y,z
-x,-y,1/2+z
-x,y,z
x,-y,1/2+z
loop_
_atom_site_type_symbol
_atom_site_label
_atom_site_fract_x
_atom_site_fract_y
_atom_site_fract_z
Si Si1 0.708971 0.076785 0.605980
Si Si2 0.783146 0.490788 0.454561
Si Si3 0.783680 0.727124 0.700426
Si Si4 0.213390 0.666602 0.105980
Si Si5 0.783680 0.727124 0.511534
Si Si6 0.216854 0.490788 0.757399
Si Si7 0.790464 0.942663 0.437750
Si Si8 0.209536 0.057337 0.274210
O O1 0.500000 0.062828 0.605980
O O2 0.747308 0.205490 0.605980
O O3 0.776847 0.016271 0.521611
O O4 0.776847 0.016271 0.690348
O O5 0.724867 0.395805 0.519716
O O6 0.727862 0.605616 0.493661
O O7 0.726899 0.500000 0.355980
O O8 0.000000 0.484603 0.452908
O O9 0.732939 0.759622 0.605980
O O10 0.727862 0.605616 0.718299
O O11 0.000000 0.725092 0.704026
O O12 0.717596 0.822260 0.760323
O O13 0.275133 0.604195 0.192244
O O14 0.000000 0.656023 0.105980
O O15 0.000000 0.725092 0.507934
O O16 0.717596 0.822260 0.451636
O O17 0.000000 0.484603 0.759052
O O18 0.000000 0.927089 0.421849
O O19 0.711606 0.000000 0.355980
O O20 0.000000 0.072911 0.290110
#
# Coordination Sequence:
#
# PCOD9338315 Si02
#       8
#     4   4   4   4   4   4   4   4
#     4  12  26  41  56  78 120 165 197 232 285 352
#     4   9  17  28  49  83 115 140 172 228 292 338
#     4   9  15  28  50  79 113 140 172 227 288 336
#     4  10  20  35  56  82 112 145 191 238 281 340
#     4   9  15  28  50  79 113 140 172 227 288 336
#     4   9  17  28  49  83 115 140 172 228 292 338
#     4  10  21  37  62  91 115 145 191 245 294 340
#     4  10  21  37  62  91 115 145 191 245 294 340
#
# _framework density 21.825911000000001
#
# number of rings (size 3 to 8) (size 9 to 14) (size 15 to 20)
#    0.000    2.250    2.500    1.125    3.500    0.500 
#    0.000    0.000    0.000    3.750    0.000    0.000 
#    0.000    0.000    0.000    0.000    0.000    0.000 
#
# Total GULP energy -178536.401562 kJ/mol
# GULP energy per Si atom -5579.262549 kJ/mol
# Density = 2.177623 g / cm^3
# Si number density = 21.825911 Si / 1000 Ang^3
#
#
#
# Elastic Constant Matrix: (Units=GPa)
#
#
# Indices 1 2 3 4 5 6 
#
# 1 50.8010 -26.4518 -22.2540 0.0000 0.0000 0.0000
# 2 -26.4518 84.2836 -14.1456 0.0000 0.0000 0.0000
# 3 -22.2540 -14.1456 61.5680 0.0000 0.0000 0.0000
# 4 0.0000 0.0000 0.0000 129.3216 0.0000 0.0000
# 5 0.0000 0.0000 0.0000 0.0000 12.8888 0.0000
# 6 0.0000 0.0000 0.0000 0.0000 0.0000 -40.2464
#
#
#
# Elastic Compliance Matrix: (Units=1/GPa)
#
#
# Indices 1 2 3 4 5 6 
#
# 1 0.032828 0.012787 0.014804 0.000000 0.000000 0.000000
# 2 0.012787 0.017322 0.008602 0.000000 0.000000 0.000000
# 3 0.014804 0.008602 0.023569 0.000000 0.000000 0.000000
# 4 0.000000 0.000000 0.000000 0.007733 0.000000 0.000000
# 5 0.000000 0.000000 0.000000 0.000000 0.077587 0.000000
# 6 0.000000 0.000000 0.000000 0.000000 0.000000 -0.024847
#
#
# Mechanical properties :
#
#
# Convention : Reuss Voigt Hill
#
# Bulk Modulus (GPa) = 6.84438 7.88328 7.36383
# Shear Modulus (GPa) = 45.24599 37.69308 41.46954
#
# Velocity S-wave (km/s) = 4.55800 4.16021 4.36364
# Velocity P-wave (km/s) = 5.55367 5.16684 5.36374
#
# Compressibility (1/GPa) = 0.14610533
#
# Stress axis : x y z
#
# Youngs Moduli (GPa) = 30.46180 57.73124 42.42779
#
# Poissons Ratio (x) = -0.73823 -0.62809
# Poissons Ratio (y) = -0.38953 -0.36496
# Poissons Ratio (z) = -0.45095 -0.49660
#
# Static dielectric constant tensor:
#      x y z
#    x 1.851640 0.000000 0.000000 
#    y 0.000000 1.779720 0.000000 
#    z 0.000000 0.000000 1.835440 
# 
# From -- ./inp_files/4156.got.cif
#   From: 2010.05.17/outbox.cif.g08.bks.cpg/sg26_3_cif.got.tgz:4156.got - 2010.06.04 01:07:29.
