data_PCOD9338703
_publ_section_title
;
Structure prediction by ZEFSAII (Michael W. Deem and Ramdas Pophale) SiO2 
 PCOD9338703
Probable space group: P M C 21
;
_chemical_formula_sum "Si O2"
_cell_formula_units_Z 24
_cell_length_a 9.000000
_cell_length_b 15.000000
_cell_length_c 9.000000
_cell_angle_alpha 90.000000
_cell_angle_beta 90.000000
_cell_angle_gamma 90.000000
_cell_volume 1215.000000
_symmetry_space_group_name_H-M "P M C 21"
_symmetry_group_IT_number 26
_symmetry_cell_setting 'orthorhombic'
loop_
_space_group_symop_operation_xyz
x,y,z
-x,-y,1/2+z
-x,y,z
x,-y,1/2+z
loop_
_atom_site_type_symbol
_atom_site_label
_atom_site_fract_x
_atom_site_fract_y
_atom_site_fract_z
Si Si1 0.320102 0.094739 0.821860
Si Si2 0.824910 0.277119 0.223024
Si Si3 0.320487 0.091243 0.170013
Si Si4 0.175288 0.408559 0.962636
Si Si5 0.669095 0.706398 0.235265
Si Si6 0.667914 0.594455 0.944333
O O1 0.500000 0.092858 0.812589
O O2 0.276930 0.191250 0.753149
O O3 0.269982 0.002890 0.742370
O O4 0.278869 0.092449 0.995577
O O5 0.742946 0.182443 0.240671
O O6 0.774156 0.357911 0.327561
O O7 0.000000 0.261600 0.236828
O O8 0.790973 0.322659 0.065014
O O9 0.500000 0.094670 0.180656
O O10 0.225496 0.368043 0.806728
O O11 0.265596 0.499161 0.994189
O O12 0.000000 0.427521 0.972264
O O13 0.500000 0.702203 0.300366
O O14 0.657489 0.670417 0.069353
O O15 0.500000 0.578721 0.886443
#
# Coordination Sequence:
#
# PCOD9338703 Si02
#       6
#     4   4   4   4   4   4
#     4   9  19  35  61  92 118 149 194 249 300 347
#     4  11  24  41  60  87 125 163 201 242 295 359
#     4  10  20  37  63  89 119 155 197 249 301 351
#     4  11  23  40  61  85 120 160 201 245 299 359
#     4  10  21  39  62  90 120 154 201 249 297 355
#     4  11  24  38  61  91 120 155 202 250 296 353
#
# _framework density 19.753086
#
# number of rings (size 3 to 8) (size 9 to 14) (size 15 to 20)
#    0.000    1.667    1.667    2.500    2.333    6.000 
#    0.000    1.667    0.000    0.000    0.000    0.000 
#    0.000    0.000    0.000    0.000    0.000    0.000 
#
# Total GULP energy -133776.692128 kJ/mol
# GULP energy per Si atom -5574.028839 kJ/mol
# Density = 1.970813 g / cm^3
# Si number density = 19.753086 Si / 1000 Ang^3
#
#
#
# Elastic Constant Matrix: (Units=GPa)
#
#
# Indices 1 2 3 4 5 6 
#
# 1 -26.4509 25.8574 1.8524 0.0000 0.0000 0.0000
# 2 25.8574 151.0758 -2.5149 0.0000 0.0000 0.0000
# 3 1.8524 -2.5149 10.3413 0.0000 0.0000 0.0000
# 4 0.0000 0.0000 0.0000 27.8312 0.0000 0.0000
# 5 0.0000 0.0000 0.0000 0.0000 5.8990 0.0000
# 6 0.0000 0.0000 0.0000 0.0000 0.0000 26.4199
#
#
#
# Elastic Compliance Matrix: (Units=1/GPa)
#
#
# Indices 1 2 3 4 5 6 
#
# 1 -0.031865 0.005571 0.007063 0.000000 0.000000 0.000000
# 2 0.005571 0.005672 0.000381 0.000000 0.000000 0.000000
# 3 0.007063 0.000381 0.095527 0.000000 0.000000 0.000000
# 4 0.000000 0.000000 0.000000 0.035931 0.000000 0.000000
# 5 0.000000 0.000000 0.000000 0.000000 0.169520 0.000000
# 6 0.000000 0.000000 0.000000 0.000000 0.000000 0.037850
#
#
# Mechanical properties :
#
#
# Convention : Reuss Voigt Hill
#
# Bulk Modulus (GPa) = 10.48601 20.59510 15.54055
# Shear Modulus (GPa) = 15.70387 19.34812 17.52600
#
# Velocity S-wave (km/s) = 2.82265 3.13309 2.98191
# Velocity P-wave (km/s) = 3.99289 4.85152 4.44300
#
# Compressibility (1/GPa) = 0.09536517
#
# Stress axis : x y z
#
# Youngs Moduli (GPa) = -31.38250 176.30557 10.46823
#
# Poissons Ratio (x) = -0.98227 -0.07393
# Poissons Ratio (y) = 0.17484 -0.00399
# Poissons Ratio (z) = 0.22164 -0.06724
#
# Static dielectric constant tensor:
#      x y z
#    x 1.691790 0.000000 0.000000 
#    y 0.000000 1.642650 0.000000 
#    z 0.000000 0.000000 1.757580 
# 
# From -- ./inp_files/1430.got.cif
#   From: 2010.05.17/outbox.ucp.g08.bks.cvg/sg26_1_cif.got.tgz:1430.got - 2010.06.11 15:23:25.
