data_PCOD9338114
_publ_section_title
;
Structure prediction by ZEFSAII (Michael W. Deem and Ramdas Pophale) SiO2 
 PCOD9338114
Probable space group: P M C 21
;
_chemical_formula_sum "Si O2"
_cell_formula_units_Z 32
_cell_length_a 7.884587
_cell_length_b 12.384123
_cell_length_c 14.503333
_cell_angle_alpha 90.000000
_cell_angle_beta 90.000000
_cell_angle_gamma 90.000000
_cell_volume 1416.159027
_symmetry_space_group_name_H-M "P M C 21"
_symmetry_group_IT_number 26
_symmetry_cell_setting 'orthorhombic'
loop_
_space_group_symop_operation_xyz
x,y,z
-x,-y,1/2+z
-x,y,z
x,-y,1/2+z
loop_
_atom_site_type_symbol
_atom_site_label
_atom_site_fract_x
_atom_site_fract_y
_atom_site_fract_z
Si Si1 0.703292 0.908192 0.154100
Si Si2 0.796546 0.147848 0.164320
Si Si3 0.803424 0.585036 0.993015
Si Si4 0.795889 0.165089 0.952269
Si Si5 0.299573 0.071601 0.437152
Si Si6 0.297966 0.669446 0.191327
Si Si7 0.192858 0.727735 0.829587
Si Si8 0.696526 0.606868 0.382039
O O1 0.500000 0.905279 0.161326
O O2 0.770250 0.793161 0.190940
O O3 0.757887 0.024308 0.193146
O O4 0.745915 0.912891 0.044946
O O5 0.739528 0.162895 0.059397
O O6 0.726498 0.240541 0.231890
O O7 0.000000 0.158033 0.165578
O O8 0.727669 0.616451 0.091310
O O9 0.000000 0.616955 0.999762
O O10 0.725839 0.649525 0.905397
O O11 0.788958 0.461909 0.960496
O O12 0.000000 0.172330 0.948521
O O13 0.714596 0.267207 0.904150
O O14 0.737976 0.051319 0.911213
O O15 0.500000 0.093933 0.426107
O O16 0.193753 0.156447 0.379496
O O17 0.500000 0.677388 0.206275
O O18 0.232953 0.598500 0.277458
O O19 0.000000 0.688576 0.813844
O O20 0.500000 0.574357 0.385119
#
# Coordination Sequence:
#
# PCOD9338114 Si02
#       8
#     4   4   4   4   4   4   4   4
#     4   9  18  34  56  85 120 157 200 248 299 355
#     4   9  20  36  56  86 125 165 201 244 300 363
#     4  11  24  42  65  91 124 164 209 259 312 370
#     4  10  21  39  60  86 123 162 203 251 306 365
#     4  10  19  33  57  86 119 158 197 247 304 360
#     4  10  22  42  64  89 121 159 205 258 308 365
#     4  10  21  37  57  87 121 158 202 248 301 362
#     4  11  25  43  65  92 123 161 209 259 312 370
#
# _framework density 22.596332
#
# number of rings (size 3 to 8) (size 9 to 14) (size 15 to 20)
#    0.000    2.000    1.250    1.500    1.750    4.500 
#    0.000    1.250    0.000    0.000    0.000    0.000 
#    0.000    0.000    0.000    0.000    0.000    0.000 
#
# Total GULP energy -178695.914996 kJ/mol
# GULP energy per Si atom -5584.247344 kJ/mol
# Density = 2.254490 g / cm^3
# Si number density = 22.596332 Si / 1000 Ang^3
#
#
#
# Elastic Constant Matrix: (Units=GPa)
#
#
# Indices 1 2 3 4 5 6 
#
# 1 29.2774 -4.5831 7.2507 0.0000 0.0000 0.0000
# 2 -4.5831 57.1290 9.3236 0.0000 0.0000 0.0000
# 3 7.2507 9.3236 74.7422 0.0000 0.0000 0.0000
# 4 0.0000 0.0000 0.0000 31.0491 0.0000 0.0000
# 5 0.0000 0.0000 0.0000 0.0000 12.4485 0.0000
# 6 0.0000 0.0000 0.0000 0.0000 0.0000 26.3961
#
#
#
# Elastic Compliance Matrix: (Units=1/GPa)
#
#
# Indices 1 2 3 4 5 6 
#
# 1 0.035669 0.003497 -0.003896 0.000000 0.000000 0.000000
# 2 0.003497 0.018211 -0.002611 0.000000 0.000000 0.000000
# 3 -0.003896 -0.002611 0.014083 0.000000 0.000000 0.000000
# 4 0.000000 0.000000 0.000000 0.032207 0.000000 0.000000
# 5 0.000000 0.000000 0.000000 0.000000 0.080331 0.000000
# 6 0.000000 0.000000 0.000000 0.000000 0.000000 0.037884
#
#
# Mechanical properties :
#
#
# Convention : Reuss Voigt Hill
#
# Bulk Modulus (GPa) = 16.14403 20.57010 18.35706
# Shear Modulus (GPa) = 20.40379 23.92257 22.16318
#
# Velocity S-wave (km/s) = 3.00820 3.25729 3.13522
# Velocity P-wave (km/s) = 4.38472 4.82386 4.60952
#
# Compressibility (1/GPa) = 0.06194241
#
# Stress axis : x y z
#
# Youngs Moduli (GPa) = 28.03591 54.91202 71.00749
#
# Poissons Ratio (x) = -0.19205 0.27668
# Poissons Ratio (y) = -0.09805 0.18540
# Poissons Ratio (z) = 0.10924 0.14337
#
# Static dielectric constant tensor:
#      x y z
#    x 1.827780 0.000000 0.000000 
#    y 0.000000 1.829100 0.000000 
#    z 0.000000 0.000000 1.881970 
# 
# From -- ./inp_files/4174.got.cif
#   From: 2010.05.17/outbox.cif.g08.bks.cpg/sg26_3_cif.got.tgz:4174.got - 2010.06.04 01:07:29.
