data_PCOD9338368
_publ_section_title
;
Structure prediction by ZEFSAII (Michael W. Deem and Ramdas Pophale) SiO2 
 PCOD9338368
Probable space group: P M C 21
;
_chemical_formula_sum "Si O2"
_cell_formula_units_Z 32
_cell_length_a 9.255041
_cell_length_b 16.203829
_cell_length_c 10.982764
_cell_angle_alpha 90.000000
_cell_angle_beta 90.000000
_cell_angle_gamma 90.000000
_cell_volume 1647.053286
_symmetry_space_group_name_H-M "P M C 21"
_symmetry_group_IT_number 26
_symmetry_cell_setting 'orthorhombic'
loop_
_space_group_symop_operation_xyz
x,y,z
-x,-y,1/2+z
-x,y,z
x,-y,1/2+z
loop_
_atom_site_type_symbol
_atom_site_label
_atom_site_fract_x
_atom_site_fract_y
_atom_site_fract_z
Si Si1 0.830480 0.245903 0.551550
Si Si2 0.337771 0.644442 0.644863
Si Si3 0.168460 0.586356 0.421694
Si Si4 0.327084 0.261090 0.800506
Si Si5 0.833759 0.392674 0.376288
Si Si6 0.825804 0.969824 0.677727
Si Si7 0.334935 0.171560 0.040355
Si Si8 0.825665 0.075859 0.446153
O O1 0.734268 0.237239 0.670402
O O2 0.814373 0.337184 0.496113
O O3 0.794122 0.173769 0.454490
O O4 0.000000 0.234705 0.583581
O O5 0.500000 0.611630 0.630003
O O6 0.227527 0.597165 0.557762
O O7 0.281406 0.638090 0.780060
O O8 0.338261 0.738876 0.602434
O O9 0.258128 0.651487 0.341302
O O10 0.184065 0.490486 0.389621
O O11 0.000000 0.608388 0.413247
O O12 0.500000 0.268695 0.801951
O O13 0.288605 0.192343 0.902230
O O14 0.000000 0.377070 0.335696
O O15 0.772007 0.886124 0.613967
O O16 0.773748 0.966556 0.819525
O O17 0.000000 0.973870 0.682518
O O18 0.777096 0.037216 0.576156
O O19 0.500000 0.138560 0.040810
O O20 0.000000 0.067189 0.443911
#
# Coordination Sequence:
#
# PCOD9338368 Si02
#       8
#     4   4   4   4   4   4   4   4
#     4  10  21  38  59  85 119 158 198 246 303 358
#     4  10  21  37  57  81 112 148 190 239 292 353
#     4  10  21  37  57  83 115 152 194 243 296 351
#     4  10  22  39  58  85 119 153 197 248 298 360
#     4  10  22  37  57  83 114 151 194 241 291 353
#     4  10  20  36  61  90 119 154 197 246 296 355
#     4   9  20  38  57  81 114 149 190 239 290 350
#     4   9  20  36  58  90 124 153 196 250 300 356
#
# _framework density 19.428636999999998
#
# number of rings (size 3 to 8) (size 9 to 14) (size 15 to 20)
#    0.000    2.250    0.000    2.625    3.500    5.500 
#    0.000    1.875    0.000    0.000    0.000    0.000 
#    0.000    0.000    0.000    0.000    0.000    0.000 
#
# Total GULP energy -178419.261526 kJ/mol
# GULP energy per Si atom -5575.601923 kJ/mol
# Density = 1.938442 g / cm^3
# Si number density = 19.428637 Si / 1000 Ang^3
#
#
#
# Elastic Constant Matrix: (Units=GPa)
#
#
# Indices 1 2 3 4 5 6 
#
# 1 20.8380 13.8499 25.7640 0.0000 0.0000 0.0000
# 2 13.8499 41.7322 27.1621 0.0000 0.0000 0.0000
# 3 25.7640 27.1621 94.3253 0.0000 0.0000 0.0000
# 4 0.0000 0.0000 0.0000 2.5366 0.0000 0.0000
# 5 0.0000 0.0000 0.0000 0.0000 -24.6548 0.0000
# 6 0.0000 0.0000 0.0000 0.0000 0.0000 6.3439
#
#
#
# Elastic Compliance Matrix: (Units=1/GPa)
#
#
# Indices 1 2 3 4 5 6 
#
# 1 0.079483 -0.015073 -0.017369 0.000000 0.000000 0.000000
# 2 -0.015073 0.032348 -0.005198 0.000000 0.000000 0.000000
# 3 -0.017369 -0.005198 0.016843 0.000000 0.000000 0.000000
# 4 0.000000 0.000000 0.000000 0.394229 0.000000 0.000000
# 5 0.000000 0.000000 0.000000 0.000000 -0.040560 0.000000
# 6 0.000000 0.000000 0.000000 0.000000 0.000000 0.157632
#
#
# Mechanical properties :
#
#
# Convention : Reuss Voigt Hill
#
# Bulk Modulus (GPa) = 18.72919 32.27193 25.50056
# Shear Modulus (GPa) = 6.82078 2.85311 4.83695
#
# Velocity S-wave (km/s) = 1.87571 1.21314 1.57956
# Velocity P-wave (km/s) = 3.78840 4.31379 4.05961
#
# Compressibility (1/GPa) = 0.05339259
#
# Stress axis : x y z
#
# Youngs Moduli (GPa) = 12.58125 30.91391 59.37302
#
# Poissons Ratio (x) = 0.46598 1.03128
# Poissons Ratio (y) = 0.18964 0.30861
# Poissons Ratio (z) = 0.21853 0.16069
#
# Static dielectric constant tensor:
#      x y z
#    x 1.666240 0.000000 0.000000 
#    y 0.000000 1.691020 0.000000 
#    z 0.000000 0.000000 1.693520 
# 
# From -- ./inp_files/3131.got.cif
#   From: 2010.05.17/outbox.cif.g08.bks.cpg/sg26_2_cif.got.tgz:3131.got - 2010.06.04 01:07:29.
