data_PCOD9338302
_publ_section_title
;
Structure prediction by ZEFSAII (Michael W. Deem and Ramdas Pophale) SiO2 
 PCOD9338302
Probable space group: P M C 21
;
_chemical_formula_sum "Si O2"
_cell_formula_units_Z 32
_cell_length_a 11.580654
_cell_length_b 15.612712
_cell_length_c 10.007015
_cell_angle_alpha 90.000000
_cell_angle_beta 90.000000
_cell_angle_gamma 90.000000
_cell_volume 1809.322507
_symmetry_space_group_name_H-M "P M C 21"
_symmetry_group_IT_number 26
_symmetry_cell_setting 'orthorhombic'
loop_
_space_group_symop_operation_xyz
x,y,z
-x,-y,1/2+z
-x,y,z
x,-y,1/2+z
loop_
_atom_site_type_symbol
_atom_site_label
_atom_site_fract_x
_atom_site_fract_y
_atom_site_fract_z
Si Si1 0.631708 0.331339 0.145030
Si Si2 0.701335 0.247743 0.414898
Si Si3 0.628893 0.135479 0.656337
Si Si4 0.864788 0.556937 0.677828
Si Si5 0.869353 0.600425 0.982975
Si Si6 0.124727 0.899243 0.829516
Si Si7 0.793549 0.983384 0.565184
Si Si8 0.633514 0.832152 0.456175
O O1 0.500000 0.368216 0.123483
O O2 0.632640 0.290694 0.293731
O O3 0.750117 0.387816 0.138307
O O4 0.647825 0.254714 0.039084
O O5 0.634848 0.201938 0.534698
O O6 0.781662 0.321220 0.477833
O O7 0.778688 0.172724 0.349002
O O8 0.500000 0.099080 0.664170
O O9 0.715934 0.058573 0.628536
O O10 0.654663 0.179179 0.798280
O O11 0.860009 0.552980 0.838986
O O12 0.851614 0.467239 0.601281
O O13 0.000000 0.587009 0.647273
O O14 0.000000 0.633795 0.993488
O O15 0.134341 0.943056 0.685497
O O16 0.000000 0.857573 0.845376
O O17 0.140712 0.971270 0.943330
O O18 0.714340 0.907596 0.508311
O O19 0.500000 0.858775 0.473649
#
# Coordination Sequence:
#
# PCOD9338302 Si02
#       8
#     4   4   4   4   4   4   4   4
#     4  10  20  36  57  83 112 143 184 231 282 335
#     4  10  20  35  57  81 111 143 184 228 275 334
#     4  10  21  35  53  77 107 141 181 227 276 331
#     4   9  19  36  58  83 111 144 183 225 274 334
#     4   9  18  35  58  82 109 144 183 224 269 330
#     4  11  22  35  54  77 109 147 187 234 281 329
#     4  11  20  37  52  75 106 142 186 227 281 326
#     4  10  20  35  53  76 106 140 182 230 277 327
#
# _framework density 17.68618
#
# number of rings (size 3 to 8) (size 9 to 14) (size 15 to 20)
#    0.000    2.000    2.500    1.500    0.000    1.500 
#    0.000    3.125    0.000    0.000    0.000    0.000 
#    0.000    0.000    0.000    0.000    0.000    0.000 
#
# Total GULP energy -178254.410155 kJ/mol
# GULP energy per Si atom -5570.450317 kJ/mol
# Density = 1.764593 g / cm^3
# Si number density = 17.686180 Si / 1000 Ang^3
#
#
#
# Elastic Constant Matrix: (Units=GPa)
#
#
# Indices 1 2 3 4 5 6 
#
# 1 80.9646 22.9178 16.0467 0.0000 0.0000 0.0000
# 2 22.9178 41.5424 8.2788 0.0000 0.0000 0.0000
# 3 16.0467 8.2788 54.6799 0.0000 0.0000 0.0000
# 4 0.0000 0.0000 0.0000 27.9704 0.0000 0.0000
# 5 0.0000 0.0000 0.0000 0.0000 12.5414 0.0000
# 6 0.0000 0.0000 0.0000 0.0000 0.0000 9.9043
#
#
#
# Elastic Compliance Matrix: (Units=1/GPa)
#
#
# Indices 1 2 3 4 5 6 
#
# 1 0.015189 -0.007724 -0.003288 0.000000 0.000000 0.000000
# 2 -0.007724 0.028749 -0.002086 0.000000 0.000000 0.000000
# 3 -0.003288 -0.002086 0.019569 0.000000 0.000000 0.000000
# 4 0.000000 0.000000 0.000000 0.035752 0.000000 0.000000
# 5 0.000000 0.000000 0.000000 0.000000 0.079736 0.000000
# 6 0.000000 0.000000 0.000000 0.000000 0.000000 0.100967
#
#
# Mechanical properties :
#
#
# Convention : Reuss Voigt Hill
#
# Bulk Modulus (GPa) = 26.80204 30.18595 28.49399
# Shear Modulus (GPa) = 15.69393 18.74613 17.22003
#
# Velocity S-wave (km/s) = 2.98208 3.25919 3.12371
# Velocity P-wave (km/s) = 5.20041 5.59175 5.39962
#
# Compressibility (1/GPa) = 0.03731060
#
# Stress axis : x y z
#
# Youngs Moduli (GPa) = 65.83652 34.78423 51.10130
#
# Poissons Ratio (x) = 0.26868 0.16802
# Poissons Ratio (y) = 0.50853 0.10659
# Poissons Ratio (z) = 0.21647 0.07256
#
# Static dielectric constant tensor:
#      x y z
#    x 1.627770 0.000000 0.000000 
#    y 0.000000 1.560570 0.000000 
#    z 0.000000 0.000000 1.593710 
# 
# From -- ./inp_files/1964.got.cif
#   From: 2010.05.17/outbox.cif.g08.bks.cpg/sg26_1_cif.got.tgz:1964.got - 2010.06.04 01:07:29.
