data_PCOD9338595
_publ_section_title
;
Structure prediction by ZEFSAII (Michael W. Deem and Ramdas Pophale) SiO2 
 PCOD9338595
Probable space group: P M C 21
;
_chemical_formula_sum "Si O2"
_cell_formula_units_Z 24
_cell_length_a 8.829070
_cell_length_b 12.147540
_cell_length_c 12.038777
_cell_angle_alpha 90.000000
_cell_angle_beta 90.000000
_cell_angle_gamma 90.000000
_cell_volume 1291.176663
_symmetry_space_group_name_H-M "P M C 21"
_symmetry_group_IT_number 26
_symmetry_cell_setting 'orthorhombic'
loop_
_space_group_symop_operation_xyz
x,y,z
-x,-y,1/2+z
-x,y,z
x,-y,1/2+z
loop_
_atom_site_type_symbol
_atom_site_label
_atom_site_fract_x
_atom_site_fract_y
_atom_site_fract_z
Si Si1 0.680498 0.778433 0.353350
Si Si2 0.818916 0.916604 0.158507
Si Si3 0.819315 0.576097 0.221303
Si Si4 0.818447 0.833383 0.592186
Si Si5 0.179427 0.285319 0.501015
Si Si6 0.320120 0.337882 0.265889
O O1 0.500000 0.770126 0.356310
O O2 0.732205 0.871938 0.265960
O O3 0.751031 0.665212 0.306270
O O4 0.745736 0.805478 0.473883
O O5 0.786233 0.832433 0.057627
O O6 0.000000 0.907701 0.180327
O O7 0.782793 0.041200 0.126993
O O8 0.792983 0.625243 0.098000
O O9 0.744036 0.458386 0.237549
O O10 0.000000 0.568909 0.237790
O O11 0.755564 0.750195 0.683939
O O12 0.000000 0.823429 0.584601
O O13 0.273764 0.308809 0.391662
O O14 0.000000 0.287750 0.473715
O O15 0.500000 0.336184 0.252659
#
# Coordination Sequence:
#
# PCOD9338595 Si02
#       6
#     4   4   4   4   4   4
#     4  11  23  40  64  95 129 160 199 258 320 367
#     4   9  21  42  67  91 119 164 214 253 297 365
#     4  10  22  43  68  90 119 165 214 252 300 372
#     4  11  24  42  65  91 124 167 214 254 296 366
#     4   9  20  41  66  91 118 158 210 257 303 364
#     4  12  26  40  60  94 131 162 201 258 318 364
#
# _framework density 18.587696000000001
#
# number of rings (size 3 to 8) (size 9 to 14) (size 15 to 20)
#    0.000    1.667    0.000    5.000    4.667    4.667 
#    0.000    0.000    0.000    0.000    0.000    0.000 
#    0.000    0.000    0.000    0.000    0.000    0.000 
#
# Total GULP energy -134193.738285 kJ/mol
# GULP energy per Si atom -5591.405762 kJ/mol
# Density = 1.854539 g / cm^3
# Si number density = 18.587696 Si / 1000 Ang^3
#
#
#
# Elastic Constant Matrix: (Units=GPa)
#
#
# Indices 1 2 3 4 5 6 
#
# 1 85.4896 61.0335 61.4581 0.0000 0.0000 0.0000
# 2 61.0335 140.3639 75.0289 0.0000 0.0000 0.0000
# 3 61.4581 75.0289 105.7723 0.0000 0.0000 0.0000
# 4 0.0000 0.0000 0.0000 8.8374 0.0000 0.0000
# 5 0.0000 0.0000 0.0000 0.0000 124.1054 0.0000
# 6 0.0000 0.0000 0.0000 0.0000 0.0000 11.2640
#
#
#
# Elastic Compliance Matrix: (Units=1/GPa)
#
#
# Indices 1 2 3 4 5 6 
#
# 1 0.021603 -0.004323 -0.009486 0.000000 0.000000 0.000000
# 2 -0.004323 0.012341 -0.006242 0.000000 0.000000 0.000000
# 3 -0.009486 -0.006242 0.019393 0.000000 0.000000 0.000000
# 4 0.000000 0.000000 0.000000 0.113156 0.000000 0.000000
# 5 0.000000 0.000000 0.000000 0.000000 0.008058 0.000000
# 6 0.000000 0.000000 0.000000 0.000000 0.000000 0.088778
#
#
# Mechanical properties :
#
#
# Convention : Reuss Voigt Hill
#
# Bulk Modulus (GPa) = 75.55257 80.74077 78.14667
# Shear Modulus (GPa) = 16.24213 37.78172 27.01193
#
# Velocity S-wave (km/s) = 2.95924 4.51335 3.81624
# Velocity P-wave (km/s) = 7.23954 8.40788 7.84549
#
# Compressibility (1/GPa) = 0.01323582
#
# Stress axis : x y z
#
# Youngs Moduli (GPa) = 46.29016 81.03367 51.56393
#
# Poissons Ratio (x) = 0.35031 0.48912
# Poissons Ratio (y) = 0.20011 0.32185
# Poissons Ratio (z) = 0.43909 0.50580
#
# Static dielectric constant tensor:
#      x y z
#    x 1.612890 0.000000 0.000000 
#    y 0.000000 1.619120 0.000000 
#    z 0.000000 0.000000 1.607340 
# 
# From -- ./inp_files/2809.got.cif
#   From: 2010.05.17/outbox.cif.g08.bks.cpg/sg26_2_cif.got.tgz:2809.got - 2010.06.04 01:07:29.
