data_PCOD9338662
_publ_section_title
;
Structure prediction by ZEFSAII (Michael W. Deem and Ramdas Pophale) SiO2 
 PCOD9338662
Probable space group: P M C 21
;
_chemical_formula_sum "Si O2"
_cell_formula_units_Z 16
_cell_length_a 9.593191
_cell_length_b 6.954083
_cell_length_c 10.937245
_cell_angle_alpha 90.000000
_cell_angle_beta 90.000000
_cell_angle_gamma 90.000000
_cell_volume 729.643809
_symmetry_space_group_name_H-M "P M C 21"
_symmetry_group_IT_number 26
_symmetry_cell_setting 'orthorhombic'
loop_
_space_group_symop_operation_xyz
x,y,z
-x,-y,1/2+z
-x,y,z
x,-y,1/2+z
loop_
_atom_site_type_symbol
_atom_site_label
_atom_site_fract_x
_atom_site_fract_y
_atom_site_fract_z
Si Si1 0.161692 0.668505 0.680090
Si Si2 0.334955 0.928417 0.520402
Si Si3 0.158160 0.682954 0.338413
Si Si4 0.845623 0.275235 0.557297
O O1 0.268288 0.832040 0.642554
O O2 0.186479 0.541700 0.802386
O O3 0.174639 0.504556 0.572411
O O4 0.000000 0.731418 0.682612
O O5 0.500000 0.929327 0.524833
O O6 0.273120 0.795493 0.413204
O O7 0.271151 0.140306 0.502275
O O8 0.152109 0.773915 0.202361
O O9 0.000000 0.703285 0.387744
O O10 0.000000 0.234599 0.506524
#
# Coordination Sequence:
#
# PCOD9338662 Si02
#       4
#     4   4   4   4
#     4   8  18  38  59  78 101 138 189 230 252 298
#     4  12  22  32  55  84 115 146 163 210 286 332
#     4   8  18  38  59  78 101 138 189 230 252 298
#     4   8  18  38  59  78 101 138 189 230 252 298
#
# _framework density 21.928505000000001
#
# number of rings (size 3 to 8) (size 9 to 14) (size 15 to 20)
#    1.500    1.500    0.000    2.250    0.000    3.000 
#    4.500    0.000    0.000    0.000    0.000    0.000 
#    0.000    0.000    0.000    0.000    0.000    0.000 
#
# Total GULP energy -89151.502170 kJ/mol
# GULP energy per Si atom -5571.968886 kJ/mol
# Density = 2.187860 g / cm^3
# Si number density = 21.928505 Si / 1000 Ang^3
#
#
#
# Elastic Constant Matrix: (Units=GPa)
#
#
# Indices 1 2 3 4 5 6 
#
# 1 166.1930 82.8688 8.1831 0.0000 0.0000 0.0000
# 2 82.8688 88.7898 6.4693 0.0000 0.0000 0.0000
# 3 8.1831 6.4693 31.9895 0.0000 0.0000 0.0000
# 4 0.0000 0.0000 0.0000 26.1233 0.0000 0.0000
# 5 0.0000 0.0000 0.0000 0.0000 19.4286 0.0000
# 6 0.0000 0.0000 0.0000 0.0000 0.0000 -8.9548
#
#
#
# Elastic Compliance Matrix: (Units=1/GPa)
#
#
# Indices 1 2 3 4 5 6 
#
# 1 0.011273 -0.010466 -0.000767 0.000000 0.000000 0.000000
# 2 -0.010466 0.021147 -0.001599 0.000000 0.000000 0.000000
# 3 -0.000767 -0.001599 0.031780 0.000000 0.000000 0.000000
# 4 0.000000 0.000000 0.000000 0.038280 0.000000 0.000000
# 5 0.000000 0.000000 0.000000 0.000000 0.051471 0.000000
# 6 0.000000 0.000000 0.000000 0.000000 0.000000 -0.111672
#
#
# Mechanical properties :
#
#
# Convention : Reuss Voigt Hill
#
# Bulk Modulus (GPa) = 25.95012 53.55720 39.75366
# Shear Modulus (GPa) = 61.88952 19.94949 40.91950
#
# Velocity S-wave (km/s) = 5.31833 3.01948 4.32446
# Velocity P-wave (km/s) = 7.04077 6.05251 6.56526
#
# Compressibility (1/GPa) = 0.03853546
#
# Stress axis : x y z
#
# Youngs Moduli (GPa) = 88.70441 47.28827 31.46632
#
# Poissons Ratio (x) = 0.49491 0.02414
# Poissons Ratio (y) = 0.92836 0.05033
# Poissons Ratio (z) = 0.06806 0.07563
#
# Static dielectric constant tensor:
#      x y z
#    x 1.693040 0.000000 0.000000 
#    y 0.000000 1.850490 0.000000 
#    z 0.000000 0.000000 1.989480 
# 
# From -- ./inp_files/2626.got.cif
#   From: 2010.05.17/outbox.cif.g08.bks.cpg/sg26_2_cif.got.tgz:2626.got - 2010.06.04 01:07:29.
