data_PCOD9338225
_publ_section_title
;
Structure prediction by ZEFSAII (Michael W. Deem and Ramdas Pophale) SiO2 
 PCOD9338225
Probable space group: P M C 21
;
_chemical_formula_sum "Si O2"
_cell_formula_units_Z 32
_cell_length_a 8.769943
_cell_length_b 15.689641
_cell_length_c 12.199247
_cell_angle_alpha 90.000000
_cell_angle_beta 90.000000
_cell_angle_gamma 90.000000
_cell_volume 1678.582928
_symmetry_space_group_name_H-M "P M C 21"
_symmetry_group_IT_number 26
_symmetry_cell_setting 'orthorhombic'
loop_
_space_group_symop_operation_xyz
x,y,z
-x,-y,1/2+z
-x,y,z
x,-y,1/2+z
loop_
_atom_site_type_symbol
_atom_site_label
_atom_site_fract_x
_atom_site_fract_y
_atom_site_fract_z
Si Si1 0.681078 0.603032 0.628420
Si Si2 0.681711 0.888985 0.633715
Si Si3 0.822629 0.348415 0.898627
Si Si4 0.818345 0.742432 0.787043
Si Si5 0.317157 0.590161 0.180772
Si Si6 0.314912 0.752235 0.031231
Si Si7 0.317011 0.080443 0.665179
Si Si8 0.321900 0.172623 0.885053
O O1 0.500000 0.614053 0.641781
O O2 0.731742 0.636701 0.510364
O O3 0.761810 0.658478 0.722152
O O4 0.717058 0.502722 0.632624
O O5 0.500000 0.887854 0.659348
O O6 0.761986 0.823170 0.715280
O O7 0.698320 0.859229 0.508312
O O8 0.740932 0.985821 0.641362
O O9 0.760933 0.403942 0.798721
O O10 0.787081 0.251747 0.864498
O O11 0.000000 0.362603 0.917935
O O12 0.000000 0.742413 0.792980
O O13 0.748770 0.746353 0.908706
O O14 0.500000 0.596846 0.195189
O O15 0.270423 0.669226 0.103252
O O16 0.500000 0.752893 0.026936
O O17 0.263512 0.839740 0.091471
O O18 0.500000 0.077099 0.647171
O O19 0.292579 0.102761 0.792404
O O20 0.500000 0.199882 0.871457
#
# Coordination Sequence:
#
# PCOD9338225 Si02
#       8
#     4   4   4   4   4   4   4   4
#     4  11  24  43  67  92 119 161 213 259 299 358
#     4  10  21  37  64  94 119 159 207 256 303 360
#     4  12  24  39  63  93 128 162 199 252 313 369
#     4  12  26  42  59  88 128 166 200 251 315 375
#     4  10  23  43  68  93 119 158 209 255 302 360
#     4  10  21  41  66  91 120 160 205 254 303 363
#     4   9  19  36  64  96 120 152 208 260 301 352
#     4  10  19  37  63  89 121 160 207 257 300 355
#
# _framework density 19.063699
#
# number of rings (size 3 to 8) (size 9 to 14) (size 15 to 20)
#    0.000    1.500    2.500    2.625    3.500    1.500 
#    0.000    1.250    0.000    0.000    0.000    0.000 
#    0.000    0.000    0.000    0.000    0.000    0.000 
#
# Total GULP energy -178756.595510 kJ/mol
# GULP energy per Si atom -5586.143610 kJ/mol
# Density = 1.902031 g / cm^3
# Si number density = 19.063699 Si / 1000 Ang^3
#
#
#
# Elastic Constant Matrix: (Units=GPa)
#
#
# Indices 1 2 3 4 5 6 
#
# 1 28.8439 30.8382 26.7509 0.0000 0.0000 0.0000
# 2 30.8382 106.8063 27.7563 0.0000 0.0000 0.0000
# 3 26.7509 27.7563 101.1389 0.0000 0.0000 0.0000
# 4 0.0000 0.0000 0.0000 21.0926 0.0000 0.0000
# 5 0.0000 0.0000 0.0000 0.0000 -8.6616 0.0000
# 6 0.0000 0.0000 0.0000 0.0000 0.0000 64.7785
#
#
#
# Elastic Compliance Matrix: (Units=1/GPa)
#
#
# Indices 1 2 3 4 5 6 
#
# 1 0.061720 -0.014621 -0.012312 0.000000 0.000000 0.000000
# 2 -0.014621 0.013545 0.000150 0.000000 0.000000 0.000000
# 3 -0.012312 0.000150 0.013103 0.000000 0.000000 0.000000
# 4 0.000000 0.000000 0.000000 0.047410 0.000000 0.000000
# 5 0.000000 0.000000 0.000000 0.000000 -0.115452 0.000000
# 6 0.000000 0.000000 0.000000 0.000000 0.000000 0.015437
#
#
# Mechanical properties :
#
#
# Convention : Reuss Voigt Hill
#
# Bulk Modulus (GPa) = 28.73434 45.27555 37.00495
# Shear Modulus (GPa) = 49.53964 25.53814 37.53889
#
# Velocity S-wave (km/s) = 5.10321 3.66405 4.44230
# Velocity P-wave (km/s) = 7.05898 6.45768 6.76501
#
# Compressibility (1/GPa) = 0.03480156
#
# Stress axis : x y z
#
# Youngs Moduli (GPa) = 16.20228 73.82665 76.31945
#
# Poissons Ratio (x) = 1.07940 0.93966
# Poissons Ratio (y) = 0.23689 -0.01143
# Poissons Ratio (z) = 0.19949 -0.01106
#
# Static dielectric constant tensor:
#      x y z
#    x 1.648060 0.000000 0.000000 
#    y 0.000000 1.671830 0.000000 
#    z 0.000000 0.000000 1.628220 
# 
# From -- ./inp_files/2980.got.cif
#   From: 2010.05.17/outbox.cif.g08.bks.cpg/sg26_2_cif.got.tgz:2980.got - 2010.06.04 01:07:29.
