data_PCOD9338059
_publ_section_title
;
Structure prediction by ZEFSAII (Michael W. Deem and Ramdas Pophale) SiO2 
 PCOD9338059
Probable space group: P M C 21
;
_chemical_formula_sum "Si O2"
_cell_formula_units_Z 32
_cell_length_a 9.255699
_cell_length_b 10.335368
_cell_length_c 19.719209
_cell_angle_alpha 90.000000
_cell_angle_beta 90.000000
_cell_angle_gamma 90.000000
_cell_volume 1886.360342
_symmetry_space_group_name_H-M "P M C 21"
_symmetry_group_IT_number 26
_symmetry_cell_setting 'orthorhombic'
loop_
_space_group_symop_operation_xyz
x,y,z
-x,-y,1/2+z
-x,y,z
x,-y,1/2+z
loop_
_atom_site_type_symbol
_atom_site_label
_atom_site_fract_x
_atom_site_fract_y
_atom_site_fract_z
Si Si1 0.172006 0.973546 0.503000
Si Si2 0.672736 0.281018 0.362719
Si Si3 0.327875 0.975732 0.364708
Si Si4 0.826501 0.625118 0.148655
Si Si5 0.329652 0.877908 0.632475
Si Si6 0.671509 0.136943 0.719939
Si Si7 0.827252 0.278614 0.501639
Si Si8 0.673582 0.381934 0.216717
O O1 0.241500 0.935773 0.431330
O O2 0.237912 0.893347 0.564649
O O3 0.000000 0.961884 0.501076
O O4 0.208390 0.126399 0.513446
O O5 0.500000 0.292915 0.370659
O O6 0.749834 0.320123 0.432395
O O7 0.715344 0.358559 0.295260
O O8 0.703533 0.127967 0.351264
O O9 0.500000 0.966420 0.376995
O O10 0.293370 0.893443 0.298108
O O11 0.764794 0.749378 0.188091
O O12 0.786731 0.643382 0.069216
O O13 0.756169 0.499168 0.181813
O O14 0.000000 0.621591 0.152920
O O15 0.500000 0.875450 0.615306
O O16 0.297105 0.750110 0.675598
O O17 0.304854 0.004466 0.678531
O O18 0.500000 0.167943 0.715388
O O19 0.000000 0.286839 0.492762
O O20 0.500000 0.403680 0.214923
#
# Coordination Sequence:
#
# PCOD9338059 Si02
#       8
#     4   4   4   4   4   4   4   4
#     4  10  19  32  51  80 114 145 178 223 274 325
#     4   9  17  32  56  82 106 134 175 226 272 321
#     4   9  17  32  54  82 110 138 177 227 278 325
#     4  11  23  38  54  79 115 150 184 223 269 325
#     4  10  19  34  57  82 108 139 179 227 274 321
#     4  10  19  34  58  83 107 139 180 226 275 321
#     4   9  19  34  51  76 110 143 178 220 264 322
#     4  10  21  38  57  82 112 142 183 230 274 324
#
# _framework density 16.963884
#
# number of rings (size 3 to 8) (size 9 to 14) (size 15 to 20)
#    0.000    2.250    2.500    0.750    0.000    3.000 
#    0.000    1.250    0.000    1.500    0.000    0.000 
#    0.000    0.000    0.000    0.000    0.000    0.000 
#
# Total GULP energy -178533.562819 kJ/mol
# GULP energy per Si atom -5579.173838 kJ/mol
# Density = 1.692527 g / cm^3
# Si number density = 16.963884 Si / 1000 Ang^3
#
#
#
# Elastic Constant Matrix: (Units=GPa)
#
#
# Indices 1 2 3 4 5 6 
#
# 1 46.9191 51.8234 75.7077 0.0000 0.0000 0.0000
# 2 51.8234 86.6342 69.8580 0.0000 0.0000 0.0000
# 3 75.7077 69.8580 182.5237 0.0000 0.0000 0.0000
# 4 0.0000 0.0000 0.0000 24.6905 0.0000 0.0000
# 5 0.0000 0.0000 0.0000 0.0000 19.8864 0.0000
# 6 0.0000 0.0000 0.0000 0.0000 0.0000 22.3950
#
#
#
# Elastic Compliance Matrix: (Units=1/GPa)
#
#
# Indices 1 2 3 4 5 6 
#
# 1 0.147021 -0.056081 -0.039518 0.000000 0.000000 0.000000
# 2 -0.056081 0.038087 0.008684 0.000000 0.000000 0.000000
# 3 -0.039518 0.008684 0.018546 0.000000 0.000000 0.000000
# 4 0.000000 0.000000 0.000000 0.040501 0.000000 0.000000
# 5 0.000000 0.000000 0.000000 0.000000 0.050286 0.000000
# 6 0.000000 0.000000 0.000000 0.000000 0.000000 0.044653
#
#
# Mechanical properties :
#
#
# Convention : Reuss Voigt Hill
#
# Bulk Modulus (GPa) = 33.52806 78.98393 56.25599
# Shear Modulus (GPa) = 9.56268 21.30691 15.43480
#
# Velocity S-wave (km/s) = 2.37683 3.54788 3.01966
# Velocity P-wave (km/s) = 5.22874 7.96520 6.73736
#
# Compressibility (1/GPa) = 0.02982576
#
# Stress axis : x y z
#
# Youngs Moduli (GPa) = 6.80173 26.25568 53.91870
#
# Poissons Ratio (x) = 1.47244 2.13076
# Poissons Ratio (y) = 0.38145 -0.46824
# Poissons Ratio (z) = 0.26879 -0.22801
#
# Static dielectric constant tensor:
#      x y z
#    x 1.559820 0.000000 0.000000 
#    y 0.000000 1.553970 0.000000 
#    z 0.000000 0.000000 1.563880 
# 
# From -- ./inp_files/4990.got.cif
#   From: 2010.05.17/outbox.cif.g08.bks.cpg/sg26_3_cif.got.tgz:4990.got - 2010.06.04 01:07:29.
