data_PCOD9338937
_publ_section_title
;
Structure prediction by ZEFSAII (Michael W. Deem and Ramdas Pophale) SiO2 
 PCOD9338937
Probable space group: P C C 2
;
_chemical_formula_sum "Si O2"
_cell_formula_units_Z 32
_cell_length_a 13.617119
_cell_length_b 13.478985
_cell_length_c 8.095563
_cell_angle_alpha 90.000000
_cell_angle_beta 90.000000
_cell_angle_gamma 90.000000
_cell_volume 1485.899647
_symmetry_space_group_name_H-M "P C C 2"
_symmetry_group_IT_number 27
_symmetry_cell_setting 'orthorhombic'
loop_
_space_group_symop_operation_xyz
x,y,z
-x,-y,z
-x,y,1/2+z
x,-y,1/2+z
loop_
_atom_site_type_symbol
_atom_site_label
_atom_site_fract_x
_atom_site_fract_y
_atom_site_fract_z
Si Si1 0.560964 0.192276 0.349340
Si Si2 0.611605 0.463951 0.810703
Si Si3 0.373892 0.731318 0.991032
Si Si4 0.696184 0.644228 0.993310
Si Si5 0.229568 0.869354 0.874062
Si Si6 0.143018 0.799371 0.409556
Si Si7 0.973928 0.883702 0.219876
Si Si8 0.696390 0.061620 0.513778
O O1 0.598774 0.224770 0.169475
O O2 0.446622 0.212372 0.365031
O O3 0.615119 0.270547 0.469113
O O4 0.592604 0.088203 0.430678
O O5 0.500000 0.500000 0.772969
O O6 0.668798 0.405848 0.666825
O O7 0.606837 0.384906 0.962395
O O8 0.673846 0.559421 0.860791
O O9 0.265059 0.762636 0.936561
O O10 0.800277 0.697999 0.957057
O O11 0.112970 0.880168 0.857091
O O12 0.277778 0.896828 0.695285
O O13 0.274874 0.948056 0.000905
O O14 0.079426 0.838188 0.562561
O O15 0.229443 0.879694 0.391930
O O16 0.067349 0.815328 0.261646
O O17 0.000000 0.000000 0.198942
#
# Coordination Sequence:
#
# PCOD9338937 Si02
#       8
#     4   4   4   4   4   4   4   4
#     4  11  23  40  61  92 135 173 219 262 329 395
#     4  12  23  40  70  99 128 172 222 271 334 392
#     4  12  24  40  63  95 132 178 218 273 326 389
#     4  11  24  43  65 100 133 168 218 279 336 388
#     4  11  23  38  63  94 135 174 224 271 328 389
#     4  10  23  40  65  96 136 167 216 279 328 394
#     4  11  21  38  67  99 128 173 220 269 329 390
#     4  10  21  39  58  93 131 175 213 270 320 393
#
# _framework density 21.535774
#
# number of rings (size 3 to 8) (size 9 to 14) (size 15 to 20)
#    0.000    1.000    2.500    6.000    1.750    2.500 
#    0.000    3.750    0.000    6.000    0.000    0.000 
#    0.000    0.000    0.000    0.000    0.000    0.000 
#
# Total GULP energy -178788.325815 kJ/mol
# GULP energy per Si atom -5587.135182 kJ/mol
# Density = 2.148676 g / cm^3
# Si number density = 21.535774 Si / 1000 Ang^3
#
#
#
# Elastic Constant Matrix: (Units=GPa)
#
#
# Indices 1 2 3 4 5 6 
#
# 1 110.8582 59.2570 26.9397 0.0000 0.0000 0.0000
# 2 59.2570 92.2899 25.8779 0.0000 0.0000 0.0000
# 3 26.9397 25.8779 91.5971 0.0000 0.0000 0.0000
# 4 0.0000 0.0000 0.0000 32.8020 0.0000 0.0000
# 5 0.0000 0.0000 0.0000 0.0000 30.1536 0.0000
# 6 0.0000 0.0000 0.0000 0.0000 0.0000 46.2753
#
#
#
# Elastic Compliance Matrix: (Units=1/GPa)
#
#
# Indices 1 2 3 4 5 6 
#
# 1 0.013977 -0.008494 -0.001711 0.000000 0.000000 0.000000
# 2 -0.008494 0.016930 -0.002285 0.000000 0.000000 0.000000
# 3 -0.001711 -0.002285 0.012066 0.000000 0.000000 0.000000
# 4 0.000000 0.000000 0.000000 0.030486 0.000000 0.000000
# 5 0.000000 0.000000 0.000000 0.000000 0.033163 0.000000
# 6 0.000000 0.000000 0.000000 0.000000 0.000000 0.021610
#
#
# Mechanical properties :
#
#
# Convention : Reuss Voigt Hill
#
# Bulk Modulus (GPa) = 55.57777 57.65493 56.61635
# Shear Modulus (GPa) = 31.40505 34.02422 32.71464
#
# Velocity S-wave (km/s) = 3.82288 3.97910 3.90177
# Velocity P-wave (km/s) = 6.73417 6.92393 6.82971
#
# Compressibility (1/GPa) = 0.01799281
#
# Stress axis : x y z
#
# Youngs Moduli (GPa) = 71.54707 59.06634 82.87704
#
# Poissons Ratio (x) = 0.50173 0.14179
# Poissons Ratio (y) = 0.60775 0.18936
# Poissons Ratio (z) = 0.12241 0.13495
#
# Static dielectric constant tensor:
#      x y z
#    x 1.829910 0.000000 0.000000 
#    y 0.000000 1.823640 0.000000 
#    z 0.000000 0.000000 1.887490 
# 
# From -- ./inp_files/1482.got.cif
#   From: 2010.05.17/outbox.cif.g08.bks.cpg/sg27_1_cif.got.tgz:1482.got - 2010.06.04 01:11:05.
