data_PCOD9338286
_publ_section_title
;
Structure prediction by ZEFSAII (Michael W. Deem and Ramdas Pophale) SiO2 
 PCOD9338286
Probable space group: P M C 21
;
_chemical_formula_sum "Si O2"
_cell_formula_units_Z 32
_cell_length_a 7.568313
_cell_length_b 11.585438
_cell_length_c 16.822502
_cell_angle_alpha 90.000000
_cell_angle_beta 90.000000
_cell_angle_gamma 90.000000
_cell_volume 1475.034339
_symmetry_space_group_name_H-M "P M C 21"
_symmetry_group_IT_number 26
_symmetry_cell_setting 'orthorhombic'
loop_
_space_group_symop_operation_xyz
x,y,z
-x,-y,1/2+z
-x,y,z
x,-y,1/2+z
loop_
_atom_site_type_symbol
_atom_site_label
_atom_site_fract_x
_atom_site_fract_y
_atom_site_fract_z
Si Si1 0.714238 0.153940 0.257210
Si Si2 0.292005 0.440857 0.622404
Si Si3 0.800024 0.764783 0.464086
Si Si4 0.204707 0.944800 0.585685
Si Si5 0.294907 0.077749 0.825490
Si Si6 0.213448 0.175224 0.652525
Si Si7 0.716318 0.419714 0.278853
Si Si8 0.298042 0.507512 0.449578
O O1 0.500000 0.150007 0.252951
O O2 0.785775 0.109327 0.173251
O O3 0.765991 0.285139 0.272867
O O4 0.767875 0.054882 0.319859
O O5 0.500000 0.471592 0.618783
O O6 0.273019 0.304323 0.635540
O O7 0.222619 0.509703 0.700286
O O8 0.217375 0.470317 0.534715
O O9 0.713741 0.850006 0.528214
O O10 0.805469 0.840175 0.384973
O O11 0.702360 0.645723 0.450316
O O12 0.000000 0.733913 0.489368
O O13 0.000000 0.955355 0.560572
O O14 0.275957 0.074947 0.591773
O O15 0.500000 0.077589 0.849148
O O16 0.279119 0.132740 0.738166
O O17 0.000000 0.172756 0.653491
O O18 0.500000 0.427387 0.278670
O O19 0.778526 0.467951 0.364443
O O20 0.500000 0.462722 0.449822
#
# Coordination Sequence:
#
# PCOD9338286 Si02
#       8
#     4   4   4   4   4   4   4   4
#     4   9  18  34  56  79 102 134 176 218 265 322
#     4  10  20  34  55  81 109 144 183 225 274 324
#     4  11  22  36  54  77 107 141 179 221 270 327
#     4   9  20  36  53  76 106 139 174 220 272 319
#     4  10  20  34  55  82 108 135 174 224 270 318
#     4  10  20  36  56  77 106 143 180 218 268 326
#     4   9  18  34  54  77 108 140 174 221 271 321
#     4  10  21  36  55  79 108 144 184 227 274 323
#
# _framework density 21.694410999999999
#
# number of rings (size 3 to 8) (size 9 to 14) (size 15 to 20)
#    0.000    2.250    0.000    2.625    0.000    5.500 
#    0.000    2.500    0.000    0.000    0.000    0.000 
#    0.000    0.000    0.000    0.000    0.000    0.000 
#
# Total GULP energy -178548.899191 kJ/mol
# GULP energy per Si atom -5579.653100 kJ/mol
# Density = 2.164503 g / cm^3
# Si number density = 21.694411 Si / 1000 Ang^3
#
#
#
# Elastic Constant Matrix: (Units=GPa)
#
#
# Indices 1 2 3 4 5 6 
#
# 1 52.8133 -10.1582 0.1159 0.0000 0.0000 0.0000
# 2 -10.1582 173.4021 75.2326 0.0000 0.0000 0.0000
# 3 0.1159 75.2326 114.5188 0.0000 0.0000 0.0000
# 4 0.0000 0.0000 0.0000 34.4467 0.0000 0.0000
# 5 0.0000 0.0000 0.0000 0.0000 3.6544 0.0000
# 6 0.0000 0.0000 0.0000 0.0000 0.0000 -12.4626
#
#
#
# Elastic Compliance Matrix: (Units=1/GPa)
#
#
# Indices 1 2 3 4 5 6 
#
# 1 0.019242 0.001588 -0.001063 0.000000 0.000000 0.000000
# 2 0.001588 0.008197 -0.005387 0.000000 0.000000 0.000000
# 3 -0.001063 -0.005387 0.012272 0.000000 0.000000 0.000000
# 4 0.000000 0.000000 0.000000 0.029030 0.000000 0.000000
# 5 0.000000 0.000000 0.000000 0.000000 0.273639 0.000000
# 6 0.000000 0.000000 0.000000 0.000000 0.000000 -0.080240
#
#
# Mechanical properties :
#
#
# Convention : Reuss Voigt Hill
#
# Bulk Modulus (GPa) = 33.34537 52.34610 42.84573
# Shear Modulus (GPa) = 17.73929 23.49729 20.61829
#
# Velocity S-wave (km/s) = 2.86263 3.29462 3.08619
# Velocity P-wave (km/s) = 5.13128 6.21723 5.70018
#
# Compressibility (1/GPa) = 0.02998917
#
# Stress axis : x y z
#
# Youngs Moduli (GPa) = 51.96833 121.99517 81.48646
#
# Poissons Ratio (x) = -0.19378 0.08662
# Poissons Ratio (y) = -0.08255 0.43894
# Poissons Ratio (z) = 0.05524 0.65714
#
# Static dielectric constant tensor:
#      x y z
#    x 1.842610 0.000000 0.000000 
#    y 0.000000 1.756810 0.000000 
#    z 0.000000 0.000000 1.795980 
# 
# From -- ./inp_files/4282.got.cif
#   From: 2010.05.17/outbox.cif.g08.bks.cpg/sg26_3_cif.got.tgz:4282.got - 2010.06.04 01:07:29.
