data_PCOD9338508
_publ_section_title
;
Structure prediction by ZEFSAII (Michael W. Deem and Ramdas Pophale) SiO2 
 PCOD9338508
Probable space group: P M C 21
;
_chemical_formula_sum "Si O2"
_cell_formula_units_Z 32
_cell_length_a 13.530982
_cell_length_b 12.021311
_cell_length_c 9.483448
_cell_angle_alpha 90.000000
_cell_angle_beta 90.000000
_cell_angle_gamma 90.000000
_cell_volume 1542.579006
_symmetry_space_group_name_H-M "P M C 21"
_symmetry_group_IT_number 26
_symmetry_cell_setting 'orthorhombic'
loop_
_space_group_symop_operation_xyz
x,y,z
-x,-y,1/2+z
-x,y,z
x,-y,1/2+z
loop_
_atom_site_type_symbol
_atom_site_label
_atom_site_fract_x
_atom_site_fract_y
_atom_site_fract_z
Si Si1 0.119406 0.910760 0.814060
Si Si2 0.882376 0.333899 0.809659
Si Si3 0.218224 0.260670 0.525336
Si Si4 0.119835 0.875262 0.493087
Si Si5 0.381659 0.905637 0.983437
Si Si6 0.618551 0.623903 0.595515
Si Si7 0.276235 0.484022 0.363939
Si Si8 0.619233 0.875865 0.654147
O O1 0.157693 0.811442 0.911834
O O2 0.153737 0.897452 0.652723
O O3 0.000000 0.908532 0.812889
O O4 0.150082 0.027076 0.885810
O O5 0.846904 0.279974 0.663229
O O6 0.855528 0.245437 0.931684
O O7 0.822509 0.447336 0.829200
O O8 0.000000 0.350710 0.809841
O O9 0.317304 0.190143 0.556680
O O10 0.249577 0.377458 0.458198
O O11 0.000000 0.879571 0.496754
O O12 0.500000 0.888322 0.998933
O O13 0.356353 0.899711 0.817338
O O14 0.354321 0.023697 0.050828
O O15 0.500000 0.618047 0.608789
O O16 0.669864 0.558931 0.724098
O O17 0.653821 0.566452 0.452183
O O18 0.650314 0.752945 0.607367
O O19 0.500000 0.873166 0.650808
#
# Coordination Sequence:
#
# PCOD9338508 Si02
#       8
#     4   4   4   4   4   4   4   4
#     4  10  21  38  64  97 132 173 224 279 349 417
#     4  11  26  47  67  95 139 179 231 296 343 410
#     4  12  25  41  66  98 132 180 230 281 342 422
#     4   9  20  40  66  95 130 174 220 281 349 412
#     4  10  22  41  64  96 137 174 218 280 342 409
#     4  11  24  47  73  99 140 181 231 294 340 409
#     4  12  26  46  67 103 132 180 240 274 348 413
#     4   9  20  40  67  97 134 179 220 271 347 408
#
# _framework density 20.744481
#
# number of rings (size 3 to 8) (size 9 to 14) (size 15 to 20)
#    0.000    1.500    2.500    1.500    1.750    7.500 
#    0.000    1.250    0.000    0.000    0.000    0.000 
#    0.000    0.000    0.000    0.000    0.000    0.000 
#
# Total GULP energy -179050.653555 kJ/mol
# GULP energy per Si atom -5595.332924 kJ/mol
# Density = 2.069727 g / cm^3
# Si number density = 20.744481 Si / 1000 Ang^3
#
#
#
# Elastic Constant Matrix: (Units=GPa)
#
#
# Indices 1 2 3 4 5 6 
#
# 1 128.5119 62.9530 46.7933 0.0000 0.0000 0.0000
# 2 62.9530 160.1784 47.6429 0.0000 0.0000 0.0000
# 3 46.7933 47.6429 69.4415 0.0000 0.0000 0.0000
# 4 0.0000 0.0000 0.0000 41.8398 0.0000 0.0000
# 5 0.0000 0.0000 0.0000 0.0000 37.0155 0.0000
# 6 0.0000 0.0000 0.0000 0.0000 0.0000 38.4375
#
#
#
# Elastic Compliance Matrix: (Units=1/GPa)
#
#
# Indices 1 2 3 4 5 6 
#
# 1 0.011171 -0.002703 -0.005673 0.000000 0.000000 0.000000
# 2 -0.002703 0.008498 -0.004009 0.000000 0.000000 0.000000
# 3 -0.005673 -0.004009 0.020974 0.000000 0.000000 0.000000
# 4 0.000000 0.000000 0.000000 0.023901 0.000000 0.000000
# 5 0.000000 0.000000 0.000000 0.000000 0.027016 0.000000
# 6 0.000000 0.000000 0.000000 0.000000 0.000000 0.026016
#
#
# Mechanical properties :
#
#
# Convention : Reuss Voigt Hill
#
# Bulk Modulus (GPa) = 63.00083 74.76779 68.88431
# Shear Modulus (GPa) = 33.86700 36.84139 35.35419
#
# Velocity S-wave (km/s) = 4.04490 4.21879 4.13276
# Velocity P-wave (km/s) = 7.22847 7.73637 7.48673
#
# Compressibility (1/GPa) = 0.01587281
#
# Stress axis : x y z
#
# Youngs Moduli (GPa) = 89.51575 117.67839 47.67850
#
# Poissons Ratio (x) = 0.31809 0.27049
# Poissons Ratio (y) = 0.24197 0.19113
# Poissons Ratio (z) = 0.50784 0.47174
#
# Static dielectric constant tensor:
#      x y z
#    x 1.764910 0.000000 0.000000 
#    y 0.000000 1.701020 0.000000 
#    z 0.000000 0.000000 1.714680 
# 
# From -- ./inp_files/2251.got.cif
#   From: 2010.05.17/outbox.cif.g08.bks.cpg/sg26_2_cif.got.tgz:2251.got - 2010.06.04 01:07:29.
