data_PCOD9338176
_publ_section_title
;
Structure prediction by ZEFSAII (Michael W. Deem and Ramdas Pophale) SiO2 
 PCOD9338176
Probable space group: P M C 21
;
_chemical_formula_sum "Si O2"
_cell_formula_units_Z 30
_cell_length_a 15.148211
_cell_length_b 7.461406
_cell_length_c 10.121221
_cell_angle_alpha 90.000000
_cell_angle_beta 90.000000
_cell_angle_gamma 90.000000
_cell_volume 1143.970765
_symmetry_space_group_name_H-M "P M C 21"
_symmetry_group_IT_number 26
_symmetry_cell_setting 'orthorhombic'
loop_
_space_group_symop_operation_xyz
x,y,z
-x,-y,1/2+z
-x,y,z
x,-y,1/2+z
loop_
_atom_site_type_symbol
_atom_site_label
_atom_site_fract_x
_atom_site_fract_y
_atom_site_fract_z
Si Si1 0.100217 0.265237 0.793750
Si Si2 0.604594 0.295143 0.176917
Si Si3 0.598818 0.326143 0.757879
Si Si4 0.500000 0.860963 0.044885
Si Si5 0.658249 0.004736 0.393128
Si Si6 0.816354 0.225386 0.519491
Si Si7 0.775716 0.651527 0.534634
Si Si8 0.094523 0.304712 0.258690
O O1 0.142955 0.180602 0.662229
O O2 0.092178 0.478881 0.765677
O O3 0.000000 0.200055 0.818673
O O4 0.165383 0.264210 0.918365
O O5 0.500000 0.312076 0.150534
O O6 0.620288 0.133746 0.276925
O O7 0.629762 0.472538 0.262673
O O8 0.673412 0.302133 0.057666
O O9 0.500000 0.309248 0.819631
O O10 0.575974 0.274818 0.606611
O O11 0.664627 0.180499 0.813311
O O12 0.422789 0.995212 0.994546
O O13 0.741347 0.092511 0.465268
O O14 0.783603 0.434313 0.527038
O O15 0.889708 0.229739 0.404401
O O16 0.822523 0.728941 0.666057
O O17 0.000000 0.244785 0.203755
#
# Coordination Sequence:
#
# PCOD9338176 Si02
#       8
#     4   4   4   2   4   4   4   4
#     4   9  18  33  57  94 146 189 225 300 381 444
#     4  11  22  40  67 101 136 196 251 307 372 439
#     4   9  22  42  62  92 133 189 255 306 362 446
#     4  10  20  40  66  90 132 188 246 304 360 432
#     4  12  21  42  71  90 140 193 240 316 371 432
#     4  10  20  32  59  93 139 183 236 301 363 444
#     4  10  19  35  57  96 145 182 244 299 362 453
#     4   9  16  30  55  91 139 182 228 298 364 438
#
# _framework density 26.224444999999999
#
# number of rings (size 3 to 8) (size 9 to 14) (size 15 to 20)
#    0.400    1.600    2.667    1.600    0.000    3.200 
#    0.000    4.000    4.400    0.000    0.000    3.733 
#    0.000    6.400    2.933    0.000    0.000    0.000 
#
# Total GULP energy -167434.550650 kJ/mol
# GULP energy per Si atom -5581.151688 kJ/mol
# Density = 2.616476 g / cm^3
# Si number density = 26.224445 Si / 1000 Ang^3
#
#
#
# Elastic Constant Matrix: (Units=GPa)
#
#
# Indices 1 2 3 4 5 6 
#
# 1 195.5282 47.1687 58.5500 0.0000 0.0000 0.0000
# 2 47.1687 78.9429 27.4073 0.0000 0.0000 0.0000
# 3 58.5500 27.4073 83.3622 0.0000 0.0000 0.0000
# 4 0.0000 0.0000 0.0000 26.6899 0.0000 0.0000
# 5 0.0000 0.0000 0.0000 0.0000 48.8897 0.0000
# 6 0.0000 0.0000 0.0000 0.0000 0.0000 14.4066
#
#
#
# Elastic Compliance Matrix: (Units=1/GPa)
#
#
# Indices 1 2 3 4 5 6 
#
# 1 0.006980 -0.002787 -0.003986 0.000000 0.000000 0.000000
# 2 -0.002787 0.015412 -0.003110 0.000000 0.000000 0.000000
# 3 -0.003986 -0.003110 0.015818 0.000000 0.000000 0.000000
# 4 0.000000 0.000000 0.000000 0.037467 0.000000 0.000000
# 5 0.000000 0.000000 0.000000 0.000000 0.020454 0.000000
# 6 0.000000 0.000000 0.000000 0.000000 0.000000 0.069412
#
#
# Mechanical properties :
#
#
# Convention : Reuss Voigt Hill
#
# Bulk Modulus (GPa) = 54.21645 69.34283 61.77964
# Shear Modulus (GPa) = 26.11523 32.97771 29.54647
#
# Velocity S-wave (km/s) = 3.15911 3.55000 3.36024
# Velocity P-wave (km/s) = 5.83314 6.58048 6.21805
#
# Compressibility (1/GPa) = 0.01844459
#
# Stress axis : x y z
#
# Youngs Moduli (GPa) = 143.25905 64.88386 63.21828
#
# Poissons Ratio (x) = 0.18082 0.25202
# Poissons Ratio (y) = 0.39923 0.19660
# Poissons Ratio (z) = 0.57110 0.20178
#
# Static dielectric constant tensor:
#      x y z
#    x 2.014320 0.000000 0.000000 
#    y 0.000000 2.122050 0.000000 
#    z 0.000000 0.000000 2.112790 
# 
# From -- ./inp_files/2209.got.cif
#   From: 2010.05.17/outbox.cif.g08.bks.cpg/sg26_2_cif.got.tgz:2209.got - 2010.06.04 01:07:29.
