data_PCOD9338473
_publ_section_title
;
Structure prediction by ZEFSAII (Michael W. Deem and Ramdas Pophale) SiO2 
 PCOD9338473
Probable space group: P M C 21
;
_chemical_formula_sum "Si O2"
_cell_formula_units_Z 32
_cell_length_a 14.097477
_cell_length_b 12.213303
_cell_length_c 9.877046
_cell_angle_alpha 90.000000
_cell_angle_beta 90.000000
_cell_angle_gamma 90.000000
_cell_volume 1700.597760
_symmetry_space_group_name_H-M "P M C 21"
_symmetry_group_IT_number 26
_symmetry_cell_setting 'orthorhombic'
loop_
_space_group_symop_operation_xyz
x,y,z
-x,-y,1/2+z
-x,y,z
x,-y,1/2+z
loop_
_atom_site_type_symbol
_atom_site_label
_atom_site_fract_x
_atom_site_fract_y
_atom_site_fract_z
Si Si1 0.110974 0.146605 0.621960
Si Si2 0.391383 0.032876 0.271366
Si Si3 0.388154 0.534168 0.647120
Si Si4 0.607249 0.718762 0.875342
Si Si5 0.109729 0.962796 0.410376
Si Si6 0.297988 0.094717 0.016553
Si Si7 0.390085 0.295733 0.921891
Si Si8 0.280068 0.313038 0.648375
O O1 0.121305 0.061803 0.750008
O O2 0.178776 0.251162 0.645530
O O3 0.000000 0.178740 0.620787
O O4 0.129919 0.081655 0.480007
O O5 0.500000 0.002115 0.238767
O O6 0.390600 0.159565 0.314873
O O7 0.348788 0.963334 0.391527
O O8 0.322679 0.021157 0.144292
O O9 0.500000 0.496307 0.663800
O O10 0.372754 0.626452 0.762258
O O11 0.381931 0.588112 0.497495
O O12 0.306818 0.442512 0.657507
O O13 0.500000 0.696940 0.923084
O O14 0.673057 0.717726 0.005859
O O15 0.187910 0.889743 0.485605
O O16 0.000000 0.938620 0.443067
O O17 0.350395 0.209429 0.029243
O O18 0.500000 0.275453 0.896488
O O19 0.332998 0.275280 0.784909
#
# Coordination Sequence:
#
# PCOD9338473 Si02
#       8
#     4   4   4   4   4   4   4   4
#     4  10  22  41  64  91 120 151 195 249 301 360
#     4  11  23  36  53  81 123 163 193 235 297 367
#     4  10  21  40  61  82 117 164 209 250 287 342
#     4  10  21  37  55  83 118 156 200 245 289 349
#     4  10  21  40  62  86 115 153 198 246 297 355
#     4  12  22  37  57  85 121 158 198 244 299 363
#     4  11  22  37  57  87 123 161 202 244 292 355
#     4  12  22  36  59  91 111 150 203 255 296 345
#
# _framework density 18.816914000000001
#
# number of rings (size 3 to 8) (size 9 to 14) (size 15 to 20)
#    0.000    1.250    2.500    4.500    1.750    2.000 
#    0.000    0.000    0.000    3.750    0.000    0.000 
#    0.000    0.000    0.000    0.000    0.000    0.000 
#
# Total GULP energy -178437.834235 kJ/mol
# GULP energy per Si atom -5576.182320 kJ/mol
# Density = 1.877409 g / cm^3
# Si number density = 18.816914 Si / 1000 Ang^3
#
#
#
# Elastic Constant Matrix: (Units=GPa)
#
#
# Indices 1 2 3 4 5 6 
#
# 1 109.0998 52.2798 46.9697 0.0000 0.0000 0.0000
# 2 52.2798 78.5489 7.1474 0.0000 0.0000 0.0000
# 3 46.9697 7.1474 51.6121 0.0000 0.0000 0.0000
# 4 0.0000 0.0000 0.0000 21.6279 0.0000 0.0000
# 5 0.0000 0.0000 0.0000 0.0000 24.7874 0.0000
# 6 0.0000 0.0000 0.0000 0.0000 0.0000 28.8385
#
#
#
# Elastic Compliance Matrix: (Units=1/GPa)
#
#
# Indices 1 2 3 4 5 6 
#
# 1 0.025421 -0.015003 -0.021056 0.000000 0.000000 0.000000
# 2 -0.015003 0.021748 0.010642 0.000000 0.000000 0.000000
# 3 -0.021056 0.010642 0.037064 0.000000 0.000000 0.000000
# 4 0.000000 0.000000 0.000000 0.046236 0.000000 0.000000
# 5 0.000000 0.000000 0.000000 0.000000 0.040343 0.000000
# 6 0.000000 0.000000 0.000000 0.000000 0.000000 0.034676
#
#
# Mechanical properties :
#
#
# Convention : Reuss Voigt Hill
#
# Bulk Modulus (GPa) = 29.94227 50.22829 40.08528
# Shear Modulus (GPa) = 18.69467 23.90836 21.30152
#
# Velocity S-wave (km/s) = 3.15541 3.56838 3.36823
# Velocity P-wave (km/s) = 5.40578 6.61279 6.03951
#
# Compressibility (1/GPa) = 0.03339760
#
# Stress axis : x y z
#
# Youngs Moduli (GPa) = 39.33828 45.98066 26.98036
#
# Poissons Ratio (x) = 0.68986 0.56811
# Poissons Ratio (y) = 0.59020 -0.28712
# Poissons Ratio (z) = 0.82832 -0.48932
#
# Static dielectric constant tensor:
#      x y z
#    x 1.649840 0.000000 0.000000 
#    y 0.000000 1.722460 0.000000 
#    z 0.000000 0.000000 1.679890 
# 
# From -- ./inp_files/2263.got.cif
#   From: 2010.05.17/outbox.cif.g08.bks.cpg/sg26_2_cif.got.tgz:2263.got - 2010.06.04 01:07:29.
