data_PCOD9338451
_publ_section_title
;
Structure prediction by ZEFSAII (Michael W. Deem and Ramdas Pophale) SiO2 
 PCOD9338451
Probable space group: P M C 21
;
_chemical_formula_sum "Si O2"
_cell_formula_units_Z 32
_cell_length_a 8.998666
_cell_length_b 11.412707
_cell_length_c 16.078277
_cell_angle_alpha 90.000000
_cell_angle_beta 90.000000
_cell_angle_gamma 90.000000
_cell_volume 1651.225196
_symmetry_space_group_name_H-M "P M C 21"
_symmetry_group_IT_number 26
_symmetry_cell_setting 'orthorhombic'
loop_
_space_group_symop_operation_xyz
x,y,z
-x,-y,1/2+z
-x,y,z
x,-y,1/2+z
loop_
_atom_site_type_symbol
_atom_site_label
_atom_site_fract_x
_atom_site_fract_y
_atom_site_fract_z
Si Si1 0.669623 0.949094 0.998370
Si Si2 0.831548 0.826862 0.534802
Si Si3 0.823599 0.530119 0.880911
Si Si4 0.322200 0.423693 0.046219
Si Si5 0.820822 0.568218 0.198605
Si Si6 0.832468 0.923132 0.722526
Si Si7 0.332378 0.768536 0.847695
Si Si8 0.821784 0.835770 0.157339
O O1 0.500000 0.979568 0.020650
O O2 0.670418 0.864595 0.919910
O O3 0.741386 0.875332 0.073350
O O4 0.758273 0.068941 0.982124
O O5 0.737092 0.709161 0.540683
O O6 0.838330 0.883486 0.626727
O O7 0.000000 0.800159 0.507554
O O8 0.783221 0.467816 0.793262
O O9 0.780136 0.664941 0.867856
O O10 0.000000 0.515678 0.894058
O O11 0.737613 0.484812 0.962027
O O12 0.500000 0.427978 0.049556
O O13 0.255498 0.488117 0.128027
O O14 0.782085 0.704537 0.183536
O O15 0.000000 0.555070 0.189675
O O16 0.719283 0.837790 0.766838
O O17 0.000000 0.909911 0.757403
O O18 0.789460 0.060115 0.722951
O O19 0.500000 0.721410 0.839773
O O20 0.000000 0.839656 0.144007
#
# Coordination Sequence:
#
# PCOD9338451 Si02
#       8
#     4   4   4   4   4   4   4   4
#     4  10  21  36  55  83 115 146 185 235 291 349
#     4  10  21  39  61  84 111 148 195 239 285 346
#     4  11  24  41  62  88 119 159 207 252 292 350
#     4  12  25  40  61  90 125 161 196 244 304 359
#     4  10  22  41  64  89 119 160 207 250 294 348
#     4   9  19  35  57  84 111 144 188 238 289 345
#     4  11  23  37  55  83 117 150 188 237 294 351
#     4   9  19  37  59  83 111 146 192 239 285 342
#
# _framework density 19.379549000000001
#
# number of rings (size 3 to 8) (size 9 to 14) (size 15 to 20)
#    0.000    1.750    0.000    4.875    0.000   12.000 
#    0.000    1.250    0.000    0.000    0.000    0.000 
#    0.000    0.000    0.000    0.000    0.000    0.000 
#
# Total GULP energy -178696.376297 kJ/mol
# GULP energy per Si atom -5584.261759 kJ/mol
# Density = 1.933544 g / cm^3
# Si number density = 19.379549 Si / 1000 Ang^3
#
#
#
# Elastic Constant Matrix: (Units=GPa)
#
#
# Indices 1 2 3 4 5 6 
#
# 1 63.1793 23.7561 18.7799 0.0000 0.0000 0.0000
# 2 23.7561 92.1731 5.8640 0.0000 0.0000 0.0000
# 3 18.7799 5.8640 43.0844 0.0000 0.0000 0.0000
# 4 0.0000 0.0000 0.0000 23.1066 0.0000 0.0000
# 5 0.0000 0.0000 0.0000 0.0000 26.9157 0.0000
# 6 0.0000 0.0000 0.0000 0.0000 0.0000 28.1596
#
#
#
# Elastic Compliance Matrix: (Units=1/GPa)
#
#
# Indices 1 2 3 4 5 6 
#
# 1 0.019970 -0.004633 -0.008074 0.000000 0.000000 0.000000
# 2 -0.004633 0.012019 0.000384 0.000000 0.000000 0.000000
# 3 -0.008074 0.000384 0.026677 0.000000 0.000000 0.000000
# 4 0.000000 0.000000 0.000000 0.043278 0.000000 0.000000
# 5 0.000000 0.000000 0.000000 0.000000 0.037153 0.000000
# 6 0.000000 0.000000 0.000000 0.000000 0.000000 0.035512
#
#
# Mechanical properties :
#
#
# Convention : Reuss Voigt Hill
#
# Bulk Modulus (GPa) = 29.39518 32.80407 31.09962
# Shear Modulus (GPa) = 23.74215 25.63884 24.69049
#
# Velocity S-wave (km/s) = 3.50396 3.64123 3.57325
# Velocity P-wave (km/s) = 5.61884 5.88574 5.75384
#
# Compressibility (1/GPa) = 0.03401919
#
# Stress axis : x y z
#
# Youngs Moduli (GPa) = 50.07475 83.20229 37.48496
#
# Poissons Ratio (x) = 0.38550 0.30266
# Poissons Ratio (y) = 0.23201 -0.01439
# Poissons Ratio (z) = 0.40431 -0.03193
#
# Static dielectric constant tensor:
#      x y z
#    x 1.683060 0.000000 0.000000 
#    y 0.000000 1.672090 0.000000 
#    z 0.000000 0.000000 1.664230 
# 
# From -- ./inp_files/4196.got.cif
#   From: 2010.05.17/outbox.cif.g08.bks.cpg/sg26_3_cif.got.tgz:4196.got - 2010.06.04 01:07:29.
