data_PCOD9338544
_publ_section_title
;
Structure prediction by ZEFSAII (Michael W. Deem and Ramdas Pophale) SiO2 
 PCOD9338544
Probable space group: P M C 21
;
_chemical_formula_sum "Si O2"
_cell_formula_units_Z 32
_cell_length_a 19.306435
_cell_length_b 5.237324
_cell_length_c 13.749444
_cell_angle_alpha 90.000000
_cell_angle_beta 90.000000
_cell_angle_gamma 90.000000
_cell_volume 1390.262042
_symmetry_space_group_name_H-M "P M C 21"
_symmetry_group_IT_number 26
_symmetry_cell_setting 'orthorhombic'
loop_
_space_group_symop_operation_xyz
x,y,z
-x,-y,1/2+z
-x,y,z
x,-y,1/2+z
loop_
_atom_site_type_symbol
_atom_site_label
_atom_site_fract_x
_atom_site_fract_y
_atom_site_fract_z
Si Si1 0.160993 0.202846 0.990440
Si Si2 0.700961 0.385867 0.165554
Si Si3 0.288526 0.121578 0.549822
Si Si4 0.579578 0.897460 0.909992
Si Si5 0.422340 0.606834 0.281515
Si Si6 0.924812 0.175821 0.420310
Si Si7 0.826329 0.502209 0.801792
Si Si8 0.917750 0.463049 0.628197
O O1 0.191934 0.368472 0.903492
O O2 0.088515 0.118157 0.941276
O O3 0.216809 0.980127 0.004585
O O4 0.133862 0.308840 0.093123
O O5 0.698943 0.092058 0.133814
O O6 0.629143 0.506694 0.200164
O O7 0.755759 0.420738 0.250957
O O8 0.722653 0.585785 0.081354
O O9 0.357051 0.098677 0.484578
O O10 0.500000 0.944518 0.946564
O O11 0.579301 0.617840 0.861753
O O12 0.593859 0.121628 0.831173
O O13 0.500000 0.625943 0.241982
O O14 0.871311 0.262054 0.339669
O O15 0.916490 0.297277 0.528460
O O16 0.000000 0.239707 0.384398
O O17 0.876698 0.360450 0.723068
O O18 0.000000 0.516493 0.646637
#
# Coordination Sequence:
#
# PCOD9338544 Si02
#       8
#     4   4   4   4   4   4   4   4
#     4  11  24  40  65  90 131 175 222 283 339 409
#     4  12  26  42  66  99 135 176 226 280 336 397
#     4  12  26  42  68  98 137 179 227 280 337 401
#     4  10  22  42  68  98 135 180 225 274 335 399
#     4  10  22  42  68  98 135 177 225 277 333 397
#     4  10  23  40  64  93 124 170 221 276 342 410
#     4  11  24  40  64  93 128 174 222 279 340 408
#     4  10  21  42  63  89 129 165 218 281 340 407
#
# _framework density 23.017243000000001
#
# number of rings (size 3 to 8) (size 9 to 14) (size 15 to 20)
#    0.000    1.250    1.250    3.750    5.250    3.500 
#    0.000    1.250    0.000    0.000    0.000    0.000 
#    0.000    0.000    0.000    0.000    0.000    0.000 
#
# Total GULP energy -178595.034777 kJ/mol
# GULP energy per Si atom -5581.094837 kJ/mol
# Density = 2.296485 g / cm^3
# Si number density = 23.017243 Si / 1000 Ang^3
#
#
#
# Elastic Constant Matrix: (Units=GPa)
#
#
# Indices 1 2 3 4 5 6 
#
# 1 93.6593 -6.8030 34.3726 0.0000 0.0000 0.0000
# 2 -6.8030 34.4855 2.4937 0.0000 0.0000 0.0000
# 3 34.3726 2.4937 71.9188 0.0000 0.0000 0.0000
# 4 0.0000 0.0000 0.0000 20.3612 0.0000 0.0000
# 5 0.0000 0.0000 0.0000 0.0000 42.8654 0.0000
# 6 0.0000 0.0000 0.0000 0.0000 0.0000 25.3365
#
#
#
# Elastic Compliance Matrix: (Units=1/GPa)
#
#
# Indices 1 2 3 4 5 6 
#
# 1 0.013267 0.003083 -0.006448 0.000000 0.000000 0.000000
# 2 0.003083 0.029787 -0.002507 0.000000 0.000000 0.000000
# 3 -0.006448 -0.002507 0.017073 0.000000 0.000000 0.000000
# 4 0.000000 0.000000 0.000000 0.049113 0.000000 0.000000
# 5 0.000000 0.000000 0.000000 0.000000 0.023329 0.000000
# 6 0.000000 0.000000 0.000000 0.000000 0.000000 0.039469
#
#
# Mechanical properties :
#
#
# Convention : Reuss Voigt Hill
#
# Bulk Modulus (GPa) = 20.66717 28.91001 24.78859
# Shear Modulus (GPa) = 25.01142 29.04597 27.02869
#
# Velocity S-wave (km/s) = 3.30000 3.55621 3.43049
# Velocity P-wave (km/s) = 4.84958 5.42675 5.14626
#
# Compressibility (1/GPa) = 0.04838593
#
# Stress axis : x y z
#
# Youngs Moduli (GPa) = 75.37336 33.57141 58.57156
#
# Poissons Ratio (x) = -0.10352 0.37766
# Poissons Ratio (y) = -0.23241 0.14681
# Poissons Ratio (z) = 0.48599 0.08415
#
# Static dielectric constant tensor:
#      x y z
#    x 1.883370 0.000000 0.000000 
#    y 0.000000 1.929580 0.000000 
#    z 0.000000 0.000000 1.894040 
# 
# From -- ./inp_files/4725.got.cif
#   From: 2010.05.17/outbox.cif.g08.bks.cpg/sg26_3_cif.got.tgz:4725.got - 2010.06.04 01:07:29.
