data_PCOD9338559
_publ_section_title
;
Structure prediction by ZEFSAII (Michael W. Deem and Ramdas Pophale) SiO2 
 PCOD9338559
Probable space group: P M C 21
;
_chemical_formula_sum "Si O2"
_cell_formula_units_Z 24
_cell_length_a 7.514682
_cell_length_b 12.238194
_cell_length_c 10.463560
_cell_angle_alpha 90.000000
_cell_angle_beta 90.000000
_cell_angle_gamma 90.000000
_cell_volume 962.293184
_symmetry_space_group_name_H-M "P M C 21"
_symmetry_group_IT_number 26
_symmetry_cell_setting 'orthorhombic'
loop_
_space_group_symop_operation_xyz
x,y,z
-x,-y,1/2+z
-x,y,z
x,-y,1/2+z
loop_
_atom_site_type_symbol
_atom_site_label
_atom_site_fract_x
_atom_site_fract_y
_atom_site_fract_z
Si Si1 0.210961 0.172123 0.496720
Si Si2 0.298770 0.484009 0.892286
Si Si3 0.794153 0.737630 0.267016
Si Si4 0.298428 0.834763 0.717649
Si Si5 0.720677 0.608630 0.649444
Si Si6 0.287345 0.032333 0.863838
O O1 0.275044 0.226639 0.626912
O O2 0.301310 0.210961 0.365069
O O3 0.000000 0.190648 0.486806
O O4 0.243759 0.041170 0.487099
O O5 0.500000 0.523742 0.912405
O O6 0.303622 0.363059 0.830666
O O7 0.216676 0.558906 0.783153
O O8 0.218080 0.465941 0.031800
O O9 0.783852 0.847198 0.351506
O O10 0.000000 0.705766 0.254075
O O11 0.500000 0.852489 0.671463
O O12 0.220949 0.734919 0.638110
O O13 0.216216 0.952490 0.750113
O O14 0.500000 0.608980 0.647725
O O15 0.500000 0.037635 0.852552
#
# Coordination Sequence:
#
# PCOD9338559 Si02
#       6
#     4   4   4   4   4   4
#     4   9  19  35  55  82 115 154 194 240 295 349
#     4  10  22  38  62  89 117 155 199 250 303 354
#     4  11  23  38  56  85 124 159 198 244 296 358
#     4   8  17  34  57  85 114 150 194 238 291 353
#     4   9  19  37  61  91 119 148 196 253 299 349
#     4   9  19  34  57  86 115 154 197 241 290 351
#
# _framework density 24.940422999999999
#
# number of rings (size 3 to 8) (size 9 to 14) (size 15 to 20)
#    1.000    1.667    0.000    1.000    2.333    4.000 
#    0.000    4.167    0.000    0.000    0.000    0.000 
#    0.000    0.000    0.000    0.000    0.000    0.000 
#
# Total GULP energy -133862.876767 kJ/mol
# GULP energy per Si atom -5577.619865 kJ/mol
# Density = 2.488366 g / cm^3
# Si number density = 24.940423 Si / 1000 Ang^3
#
#
#
# Elastic Constant Matrix: (Units=GPa)
#
#
# Indices 1 2 3 4 5 6 
#
# 1 87.6409 -11.2860 -11.7330 0.0000 0.0000 0.0000
# 2 -11.2860 89.6308 6.0188 0.0000 0.0000 0.0000
# 3 -11.7330 6.0188 87.1963 0.0000 0.0000 0.0000
# 4 0.0000 0.0000 0.0000 28.0504 0.0000 0.0000
# 5 0.0000 0.0000 0.0000 0.0000 2.5776 0.0000
# 6 0.0000 0.0000 0.0000 0.0000 0.0000 -26.4515
#
#
#
# Elastic Compliance Matrix: (Units=1/GPa)
#
#
# Indices 1 2 3 4 5 6 
#
# 1 0.011788 0.001384 0.001491 0.000000 0.000000 0.000000
# 2 0.001384 0.011371 -0.000599 0.000000 0.000000 0.000000
# 3 0.001491 -0.000599 0.011710 0.000000 0.000000 0.000000
# 4 0.000000 0.000000 0.000000 0.035650 0.000000 0.000000
# 5 0.000000 0.000000 0.000000 0.000000 0.387952 0.000000
# 6 0.000000 0.000000 0.000000 0.000000 0.000000 -0.037805
#
#
# Mechanical properties :
#
#
# Convention : Reuss Voigt Hill
#
# Bulk Modulus (GPa) = 25.36653 25.60750 25.48702
# Shear Modulus (GPa) = 11.64809 19.59984 15.62396
#
# Velocity S-wave (km/s) = 2.16345 2.80637 2.50562
# Velocity P-wave (km/s) = 4.05384 4.55969 4.31418
#
# Compressibility (1/GPa) = 0.03942202
#
# Stress axis : x y z
#
# Youngs Moduli (GPa) = 84.83193 87.94012 85.39511
#
# Poissons Ratio (x) = -0.12173 -0.12729
# Poissons Ratio (y) = -0.11742 0.05112
# Poissons Ratio (z) = -0.12645 0.05265
#
# Static dielectric constant tensor:
#      x y z
#    x 1.982380 0.000000 0.000000 
#    y 0.000000 2.049050 0.000000 
#    z 0.000000 0.000000 2.030530 
# 
# From -- ./inp_files/2818.got.cif
#   From: 2010.05.17/outbox.cif.g08.bks.cpg/sg26_2_cif.got.tgz:2818.got - 2010.06.04 01:07:29.
