data_PCOD9338822
_publ_section_title
;
Structure prediction by ZEFSAII (Michael W. Deem and Ramdas Pophale) SiO2 
 PCOD9338822
Probable space group: P C C 2
;
_chemical_formula_sum "Si O2"
_cell_formula_units_Z 32
_cell_length_a 11.838783
_cell_length_b 8.700135
_cell_length_c 17.022591
_cell_angle_alpha 90.000000
_cell_angle_beta 90.000000
_cell_angle_gamma 90.000000
_cell_volume 1753.310026
_symmetry_space_group_name_H-M "P C C 2"
_symmetry_group_IT_number 27
_symmetry_cell_setting 'orthorhombic'
loop_
_space_group_symop_operation_xyz
x,y,z
-x,-y,z
-x,y,1/2+z
x,-y,1/2+z
loop_
_atom_site_type_symbol
_atom_site_label
_atom_site_fract_x
_atom_site_fract_y
_atom_site_fract_z
Si Si1 0.368157 0.822108 0.382880
Si Si2 0.993246 0.176882 0.771724
Si Si3 0.806555 0.605125 0.792165
Si Si4 0.630971 0.178763 0.850338
Si Si5 0.805924 0.604950 0.441193
Si Si6 0.243743 0.695293 0.524976
Si Si7 0.755762 0.305045 0.708485
Si Si8 0.993905 0.176962 0.461962
O O1 0.287838 0.716297 0.329209
O O2 0.499556 0.793461 0.366748
O O3 0.336012 0.780759 0.471922
O O4 0.342904 0.000490 0.366467
O O5 0.095961 0.292100 0.753149
O O6 0.876770 0.243326 0.739140
O O7 0.999874 0.173021 0.866836
O O8 0.000000 0.000000 0.744601
O O9 0.848746 0.499980 0.866724
O O10 0.755210 0.484635 0.731178
O O11 0.711195 0.284648 0.904015
O O12 0.662659 0.220719 0.761295
O O13 0.754804 0.484193 0.502121
O O14 0.902949 0.708400 0.480302
O O15 0.256784 0.720579 0.616725
O O16 0.122213 0.755864 0.494765
O O17 0.000000 0.000000 0.489050
#
# Coordination Sequence:
#
# PCOD9338822 Si02
#       8
#     4   4   4   4   4   4   4   4
#     4  10  21  41  66  88 110 158 207 239 289 362
#     4  11  20  34  59  88 121 160 200 234 286 360
#     4  10  20  34  57  85 117 161 195 233 286 360
#     4  10  21  41  66  88 110 158 207 239 289 362
#     4  10  20  34  57  85 117 161 195 233 286 360
#     4  11  24  38  59  92 125 151 193 252 298 338
#     4  11  24  38  59  92 125 151 193 252 298 338
#     4  11  20  34  59  88 121 160 200 234 286 360
#
# _framework density 18.251194000000002
#
# number of rings (size 3 to 8) (size 9 to 14) (size 15 to 20)
#    0.000    1.500    5.000    2.250    0.000    7.000 
#    0.000    8.750    0.000    0.000    0.000    0.000 
#    0.000    0.000    0.000    0.000    0.000    0.000 
#
# Total GULP energy -178638.230613 kJ/mol
# GULP energy per Si atom -5582.444707 kJ/mol
# Density = 1.820965 g / cm^3
# Si number density = 18.251194 Si / 1000 Ang^3
#
#
#
# Elastic Constant Matrix: (Units=GPa)
#
#
# Indices 1 2 3 4 5 6 
#
# 1 105.4038 76.7038 63.9084 0.0000 0.0000 0.0000
# 2 76.7038 137.1426 50.0983 0.0000 0.0000 0.0000
# 3 63.9084 50.0983 130.9045 0.0000 0.0000 0.0000
# 4 0.0000 0.0000 0.0000 4.7146 0.0000 0.0000
# 5 0.0000 0.0000 0.0000 0.0000 13.3272 0.0000
# 6 0.0000 0.0000 0.0000 0.0000 0.0000 76.0814
#
#
#
# Elastic Compliance Matrix: (Units=1/GPa)
#
#
# Indices 1 2 3 4 5 6 
#
# 1 0.019583 -0.008673 -0.006241 0.000000 0.000000 0.000000
# 2 -0.008673 0.012318 -0.000480 0.000000 0.000000 0.000000
# 3 -0.006241 -0.000480 0.010870 0.000000 0.000000 0.000000
# 4 0.000000 0.000000 0.000000 0.212108 0.000000 0.000000
# 5 0.000000 0.000000 0.000000 0.000000 0.075035 0.000000
# 6 0.000000 0.000000 0.000000 0.000000 0.000000 0.013144
#
#
# Mechanical properties :
#
#
# Convention : Reuss Voigt Hill
#
# Bulk Modulus (GPa) = 83.45639 83.87468 83.66553
# Shear Modulus (GPa) = 13.23316 31.00733 22.12024
#
# Velocity S-wave (km/s) = 2.69561 4.12627 3.48514
# Velocity P-wave (km/s) = 7.45079 8.29198 7.88261
#
# Compressibility (1/GPa) = 0.01198231
#
# Stress axis : x y z
#
# Youngs Moduli (GPa) = 51.06519 81.18415 91.99693
#
# Poissons Ratio (x) = 0.70409 0.57418
# Poissons Ratio (y) = 0.44287 0.04416
# Poissons Ratio (z) = 0.31872 0.03897
#
# Static dielectric constant tensor:
#      x y z
#    x 1.615720 0.000000 0.000000 
#    y 0.000000 1.657260 0.000000 
#    z 0.000000 0.000000 1.606110 
# 
# From -- ./inp_files/4460.got.cif
#   From: 2010.05.17/outbox.cif.g08.bks.cpg/sg27_3_cif.got.tgz:4460.got - 2010.06.04 01:11:05.
