data_PCOD9338796
_publ_section_title
;
Structure prediction by ZEFSAII (Michael W. Deem and Ramdas Pophale) SiO2 
 PCOD9338796
Probable space group: P C C 2
;
_chemical_formula_sum "Si O2"
_cell_formula_units_Z 32
_cell_length_a 11.230327
_cell_length_b 9.208985
_cell_length_c 14.252363
_cell_angle_alpha 90.000000
_cell_angle_beta 90.000000
_cell_angle_gamma 90.000000
_cell_volume 1473.978140
_symmetry_space_group_name_H-M "P C C 2"
_symmetry_group_IT_number 27
_symmetry_cell_setting 'orthorhombic'
loop_
_space_group_symop_operation_xyz
x,y,z
-x,-y,z
-x,y,1/2+z
x,-y,1/2+z
loop_
_atom_site_type_symbol
_atom_site_label
_atom_site_fract_x
_atom_site_fract_y
_atom_site_fract_z
Si Si1 0.639755 0.980622 0.264170
Si Si2 0.973294 0.829432 0.441267
Si Si3 0.967594 0.830879 0.227999
Si Si4 0.744325 0.180204 0.604727
Si Si5 0.784053 0.363504 0.439720
Si Si6 0.366451 0.939810 0.981757
Si Si7 0.237628 0.668379 0.029866
Si Si8 0.769895 0.281869 0.232886
O O1 0.710172 0.122608 0.228843
O O2 0.500000 0.000000 0.254574
O O3 0.672240 0.843399 0.200379
O O4 0.666687 0.967226 0.373897
O O5 0.920356 0.817394 0.335098
O O6 0.878329 0.770156 0.514953
O O7 0.093104 0.731019 0.442520
O O8 0.000000 0.000000 0.456158
O O9 0.875571 0.791817 0.146483
O O10 0.088018 0.739479 0.228896
O O11 0.000000 0.000000 0.215493
O O12 0.709340 0.295684 0.525853
O O13 0.721864 0.031074 0.547874
O O14 0.792077 0.530913 0.466154
O O15 0.736269 0.345075 0.334327
O O16 0.500000 0.000000 0.998352
O O17 0.347951 0.769740 0.999914
O O18 0.258523 0.630617 0.138756
#
# Coordination Sequence:
#
# PCOD9338796 Si02
#       8
#     4   4   4   4   4   4   4   4
#     4  11  23  41  71 100 132 175 237 298 333 400
#     4  10  22  39  66  99 136 181 232 280 337 422
#     4  10  19  34  62  99 130 167 223 288 340 395
#     4  12  21  39  68  97 131 178 233 280 343 414
#     4  11  26  42  63  98 146 178 219 287 358 427
#     4  11  24  42  70 100 132 180 245 296 345 411
#     4  12  24  41  67  97 138 183 222 280 362 423
#     4  11  23  41  63  98 138 173 229 289 344 415
#
# _framework density 21.709956999999999
#
# number of rings (size 3 to 8) (size 9 to 14) (size 15 to 20)
#    0.000    1.000    3.750    3.000    1.750    3.000 
#    0.000    3.125    0.000    1.500    0.000    0.000 
#    0.000    0.000    0.000    0.000    0.000    0.000 
#
# Total GULP energy -178744.244346 kJ/mol
# GULP energy per Si atom -5585.757636 kJ/mol
# Density = 2.166054 g / cm^3
# Si number density = 21.709957 Si / 1000 Ang^3
#
#
#
# Elastic Constant Matrix: (Units=GPa)
#
#
# Indices 1 2 3 4 5 6 
#
# 1 68.6242 19.7030 25.8133 0.0000 0.0000 0.0000
# 2 19.7030 98.7210 29.7283 0.0000 0.0000 0.0000
# 3 25.8133 29.7283 155.5976 0.0000 0.0000 0.0000
# 4 0.0000 0.0000 0.0000 39.0271 0.0000 0.0000
# 5 0.0000 0.0000 0.0000 0.0000 -351.7493 0.0000
# 6 0.0000 0.0000 0.0000 0.0000 0.0000 14.9164
#
#
#
# Elastic Compliance Matrix: (Units=1/GPa)
#
#
# Indices 1 2 3 4 5 6 
#
# 1 0.016130 -0.002561 -0.002187 0.000000 0.000000 0.000000
# 2 -0.002561 0.011154 -0.001706 0.000000 0.000000 0.000000
# 3 -0.002187 -0.001706 0.007116 0.000000 0.000000 0.000000
# 4 0.000000 0.000000 0.000000 0.025623 0.000000 0.000000
# 5 0.000000 0.000000 0.000000 0.000000 -0.002843 0.000000
# 6 0.000000 0.000000 0.000000 0.000000 0.000000 0.067040
#
#
# Mechanical properties :
#
#
# Convention : Reuss Voigt Hill
#
# Bulk Modulus (GPa) = 46.52800 52.60357 49.56579
# Shear Modulus (GPa) = 34.65192 -43.04795 -4.19801
#
# Velocity S-wave (km/s) = 3.99949 -4.45777 -1.39208
# Velocity P-wave (km/s) = 6.54264 1.48757 4.50518
#
# Compressibility (1/GPa) = 0.02149244
#
# Stress axis : x y z
#
# Youngs Moduli (GPa) = 61.99678 89.65005 140.53621
#
# Poissons Ratio (x) = 0.22957 0.30730
# Poissons Ratio (y) = 0.15876 0.23980
# Poissons Ratio (z) = 0.13557 0.15297
#
# Static dielectric constant tensor:
#      x y z
#    x 1.829820 0.000000 0.000000 
#    y 0.000000 1.786250 0.000000 
#    z 0.000000 0.000000 1.840700 
# 
# From -- ./inp_files/3661.got.cif
#   From: 2010.05.17/outbox.cif.g08.bks.cpg/sg27_2_cif.got.tgz:3661.got - 2010.06.04 01:11:05.
