data_PCOD9338932
_publ_section_title
;
Structure prediction by ZEFSAII (Michael W. Deem and Ramdas Pophale) SiO2 
 PCOD9338932
Probable space group: P C C 2
;
_chemical_formula_sum "Si O2"
_cell_formula_units_Z 32
_cell_length_a 13.515397
_cell_length_b 12.796536
_cell_length_c 9.116341
_cell_angle_alpha 90.000000
_cell_angle_beta 90.000000
_cell_angle_gamma 90.000000
_cell_volume 1576.673585
_symmetry_space_group_name_H-M "P C C 2"
_symmetry_group_IT_number 27
_symmetry_cell_setting 'orthorhombic'
loop_
_space_group_symop_operation_xyz
x,y,z
-x,-y,z
-x,y,1/2+z
x,-y,1/2+z
loop_
_atom_site_type_symbol
_atom_site_label
_atom_site_fract_x
_atom_site_fract_y
_atom_site_fract_z
Si Si1 0.258133 0.974483 0.771350
Si Si2 0.388980 0.795176 0.638850
Si Si3 0.108337 0.540645 0.098512
Si Si4 0.839419 0.717858 0.790201
Si Si5 0.215601 0.325300 0.104813
Si Si6 0.443842 0.892278 0.337169
Si Si7 0.067715 0.728607 0.867763
Si Si8 0.169901 0.888899 0.063391
O O1 0.343980 0.062144 0.766510
O O2 0.162705 0.020452 0.686290
O O3 0.304331 0.876955 0.687773
O O4 0.238332 0.939450 0.937662
O O5 0.329946 0.686353 0.652279
O O6 0.419118 0.822117 0.475142
O O7 0.483994 0.824962 0.734935
O O8 0.164484 0.601252 0.227543
O O9 0.173794 0.439686 0.065440
O O10 0.000000 0.500000 0.146590
O O11 0.085981 0.625487 0.969763
O O12 0.796210 0.791282 0.663601
O O13 0.957362 0.735025 0.806579
O O14 0.795170 0.735025 0.950134
O O15 0.144172 0.281766 0.233045
O O16 0.500000 0.000000 0.383144
O O17 0.085998 0.831720 0.966686
#
# Coordination Sequence:
#
# PCOD9338932 Si02
#       8
#     4   4   4   4   4   4   4   4
#     4  11  21  41  63  91 127 165 221 273 338 396
#     4  11  23  37  62  96 128 164 213 279 330 397
#     4  11  21  38  66  97 130 174 224 277 327 387
#     4  11  23  39  62  96 133 179 222 276 334 386
#     4  12  22  36  63  98 140 167 221 281 334 392
#     4  10  21  38  64  92 125 166 215 274 332 392
#     4  11  22  40  61  93 132 177 226 277 330 388
#     4  11  24  39  63  90 130 175 221 287 323 397
#
# _framework density 20.295893
#
# number of rings (size 3 to 8) (size 9 to 14) (size 15 to 20)
#    0.000    1.000    5.000    3.375    1.750    0.000 
#    0.000    1.875    0.000    0.000    0.000   28.000 
#    0.000    0.000    0.000    0.000    0.000    0.000 
#
# Total GULP energy -178413.521365 kJ/mol
# GULP energy per Si atom -5575.422543 kJ/mol
# Density = 2.024970 g / cm^3
# Si number density = 20.295893 Si / 1000 Ang^3
#
#
#
# Elastic Constant Matrix: (Units=GPa)
#
#
# Indices 1 2 3 4 5 6 
#
# 1 74.5830 43.2158 23.1471 0.0000 0.0000 0.0000
# 2 43.2158 62.4521 33.8376 0.0000 0.0000 0.0000
# 3 23.1471 33.8376 111.0599 0.0000 0.0000 0.0000
# 4 0.0000 0.0000 0.0000 25.1082 0.0000 0.0000
# 5 0.0000 0.0000 0.0000 0.0000 27.2671 0.0000
# 6 0.0000 0.0000 0.0000 0.0000 0.0000 38.9103
#
#
#
# Elastic Compliance Matrix: (Units=1/GPa)
#
#
# Indices 1 2 3 4 5 6 
#
# 1 0.022383 -0.015523 0.000065 0.000000 0.000000 0.000000
# 2 -0.015523 0.029944 -0.005888 0.000000 0.000000 0.000000
# 3 0.000065 -0.005888 0.010785 0.000000 0.000000 0.000000
# 4 0.000000 0.000000 0.000000 0.039828 0.000000 0.000000
# 5 0.000000 0.000000 0.000000 0.000000 0.036674 0.000000
# 6 0.000000 0.000000 0.000000 0.000000 0.000000 0.025700
#
#
# Mechanical properties :
#
#
# Convention : Reuss Voigt Hill
#
# Bulk Modulus (GPa) = 48.97617 49.83291 49.40454
# Shear Modulus (GPa) = 23.27602 28.11675 25.69639
#
# Velocity S-wave (km/s) = 3.39017 3.72606 3.56207
# Velocity P-wave (km/s) = 6.28552 6.56642 6.42750
#
# Compressibility (1/GPa) = 0.02041809
#
# Stress axis : x y z
#
# Youngs Moduli (GPa) = 44.67761 33.39513 92.72450
#
# Poissons Ratio (x) = 0.51841 -0.00600
# Poissons Ratio (y) = 0.69355 0.54597
# Poissons Ratio (z) = -0.00289 0.19663
#
# Static dielectric constant tensor:
#      x y z
#    x 1.745100 0.000000 0.000000 
#    y 0.000000 1.793830 0.000000 
#    z 0.000000 0.000000 1.758410 
# 
# From -- ./inp_files/1612.got.cif
#   From: 2010.05.17/outbox.cif.g08.bks.cpg/sg27_1_cif.got.tgz:1612.got - 2010.06.04 01:11:05.
