data_PCOD9338594
_publ_section_title
;
Structure prediction by ZEFSAII (Michael W. Deem and Ramdas Pophale) SiO2 
 PCOD9338594
Probable space group: P M C 21
;
_chemical_formula_sum "Si O2"
_cell_formula_units_Z 32
_cell_length_a 8.513349
_cell_length_b 12.331955
_cell_length_c 15.361386
_cell_angle_alpha 90.000000
_cell_angle_beta 90.000000
_cell_angle_gamma 90.000000
_cell_volume 1612.734108
_symmetry_space_group_name_H-M "P M C 21"
_symmetry_group_IT_number 26
_symmetry_cell_setting 'orthorhombic'
loop_
_space_group_symop_operation_xyz
x,y,z
-x,-y,1/2+z
-x,y,z
x,-y,1/2+z
loop_
_atom_site_type_symbol
_atom_site_label
_atom_site_fract_x
_atom_site_fract_y
_atom_site_fract_z
Si Si1 0.188490 0.371020 0.591830
Si Si2 0.312754 0.509467 0.754603
Si Si3 0.680335 0.747506 0.729321
Si Si4 0.812872 0.964495 0.442742
Si Si5 0.690703 0.011997 0.254389
Si Si6 0.679172 0.255221 0.021213
Si Si7 0.311349 0.873918 0.083972
Si Si8 0.184807 0.466361 0.939915
O O1 0.240918 0.438923 0.676691
O O2 0.257691 0.250227 0.592286
O O3 0.238172 0.438276 0.505623
O O4 0.000000 0.364663 0.591307
O O5 0.500000 0.514524 0.739182
O O6 0.247682 0.633042 0.756827
O O7 0.275688 0.462942 0.849157
O O8 0.500000 0.748371 0.762970
O O9 0.751099 0.863685 0.752953
O O10 0.675501 0.744186 0.625174
O O11 0.743919 0.859328 0.490228
O O12 0.000000 0.961272 0.441979
O O13 0.748261 0.963335 0.344756
O O14 0.756272 0.068567 0.497923
O O15 0.500000 0.014707 0.252476
O O16 0.739418 0.943687 0.169199
O O17 0.500000 0.270195 0.989856
O O18 0.784408 0.353382 0.988162
O O19 0.500000 0.878325 0.079624
O O20 0.000000 0.480417 0.922762
#
# Coordination Sequence:
#
# PCOD9338594 Si02
#       8
#     4   4   4   4   4   4   4   4
#     4  11  25  44  64  92 134 172 209 265 328 385
#     4  11  23  41  67  97 125 167 216 263 315 380
#     4   9  19  39  67  95 121 154 210 269 315 364
#     4  12  26  42  63  97 134 170 208 259 326 388
#     4  10  22  43  67  94 124 165 217 267 314 373
#     4  11  21  42  70  94 122 163 216 269 313 377
#     4  11  24  44  69  93 125 171 221 268 314 376
#     4  11  25  43  63  94 131 170 209 262 327 383
#
# _framework density 19.842079999999999
#
# number of rings (size 3 to 8) (size 9 to 14) (size 15 to 20)
#    0.000    1.250    2.500    3.000    3.500    2.500 
#    0.000    0.625    0.000    0.000    0.000    0.000 
#    0.000    0.000    0.000    0.000    0.000    0.000 
#
# Total GULP energy -178817.019604 kJ/mol
# GULP energy per Si atom -5588.031863 kJ/mol
# Density = 1.979692 g / cm^3
# Si number density = 19.842080 Si / 1000 Ang^3
#
#
#
# Elastic Constant Matrix: (Units=GPa)
#
#
# Indices 1 2 3 4 5 6 
#
# 1 35.4703 -7.7195 4.1474 0.0000 0.0000 0.0000
# 2 -7.7195 57.5112 -23.1378 0.0000 0.0000 0.0000
# 3 4.1474 -23.1378 46.1918 0.0000 0.0000 0.0000
# 4 0.0000 0.0000 0.0000 26.9998 0.0000 0.0000
# 5 0.0000 0.0000 0.0000 0.0000 26.5257 0.0000
# 6 0.0000 0.0000 0.0000 0.0000 0.0000 37.4105
#
#
#
# Elastic Compliance Matrix: (Units=1/GPa)
#
#
# Indices 1 2 3 4 5 6 
#
# 1 0.029066 0.003571 -0.000821 0.000000 0.000000 0.000000
# 2 0.003571 0.022215 0.010807 0.000000 0.000000 0.000000
# 3 -0.000821 0.010807 0.027136 0.000000 0.000000 0.000000
# 4 0.000000 0.000000 0.000000 0.037037 0.000000 0.000000
# 5 0.000000 0.000000 0.000000 0.000000 0.037699 0.000000
# 6 0.000000 0.000000 0.000000 0.000000 0.000000 0.026730
#
#
# Mechanical properties :
#
#
# Convention : Reuss Voigt Hill
#
# Bulk Modulus (GPa) = 9.47585 9.52816 9.50201
# Shear Modulus (GPa) = 26.60333 29.24610 27.92472
#
# Velocity S-wave (km/s) = 3.66560 3.84336 3.75553
# Velocity P-wave (km/s) = 4.76461 4.95052 4.85846
#
# Compressibility (1/GPa) = 0.10553145
#
# Stress axis : x y z
#
# Youngs Moduli (GPa) = 34.40476 45.01430 36.85150
#
# Poissons Ratio (x) = -0.16075 0.03025
# Poissons Ratio (y) = -0.12286 -0.39826
# Poissons Ratio (z) = 0.02824 -0.48647
#
# Static dielectric constant tensor:
#      x y z
#    x 1.681720 0.000000 0.000000 
#    y 0.000000 1.672530 0.000000 
#    z 0.000000 0.000000 1.655140 
# 
# From -- ./inp_files/4258.got.cif
#   From: 2010.05.17/outbox.cif.g08.bks.cpg/sg26_3_cif.got.tgz:4258.got - 2010.06.04 01:07:29.
