data_PCOD9338288
_publ_section_title
;
Structure prediction by ZEFSAII (Michael W. Deem and Ramdas Pophale) SiO2 
 PCOD9338288
Probable space group: P M C 21
;
_chemical_formula_sum "Si O2"
_cell_formula_units_Z 24
_cell_length_a 7.538060
_cell_length_b 7.590899
_cell_length_c 19.684145
_cell_angle_alpha 90.000000
_cell_angle_beta 90.000000
_cell_angle_gamma 90.000000
_cell_volume 1126.339613
_symmetry_space_group_name_H-M "P M C 21"
_symmetry_group_IT_number 26
_symmetry_cell_setting 'orthorhombic'
loop_
_space_group_symop_operation_xyz
x,y,z
-x,-y,1/2+z
-x,y,z
x,-y,1/2+z
loop_
_atom_site_type_symbol
_atom_site_label
_atom_site_fract_x
_atom_site_fract_y
_atom_site_fract_z
Si Si1 0.285377 0.250460 0.604970
Si Si2 0.205743 0.809952 0.951447
Si Si3 0.294510 0.480285 0.865152
Si Si4 0.717450 0.461660 0.214529
Si Si5 0.283158 0.853634 0.625497
Si Si6 0.293254 0.212086 0.975467
O O1 0.500000 0.254212 0.602819
O O2 0.225165 0.269044 0.527343
O O3 0.227443 0.398107 0.657559
O O4 0.228714 0.056493 0.629458
O O5 0.288683 0.672579 0.899255
O O6 0.000000 0.827095 0.934870
O O7 0.283463 0.007198 0.953724
O O8 0.500000 0.426658 0.856202
O O9 0.217932 0.490886 0.789561
O O10 0.214432 0.341470 0.918863
O O11 0.500000 0.461686 0.216220
O O12 0.772284 0.270741 0.186816
O O13 0.500000 0.853218 0.623653
O O14 0.220403 0.780448 0.552204
O O15 0.500000 0.262756 0.982197
#
# Coordination Sequence:
#
# PCOD9338288 Si02
#       6
#     4   4   4   4   4   4
#     4   9  17  32  53  75 100 132 173 218 260 306
#     4  11  22  35  53  77 106 141 178 217 262 311
#     4  10  20  34  55  82 109 138 174 217 264 314
#     4   9  17  29  50  80 106 129 164 214 267 312
#     4   8  14  26  47  74 100 125 159 208 258 299
#     4   9  18  34  56  78 101 135 178 220 259 304
#
# _framework density 21.307957999999999
#
# number of rings (size 3 to 8) (size 9 to 14) (size 15 to 20)
#    0.000    2.667    0.000    3.500    0.000    4.667 
#    0.000    5.833    0.000    8.000    0.000    0.000 
#    0.000    0.000    0.000    0.000    0.000    0.000 
#
# Total GULP energy -133966.878537 kJ/mol
# GULP energy per Si atom -5581.953272 kJ/mol
# Density = 2.125946 g / cm^3
# Si number density = 21.307958 Si / 1000 Ang^3
#
#
#
# Elastic Constant Matrix: (Units=GPa)
#
#
# Indices 1 2 3 4 5 6 
#
# 1 51.7032 -15.3159 -12.8362 0.0000 0.0000 0.0000
# 2 -15.3159 43.9317 29.4206 0.0000 0.0000 0.0000
# 3 -12.8362 29.4206 67.2498 0.0000 0.0000 0.0000
# 4 0.0000 0.0000 0.0000 6.3396 0.0000 0.0000
# 5 0.0000 0.0000 0.0000 0.0000 421.6279 0.0000
# 6 0.0000 0.0000 0.0000 0.0000 0.0000 71.6626
#
#
#
# Elastic Compliance Matrix: (Units=1/GPa)
#
#
# Indices 1 2 3 4 5 6 
#
# 1 0.021634 0.006756 0.001174 0.000000 0.000000 0.000000
# 2 0.006756 0.034305 -0.013718 0.000000 0.000000 0.000000
# 3 0.001174 -0.013718 0.021095 0.000000 0.000000 0.000000
# 4 0.000000 0.000000 0.000000 0.157738 0.000000 0.000000
# 5 0.000000 0.000000 0.000000 0.000000 0.002372 0.000000
# 6 0.000000 0.000000 0.000000 0.000000 0.000000 0.013954
#
#
# Mechanical properties :
#
#
# Convention : Reuss Voigt Hill
#
# Bulk Modulus (GPa) = 15.27708 18.38020 16.82864
# Shear Modulus (GPa) = 17.57502 110.70044 64.13773
#
# Velocity S-wave (km/s) = 2.87507 7.21564 5.49233
# Velocity P-wave (km/s) = 4.26692 8.83545 6.93800
#
# Compressibility (1/GPa) = 0.06545755
#
# Stress axis : x y z
#
# Youngs Moduli (GPa) = 46.22375 29.15027 47.40365
#
# Poissons Ratio (x) = -0.19695 -0.05563
# Poissons Ratio (y) = -0.31230 0.65029
# Poissons Ratio (z) = -0.05425 0.39989
#
# Static dielectric constant tensor:
#      x y z
#    x 1.152280 0.000000 0.000000 
#    y 0.000000 1.749360 0.000000 
#    z 0.000000 0.000000 1.751510 
# 
# From -- ./inp_files/4874.got.cif
#   From: 2010.05.17/outbox.cif.g08.bks.cpg/sg26_3_cif.got.tgz:4874.got - 2010.06.04 01:07:29.
