data_PCOD9338524
_publ_section_title
;
Structure prediction by ZEFSAII (Michael W. Deem and Ramdas Pophale) SiO2 
 PCOD9338524
Probable space group: P M C 21
;
_chemical_formula_sum "Si O2"
_cell_formula_units_Z 32
_cell_length_a 14.042029
_cell_length_b 7.369850
_cell_length_c 15.118324
_cell_angle_alpha 90.000000
_cell_angle_beta 90.000000
_cell_angle_gamma 90.000000
_cell_volume 1564.559784
_symmetry_space_group_name_H-M "P M C 21"
_symmetry_group_IT_number 26
_symmetry_cell_setting 'orthorhombic'
loop_
_space_group_symop_operation_xyz
x,y,z
-x,-y,1/2+z
-x,y,z
x,-y,1/2+z
loop_
_atom_site_type_symbol
_atom_site_label
_atom_site_fract_x
_atom_site_fract_y
_atom_site_fract_z
Si Si1 0.697809 0.695411 0.337010
Si Si2 0.393098 0.042430 0.969643
Si Si3 0.791396 0.931468 0.585827
Si Si4 0.101995 0.340844 0.412096
Si Si5 0.894038 0.760593 0.423817
Si Si6 0.108321 0.354239 0.199768
Si Si7 0.306364 0.338358 0.456897
Si Si8 0.756112 0.664264 0.144954
O O1 0.683602 0.505726 0.389899
O O2 0.691841 0.667050 0.232729
O O3 0.629358 0.841378 0.382071
O O4 0.805975 0.767321 0.355977
O O5 0.500000 0.076210 0.000371
O O6 0.377974 0.828583 0.950162
O O7 0.312500 0.096755 0.041340
O O8 0.790689 0.134046 0.622357
O O9 0.820540 0.799202 0.665083
O O10 0.104527 0.546541 0.449545
O O11 0.105211 0.358070 0.306010
O O12 0.200897 0.253425 0.439437
O O13 0.000000 0.257956 0.437170
O O14 0.865493 0.878912 0.508214
O O15 0.000000 0.804014 0.389581
O O16 0.153247 0.539716 0.164781
O O17 0.000000 0.325683 0.168590
O O18 0.300178 0.404522 0.558289
#
# Coordination Sequence:
#
# PCOD9338524 Si02
#       8
#     4   4   4   4   4   4   4   4
#     4  10  21  39  64  93 128 168 210 270 331 390
#     4  10  23  44  67  90 122 169 217 274 342 393
#     4  10  23  38  62  93 128 172 217 279 324 388
#     4   9  18  34  58  87 125 175 217 258 316 382
#     4   9  16  34  55  82 127 171 211 254 311 375
#     4  11  21  36  61  95 136 177 217 262 315 388
#     4  10  21  40  64  92 126 170 214 268 326 390
#     4  11  22  37  64  94 128 170 220 265 324 386
#
# _framework density 20.453036999999998
#
# number of rings (size 3 to 8) (size 9 to 14) (size 15 to 20)
#    0.000    2.000    2.500    2.625    1.750    3.000 
#    0.000    9.375    0.000    0.750    0.000    0.000 
#    0.000    0.000    0.000    0.000    0.000    0.000 
#
# Total GULP energy -178612.187286 kJ/mol
# GULP energy per Si atom -5581.630853 kJ/mol
# Density = 2.040648 g / cm^3
# Si number density = 20.453037 Si / 1000 Ang^3
#
#
#
# Elastic Constant Matrix: (Units=GPa)
#
#
# Indices 1 2 3 4 5 6 
#
# 1 95.9792 29.3043 13.1911 0.0000 0.0000 0.0000
# 2 29.3043 83.8439 51.3000 0.0000 0.0000 0.0000
# 3 13.1911 51.3000 111.5041 0.0000 0.0000 0.0000
# 4 0.0000 0.0000 0.0000 -30.6988 0.0000 0.0000
# 5 0.0000 0.0000 0.0000 0.0000 9.2300 0.0000
# 6 0.0000 0.0000 0.0000 0.0000 0.0000 12.0735
#
#
#
# Elastic Compliance Matrix: (Units=1/GPa)
#
#
# Indices 1 2 3 4 5 6 
#
# 1 0.011702 -0.004513 0.000692 0.000000 0.000000 0.000000
# 2 -0.004513 0.018341 -0.007904 0.000000 0.000000 0.000000
# 3 0.000692 -0.007904 0.012523 0.000000 0.000000 0.000000
# 4 0.000000 0.000000 0.000000 -0.032575 0.000000 0.000000
# 5 0.000000 0.000000 0.000000 0.000000 0.108343 0.000000
# 6 0.000000 0.000000 0.000000 0.000000 0.000000 0.082826
#
#
# Mechanical properties :
#
#
# Convention : Reuss Voigt Hill
#
# Bulk Modulus (GPa) = 52.31601 53.21309 52.76455
# Shear Modulus (GPa) = 21.64671 11.28970 16.46821
#
# Velocity S-wave (km/s) = 3.25678 2.35198 2.84063
# Velocity P-wave (km/s) = 6.30684 5.78355 6.05085
#
# Compressibility (1/GPa) = 0.01911461
#
# Stress axis : x y z
#
# Youngs Moduli (GPa) = 85.45671 54.52410 79.85414
#
# Poissons Ratio (x) = 0.24609 -0.05527
# Poissons Ratio (y) = 0.38570 0.63117
# Poissons Ratio (z) = -0.05915 0.43096
#
# Static dielectric constant tensor:
#      x y z
#    x 1.729680 0.000000 0.000000 
#    y 0.000000 1.750130 0.000000 
#    z 0.000000 0.000000 1.757260 
# 
# From -- ./inp_files/4661.got.cif
#   From: 2010.05.17/outbox.cif.g08.bks.cpg/sg26_3_cif.got.tgz:4661.got - 2010.06.04 01:07:29.
