data_PCOD9338622
_publ_section_title
;
Structure prediction by ZEFSAII (Michael W. Deem and Ramdas Pophale) SiO2 
 PCOD9338622
Probable space group: P M C 21
;
_chemical_formula_sum "Si O2"
_cell_formula_units_Z 12
_cell_length_a 9.078360
_cell_length_b 4.841360
_cell_length_c 9.587335
_cell_angle_alpha 90.000000
_cell_angle_beta 90.000000
_cell_angle_gamma 90.000000
_cell_volume 421.378799
_symmetry_space_group_name_H-M "P M C 21"
_symmetry_group_IT_number 26
_symmetry_cell_setting 'orthorhombic'
loop_
_space_group_symop_operation_xyz
x,y,z
-x,-y,1/2+z
-x,y,z
x,-y,1/2+z
loop_
_atom_site_type_symbol
_atom_site_label
_atom_site_fract_x
_atom_site_fract_y
_atom_site_fract_z
Si Si1 0.000000 0.569748 0.430750
Si Si2 0.500000 0.627498 0.668225
Si Si3 0.000000 0.063255 0.252907
Si Si4 0.500000 0.986167 0.419291
Si Si5 0.247763 0.267959 0.596292
O O1 0.857695 0.475598 0.514220
O O2 0.000000 0.891081 0.397267
O O3 0.000000 0.384362 0.290023
O O4 0.500000 0.905405 0.760037
O O5 0.355279 0.445304 0.695916
O O6 0.500000 0.692604 0.501074
O O7 0.145297 0.949693 0.176832
O O8 0.353373 0.117726 0.486682
#
# Coordination Sequence:
#
# PCOD9338622 Si02
#       5
#     2   2   2   2   4
#     4  11  26  45  78 105 152 196 260 319 393 463
#     4  11  26  48  73 116 156 214 258 332 388 475
#     4  11  26  45  76 107 150 198 256 321 393 463
#     4  11  26  44  79 106 158 204 268 320 396 471
#     4  10  26  46  71 109 153 202 261 324 395 469
#
# _framework density 28.477938999999999
#
# number of rings (size 3 to 8) (size 9 to 14) (size 15 to 20)
#    0.000    1.333    0.000    2.000   14.000    8.000 
#    0.000    0.000    0.000    0.000    0.000    0.000 
#    0.000    0.000    0.000    0.000    0.000    0.000 
#
# Total GULP energy -67446.733634 kJ/mol
# GULP energy per Si atom -5620.561136 kJ/mol
# Density = 2.841312 g / cm^3
# Si number density = 28.477939 Si / 1000 Ang^3
#
#
#
# Elastic Constant Matrix: (Units=GPa)
#
#
# Indices 1 2 3 4 5 6 
#
# 1 184.4073 25.5860 45.7557 0.0000 0.0000 0.0000
# 2 25.5860 121.8248 29.3470 0.0000 0.0000 0.0000
# 3 45.7557 29.3470 126.4216 0.0000 0.0000 0.0000
# 4 0.0000 0.0000 0.0000 61.7373 0.0000 0.0000
# 5 0.0000 0.0000 0.0000 0.0000 32.3132 0.0000
# 6 0.0000 0.0000 0.0000 0.0000 0.0000 19.4366
#
#
#
# Elastic Compliance Matrix: (Units=1/GPa)
#
#
# Indices 1 2 3 4 5 6 
#
# 1 0.006028 -0.000784 -0.002000 0.000000 0.000000 0.000000
# 2 -0.000784 0.008797 -0.001758 0.000000 0.000000 0.000000
# 3 -0.002000 -0.001758 0.009042 0.000000 0.000000 0.000000
# 4 0.000000 0.000000 0.000000 0.016198 0.000000 0.000000
# 5 0.000000 0.000000 0.000000 0.000000 0.030947 0.000000
# 6 0.000000 0.000000 0.000000 0.000000 0.000000 0.051449
#
#
# Mechanical properties :
#
#
# Convention : Reuss Voigt Hill
#
# Bulk Modulus (GPa) = 67.64836 70.44790 69.04813
# Shear Modulus (GPa) = 36.63756 44.82843 40.73299
#
# Velocity S-wave (km/s) = 3.59071 3.97186 3.78608
# Velocity P-wave (km/s) = 6.40290 6.76946 6.58873
#
# Compressibility (1/GPa) = 0.01478233
#
# Stress axis : x y z
#
# Youngs Moduli (GPa) = 165.89993 113.67818 110.59646
#
# Poissons Ratio (x) = 0.08916 0.22114
# Poissons Ratio (y) = 0.13011 0.19445
# Poissons Ratio (z) = 0.33173 0.19987
#
# Static dielectric constant tensor:
#      x y z
#    x 2.113560 0.000000 0.000000 
#    y 0.000000 2.139330 0.000000 
#    z 0.000000 0.000000 2.256140 
# 
# From -- ./inp_files/1664.got.cif
#   From: 2010.05.17/outbox.cif.g08.bks.cpg/sg26_1_cif.got.tgz:1664.got - 2010.06.04 01:07:29.
