data_PCOD9338973
_publ_section_title
;
Structure prediction by ZEFSAII (Michael W. Deem and Ramdas Pophale) SiO2 
 PCOD9338973
Probable space group: P C C 2
;
_chemical_formula_sum "Si O2"
_cell_formula_units_Z 14
_cell_length_a 5.150658
_cell_length_b 5.641569
_cell_length_c 19.808753
_cell_angle_alpha 90.000000
_cell_angle_beta 90.000000
_cell_angle_gamma 90.000000
_cell_volume 575.598634
_symmetry_space_group_name_H-M "P C C 2"
_symmetry_group_IT_number 27
_symmetry_cell_setting 'orthorhombic'
loop_
_space_group_symop_operation_xyz
x,y,z
-x,-y,z
-x,y,1/2+z
x,-y,1/2+z
loop_
_atom_site_type_symbol
_atom_site_label
_atom_site_fract_x
_atom_site_fract_y
_atom_site_fract_z
Si Si1 0.159452 0.747243 0.291370
Si Si2 0.259738 0.842421 0.438193
Si Si3 0.259738 0.157577 0.644548
Si Si4 0.000000 0.500000 0.541370
O O1 0.312121 0.750413 0.362134
O O2 0.312123 0.750415 0.220606
O O3 0.000000 0.500000 0.291369
O O4 0.000000 0.000000 0.291371
O O5 0.186226 0.645523 0.491839
O O6 0.500000 0.000000 0.459661
O O7 0.000000 0.000000 0.434901
O O8 0.186224 0.354475 0.590901
O O9 0.500000 0.000000 0.623079
O O10 0.000000 0.000000 0.647840
#
# Coordination Sequence:
#
# PCOD9338973 Si02
#       4
#     4   4   4   2
#     4  10  21  48  78 115 151 203 266 333 397 472
#     4  11  26  47  74 111 153 203 265 329 397 478
#     4  11  26  47  74 111 153 203 265 329 397 478
#     4  12  26  48  76 108 160 212 266 326 414 488
#
# _framework density 24.322503999999999
#
# number of rings (size 3 to 8) (size 9 to 14) (size 15 to 20)
#    0.000    1.143    2.857    1.714    0.000    9.143 
#    0.000    5.714    0.000    0.000    0.000    2.000 
#    0.000    0.000    0.000    0.000    0.000    0.000 
#
# Total GULP energy -78440.902381 kJ/mol
# GULP energy per Si atom -5602.921599 kJ/mol
# Density = 2.426714 g / cm^3
# Si number density = 24.322504 Si / 1000 Ang^3
#
#
#
# Elastic Constant Matrix: (Units=GPa)
#
#
# Indices 1 2 3 4 5 6 
#
# 1 144.6253 66.1430 58.0190 0.0000 0.0000 0.0000
# 2 66.1430 155.4229 97.7247 0.0000 0.0000 0.0000
# 3 58.0190 97.7247 267.7261 0.0000 0.0000 0.0000
# 4 0.0000 0.0000 0.0000 95.3823 0.0000 0.0000
# 5 0.0000 0.0000 0.0000 0.0000 -13.8713 0.0000
# 6 0.0000 0.0000 0.0000 0.0000 0.0000 62.0566
#
#
#
# Elastic Compliance Matrix: (Units=1/GPa)
#
#
# Indices 1 2 3 4 5 6 
#
# 1 0.008683 -0.003260 -0.000692 0.000000 0.000000 0.000000
# 2 -0.003260 0.009575 -0.002788 0.000000 0.000000 0.000000
# 3 -0.000692 -0.002788 0.004903 0.000000 0.000000 0.000000
# 4 0.000000 0.000000 0.000000 0.010484 0.000000 0.000000
# 5 0.000000 0.000000 0.000000 0.000000 -0.072091 0.000000
# 6 0.000000 0.000000 0.000000 0.000000 0.000000 0.016114
#
#
# Mechanical properties :
#
#
# Convention : Reuss Voigt Hill
#
# Bulk Modulus (GPa) = 103.30678 112.39419 107.85048
# Shear Modulus (GPa) = -888.91631 51.77270 -418.57181
#
# Velocity S-wave (km/s) = -19.13803 4.61867 -13.13263
# Velocity P-wave (km/s) = 21.11365 8.64599 13.62045
#
# Compressibility (1/GPa) = 0.00967991
#
# Stress axis : x y z
#
# Youngs Moduli (GPa) = 115.16825 104.44057 203.96237
#
# Poissons Ratio (x) = 0.34051 0.14106
# Poissons Ratio (y) = 0.37549 0.56874
# Poissons Ratio (z) = 0.07965 0.29123
#
# Static dielectric constant tensor:
#      x y z
#    x 1.895790 0.000000 0.000000 
#    y 0.000000 1.986320 0.000000 
#    z 0.000000 0.000000 1.960620 
# 
# From -- ./inp_files/3812.got.cif
#   From: 2010.05.17/outbox.cif.g08.bks.cpg/sg27_2_cif.got.tgz:3812.got - 2010.06.04 01:11:05.
