data_PCOD9338905
_publ_section_title
;
Structure prediction by ZEFSAII (Michael W. Deem and Ramdas Pophale) SiO2 
 PCOD9338905
Probable space group: P C C 2
;
_chemical_formula_sum "Si O2"
_cell_formula_units_Z 32
_cell_length_a 18.833314
_cell_length_b 13.927730
_cell_length_c 5.313220
_cell_angle_alpha 90.000000
_cell_angle_beta 90.000000
_cell_angle_gamma 90.000000
_cell_volume 1393.685832
_symmetry_space_group_name_H-M "P C C 2"
_symmetry_group_IT_number 27
_symmetry_cell_setting 'orthorhombic'
loop_
_space_group_symop_operation_xyz
x,y,z
-x,-y,z
-x,y,1/2+z
x,-y,1/2+z
loop_
_atom_site_type_symbol
_atom_site_label
_atom_site_fract_x
_atom_site_fract_y
_atom_site_fract_z
Si Si1 0.030841 0.892034 0.951680
Si Si2 0.581204 0.036024 0.155274
Si Si3 0.336552 0.207839 0.487260
Si Si4 0.527911 0.607003 0.135704
Si Si5 0.326981 0.669843 0.485568
Si Si6 0.179145 0.813288 0.045863
Si Si7 0.026641 0.391475 0.168855
Si Si8 0.172576 0.683510 0.544990
O O1 0.013121 0.846921 0.681742
O O2 0.114159 0.887267 0.014397
O O3 0.000000 0.000000 0.926091
O O4 0.596676 0.140096 0.043085
O O5 0.500000 0.000000 0.188642
O O6 0.613077 0.030584 0.434654
O O7 0.335356 0.248834 0.204391
O O8 0.261216 0.152260 0.534614
O O9 0.335401 0.289106 0.704384
O O10 0.500000 0.500000 0.178084
O O11 0.485868 0.655513 0.904935
O O12 0.608892 0.600557 0.051765
O O13 0.247833 0.630654 0.516064
O O14 0.168154 0.755688 0.307090
O O15 0.173873 0.742660 0.805417
O O16 0.105466 0.385199 0.060867
O O17 0.000000 0.500000 0.209409
O O18 0.021664 0.347597 0.447565
#
# Coordination Sequence:
#
# PCOD9338905 Si02
#       8
#     4   4   4   4   4   4   4   4
#     4  10  21  37  53  80 115 148 195 238 290 350
#     4  10  21  40  57  84 123 153 195 237 294 358
#     4  10  21  40  61  88 121 154 201 247 294 352
#     4  10  21  40  60  90 126 157 197 243 299 358
#     4  10  21  40  62  90 119 156 202 246 298 354
#     4  10  21  37  59  86 113 152 197 242 294 343
#     4  10  21  37  55  85 123 151 193 234 289 351
#     4  10  21  37  61  85 118 153 194 243 290 348
#
# _framework density 22.960699000000002
#
# number of rings (size 3 to 8) (size 9 to 14) (size 15 to 20)
#    0.000    2.000    0.000    3.000    0.000    3.000 
#   18.000    5.000    0.000    0.000    0.000    0.000 
#    0.000    0.000    0.000    0.000    0.000    0.000 
#
# Total GULP energy -178545.882898 kJ/mol
# GULP energy per Si atom -5579.558841 kJ/mol
# Density = 2.290844 g / cm^3
# Si number density = 22.960699 Si / 1000 Ang^3
#
#
#
# Elastic Constant Matrix: (Units=GPa)
#
#
# Indices 1 2 3 4 5 6 
#
# 1 133.5936 30.5969 -7.3519 0.0000 0.0000 0.0000
# 2 30.5969 34.2794 -10.0188 0.0000 0.0000 0.0000
# 3 -7.3519 -10.0188 159.2076 0.0000 0.0000 0.0000
# 4 0.0000 0.0000 0.0000 13.6714 0.0000 0.0000
# 5 0.0000 0.0000 0.0000 0.0000 10.3402 0.0000
# 6 0.0000 0.0000 0.0000 0.0000 0.0000 34.5503
#
#
#
# Elastic Compliance Matrix: (Units=1/GPa)
#
#
# Indices 1 2 3 4 5 6 
#
# 1 0.009410 -0.008427 -0.000096 0.000000 0.000000 0.000000
# 2 -0.008427 0.037266 0.001956 0.000000 0.000000 0.000000
# 3 -0.000096 0.001956 0.006400 0.000000 0.000000 0.000000
# 4 0.000000 0.000000 0.000000 0.073145 0.000000 0.000000
# 5 0.000000 0.000000 0.000000 0.000000 0.096710 0.000000
# 6 0.000000 0.000000 0.000000 0.000000 0.000000 0.028943
#
#
# Mechanical properties :
#
#
# Convention : Reuss Voigt Hill
#
# Bulk Modulus (GPa) = 25.03666 39.28146 32.15906
# Shear Modulus (GPa) = 17.96479 32.63601 25.30040
#
# Velocity S-wave (km/s) = 2.80020 3.77422 3.32309
# Velocity P-wave (km/s) = 4.62414 6.01151 5.36288
#
# Compressibility (1/GPa) = 0.03994143
#
# Stress axis : x y z
#
# Youngs Moduli (GPa) = 106.26734 26.83427 156.25559
#
# Poissons Ratio (x) = 0.22614 0.01497
# Poissons Ratio (y) = 0.89555 -0.30563
# Poissons Ratio (z) = 0.01018 -0.05249
#
# Static dielectric constant tensor:
#      x y z
#    x 1.911630 0.000000 0.000000 
#    y 0.000000 2.061420 0.000000 
#    z 0.000000 0.000000 1.970050 
# 
# From -- ./inp_files/570.got.cif
#   From: 2010.05.17/outbox.cif.g08.bks.cpg/sg27_1_cif.got.tgz:570.got - 2010.06.04 01:11:05.
