data_PCOD9338772
_publ_section_title
;
Structure prediction by ZEFSAII (Michael W. Deem and Ramdas Pophale) SiO2 
 PCOD9338772
Probable space group: P C C 2
;
_chemical_formula_sum "Si O2"
_cell_formula_units_Z 26
_cell_length_a 10.447147
_cell_length_b 8.134531
_cell_length_c 14.679597
_cell_angle_alpha 90.000000
_cell_angle_beta 90.000000
_cell_angle_gamma 90.000000
_cell_volume 1247.510924
_symmetry_space_group_name_H-M "P C C 2"
_symmetry_group_IT_number 27
_symmetry_cell_setting 'orthorhombic'
loop_
_space_group_symop_operation_xyz
x,y,z
-x,-y,z
-x,y,1/2+z
x,-y,1/2+z
loop_
_atom_site_type_symbol
_atom_site_label
_atom_site_fract_x
_atom_site_fract_y
_atom_site_fract_z
Si Si1 0.864670 0.979933 0.201590
Si Si2 0.219357 0.309359 0.618609
Si Si3 0.817756 0.794360 0.014872
Si Si4 0.385059 0.407039 0.128632
Si Si5 0.598123 0.146605 0.774502
Si Si6 0.000000 0.500000 0.509141
Si Si7 0.632299 0.082964 0.977442
O O1 0.824690 0.165635 0.183079
O O2 0.882015 0.883907 0.103998
O O3 0.745260 0.894504 0.249427
O O4 0.000000 0.000000 0.250903
O O5 0.293654 0.453285 0.669015
O O6 0.309573 0.214982 0.546245
O O7 0.103212 0.398908 0.567555
O O8 0.699816 0.694266 0.058606
O O9 0.913160 0.656640 0.970104
O O10 0.743741 0.943067 0.962687
O O11 0.500000 0.500000 0.080234
O O12 0.437139 0.296058 0.209611
O O13 0.595207 0.167168 0.882506
O O14 0.500000 0.000000 0.752756
O O15 0.500000 0.000000 0.012927
#
# Coordination Sequence:
#
# PCOD9338772 Si02
#       7
#     4   4   4   4   4   2   4
#     4  10  18  35  58  87 110 155 198 244 285 351
#     4  10  20  34  61  82 117 149 196 246 294 347
#     4   9  19  33  59  83 115 148 200 242 293 345
#     4  10  19  34  58  89 112 145 191 246 298 352
#     4  10  22  39  58  83 119 156 197 240 297 362
#     4  10  18  34  52  86 116 150 186 244 304 336
#     4  10  21  39  59  85 117 159 200 243 294 357
#
# _framework density 20.8415
#
# number of rings (size 3 to 8) (size 9 to 14) (size 15 to 20)
#    0.000    2.154    1.538    1.846    0.000    4.308 
#    2.769   10.000    0.000    0.923    0.000    0.000 
#    0.000    0.000    0.000    0.000    0.000    0.000 
#
# Total GULP energy -144815.133110 kJ/mol
# GULP energy per Si atom -5569.812812 kJ/mol
# Density = 2.079406 g / cm^3
# Si number density = 20.841500 Si / 1000 Ang^3
#
#
#
# Elastic Constant Matrix: (Units=GPa)
#
#
# Indices 1 2 3 4 5 6 
#
# 1 96.6525 10.7774 7.4937 0.0000 0.0000 0.0000
# 2 10.7774 82.3122 11.8995 0.0000 0.0000 0.0000
# 3 7.4937 11.8995 32.3243 0.0000 0.0000 0.0000
# 4 0.0000 0.0000 0.0000 -5.0833 0.0000 0.0000
# 5 0.0000 0.0000 0.0000 0.0000 29.0249 0.0000
# 6 0.0000 0.0000 0.0000 0.0000 0.0000 50.1851
#
#
#
# Elastic Compliance Matrix: (Units=1/GPa)
#
#
# Indices 1 2 3 4 5 6 
#
# 1 0.010628 -0.001094 -0.002061 0.000000 0.000000 0.000000
# 2 -0.001094 0.012944 -0.004512 0.000000 0.000000 0.000000
# 3 -0.002061 -0.004512 0.033075 0.000000 0.000000 0.000000
# 4 0.000000 0.000000 0.000000 -0.196722 0.000000 0.000000
# 5 0.000000 0.000000 0.000000 0.000000 0.034453 0.000000
# 6 0.000000 0.000000 0.000000 0.000000 0.000000 0.019926
#
#
# Mechanical properties :
#
#
# Convention : Reuss Voigt Hill
#
# Bulk Modulus (GPa) = 24.20456 30.18112 27.19284
# Shear Modulus (GPa) = -88.35452 26.89990 -30.72731
#
# Velocity S-wave (km/s) = -6.51810 3.59651 -3.84387
# Velocity P-wave (km/s) = 6.70884 5.63553 2.57384
#
# Compressibility (1/GPa) = 0.04131453
#
# Stress axis : x y z
#
# Youngs Moduli (GPa) = 94.09013 77.25423 30.23416
#
# Poissons Ratio (x) = 0.08448 0.06232
# Poissons Ratio (y) = 0.10289 0.13641
# Poissons Ratio (z) = 0.19395 0.34854
#
# Static dielectric constant tensor:
#      x y z
#    x 1.849380 0.000000 0.000000 
#    y 0.000000 1.731150 0.000000 
#    z 0.000000 0.000000 1.720920 
# 
# From -- ./inp_files/3573.got.cif
#   From: 2010.05.17/outbox.cif.g08.bks.cpg/sg27_2_cif.got.tgz:3573.got - 2010.06.04 01:11:05.
