data_PCOD9338397
_publ_section_title
;
Structure prediction by ZEFSAII (Michael W. Deem and Ramdas Pophale) SiO2 
 PCOD9338397
Probable space group: P M C 21
;
_chemical_formula_sum "Si O2"
_cell_formula_units_Z 24
_cell_length_a 8.217911
_cell_length_b 25.693693
_cell_length_c 5.093462
_cell_angle_alpha 90.000000
_cell_angle_beta 90.000000
_cell_angle_gamma 90.000000
_cell_volume 1075.476771
_symmetry_space_group_name_H-M "P M C 21"
_symmetry_group_IT_number 26
_symmetry_cell_setting 'orthorhombic'
loop_
_space_group_symop_operation_xyz
x,y,z
-x,-y,1/2+z
-x,y,z
x,-y,1/2+z
loop_
_atom_site_type_symbol
_atom_site_label
_atom_site_fract_x
_atom_site_fract_y
_atom_site_fract_z
Si Si1 0.500000 0.729617 0.947830
Si Si2 0.829274 0.253510 0.550555
Si Si3 0.000000 0.108220 0.393606
Si Si4 0.196584 0.470356 0.338006
Si Si5 0.684603 0.036117 0.321636
Si Si6 0.000000 0.818052 0.397244
Si Si7 0.184873 0.625400 0.201936
Si Si8 0.500000 0.342282 0.959095
O O1 0.500000 0.682496 0.744090
O O2 0.335686 0.761417 0.912392
O O3 0.500000 0.704913 0.242112
O O4 0.851591 0.220846 0.818173
O O5 0.823088 0.315262 0.600879
O O6 0.000000 0.387535 0.800261
O O7 0.000000 0.138319 0.668436
O O8 0.164577 0.074450 0.367517
O O9 0.000000 0.150164 0.160621
O O10 0.255662 0.487242 0.052369
O O11 0.227515 0.414696 0.470366
O O12 0.000000 0.473661 0.322039
O O13 0.500000 0.058435 0.348588
O O14 0.697625 0.009907 0.036135
O O15 0.333908 0.626652 0.404136
O O16 0.000000 0.754460 0.903162
#
# Coordination Sequence:
#
# PCOD9338397 Si02
#       8
#     2   4   2   4   4   2   4   2
#     4  10  20  38  58  79 110 142 190 251 286 318
#     4   8  19  40  57  85 109 158 203 245 283 361
#     4  12  22  41  58  92 130 165 190 260 306 338
#     4   9  18  32  51  79 108 137 177 227 291 358
#     4  10  21  39  66  96 123 163 212 247 288 353
#     4  10  24  39  58  86 126 159 210 240 300 368
#     4   9  18  37  62  79 112 148 189 239 294 343
#     4  10  22  34  56  87 104 134 190 233 282 354
#
# _framework density 22.315685999999999
#
# number of rings (size 3 to 8) (size 9 to 14) (size 15 to 20)
#    0.500    2.000    0.000    1.500    0.000    6.000 
#    3.000    5.833    0.000    0.000    0.000    0.000 
#    0.000    0.000    0.000    0.000    0.000    0.000 
#
# Total GULP energy -133855.217835 kJ/mol
# GULP energy per Si atom -5577.300743 kJ/mol
# Density = 2.226489 g / cm^3
# Si number density = 22.315686 Si / 1000 Ang^3
#
#
#
# Elastic Constant Matrix: (Units=GPa)
#
#
# Indices 1 2 3 4 5 6 
#
# 1 156.5291 27.1892 16.2328 0.0000 0.0000 0.0000
# 2 27.1892 89.6407 9.9200 0.0000 0.0000 0.0000
# 3 16.2328 9.9200 62.1478 0.0000 0.0000 0.0000
# 4 0.0000 0.0000 0.0000 34.9023 0.0000 0.0000
# 5 0.0000 0.0000 0.0000 0.0000 10.2362 0.0000
# 6 0.0000 0.0000 0.0000 0.0000 0.0000 -24.3277
#
#
#
# Elastic Compliance Matrix: (Units=1/GPa)
#
#
# Indices 1 2 3 4 5 6 
#
# 1 0.006877 -0.001921 -0.001490 0.000000 0.000000 0.000000
# 2 -0.001921 0.011893 -0.001397 0.000000 0.000000 0.000000
# 3 -0.001490 -0.001397 0.016703 0.000000 0.000000 0.000000
# 4 0.000000 0.000000 0.000000 0.028651 0.000000 0.000000
# 5 0.000000 0.000000 0.000000 0.000000 0.097693 0.000000
# 6 0.000000 0.000000 0.000000 0.000000 0.000000 -0.041105
#
#
# Mechanical properties :
#
#
# Convention : Reuss Voigt Hill
#
# Bulk Modulus (GPa) = 38.67266 46.11127 42.39196
# Shear Modulus (GPa) = 35.98560 21.16052 28.57306
#
# Velocity S-wave (km/s) = 4.02004 3.08268 3.58215
# Velocity P-wave (km/s) = 6.23819 5.77742 6.01222
#
# Compressibility (1/GPa) = 0.02585806
#
# Stress axis : x y z
#
# Youngs Moduli (GPa) = 145.41780 84.08410 59.87065
#
# Poissons Ratio (x) = 0.16152 0.08918
# Poissons Ratio (y) = 0.27934 0.08361
# Poissons Ratio (z) = 0.21661 0.11743
#
# Static dielectric constant tensor:
#      x y z
#    x 1.906580 0.000000 0.000000 
#    y 0.000000 1.817090 0.000000 
#    z 0.000000 0.000000 1.819990 
# 
# From -- ./inp_files/206.got.cif
#   From: 2010.05.17/outbox.cif.g08.bks.cpg/sg26_1_cif.got.tgz:206.got - 2010.06.04 01:07:29.
