data_PCOD9338267
_publ_section_title
;
Structure prediction by ZEFSAII (Michael W. Deem and Ramdas Pophale) SiO2 
 PCOD9338267
Probable space group: P M C 21
;
_chemical_formula_sum "Si O2"
_cell_formula_units_Z 32
_cell_length_a 10.324487
_cell_length_b 16.048953
_cell_length_c 11.115998
_cell_angle_alpha 90.000000
_cell_angle_beta 90.000000
_cell_angle_gamma 90.000000
_cell_volume 1841.889817
_symmetry_space_group_name_H-M "P M C 21"
_symmetry_group_IT_number 26
_symmetry_cell_setting 'orthorhombic'
loop_
_space_group_symop_operation_xyz
x,y,z
-x,-y,1/2+z
-x,y,z
x,-y,1/2+z
loop_
_atom_site_type_symbol
_atom_site_label
_atom_site_fract_x
_atom_site_fract_y
_atom_site_fract_z
Si Si1 0.348414 0.969350 0.432090
Si Si2 0.147171 0.274672 0.993946
Si Si3 0.648797 0.158262 0.411796
Si Si4 0.352560 0.827305 0.627865
Si Si5 0.854881 0.869024 0.290847
Si Si6 0.843380 0.561876 0.131934
Si Si7 0.849227 0.249100 0.564470
Si Si8 0.843623 0.540411 0.399653
O O1 0.500000 0.964167 0.396096
O O2 0.329441 0.909696 0.547313
O O3 0.254505 0.934001 0.329000
O O4 0.320706 0.065502 0.459340
O O5 0.250045 0.242427 0.089918
O O6 0.000000 0.279323 0.042151
O O7 0.148189 0.205452 0.888966
O O8 0.179774 0.364066 0.938125
O O9 0.500000 0.178715 0.445029
O O10 0.656368 0.153009 0.267909
O O11 0.749805 0.224766 0.461095
O O12 0.500000 0.799880 0.601212
O O13 0.835935 0.822399 0.165202
O O14 0.000000 0.906144 0.293843
O O15 0.819196 0.660615 0.120669
O O16 0.796040 0.528279 0.262046
O O17 0.000000 0.551729 0.133329
O O18 0.795613 0.516848 0.010045
O O19 0.000000 0.251081 0.525376
O O20 0.000000 0.529521 0.394795
#
# Coordination Sequence:
#
# PCOD9338267 Si02
#       8
#     4   4   4   4   4   4   4   4
#     4   9  19  34  54  75  96 130 173 213 254 307
#     4   9  16  30  53  76  99 131 169 208 254 307
#     4  10  22  36  52  74 103 136 173 220 265 309
#     4   9  19  35  50  72 103 131 166 215 264 308
#     4   9  17  31  51  74 103 133 164 207 255 301
#     4   9  17  30  49  76 110 142 176 219 267 317
#     4  10  20  34  52  76 108 141 171 211 263 315
#     4   9  16  28  49  77 108 140 176 219 264 314
#
# _framework density 17.373462
#
# number of rings (size 3 to 8) (size 9 to 14) (size 15 to 20)
#    0.000    2.750    1.250    0.000    1.750    2.500 
#    0.000    2.500    0.000    0.750    0.000    0.000 
#    0.000    0.000    0.000    0.000    0.000    0.000 
#
# Total GULP energy -178242.997025 kJ/mol
# GULP energy per Si atom -5570.093657 kJ/mol
# Density = 1.733392 g / cm^3
# Si number density = 17.373462 Si / 1000 Ang^3
#
#
#
# Elastic Constant Matrix: (Units=GPa)
#
#
# Indices 1 2 3 4 5 6 
#
# 1 45.4493 30.3318 40.7210 0.0000 0.0000 0.0000
# 2 30.3318 45.2982 36.4967 0.0000 0.0000 0.0000
# 3 40.7210 36.4967 88.2600 0.0000 0.0000 0.0000
# 4 0.0000 0.0000 0.0000 17.2390 0.0000 0.0000
# 5 0.0000 0.0000 0.0000 0.0000 22.2987 0.0000
# 6 0.0000 0.0000 0.0000 0.0000 0.0000 10.8940
#
#
#
# Elastic Compliance Matrix: (Units=1/GPa)
#
#
# Indices 1 2 3 4 5 6 
#
# 1 0.048463 -0.021648 -0.013408 0.000000 0.000000 0.000000
# 2 -0.021648 0.042776 -0.007700 0.000000 0.000000 0.000000
# 3 -0.013408 -0.007700 0.020700 0.000000 0.000000 0.000000
# 4 0.000000 0.000000 0.000000 0.058008 0.000000 0.000000
# 5 0.000000 0.000000 0.000000 0.000000 0.044846 0.000000
# 6 0.000000 0.000000 0.000000 0.000000 0.000000 0.091793
#
#
# Mechanical properties :
#
#
# Convention : Reuss Voigt Hill
#
# Bulk Modulus (GPa) = 37.84108 43.78961 40.81535
# Shear Modulus (GPa) = 12.47167 14.85021 13.66094
#
# Velocity S-wave (km/s) = 2.68219 2.92681 2.80717
# Velocity P-wave (km/s) = 5.60540 6.05650 5.83531
#
# Compressibility (1/GPa) = 0.02642631
#
# Stress axis : x y z
#
# Youngs Moduli (GPa) = 20.63422 23.37763 48.30829
#
# Poissons Ratio (x) = 0.50609 0.64771
# Poissons Ratio (y) = 0.44670 0.37199
# Poissons Ratio (z) = 0.27666 0.18002
#
# Static dielectric constant tensor:
#      x y z
#    x 1.583110 0.000000 0.000000 
#    y 0.000000 1.570730 0.000000 
#    z 0.000000 0.000000 1.609090 
# 
# From -- ./inp_files/1976.got.cif
#   From: 2010.05.17/outbox.cif.g08.bks.cpg/sg26_1_cif.got.tgz:1976.got - 2010.06.04 01:07:29.
