data_PCOD9338128
_publ_section_title
;
Structure prediction by ZEFSAII (Michael W. Deem and Ramdas Pophale) SiO2 
 PCOD9338128
Probable space group: P M C 21
;
_chemical_formula_sum "Si O2"
_cell_formula_units_Z 32
_cell_length_a 7.442146
_cell_length_b 19.819974
_cell_length_c 8.312091
_cell_angle_alpha 90.000000
_cell_angle_beta 90.000000
_cell_angle_gamma 90.000000
_cell_volume 1226.059524
_symmetry_space_group_name_H-M "P M C 21"
_symmetry_group_IT_number 26
_symmetry_cell_setting 'orthorhombic'
loop_
_space_group_symop_operation_xyz
x,y,z
-x,-y,1/2+z
-x,y,z
x,-y,1/2+z
loop_
_atom_site_type_symbol
_atom_site_label
_atom_site_fract_x
_atom_site_fract_y
_atom_site_fract_z
Si Si1 0.295349 0.475013 0.128680
Si Si2 0.284452 0.771992 0.643135
Si Si3 0.797241 0.353702 0.325811
Si Si4 0.281973 0.102552 0.333234
Si Si5 0.278018 0.600156 0.317320
Si Si6 0.715789 0.853893 0.313417
Si Si7 0.280937 0.978748 0.509569
Si Si8 0.287822 0.270904 0.642939
O O1 0.500000 0.488997 0.082557
O O2 0.296991 0.423028 0.278374
O O3 0.220205 0.546675 0.181155
O O4 0.213901 0.433359 0.982190
O O5 0.500000 0.766263 0.655591
O O6 0.212755 0.698034 0.675844
O O7 0.218293 0.823597 0.782110
O O8 0.252072 0.807548 0.472635
O O9 0.728787 0.308679 0.473493
O O10 0.000000 0.371832 0.360485
O O11 0.500000 0.108798 0.345328
O O12 0.221645 0.055486 0.480000
O O13 0.238496 0.056390 0.177457
O O14 0.500000 0.602710 0.321053
O O15 0.216820 0.674666 0.271470
O O16 0.500000 0.863922 0.291688
O O17 0.781892 0.927247 0.369340
O O18 0.782388 0.805104 0.170313
O O19 0.500000 0.980007 0.504040
O O20 0.500000 0.264075 0.672942
#
# Coordination Sequence:
#
# PCOD9338128 Si02
#       8
#     4   4   4   4   4   4   4   4
#     4  10  19  36  60  84 107 134 167 206 248 298
#     4   9  17  33  54  75  98 132 173 213 254 303
#     4  12  25  37  49  73 105 138 173 214 258 301
#     4   8  14  23  40  67 101 132 159 195 248 303
#     4   9  18  33  60  89 108 130 167 208 247 292
#     4   8  15  28  50  77 104 131 166 209 255 302
#     4   8  13  22  37  68 107 132 152 194 250 303
#     4  10  19  34  55  79 104 135 171 209 250 298
#
# _framework density 26.099875000000001
#
# number of rings (size 3 to 8) (size 9 to 14) (size 15 to 20)
#    0.000    2.750    0.000    4.125    0.000    5.000 
#    0.000    8.750    0.000    0.000    0.000    7.875 
#    0.000    0.000    0.000    0.000    0.000    0.000 
#
# Total GULP energy -178813.631467 kJ/mol
# GULP energy per Si atom -5587.925983 kJ/mol
# Density = 2.604047 g / cm^3
# Si number density = 26.099875 Si / 1000 Ang^3
#
#
#
# Elastic Constant Matrix: (Units=GPa)
#
#
# Indices 1 2 3 4 5 6 
#
# 1 71.0763 6.7293 -6.5891 0.0000 0.0000 0.0000
# 2 6.7293 137.7074 4.9758 0.0000 0.0000 0.0000
# 3 -6.5891 4.9758 52.7103 0.0000 0.0000 0.0000
# 4 0.0000 0.0000 0.0000 49.1853 0.0000 0.0000
# 5 0.0000 0.0000 0.0000 0.0000 81.2625 0.0000
# 6 0.0000 0.0000 0.0000 0.0000 0.0000 108.3203
#
#
#
# Elastic Compliance Matrix: (Units=1/GPa)
#
#
# Indices 1 2 3 4 5 6 
#
# 1 0.014315 -0.000767 0.001862 0.000000 0.000000 0.000000
# 2 -0.000767 0.007328 -0.000788 0.000000 0.000000 0.000000
# 3 0.001862 -0.000788 0.019279 0.000000 0.000000 0.000000
# 4 0.000000 0.000000 0.000000 0.020331 0.000000 0.000000
# 5 0.000000 0.000000 0.000000 0.000000 0.012306 0.000000
# 6 0.000000 0.000000 0.000000 0.000000 0.000000 0.009232
#
#
# Mechanical properties :
#
#
# Convention : Reuss Voigt Hill
#
# Bulk Modulus (GPa) = 24.07555 30.19175 27.13365
# Shear Modulus (GPa) = 52.07229 64.84550 58.45889
#
# Velocity S-wave (km/s) = 4.47152 4.98990 4.73780
# Velocity P-wave (km/s) = 5.99197 6.69266 6.35198
#
# Compressibility (1/GPa) = 0.04153591
#
# Stress axis : x y z
#
# Youngs Moduli (GPa) = 69.85883 136.46849 51.87066
#
# Poissons Ratio (x) = 0.10464 -0.09657
# Poissons Ratio (y) = 0.05357 0.04085
# Poissons Ratio (z) = -0.13006 0.10748
#
# Static dielectric constant tensor:
#      x y z
#    x 2.026660 0.000000 0.000000 
#    y 0.000000 2.006260 0.000000 
#    z 0.000000 0.000000 2.140810 
# 
# From -- ./inp_files/1595.got.cif
#   From: 2010.05.17/outbox.cif.g08.bks.cpg/sg26_1_cif.got.tgz:1595.got - 2010.06.04 01:07:29.
