data_PCOD9338968
_publ_section_title
;
Structure prediction by ZEFSAII (Michael W. Deem and Ramdas Pophale) SiO2 
 PCOD9338968
Probable space group: P C C 2
;
_chemical_formula_sum "Si O2"
_cell_formula_units_Z 22
_cell_length_a 5.006474
_cell_length_b 14.505187
_cell_length_c 12.223678
_cell_angle_alpha 90.000000
_cell_angle_beta 90.000000
_cell_angle_gamma 90.000000
_cell_volume 887.681560
_symmetry_space_group_name_H-M "P C C 2"
_symmetry_group_IT_number 27
_symmetry_cell_setting 'orthorhombic'
loop_
_space_group_symop_operation_xyz
x,y,z
-x,-y,z
-x,y,1/2+z
x,-y,1/2+z
loop_
_atom_site_type_symbol
_atom_site_label
_atom_site_fract_x
_atom_site_fract_y
_atom_site_fract_z
Si Si1 0.500000 0.000000 0.251420
Si Si2 0.977975 0.802278 0.005486
Si Si3 0.139970 0.602726 0.546248
Si Si4 0.472207 0.817440 0.136991
Si Si5 0.500000 0.500000 0.895170
Si Si6 0.641862 0.365849 0.203491
Si Si7 0.000000 0.000000 0.894708
O O1 0.403827 0.917917 0.176376
O O2 0.745906 0.969971 0.324599
O O3 0.921391 0.694648 0.972758
O O4 0.919386 0.902389 0.951895
O O5 0.784916 0.808479 0.112427
O O6 0.293502 0.800982 0.029758
O O7 0.245744 0.515963 0.473284
O O8 0.413590 0.621712 0.612309
O O9 0.914609 0.601086 0.643502
O O10 0.360192 0.743350 0.222401
O O11 0.462919 0.416731 0.810345
#
# Coordination Sequence:
#
# PCOD9338968 Si02
#       7
#     2   4   4   4   2   4   2
#     4  12  24  36  64 104 138 172 236 290 346 438
#     4  10  21  43  66  92 137 187 229 286 359 427
#     4  10  25  46  70 105 142 187 245 303 362 452
#     4  10  21  43  66  91 134 188 227 286 357 429
#     4  12  26  46  80 104 146 196 238 316 392 428
#     4  10  25  46  70 104 145 183 247 300 363 451
#     4  12  24  36  64 104 136 174 232 298 342 444
#
# _framework density 24.783664999999999
#
# number of rings (size 3 to 8) (size 9 to 14) (size 15 to 20)
#    0.000    1.455    0.000    3.818    2.545    5.818 
#    0.000    0.000    0.000    0.000    0.000    0.000 
#    0.000    0.000    0.000    0.000    0.000    0.000 
#
# Total GULP energy -122613.675570 kJ/mol
# GULP energy per Si atom -5573.348890 kJ/mol
# Density = 2.472726 g / cm^3
# Si number density = 24.783665 Si / 1000 Ang^3
#
#
#
# Elastic Constant Matrix: (Units=GPa)
#
#
# Indices 1 2 3 4 5 6 
#
# 1 154.8195 23.3076 25.4120 0.0000 0.0000 0.0000
# 2 23.3076 140.9391 28.6642 0.0000 0.0000 0.0000
# 3 25.4120 28.6642 32.1149 0.0000 0.0000 0.0000
# 4 0.0000 0.0000 0.0000 3.8421 0.0000 0.0000
# 5 0.0000 0.0000 0.0000 0.0000 34.8212 0.0000
# 6 0.0000 0.0000 0.0000 0.0000 0.0000 27.6794
#
#
#
# Elastic Compliance Matrix: (Units=1/GPa)
#
#
# Indices 1 2 3 4 5 6 
#
# 1 0.007423 -0.000040 -0.005838 0.000000 0.000000 0.000000
# 2 -0.000040 0.008669 -0.007706 0.000000 0.000000 0.000000
# 3 -0.005838 -0.007706 0.042636 0.000000 0.000000 0.000000
# 4 0.000000 0.000000 0.000000 0.260274 0.000000 0.000000
# 5 0.000000 0.000000 0.000000 0.000000 0.028718 0.000000
# 6 0.000000 0.000000 0.000000 0.000000 0.000000 0.036128
#
#
# Mechanical properties :
#
#
# Convention : Reuss Voigt Hill
#
# Bulk Modulus (GPa) = 31.68581 53.62678 42.65629
# Shear Modulus (GPa) = 11.86138 29.96784 20.91461
#
# Velocity S-wave (km/s) = 2.19006 3.48109 2.90812
# Velocity P-wave (km/s) = 4.38268 6.15161 5.34089
#
# Compressibility (1/GPa) = 0.03155987
#
# Stress axis : x y z
#
# Youngs Moduli (GPa) = 134.70798 115.35189 23.45457
#
# Poissons Ratio (x) = 0.00465 0.13693
# Poissons Ratio (y) = 0.00543 0.18074
# Poissons Ratio (z) = 0.78644 0.88887
#
# Static dielectric constant tensor:
#      x y z
#    x 1.921620 0.000000 0.000000 
#    y 0.000000 2.176450 0.000000 
#    z 0.000000 0.000000 1.969930 
# 
# From -- ./inp_files/2012.got.cif
#   From: 2010.05.17/outbox.cif.g08.bks.cpg/sg27_2_cif.got.tgz:2012.got - 2010.06.04 01:11:05.
