data_PCOD9338242
_publ_section_title
;
Structure prediction by ZEFSAII (Michael W. Deem and Ramdas Pophale) SiO2 
 PCOD9338242
Probable space group: P M C 21
;
_chemical_formula_sum "Si O2"
_cell_formula_units_Z 32
_cell_length_a 9.031014
_cell_length_b 11.110877
_cell_length_c 16.363541
_cell_angle_alpha 90.000000
_cell_angle_beta 90.000000
_cell_angle_gamma 90.000000
_cell_volume 1641.958379
_symmetry_space_group_name_H-M "P M C 21"
_symmetry_group_IT_number 26
_symmetry_cell_setting 'orthorhombic'
loop_
_space_group_symop_operation_xyz
x,y,z
-x,-y,1/2+z
-x,y,z
x,-y,1/2+z
loop_
_atom_site_type_symbol
_atom_site_label
_atom_site_fract_x
_atom_site_fract_y
_atom_site_fract_z
Si Si1 0.663720 0.785271 0.054960
Si Si2 0.166225 0.053241 0.662859
Si Si3 0.823032 0.431645 0.469511
Si Si4 0.677729 0.610603 0.799795
Si Si5 0.662546 0.991945 0.433331
Si Si6 0.176442 0.406398 0.128494
Si Si7 0.175153 0.873836 0.799943
Si Si8 0.835693 0.836125 0.538828
O O1 0.500000 0.731941 0.066803
O O2 0.739648 0.831530 0.137714
O O3 0.766922 0.696048 0.004267
O O4 0.645896 0.906338 0.002503
O O5 0.000000 0.089650 0.687711
O O6 0.231304 0.964402 0.730235
O O7 0.151335 0.961829 0.586795
O O8 0.744313 0.548599 0.881810
O O9 0.787605 0.520688 0.545394
O O10 0.000000 0.431765 0.457270
O O11 0.500000 0.608576 0.802614
O O12 0.737366 0.562892 0.711964
O O13 0.737961 0.748605 0.803754
O O14 0.500000 0.982839 0.393059
O O15 0.792786 0.047376 0.379387
O O16 0.714895 0.865289 0.470627
O O17 0.204139 0.267633 0.103029
O O18 0.000000 0.420314 0.143938
O O19 0.000000 0.849358 0.787420
O O20 0.000000 0.804795 0.506124
#
# Coordination Sequence:
#
# PCOD9338242 Si02
#       8
#     4   4   4   4   4   4   4   4
#     4  10  20  34  53  81 117 150 186 235 291 352
#     4   9  18  32  54  81 111 146 186 234 287 347
#     4  11  23  40  65  89 118 161 209 256 297 351
#     4  12  24  38  60  90 123 156 197 250 305 364
#     4  10  20  32  50  82 118 149 184 231 291 351
#     4  10  22  42  65  90 117 155 208 256 299 353
#     4  11  20  34  57  85 116 152 197 245 290 350
#     4   9  17  34  56  80 110 145 187 235 288 346
#
# _framework density 19.488921000000001
#
# number of rings (size 3 to 8) (size 9 to 14) (size 15 to 20)
#    0.000    1.750    2.500    2.625    0.000    3.500 
#    0.000    1.250    0.000    3.000    0.000    0.000 
#    0.000    0.000    0.000    0.000    0.000    0.000 
#
# Total GULP energy -178216.815096 kJ/mol
# GULP energy per Si atom -5569.275472 kJ/mol
# Density = 1.944456 g / cm^3
# Si number density = 19.488921 Si / 1000 Ang^3
#
#
#
# Elastic Constant Matrix: (Units=GPa)
#
#
# Indices 1 2 3 4 5 6 
#
# 1 81.1926 27.0288 46.3636 0.0000 0.0000 0.0000
# 2 27.0288 27.3981 30.0880 0.0000 0.0000 0.0000
# 3 46.3636 30.0880 88.9474 0.0000 0.0000 0.0000
# 4 0.0000 0.0000 0.0000 28.1592 0.0000 0.0000
# 5 0.0000 0.0000 0.0000 0.0000 9.7935 0.0000
# 6 0.0000 0.0000 0.0000 0.0000 0.0000 5.2744
#
#
#
# Elastic Compliance Matrix: (Units=1/GPa)
#
#
# Indices 1 2 3 4 5 6 
#
# 1 0.020181 -0.013296 -0.006022 0.000000 0.000000 0.000000
# 2 -0.013296 0.066831 -0.015676 0.000000 0.000000 0.000000
# 3 -0.006022 -0.015676 0.019684 0.000000 0.000000 0.000000
# 4 0.000000 0.000000 0.000000 0.035512 0.000000 0.000000
# 5 0.000000 0.000000 0.000000 0.000000 0.102108 0.000000
# 6 0.000000 0.000000 0.000000 0.000000 0.000000 0.189596
#
#
# Mechanical properties :
#
#
# Convention : Reuss Voigt Hill
#
# Bulk Modulus (GPa) = 27.24191 44.94433 36.09312
# Shear Modulus (GPa) = 9.68734 14.91594 12.30164
#
# Velocity S-wave (km/s) = 2.23192 2.76951 2.51512
# Velocity P-wave (km/s) = 4.54428 5.77394 5.19562
#
# Compressibility (1/GPa) = 0.03670815
#
# Stress axis : x y z
#
# Youngs Moduli (GPa) = 49.55080 14.96313 50.80241
#
# Poissons Ratio (x) = 0.19895 0.30592
# Poissons Ratio (y) = 0.65884 0.79638
# Poissons Ratio (z) = 0.29838 0.23456
#
# Static dielectric constant tensor:
#      x y z
#    x 1.730350 0.000000 0.000000 
#    y 0.000000 1.671480 0.000000 
#    z 0.000000 0.000000 1.781140 
# 
# From -- ./inp_files/5069.got.cif
#   From: 2010.05.17/outbox.cif.g08.bks.cpg/sg26_3_cif.got.tgz:5069.got - 2010.06.04 01:07:29.
