data_PCOD9338707
_publ_section_title
;
Structure prediction by ZEFSAII (Michael W. Deem and Ramdas Pophale) SiO2 
 PCOD9338707
Probable space group: P M C 21
;
_chemical_formula_sum "Si O2"
_cell_formula_units_Z 32
_cell_length_a 9.000000
_cell_length_b 12.000000
_cell_length_c 15.000000
_cell_angle_alpha 90.000000
_cell_angle_beta 90.000000
_cell_angle_gamma 90.000000
_cell_volume 1620.000000
_symmetry_space_group_name_H-M "P M C 21"
_symmetry_group_IT_number 26
_symmetry_cell_setting 'orthorhombic'
loop_
_space_group_symop_operation_xyz
x,y,z
-x,-y,1/2+z
-x,y,z
x,-y,1/2+z
loop_
_atom_site_type_symbol
_atom_site_label
_atom_site_fract_x
_atom_site_fract_y
_atom_site_fract_z
Si Si1 0.173229 0.375180 0.563810
Si Si2 0.822612 0.113625 0.564757
Si Si3 0.325654 0.484880 0.913360
Si Si4 0.666442 0.259357 0.146872
Si Si5 0.174523 0.738297 0.471813
Si Si6 0.826491 0.463374 0.229933
Si Si7 0.176469 0.972749 0.399205
Si Si8 0.334134 0.982742 0.720839
O O1 0.201339 0.244693 0.573192
O O2 0.278362 0.429049 0.490111
O O3 0.190722 0.438633 0.657411
O O4 0.000000 0.390978 0.536108
O O5 0.000000 0.093448 0.576867
O O6 0.775212 0.066408 0.468870
O O7 0.729904 0.045591 0.635995
O O8 0.500000 0.492137 0.893619
O O9 0.277108 0.364573 0.948162
O O10 0.224466 0.502107 0.827126
O O11 0.500000 0.275886 0.108152
O O12 0.716818 0.365289 0.201792
O O13 0.660044 0.148140 0.203478
O O14 0.795944 0.241789 0.075327
O O15 0.228650 0.849908 0.424764
O O16 0.000000 0.716532 0.453882
O O17 0.000000 0.429467 0.228653
O O18 0.000000 0.968214 0.405222
O O19 0.226470 0.997739 0.301624
O O20 0.500000 0.023164 0.741224
#
# Coordination Sequence:
#
# PCOD9338707 Si02
#       8
#     4   4   4   4   4   4   4   4
#     4  10  23  43  66  93 125 164 214 262 310 370
#     4  10  22  43  66  92 124 163 212 260 307 367
#     4  12  26  42  64  94 131 167 206 259 318 380
#     4  11  23  41  64  94 128 163 206 260 320 374
#     4  11  22  41  67  93 122 162 214 263 309 369
#     4  11  24  42  66  93 126 168 214 262 309 369
#     4  10  23  41  65  93 123 165 213 259 306 365
#     4  11  25  41  62  94 131 166 203 255 317 378
#
# _framework density 19.753086
#
# number of rings (size 3 to 8) (size 9 to 14) (size 15 to 20)
#    0.000    1.250    2.500    2.625    3.500    4.000 
#    0.000    0.000    0.000    0.000    0.000    0.000 
#    0.000    0.000    0.000    0.000    0.000    0.000 
#
# Total GULP energy -178607.879522 kJ/mol
# GULP energy per Si atom -5581.496235 kJ/mol
# Density = 1.970813 g / cm^3
# Si number density = 19.753086 Si / 1000 Ang^3
#
#
#
# Elastic Constant Matrix: (Units=GPa)
#
#
# Indices 1 2 3 4 5 6 
#
# 1 19.3387 39.1990 -7.4634 0.0000 0.0000 0.0000
# 2 39.1990 96.1178 19.9101 0.0000 0.0000 0.0000
# 3 -7.4634 19.9101 54.8989 0.0000 0.0000 0.0000
# 4 0.0000 0.0000 0.0000 -18.1320 0.0000 0.0000
# 5 0.0000 0.0000 0.0000 0.0000 -78.9831 0.0000
# 6 0.0000 0.0000 0.0000 0.0000 0.0000 22.1837
#
#
#
# Elastic Compliance Matrix: (Units=1/GPa)
#
#
# Indices 1 2 3 4 5 6 
#
# 1 -0.699227 0.329613 -0.214599 0.000000 0.000000 0.000000
# 2 0.329613 -0.144130 0.097081 0.000000 0.000000 0.000000
# 3 -0.214599 0.097081 -0.046167 0.000000 0.000000 0.000000
# 4 0.000000 0.000000 0.000000 -0.055151 0.000000 0.000000
# 5 0.000000 0.000000 0.000000 0.000000 -0.012661 0.000000
# 6 0.000000 0.000000 0.000000 0.000000 0.000000 0.045078
#
#
# Mechanical properties :
#
#
# Convention : Reuss Voigt Hill
#
# Bulk Modulus (GPa) = -2.14901 30.40520 14.12810
# Shear Modulus (GPa) = -3.35220 -7.07232 -5.21226
#
# Velocity S-wave (km/s) = -1.30412 -1.89424 -1.62617
# Velocity P-wave (km/s) = 1.83247 3.26219 1.90839
#
# Compressibility (1/GPa) = -0.46533142
#
# Stress axis : x y z
#
# Youngs Moduli (GPa) = -1.43015 -6.93820 -21.66035
#
# Poissons Ratio (x) = 2.28692 -4.64828
# Poissons Ratio (y) = 0.47140 2.10282
# Poissons Ratio (z) = -0.30691 0.67357
#
# Static dielectric constant tensor:
#      x y z
#    x 1.650430 0.000000 0.000000 
#    y 0.000000 1.677750 0.000000 
#    z 0.000000 0.000000 1.653730 
# 
# From -- ./inp_files/4214.got.cif
#   From: 2010.05.17/outbox.ucp.g08.bks.cvg/sg26_3_cif.got.tgz:4214.got - 2010.06.11 15:23:25.
