data_PCOD9338362
_publ_section_title
;
Structure prediction by ZEFSAII (Michael W. Deem and Ramdas Pophale) SiO2 
 PCOD9338362
Probable space group: P M C 21
;
_chemical_formula_sum "Si O2"
_cell_formula_units_Z 32
_cell_length_a 8.938808
_cell_length_b 19.257033
_cell_length_c 10.368288
_cell_angle_alpha 90.000000
_cell_angle_beta 90.000000
_cell_angle_gamma 90.000000
_cell_volume 1784.744432
_symmetry_space_group_name_H-M "P M C 21"
_symmetry_group_IT_number 26
_symmetry_cell_setting 'orthorhombic'
loop_
_space_group_symop_operation_xyz
x,y,z
-x,-y,1/2+z
-x,y,z
x,-y,1/2+z
loop_
_atom_site_type_symbol
_atom_site_label
_atom_site_fract_x
_atom_site_fract_y
_atom_site_fract_z
Si Si1 0.178388 0.048248 0.846360
Si Si2 0.178441 0.423224 0.491943
Si Si3 0.822037 0.340494 0.228343
Si Si4 0.678135 0.659483 0.228068
Si Si5 0.677895 0.790653 0.628420
Si Si6 0.678515 0.047281 0.127322
Si Si7 0.678318 0.575318 0.492330
Si Si8 0.177981 0.210667 0.847638
O O1 0.205299 0.129802 0.816116
O O2 0.000000 0.037546 0.853006
O O3 0.249965 0.000832 0.736300
O O4 0.250210 0.034097 0.986596
O O5 0.207479 0.381490 0.360104
O O6 0.246213 0.380425 0.610405
O O7 0.252894 0.498749 0.485794
O O8 0.000000 0.430751 0.507650
O O9 0.750072 0.264118 0.225512
O O10 0.751164 0.382975 0.110108
O O11 0.000000 0.335087 0.210470
O O12 0.500000 0.663950 0.209686
O O13 0.706649 0.616061 0.359168
O O14 0.747633 0.735419 0.250134
O O15 0.500000 0.779664 0.620191
O O16 0.706154 0.871363 0.659372
O O17 0.750152 0.777065 0.488306
O O18 0.500000 0.036969 0.120800
O O19 0.500000 0.571303 0.511432
O O20 0.000000 0.222046 0.853960
#
# Coordination Sequence:
#
# PCOD9338362 Si02
#       8
#     4   4   4   4   4   4   4   4
#     4  10  21  38  61  90 121 157 197 243 293 349
#     4  11  25  41  57  84 119 154 194 242 297 348
#     4  11  23  39  61  87 116 154 196 241 293 346
#     4  11  23  39  61  88 117 154 196 240 292 346
#     4  10  20  36  60  88 117 152 197 241 286 345
#     4  10  21  38  61  89 121 157 197 244 293 349
#     4  11  23  39  62  88 114 149 195 242 293 352
#     4  10  20  36  61  88 117 153 196 241 287 343
#
# _framework density 17.929738
#
# number of rings (size 3 to 8) (size 9 to 14) (size 15 to 20)
#    0.000    1.500    1.250    3.750    0.000    8.500 
#    2.250    0.000    0.000    0.000    0.000    0.000 
#    0.000    0.000    0.000    0.000    0.000    0.000 
#
# Total GULP energy -178866.895781 kJ/mol
# GULP energy per Si atom -5589.590493 kJ/mol
# Density = 1.788893 g / cm^3
# Si number density = 17.929738 Si / 1000 Ang^3
#
#
#
# Elastic Constant Matrix: (Units=GPa)
#
#
# Indices 1 2 3 4 5 6 
#
# 1 102.6721 85.0538 88.3266 0.0000 0.0000 0.0000
# 2 85.0538 134.7519 84.0229 0.0000 0.0000 0.0000
# 3 88.3266 84.0229 120.7788 0.0000 0.0000 0.0000
# 4 0.0000 0.0000 0.0000 13.9428 0.0000 0.0000
# 5 0.0000 0.0000 0.0000 0.0000 27.5822 0.0000
# 6 0.0000 0.0000 0.0000 0.0000 0.0000 36.3898
#
#
#
# Elastic Compliance Matrix: (Units=1/GPa)
#
#
# Indices 1 2 3 4 5 6 
#
# 1 0.032495 -0.010054 -0.016770 0.000000 0.000000 0.000000
# 2 -0.010054 0.016217 -0.003929 0.000000 0.000000 0.000000
# 3 -0.016770 -0.003929 0.023277 0.000000 0.000000 0.000000
# 4 0.000000 0.000000 0.000000 0.071721 0.000000 0.000000
# 5 0.000000 0.000000 0.000000 0.000000 0.036255 0.000000
# 6 0.000000 0.000000 0.000000 0.000000 0.000000 0.027480
#
#
# Mechanical properties :
#
#
# Convention : Reuss Voigt Hill
#
# Bulk Modulus (GPa) = 95.39013 97.00105 96.19559
# Shear Modulus (GPa) = 18.35229 22.30294 20.32762
#
# Velocity S-wave (km/s) = 3.20279 3.53073 3.37075
# Velocity P-wave (km/s) = 8.18504 8.41662 8.30164
#
# Compressibility (1/GPa) = 0.01048326
#
# Stress axis : x y z
#
# Youngs Moduli (GPa) = 30.77399 61.66354 42.96133
#
# Poissons Ratio (x) = 0.61997 0.72044
# Poissons Ratio (y) = 0.30940 0.16880
# Poissons Ratio (z) = 0.51607 0.24229
#
# Static dielectric constant tensor:
#      x y z
#    x 1.596280 0.000000 0.000000 
#    y 0.000000 1.610490 0.000000 
#    z 0.000000 0.000000 1.576290 
# 
# From -- ./inp_files/3128.got.cif
#   From: 2010.05.17/outbox.cif.g08.bks.cpg/sg26_2_cif.got.tgz:3128.got - 2010.06.04 01:07:29.
