data_PCOD9338259
_publ_section_title
;
Structure prediction by ZEFSAII (Michael W. Deem and Ramdas Pophale) SiO2 
 PCOD9338259
Probable space group: P M C 21
;
_chemical_formula_sum "Si O2"
_cell_formula_units_Z 32
_cell_length_a 9.611869
_cell_length_b 29.142187
_cell_length_c 5.262553
_cell_angle_alpha 90.000000
_cell_angle_beta 90.000000
_cell_angle_gamma 90.000000
_cell_volume 1474.098372
_symmetry_space_group_name_H-M "P M C 21"
_symmetry_group_IT_number 26
_symmetry_cell_setting 'orthorhombic'
loop_
_space_group_symop_operation_xyz
x,y,z
-x,-y,1/2+z
-x,y,z
x,-y,1/2+z
loop_
_atom_site_type_symbol
_atom_site_label
_atom_site_fract_x
_atom_site_fract_y
_atom_site_fract_z
Si Si1 0.650693 0.295759 0.276800
Si Si2 0.668236 0.474576 0.347178
Si Si3 0.347104 0.391730 0.999535
Si Si4 0.668985 0.131573 0.140514
Si Si5 0.848699 0.343219 0.674906
Si Si6 0.852114 0.250707 0.963335
Si Si7 0.333036 0.023821 0.250047
Si Si8 0.834139 0.834680 0.136965
O O1 0.500000 0.285007 0.388357
O O2 0.634097 0.339610 0.091938
O O3 0.755030 0.316331 0.478141
O O4 0.717086 0.252158 0.137978
O O5 0.500000 0.476652 0.360765
O O6 0.716715 0.490599 0.623891
O O7 0.697299 0.424437 0.230038
O O8 0.500000 0.407776 0.905407
O O9 0.231352 0.386687 0.786406
O O10 0.500000 0.141240 0.132371
O O11 0.685506 0.077052 0.188406
O O12 0.748601 0.143564 0.876541
O O13 0.751093 0.154714 0.378094
O O14 0.866157 0.303874 0.888494
O O15 0.000000 0.354891 0.571352
O O16 0.000000 0.236315 0.086743
O O17 0.834396 0.218994 0.718302
O O18 0.500000 0.016417 0.263564
O O19 0.276891 0.007532 0.521460
O O20 0.000000 0.848089 0.124981
#
# Coordination Sequence:
#
# PCOD9338259 Si02
#       8
#     4   4   4   4   4   4   4   4
#     4  10  20  33  54  83 112 141 180 242 297 334
#     4   9  18  31  52  81 110 142 181 225 278 342
#     4   9  19  34  53  79 109 139 178 231 286 332
#     4  11  23  40  64  96 126 159 211 265 309 363
#     4  10  20  35  56  79 106 145 191 233 278 345
#     4   9  21  39  56  76 106 152 202 237 281 356
#     4   9  17  32  58  89 120 156 200 253 309 364
#     4  11  24  42  63  87 125 172 209 250 312 380
#
# _framework density 21.708183999999999
#
# number of rings (size 3 to 8) (size 9 to 14) (size 15 to 20)
#    0.000    2.250    0.000    2.250    3.500    4.000 
#    0.000    0.000    0.000    8.250    0.000    0.000 
#    0.000    0.000    0.000    0.000    0.000    0.000 
#
# Total GULP energy -178356.041470 kJ/mol
# GULP energy per Si atom -5573.626296 kJ/mol
# Density = 2.165878 g / cm^3
# Si number density = 21.708184 Si / 1000 Ang^3
#
#
#
# Elastic Constant Matrix: (Units=GPa)
#
#
# Indices 1 2 3 4 5 6 
#
# 1 133.4580 16.2909 39.6470 0.0000 0.0000 0.0000
# 2 16.2909 53.1867 8.6008 0.0000 0.0000 0.0000
# 3 39.6470 8.6008 74.0771 0.0000 0.0000 0.0000
# 4 0.0000 0.0000 0.0000 39.5108 0.0000 0.0000
# 5 0.0000 0.0000 0.0000 0.0000 36.7066 0.0000
# 6 0.0000 0.0000 0.0000 0.0000 0.0000 27.9478
#
#
#
# Elastic Compliance Matrix: (Units=1/GPa)
#
#
# Indices 1 2 3 4 5 6 
#
# 1 0.009122 -0.002043 -0.004645 0.000000 0.000000 0.000000
# 2 -0.002043 0.019619 -0.001184 0.000000 0.000000 0.000000
# 3 -0.004645 -0.001184 0.016123 0.000000 0.000000 0.000000
# 4 0.000000 0.000000 0.000000 0.025310 0.000000 0.000000
# 5 0.000000 0.000000 0.000000 0.000000 0.027243 0.000000
# 6 0.000000 0.000000 0.000000 0.000000 0.000000 0.035781
#
#
# Mechanical properties :
#
#
# Convention : Reuss Voigt Hill
#
# Bulk Modulus (GPa) = 34.34156 43.31100 38.82628
# Shear Modulus (GPa) = 31.51598 33.91192 32.71395
#
# Velocity S-wave (km/s) = 3.81438 3.95672 3.88620
# Velocity P-wave (km/s) = 5.93745 6.39288 6.16937
#
# Compressibility (1/GPa) = 0.02911924
#
# Stress axis : x y z
#
# Youngs Moduli (GPa) = 109.62103 50.97104 62.02269
#
# Poissons Ratio (x) = 0.10413 0.28811
# Poissons Ratio (y) = 0.22395 0.07346
# Poissons Ratio (z) = 0.50921 0.06037
#
# Static dielectric constant tensor:
#      x y z
#    x 1.703790 0.000000 0.000000 
#    y 0.000000 1.805180 0.000000 
#    z 0.000000 0.000000 1.848140 
# 
# From -- ./inp_files/224.got.cif
#   From: 2010.05.17/outbox.cif.g08.bks.cpg/sg26_1_cif.got.tgz:224.got - 2010.06.04 01:07:29.
