data_PCOD9338199
_publ_section_title
;
Structure prediction by ZEFSAII (Michael W. Deem and Ramdas Pophale) SiO2 
 PCOD9338199
Probable space group: P M C 21
;
_chemical_formula_sum "Si O2"
_cell_formula_units_Z 18
_cell_length_a 11.137195
_cell_length_b 11.780679
_cell_length_c 5.389628
_cell_angle_alpha 90.000000
_cell_angle_beta 90.000000
_cell_angle_gamma 90.000000
_cell_volume 707.139239
_symmetry_space_group_name_H-M "P M C 21"
_symmetry_group_IT_number 26
_symmetry_cell_setting 'orthorhombic'
loop_
_space_group_symop_operation_xyz
x,y,z
-x,-y,1/2+z
-x,y,z
x,-y,1/2+z
loop_
_atom_site_type_symbol
_atom_site_label
_atom_site_fract_x
_atom_site_fract_y
_atom_site_fract_z
Si Si1 0.261881 0.427446 0.760370
Si Si2 0.500000 0.130023 0.306553
Si Si3 0.000000 0.570944 0.353565
Si Si4 0.140603 0.852039 0.314825
Si Si5 0.500000 0.278130 0.806601
Si Si6 0.236183 0.895909 0.814209
O O1 0.264630 0.479009 0.482603
O O2 0.380283 0.353829 0.798865
O O3 0.129227 0.372186 0.801951
O O4 0.500000 0.201786 0.559618
O O5 0.625846 0.065053 0.304027
O O6 0.500000 0.206960 0.060518
O O7 0.000000 0.527690 0.638847
O O8 0.203729 0.823047 0.574008
O O9 0.000000 0.829398 0.311003
O O10 0.156420 0.991171 0.318632
O O11 0.209065 0.825151 0.060269
#
# Coordination Sequence:
#
# PCOD9338199 Si02
#       6
#     4   2   2   4   2   4
#     4  10  19  36  63  90 109 142 191 250 290 322
#     4  12  26  39  53  78 122 172 182 226 284 354
#     4   8  16  30  56  86 110 130 168 234 296 328
#     4  10  19  35  64  89 106 137 195 263 294 323
#     4  12  24  39  57  80 126 154 204 222 282 358
#     4  10  20  35  56  82 114 143 195 228 296 336
#
# _framework density 25.454677
#
# number of rings (size 3 to 8) (size 9 to 14) (size 15 to 20)
#    0.000    1.778    0.000    6.667    0.000    3.556 
#    0.000    0.000   19.556    0.000    0.000    0.000 
#    0.000    0.000    0.000    0.000    0.000    0.000 
#
# Total GULP energy -100763.952084 kJ/mol
# GULP energy per Si atom -5597.997338 kJ/mol
# Density = 2.539674 g / cm^3
# Si number density = 25.454677 Si / 1000 Ang^3
#
#
#
# Elastic Constant Matrix: (Units=GPa)
#
#
# Indices 1 2 3 4 5 6 
#
# 1 230.6031 39.2318 37.7686 0.0000 0.0000 0.0000
# 2 39.2318 40.0424 13.2844 0.0000 0.0000 0.0000
# 3 37.7686 13.2844 223.8325 0.0000 0.0000 0.0000
# 4 0.0000 0.0000 0.0000 43.7453 0.0000 0.0000
# 5 0.0000 0.0000 0.0000 0.0000 61.3048 0.0000
# 6 0.0000 0.0000 0.0000 0.0000 0.0000 112.0521
#
#
#
# Elastic Compliance Matrix: (Units=1/GPa)
#
#
# Indices 1 2 3 4 5 6 
#
# 1 0.005281 -0.004976 -0.000596 0.000000 0.000000 0.000000
# 2 -0.004976 0.030164 -0.000951 0.000000 0.000000 0.000000
# 3 -0.000596 -0.000951 0.004625 0.000000 0.000000 0.000000
# 4 0.000000 0.000000 0.000000 0.022860 0.000000 0.000000
# 5 0.000000 0.000000 0.000000 0.000000 0.016312 0.000000
# 6 0.000000 0.000000 0.000000 0.000000 0.000000 0.008924
#
#
# Mechanical properties :
#
#
# Convention : Reuss Voigt Hill
#
# Bulk Modulus (GPa) = 37.00324 75.00531 56.00427
# Shear Modulus (GPa) = 45.36453 70.36664 57.86559
#
# Velocity S-wave (km/s) = 4.22615 5.26345 4.77306
# Velocity P-wave (km/s) = 6.19535 8.15284 7.24055
#
# Compressibility (1/GPa) = 0.02702466
#
# Stress axis : x y z
#
# Youngs Moduli (GPa) = 189.37309 33.15185 216.23676
#
# Poissons Ratio (x) = 0.16497 0.12881
# Poissons Ratio (y) = 0.94233 0.20555
# Poissons Ratio (z) = 0.11281 0.03151
#
# Static dielectric constant tensor:
#      x y z
#    x 1.923230 0.000000 0.000000 
#    y 0.000000 2.132880 0.000000 
#    z 0.000000 0.000000 1.992210 
# 
# From -- ./inp_files/313.got.cif
#   From: 2010.05.17/outbox.cif.g08.bks.cpg/sg26_1_cif.got.tgz:313.got - 2010.06.04 01:07:29.
