data_PCOD9338709
_publ_section_title
;
Structure prediction by ZEFSAII (Michael W. Deem and Ramdas Pophale) SiO2 
 PCOD9338709
Probable space group: P M C 21
;
_chemical_formula_sum "Si O2"
_cell_formula_units_Z 24
_cell_length_a 12.000000
_cell_length_b 12.000000
_cell_length_c 9.000000
_cell_angle_alpha 90.000000
_cell_angle_beta 90.000000
_cell_angle_gamma 90.000000
_cell_volume 1296.000000
_symmetry_space_group_name_H-M "P M C 21"
_symmetry_group_IT_number 26
_symmetry_cell_setting 'orthorhombic'
loop_
_space_group_symop_operation_xyz
x,y,z
-x,-y,1/2+z
-x,y,z
x,-y,1/2+z
loop_
_atom_site_type_symbol
_atom_site_label
_atom_site_fract_x
_atom_site_fract_y
_atom_site_fract_z
Si Si1 0.639613 0.616528 0.396090
Si Si2 0.000000 0.430333 0.448648
Si Si3 0.000000 0.667306 0.600018
Si Si4 0.256870 0.606332 0.058274
Si Si5 0.788295 0.176590 0.014574
Si Si6 0.370823 0.159828 0.507365
Si Si7 0.724093 0.008131 0.764393
O O1 0.500000 0.617921 0.390028
O O2 0.685726 0.504531 0.482663
O O3 0.698267 0.609145 0.230987
O O4 0.690038 0.730804 0.474270
O O5 0.000000 0.384716 0.273232
O O6 0.121189 0.396412 0.525361
O O7 0.000000 0.563734 0.482867
O O8 0.892572 0.745171 0.563256
O O9 0.300769 0.725321 0.994088
O O10 0.797591 0.093024 0.869626
O O11 0.771530 0.086279 0.149340
O O12 0.500000 0.190700 0.503703
O O13 0.344007 0.069092 0.379636
O O14 0.343184 0.094409 0.660247
#
# Coordination Sequence:
#
# PCOD9338709 Si02
#       7
#     4   2   2   4   4   4   4
#     4  12  26  45  69 106 146 185 239 303 373 440
#     4  12  26  46  74 107 147 189 249 293 361 442
#     4  12  26  46  74 105 145 189 243 301 357 432
#     4  12  26  45  70 104 143 190 240 301 365 428
#     4  11  25  46  70 102 142 185 243 296 361 426
#     4  11  22  41  67  99 138 183 237 292 359 429
#     4  10  24  43  66  99 139 189 238 289 359 426
#
# _framework density 18.518519000000001
#
# number of rings (size 3 to 8) (size 9 to 14) (size 15 to 20)
#    0.000    0.667    3.333    4.000    2.333    4.000 
#    0.000    3.333    0.000    0.000    0.000    0.000 
#    0.000    0.000    0.000    0.000    0.000    0.000 
#
# Total GULP energy -133702.888836 kJ/mol
# GULP energy per Si atom -5570.953701 kJ/mol
# Density = 1.847637 g / cm^3
# Si number density = 18.518519 Si / 1000 Ang^3
#
#
#
# Elastic Constant Matrix: (Units=GPa)
#
#
# Indices 1 2 3 4 5 6 
#
# 1 169.5428 64.3083 45.9145 0.0000 0.0000 0.0000
# 2 64.3083 170.7131 42.1820 0.0000 0.0000 0.0000
# 3 45.9145 42.1820 126.6628 0.0000 0.0000 0.0000
# 4 0.0000 0.0000 0.0000 59.4267 0.0000 0.0000
# 5 0.0000 0.0000 0.0000 0.0000 28.5746 0.0000
# 6 0.0000 0.0000 0.0000 0.0000 0.0000 45.4561
#
#
#
# Elastic Compliance Matrix: (Units=1/GPa)
#
#
# Indices 1 2 3 4 5 6 
#
# 1 0.007269 -0.002274 -0.001878 0.000000 0.000000 0.000000
# 2 -0.002274 0.007095 -0.001538 0.000000 0.000000 0.000000
# 3 -0.001878 -0.001538 0.009088 0.000000 0.000000 0.000000
# 4 0.000000 0.000000 0.000000 0.016827 0.000000 0.000000
# 5 0.000000 0.000000 0.000000 0.000000 0.034996 0.000000
# 6 0.000000 0.000000 0.000000 0.000000 0.000000 0.021999
#
#
# Mechanical properties :
#
#
# Convention : Reuss Voigt Hill
#
# Bulk Modulus (GPa) = 82.84135 85.74758 84.29446
# Shear Modulus (GPa) = 44.37376 47.65909 46.01642
#
# Velocity S-wave (km/s) = 4.90039 5.07856 4.99027
# Velocity P-wave (km/s) = 8.76641 8.98851 8.87815
#
# Compressibility (1/GPa) = 0.01207127
#
# Stress axis : x y z
#
# Youngs Moduli (GPa) = 137.56241 140.95094 110.03652
#
# Poissons Ratio (x) = 0.32059 0.20661
# Poissons Ratio (y) = 0.31288 0.16926
# Poissons Ratio (z) = 0.25830 0.21681
#
# Static dielectric constant tensor:
#      x y z
#    x 1.658070 0.000000 0.000000 
#    y 0.000000 1.631860 0.000000 
#    z 0.000000 0.000000 1.689160 
# 
# From -- ./inp_files/1844.got.cif
#   From: 2010.05.17/outbox.ucp.g08.bks.cvg/sg26_1_cif.got.tgz:1844.got - 2010.06.11 15:23:25.
