data_PCOD9338352
_publ_section_title
;
Structure prediction by ZEFSAII (Michael W. Deem and Ramdas Pophale) SiO2 
 PCOD9338352
Probable space group: P M C 21
;
_chemical_formula_sum "Si O2"
_cell_formula_units_Z 32
_cell_length_a 8.108296
_cell_length_b 10.738820
_cell_length_c 14.322970
_cell_angle_alpha 90.000000
_cell_angle_beta 90.000000
_cell_angle_gamma 90.000000
_cell_volume 1247.151576
_symmetry_space_group_name_H-M "P M C 21"
_symmetry_group_IT_number 26
_symmetry_cell_setting 'orthorhombic'
loop_
_space_group_symop_operation_xyz
x,y,z
-x,-y,1/2+z
-x,y,z
x,-y,1/2+z
loop_
_atom_site_type_symbol
_atom_site_label
_atom_site_fract_x
_atom_site_fract_y
_atom_site_fract_z
Si Si1 0.307066 0.200823 0.068490
Si Si2 0.190668 0.551407 0.106959
Si Si3 0.315530 0.283234 0.455073
Si Si4 0.813838 0.971344 0.954927
Si Si5 0.696306 0.355732 0.900036
Si Si6 0.306245 0.785745 0.217236
Si Si7 0.699694 0.938935 0.742458
Si Si8 0.192437 0.589052 0.782458
O O1 0.500000 0.229487 0.080342
O O2 0.236720 0.166262 0.170461
O O3 0.239086 0.308596 0.000153
O O4 0.294414 0.072370 0.008899
O O5 0.286048 0.591047 0.014073
O O6 0.204498 0.679353 0.166401
O O7 0.257163 0.448678 0.180027
O O8 0.000000 0.526156 0.086260
O O9 0.500000 0.239190 0.468414
O O10 0.202395 0.171125 0.489737
O O11 0.287054 0.312977 0.346365
O O12 0.767862 0.951729 0.846402
O O13 0.000000 0.016268 0.963834
O O14 0.500000 0.387168 0.904907
O O15 0.707223 0.239651 0.828078
O O16 0.790259 0.464159 0.845636
O O17 0.500000 0.766060 0.192995
O O18 0.260503 0.926770 0.196852
O O19 0.500000 0.930537 0.747788
O O20 0.000000 0.621124 0.776421
#
# Coordination Sequence:
#
# PCOD9338352 Si02
#       8
#     4   4   4   4   4   4   4   4
#     4  10  20  37  62  91 123 162 207 250 296 360
#     4  10  21  38  63  94 124 155 199 254 310 364
#     4  12  25  43  66  89 120 163 211 254 300 365
#     4  12  25  40  61  90 128 165 202 254 313 367
#     4   9  17  33  57  85 116 152 199 247 293 350
#     4   9  16  30  55  84 118 158 202 248 289 346
#     4  10  20  36  58  86 121 163 204 247 299 360
#     4  10  22  41  64  91 122 156 198 254 312 360
#
# _framework density 25.658467000000002
#
# number of rings (size 3 to 8) (size 9 to 14) (size 15 to 20)
#    0.000    1.750    1.250    3.750    0.000    4.000 
#    2.250    0.000    0.000    0.000    0.000    0.000 
#    0.000    0.000    0.000    0.000    0.000    0.000 
#
# Total GULP energy -179071.823948 kJ/mol
# GULP energy per Si atom -5595.994498 kJ/mol
# Density = 2.560007 g / cm^3
# Si number density = 25.658467 Si / 1000 Ang^3
#
#
#
# Elastic Constant Matrix: (Units=GPa)
#
#
# Indices 1 2 3 4 5 6 
#
# 1 51.7509 -1.1673 4.3454 0.0000 0.0000 0.0000
# 2 -1.1673 73.1478 6.0488 0.0000 0.0000 0.0000
# 3 4.3454 6.0488 155.0137 0.0000 0.0000 0.0000
# 4 0.0000 0.0000 0.0000 49.8393 0.0000 0.0000
# 5 0.0000 0.0000 0.0000 0.0000 27.3294 0.0000
# 6 0.0000 0.0000 0.0000 0.0000 0.0000 20.8224
#
#
#
# Elastic Compliance Matrix: (Units=1/GPa)
#
#
# Indices 1 2 3 4 5 6 
#
# 1 0.019378 0.000355 -0.000557 0.000000 0.000000 0.000000
# 2 0.000355 0.013722 -0.000545 0.000000 0.000000 0.000000
# 3 -0.000557 -0.000545 0.006488 0.000000 0.000000 0.000000
# 4 0.000000 0.000000 0.000000 0.020064 0.000000 0.000000
# 5 0.000000 0.000000 0.000000 0.000000 0.036591 0.000000
# 6 0.000000 0.000000 0.000000 0.000000 0.000000 0.048025
#
#
# Mechanical properties :
#
#
# Convention : Reuss Voigt Hill
#
# Bulk Modulus (GPa) = 26.25123 33.15179 29.70151
# Shear Modulus (GPa) = 31.55366 37.64392 34.59879
#
# Velocity S-wave (km/s) = 3.51059 3.83445 3.67609
# Velocity P-wave (km/s) = 5.16581 5.70548 5.44234
#
# Compressibility (1/GPa) = 0.03809345
#
# Stress axis : x y z
#
# Youngs Moduli (GPa) = 51.60454 72.87718 154.13207
#
# Poissons Ratio (x) = -0.02589 0.08586
# Poissons Ratio (y) = -0.01834 0.08406
# Poissons Ratio (z) = 0.02875 0.03975
#
# Static dielectric constant tensor:
#      x y z
#    x 1.879210 0.000000 0.000000 
#    y 0.000000 2.063130 0.000000 
#    z 0.000000 0.000000 2.082410 
# 
# From -- ./inp_files/4204.got.cif
#   From: 2010.05.17/outbox.cif.g08.bks.cpg/sg26_3_cif.got.tgz:4204.got - 2010.06.04 01:07:29.
