data_PCOD9338563
_publ_section_title
;
Structure prediction by ZEFSAII (Michael W. Deem and Ramdas Pophale) SiO2 
 PCOD9338563
Probable space group: P M C 21
;
_chemical_formula_sum "Si O2"
_cell_formula_units_Z 26
_cell_length_a 7.177903
_cell_length_b 7.541268
_cell_length_c 20.950921
_cell_angle_alpha 90.000000
_cell_angle_beta 90.000000
_cell_angle_gamma 90.000000
_cell_volume 1134.083624
_symmetry_space_group_name_H-M "P M C 21"
_symmetry_group_IT_number 26
_symmetry_cell_setting 'orthorhombic'
loop_
_space_group_symop_operation_xyz
x,y,z
-x,-y,1/2+z
-x,y,z
x,-y,1/2+z
loop_
_atom_site_type_symbol
_atom_site_label
_atom_site_fract_x
_atom_site_fract_y
_atom_site_fract_z
Si Si1 0.723397 0.651363 0.117540
Si Si2 0.272944 0.410365 0.757263
Si Si3 0.722760 0.067449 0.137724
Si Si4 0.725894 0.694802 0.861754
Si Si5 0.274243 0.990402 0.280672
Si Si6 0.276135 0.477956 0.985526
Si Si7 0.000000 0.762090 0.536174
O O1 0.500000 0.634930 0.116069
O O2 0.787006 0.565856 0.183927
O O3 0.790128 0.561965 0.052969
O O4 0.761573 0.860788 0.120477
O O5 0.500000 0.412049 0.756443
O O6 0.214745 0.558438 0.806717
O O7 0.214659 0.213503 0.778811
O O8 0.500000 0.100009 0.131925
O O9 0.772934 0.080952 0.212628
O O10 0.838310 0.183377 0.089062
O O11 0.500000 0.697777 0.861824
O O12 0.787053 0.888982 0.839478
O O13 0.777451 0.614058 0.929680
O O14 0.500000 0.984918 0.281187
O O15 0.500000 0.455393 0.984345
O O16 0.163826 0.296680 0.984290
#
# Coordination Sequence:
#
# PCOD9338563 Si02
#       7
#     4   4   4   4   4   4   2
#     4   8  16  34  60  86 116 152 196 247 295 348
#     4   8  14  27  53  86 112 145 194 244 294 348
#     4   9  19  37  60  88 115 149 197 249 301 353
#     4   9  17  31  54  82 115 154 194 240 295 356
#     4   8  15  30  55  85 113 143 193 249 297 353
#     4  10  22  39  57  85 121 159 199 238 295 361
#     4  12  24  36  56  84 120 154 190 244 290 354
#
# _framework density 22.925999000000001
#
# number of rings (size 3 to 8) (size 9 to 14) (size 15 to 20)
#    0.000    3.077    0.000    2.308    2.154    0.615 
#    2.769    0.769    0.000    0.923    0.000    0.000 
#    0.000    0.000    0.000    0.000    0.000    0.000 
#
# Total GULP energy -144739.473593 kJ/mol
# GULP energy per Si atom -5566.902831 kJ/mol
# Density = 2.287382 g / cm^3
# Si number density = 22.925999 Si / 1000 Ang^3
#
#
#
# Elastic Constant Matrix: (Units=GPa)
#
#
# Indices 1 2 3 4 5 6 
#
# 1 133.8974 -2.7483 -1.1452 0.0000 0.0000 0.0000
# 2 -2.7483 41.6643 32.8973 0.0000 0.0000 0.0000
# 3 -1.1452 32.8973 86.4488 0.0000 0.0000 0.0000
# 4 0.0000 0.0000 0.0000 -18.2553 0.0000 0.0000
# 5 0.0000 0.0000 0.0000 0.0000 -61.5275 0.0000
# 6 0.0000 0.0000 0.0000 0.0000 0.0000 111.7721
#
#
#
# Elastic Compliance Matrix: (Units=1/GPa)
#
#
# Indices 1 2 3 4 5 6 
#
# 1 0.007479 0.000593 -0.000127 0.000000 0.000000 0.000000
# 2 0.000593 0.034358 -0.013067 0.000000 0.000000 0.000000
# 3 -0.000127 -0.013067 0.016538 0.000000 0.000000 0.000000
# 4 0.000000 0.000000 0.000000 -0.054779 0.000000 0.000000
# 5 0.000000 0.000000 0.000000 0.000000 -0.016253 0.000000
# 6 0.000000 0.000000 0.000000 0.000000 0.000000 0.008947
#
#
# Mechanical properties :
#
#
# Convention : Reuss Voigt Hill
#
# Bulk Modulus (GPa) = 30.14270 35.55758 32.85014
# Shear Modulus (GPa) = 153.61445 21.93164 87.77305
#
# Velocity S-wave (km/s) = 8.19451 3.09630 6.19423
# Velocity P-wave (km/s) = 10.13458 5.32223 8.09431
#
# Compressibility (1/GPa) = 0.03317553
#
# Stress axis : x y z
#
# Youngs Moduli (GPa) = 133.69878 29.10558 60.46583
#
# Poissons Ratio (x) = -0.01727 0.00766
# Poissons Ratio (y) = -0.07934 0.79009
# Poissons Ratio (z) = 0.01695 0.38031
#
# Static dielectric constant tensor:
#      x y z
#    x 1.849270 0.000000 0.000000 
#    y 0.000000 1.891660 0.000000 
#    z 0.000000 0.000000 1.819930 
# 
# From -- ./inp_files/4948.got.cif
#   From: 2010.05.17/outbox.cif.g08.bks.cpg/sg26_3_cif.got.tgz:4948.got - 2010.06.04 01:07:29.
