data_PCOD9338386
_publ_section_title
;
Structure prediction by ZEFSAII (Michael W. Deem and Ramdas Pophale) SiO2 
 PCOD9338386
Probable space group: P M C 21
;
_chemical_formula_sum "Si O2"
_cell_formula_units_Z 24
_cell_length_a 13.941825
_cell_length_b 11.956384
_cell_length_c 7.730755
_cell_angle_alpha 90.000000
_cell_angle_beta 90.000000
_cell_angle_gamma 90.000000
_cell_volume 1288.669031
_symmetry_space_group_name_H-M "P M C 21"
_symmetry_group_IT_number 26
_symmetry_cell_setting 'orthorhombic'
loop_
_space_group_symop_operation_xyz
x,y,z
-x,-y,1/2+z
-x,y,z
x,-y,1/2+z
loop_
_atom_site_type_symbol
_atom_site_label
_atom_site_fract_x
_atom_site_fract_y
_atom_site_fract_z
Si Si1 0.392984 0.250499 0.275910
Si Si2 0.206008 0.902618 0.787120
Si Si3 0.823503 0.147449 0.908137
Si Si4 0.323529 0.352533 0.941503
Si Si5 0.706015 0.402679 0.562569
Si Si6 0.107016 0.249553 0.573799
O O1 0.500000 0.211721 0.321464
O O2 0.310908 0.155100 0.276401
O O3 0.354138 0.341693 0.412659
O O4 0.395163 0.307356 0.086696
O O5 0.151270 0.882918 0.605340
O O6 0.218167 0.032804 0.829289
O O7 0.145850 0.841627 0.937017
O O8 0.749957 0.249965 0.924775
O O9 0.895149 0.192665 0.762991
O O10 0.348750 0.382977 0.744325
O O11 0.281800 0.467139 0.020393
O O12 0.810908 0.344950 0.573323
O O13 0.000000 0.288341 0.528277
#
# Coordination Sequence:
#
# PCOD9338386 Si02
#       6
#     4   4   4   4   4   4
#     4  10  22  38  60  87 115 156 203 240 290 351
#     4  10  20  39  60  84 120 155 190 248 298 337
#     4  10  20  37  62  81 114 154 195 239 295 344
#     4  10  20  37  62  81 114 154 195 239 295 344
#     4  10  20  39  60  84 120 155 190 248 298 337
#     4  10  22  38  60  87 115 156 203 240 290 351
#
# _framework density 18.623866
#
# number of rings (size 3 to 8) (size 9 to 14) (size 15 to 20)
#    0.000    2.000    3.333    0.000    0.000    2.667 
#    0.000    6.667    0.000    0.000    0.000    0.000 
#    0.000    0.000    0.000    0.000    0.000    0.000 
#
# Total GULP energy -133633.065352 kJ/mol
# GULP energy per Si atom -5568.044390 kJ/mol
# Density = 1.858148 g / cm^3
# Si number density = 18.623866 Si / 1000 Ang^3
#
#
#
# Elastic Constant Matrix: (Units=GPa)
#
#
# Indices 1 2 3 4 5 6 
#
# 1 101.5671 3.8888 27.9833 0.0000 0.0000 0.0000
# 2 3.8888 62.6771 11.6165 0.0000 0.0000 0.0000
# 3 27.9833 11.6165 120.9524 0.0000 0.0000 0.0000
# 4 0.0000 0.0000 0.0000 31.9072 0.0000 0.0000
# 5 0.0000 0.0000 0.0000 0.0000 5.9054 0.0000
# 6 0.0000 0.0000 0.0000 0.0000 0.0000 0.1575
#
#
#
# Elastic Compliance Matrix: (Units=1/GPa)
#
#
# Indices 1 2 3 4 5 6 
#
# 1 0.010519 -0.000205 -0.002414 0.000000 0.000000 0.000000
# 2 -0.000205 0.016248 -0.001513 0.000000 0.000000 0.000000
# 3 -0.002414 -0.001513 0.008971 0.000000 0.000000 0.000000
# 4 0.000000 0.000000 0.000000 0.031341 0.000000 0.000000
# 5 0.000000 0.000000 0.000000 0.000000 0.169337 0.000000
# 6 0.000000 0.000000 0.000000 0.000000 0.000000 6.350689
#
#
# Mechanical properties :
#
#
# Convention : Reuss Voigt Hill
#
# Bulk Modulus (GPa) = 36.39822 41.35263 38.87542
# Shear Modulus (GPa) = 0.75706 23.70789 12.23247
#
# Velocity S-wave (km/s) = 0.63826 3.57176 2.56562
# Velocity P-wave (km/s) = 4.48659 6.26596 5.44939
#
# Compressibility (1/GPa) = 0.02747387
#
# Stress axis : x y z
#
# Youngs Moduli (GPa) = 95.06954 61.54622 111.46416
#
# Poissons Ratio (x) = 0.01263 0.26906
# Poissons Ratio (y) = 0.01951 0.16865
# Poissons Ratio (z) = 0.22948 0.09312
#
# Static dielectric constant tensor:
#      x y z
#    x 1.824030 0.000000 0.000000 
#    y 0.000000 1.625060 0.000000 
#    z 0.000000 0.000000 1.693260 
# 
# From -- ./inp_files/1818.got.cif
#   From: 2010.05.17/outbox.cif.g08.bks.cpg/sg26_1_cif.got.tgz:1818.got - 2010.06.04 01:07:29.
