data_PCOD9338418
_publ_section_title
;
Structure prediction by ZEFSAII (Michael W. Deem and Ramdas Pophale) SiO2 
 PCOD9338418
Probable space group: P M C 21
;
_chemical_formula_sum "Si O2"
_cell_formula_units_Z 32
_cell_length_a 17.142583
_cell_length_b 9.254799
_cell_length_c 10.390616
_cell_angle_alpha 90.000000
_cell_angle_beta 90.000000
_cell_angle_gamma 90.000000
_cell_volume 1648.483282
_symmetry_space_group_name_H-M "P M C 21"
_symmetry_group_IT_number 26
_symmetry_cell_setting 'orthorhombic'
loop_
_space_group_symop_operation_xyz
x,y,z
-x,-y,1/2+z
-x,y,z
x,-y,1/2+z
loop_
_atom_site_type_symbol
_atom_site_label
_atom_site_fract_x
_atom_site_fract_y
_atom_site_fract_z
Si Si1 0.784182 0.286692 0.605160
Si Si2 0.343813 0.373596 0.408199
Si Si3 0.643941 0.683206 0.491471
Si Si4 0.585542 0.852585 0.731256
Si Si5 0.290913 0.917005 0.309807
Si Si6 0.910608 0.852402 0.681188
Si Si7 0.782104 0.604476 0.677332
Si Si8 0.852568 0.949896 0.947475
O O1 0.702463 0.318359 0.532719
O O2 0.765061 0.172244 0.715788
O O3 0.811155 0.441386 0.657102
O O4 0.843192 0.209452 0.507968
O O5 0.382158 0.528173 0.437973
O O6 0.401027 0.253460 0.352200
O O7 0.276949 0.394150 0.298541
O O8 0.594003 0.753001 0.605228
O O9 0.655200 0.801509 0.381784
O O10 0.728845 0.650833 0.555487
O O11 0.500000 0.920138 0.735515
O O12 0.655688 0.967444 0.736070
O O13 0.235025 0.998462 0.410894
O O14 0.850404 0.719726 0.690907
O O15 0.888100 0.946679 0.555990
O O16 0.000000 0.805771 0.671298
O O17 0.898535 0.941943 0.813431
#
# Coordination Sequence:
#
# PCOD9338418 Si02
#       8
#     4   4   4   4   4   4   4   4
#     4  11  21  36  69  94 115 156 223 264 310 363
#     4  10  20  40  65  89 117 162 213 261 309 376
#     4  10  21  39  65  88 118 159 214 263 305 367
#     4  11  25  40  58  93 131 163 203 261 331 385
#     4  12  21  39  67  96 119 166 217 267 308 376
#     4  12  25  42  63  96 136 173 205 261 332 386
#     4  10  20  39  65  93 117 158 212 267 304 372
#     4  12  22  41  67  95 129 169 221 260 308 385
#
# _framework density 19.411784000000001
#
# number of rings (size 3 to 8) (size 9 to 14) (size 15 to 20)
#    0.000    1.000    6.250    1.875    0.000    1.000 
#    0.000    1.250    0.000    0.000    0.000    0.000 
#    0.000    0.000    0.000    0.000    0.000    0.000 
#
# Total GULP energy -178759.394609 kJ/mol
# GULP energy per Si atom -5586.231082 kJ/mol
# Density = 1.936760 g / cm^3
# Si number density = 19.411784 Si / 1000 Ang^3
#
#
#
# Elastic Constant Matrix: (Units=GPa)
#
#
# Indices 1 2 3 4 5 6 
#
# 1 55.1234 17.9095 13.9723 0.0000 0.0000 0.0000
# 2 17.9095 97.7301 31.8939 0.0000 0.0000 0.0000
# 3 13.9723 31.8939 75.8865 0.0000 0.0000 0.0000
# 4 0.0000 0.0000 0.0000 38.9222 0.0000 0.0000
# 5 0.0000 0.0000 0.0000 0.0000 6.2620 0.0000
# 6 0.0000 0.0000 0.0000 0.0000 0.0000 14.7784
#
#
#
# Elastic Compliance Matrix: (Units=1/GPa)
#
#
# Indices 1 2 3 4 5 6 
#
# 1 0.019672 -0.002808 -0.002442 0.000000 0.000000 0.000000
# 2 -0.002808 0.012260 -0.004636 0.000000 0.000000 0.000000
# 3 -0.002442 -0.004636 0.015575 0.000000 0.000000 0.000000
# 4 0.000000 0.000000 0.000000 0.025692 0.000000 0.000000
# 5 0.000000 0.000000 0.000000 0.000000 0.159694 0.000000
# 6 0.000000 0.000000 0.000000 0.000000 0.000000 0.067666
#
#
# Mechanical properties :
#
#
# Convention : Reuss Voigt Hill
#
# Bulk Modulus (GPa) = 36.05369 39.58792 37.82081
# Shear Modulus (GPa) = 15.17097 22.99012 19.08055
#
# Velocity S-wave (km/s) = 2.79863 3.44516 3.13858
# Velocity P-wave (km/s) = 5.39041 6.02192 5.71489
#
# Compressibility (1/GPa) = 0.02773641
#
# Stress axis : x y z
#
# Youngs Moduli (GPa) = 50.83251 81.56837 64.20378
#
# Poissons Ratio (x) = 0.22906 0.15678
# Poissons Ratio (y) = 0.14275 0.29762
# Poissons Ratio (z) = 0.12413 0.37811
#
# Static dielectric constant tensor:
#      x y z
#    x 1.651100 0.000000 0.000000 
#    y 0.000000 1.682650 0.000000 
#    z 0.000000 0.000000 1.710550 
# 
# From -- ./inp_files/3607.got.cif
#   From: 2010.05.17/outbox.cif.g08.bks.cpg/sg26_2_cif.got.tgz:3607.got - 2010.06.04 01:07:29.
