data_PCOD9338174
_publ_section_title
;
Structure prediction by ZEFSAII (Michael W. Deem and Ramdas Pophale) SiO2 
 PCOD9338174
Probable space group: P M C 21
;
_chemical_formula_sum "Si O2"
_cell_formula_units_Z 32
_cell_length_a 8.995272
_cell_length_b 13.003843
_cell_length_c 13.915423
_cell_angle_alpha 90.000000
_cell_angle_beta 90.000000
_cell_angle_gamma 90.000000
_cell_volume 1627.730233
_symmetry_space_group_name_H-M "P M C 21"
_symmetry_group_IT_number 26
_symmetry_cell_setting 'orthorhombic'
loop_
_space_group_symop_operation_xyz
x,y,z
-x,-y,1/2+z
-x,y,z
x,-y,1/2+z
loop_
_atom_site_type_symbol
_atom_site_label
_atom_site_fract_x
_atom_site_fract_y
_atom_site_fract_z
Si Si1 0.326821 0.915776 0.678740
Si Si2 0.678596 0.747478 0.342118
Si Si3 0.820008 0.587580 0.483636
Si Si4 0.671090 0.049439 0.948946
Si Si5 0.170167 0.156118 0.462693
Si Si6 0.179540 0.692105 0.686467
Si Si7 0.171242 0.129942 0.692255
Si Si8 0.819380 0.624608 0.893975
O O1 0.500000 0.913354 0.707697
O O2 0.321478 0.930542 0.562958
O O3 0.249049 0.806169 0.698480
O O4 0.247091 0.019849 0.715139
O O5 0.500000 0.739331 0.344948
O O6 0.752983 0.653687 0.396753
O O7 0.732091 0.849006 0.399672
O O8 0.738467 0.775248 0.237304
O O9 0.774171 0.637152 0.586326
O O10 0.771971 0.470914 0.459737
O O11 0.000000 0.591867 0.481142
O O12 0.500000 0.041483 0.921012
O O13 0.747632 0.943142 0.923535
O O14 0.171517 0.144320 0.577568
O O15 0.234673 0.265699 0.433146
O O16 0.000000 0.152591 0.428851
O O17 0.218374 0.624039 0.780493
O O18 0.000000 0.703278 0.684105
O O19 0.000000 0.130413 0.724882
O O20 0.000000 0.624927 0.899319
#
# Coordination Sequence:
#
# PCOD9338174 Si02
#       8
#     4   4   4   4   4   4   4   4
#     4  10  19  35  56  81 117 156 191 236 291 347
#     4  11  22  37  56  83 117 155 194 237 291 348
#     4  10  21  38  60  84 114 153 197 244 292 346
#     4   9  19  34  53  78 112 151 185 228 284 343
#     4   9  19  36  57  82 115 150 188 237 289 342
#     4  10  20  35  58  86 113 148 195 245 291 347
#     4  10  21  35  55  86 119 156 197 239 288 349
#     4   9  20  38  59  86 115 149 193 244 296 344
#
# _framework density 19.659276999999999
#
# number of rings (size 3 to 8) (size 9 to 14) (size 15 to 20)
#    0.000    2.250    1.250    1.125    1.750    3.000 
#    0.000    5.000    0.000    1.500    0.000    0.000 
#    0.000    0.000    0.000    0.000    0.000    0.000 
#
# Total GULP energy -178522.296804 kJ/mol
# GULP energy per Si atom -5578.821775 kJ/mol
# Density = 1.961453 g / cm^3
# Si number density = 19.659277 Si / 1000 Ang^3
#
#
#
# Elastic Constant Matrix: (Units=GPa)
#
#
# Indices 1 2 3 4 5 6 
#
# 1 32.1331 20.6586 11.1945 0.0000 0.0000 0.0000
# 2 20.6586 111.2061 19.0950 0.0000 0.0000 0.0000
# 3 11.1945 19.0950 47.6551 0.0000 0.0000 0.0000
# 4 0.0000 0.0000 0.0000 28.4263 0.0000 0.0000
# 5 0.0000 0.0000 0.0000 0.0000 10.4928 0.0000
# 6 0.0000 0.0000 0.0000 0.0000 0.0000 -25.8869
#
#
#
# Elastic Compliance Matrix: (Units=1/GPa)
#
#
# Indices 1 2 3 4 5 6 
#
# 1 0.037068 -0.005789 -0.006388 0.000000 0.000000 0.000000
# 2 -0.005789 0.010561 -0.002872 0.000000 0.000000 0.000000
# 3 -0.006388 -0.002872 0.023635 0.000000 0.000000 0.000000
# 4 0.000000 0.000000 0.000000 0.035179 0.000000 0.000000
# 5 0.000000 0.000000 0.000000 0.000000 0.095303 0.000000
# 6 0.000000 0.000000 0.000000 0.000000 0.000000 -0.038630
#
#
# Mechanical properties :
#
#
# Convention : Reuss Voigt Hill
#
# Bulk Modulus (GPa) = 24.29151 32.54336 28.41744
# Shear Modulus (GPa) = 24.16204 11.94285 18.05244
#
# Velocity S-wave (km/s) = 3.50957 2.46741 3.03358
# Velocity P-wave (km/s) = 5.36711 4.97062 5.17267
#
# Compressibility (1/GPa) = 0.04116664
#
# Stress axis : x y z
#
# Youngs Moduli (GPa) = 26.97753 94.68918 42.30955
#
# Poissons Ratio (x) = 0.54818 0.27026
# Poissons Ratio (y) = 0.15618 0.12150
# Poissons Ratio (z) = 0.17233 0.27192
#
# Static dielectric constant tensor:
#      x y z
#    x 1.677430 0.000000 0.000000 
#    y 0.000000 1.674380 0.000000 
#    z 0.000000 0.000000 1.741210 
# 
# From -- ./inp_files/4127.got.cif
#   From: 2010.05.17/outbox.cif.g08.bks.cpg/sg26_3_cif.got.tgz:4127.got - 2010.06.04 01:07:29.
