data_PCOD9338215
_publ_section_title
;
Structure prediction by ZEFSAII (Michael W. Deem and Ramdas Pophale) SiO2 
 PCOD9338215
Probable space group: P M C 21
;
_chemical_formula_sum "Si O2"
_cell_formula_units_Z 32
_cell_length_a 7.998338
_cell_length_b 15.968528
_cell_length_c 11.476840
_cell_angle_alpha 90.000000
_cell_angle_beta 90.000000
_cell_angle_gamma 90.000000
_cell_volume 1465.841335
_symmetry_space_group_name_H-M "P M C 21"
_symmetry_group_IT_number 26
_symmetry_cell_setting 'orthorhombic'
loop_
_space_group_symop_operation_xyz
x,y,z
-x,-y,1/2+z
-x,y,z
x,-y,1/2+z
loop_
_atom_site_type_symbol
_atom_site_label
_atom_site_fract_x
_atom_site_fract_y
_atom_site_fract_z
Si Si1 0.808297 0.139607 0.799870
Si Si2 0.196313 0.728796 0.474475
Si Si3 0.303761 0.857035 0.931980
Si Si4 0.802075 0.990324 0.120709
Si Si5 0.302588 0.462240 0.666317
Si Si6 0.697211 0.456984 0.926543
Si Si7 0.808722 0.719356 0.099243
Si Si8 0.304470 0.167952 0.173524
O O1 0.734220 0.058866 0.735604
O O2 0.814425 0.210308 0.699523
O O3 0.000000 0.117566 0.834148
O O4 0.729536 0.191589 0.904451
O O5 0.282026 0.642753 0.440304
O O6 0.216142 0.756228 0.607498
O O7 0.000000 0.720803 0.444277
O O8 0.500000 0.876252 0.927069
O O9 0.235480 0.850181 0.802116
O O10 0.222921 0.928790 0.011512
O O11 0.277898 0.767253 0.993275
O O12 0.000000 0.002256 0.135652
O O13 0.718840 0.079715 0.108086
O O14 0.500000 0.482960 0.670084
O O15 0.232043 0.504520 0.547609
O O16 0.234556 0.481580 0.797311
O O17 0.280608 0.363169 0.645087
O O18 0.500000 0.478164 0.924482
O O19 0.000000 0.697937 0.069399
O O20 0.500000 0.188710 0.182147
#
# Coordination Sequence:
#
# PCOD9338215 Si02
#       8
#     4   4   4   4   4   4   4   4
#     4   8  17  34  57  85 114 145 186 240 292 343
#     4  11  22  39  62  89 120 158 202 249 304 364
#     4  10  22  40  59  84 120 157 198 246 300 364
#     4  10  21  38  61  88 118 154 199 250 301 354
#     4  10  21  38  61  89 123 164 207 253 311 375
#     4  10  22  40  61  89 124 164 209 257 313 377
#     4  10  19  36  62  89 116 148 195 247 299 357
#     4  11  25  41  57  85 123 160 200 248 302 364
#
# _framework density 21.830466000000001
#
# number of rings (size 3 to 8) (size 9 to 14) (size 15 to 20)
#    0.000    2.000    1.250    2.625    1.750    3.500 
#    0.000    3.750    0.000    0.000    0.000    0.000 
#    0.000    0.000    0.000    0.000    0.000    0.000 
#
# Total GULP energy -178544.162610 kJ/mol
# GULP energy per Si atom -5579.505082 kJ/mol
# Density = 2.178078 g / cm^3
# Si number density = 21.830466 Si / 1000 Ang^3
#
#
#
# Elastic Constant Matrix: (Units=GPa)
#
#
# Indices 1 2 3 4 5 6 
#
# 1 24.4980 -9.8142 -1.1492 0.0000 0.0000 0.0000
# 2 -9.8142 52.6452 45.7107 0.0000 0.0000 0.0000
# 3 -1.1492 45.7107 135.2963 0.0000 0.0000 0.0000
# 4 0.0000 0.0000 0.0000 26.5567 0.0000 0.0000
# 5 0.0000 0.0000 0.0000 0.0000 12.7718 0.0000
# 6 0.0000 0.0000 0.0000 0.0000 0.0000 117.3037
#
#
#
# Elastic Compliance Matrix: (Units=1/GPa)
#
#
# Indices 1 2 3 4 5 6 
#
# 1 0.045249 0.011465 -0.003489 0.000000 0.000000 0.000000
# 2 0.011465 0.029785 -0.009966 0.000000 0.000000 0.000000
# 3 -0.003489 -0.009966 0.010729 0.000000 0.000000 0.000000
# 4 0.000000 0.000000 0.000000 0.037655 0.000000 0.000000
# 5 0.000000 0.000000 0.000000 0.000000 0.078297 0.000000
# 6 0.000000 0.000000 0.000000 0.000000 0.000000 0.008525
#
#
# Mechanical properties :
#
#
# Convention : Reuss Voigt Hill
#
# Bulk Modulus (GPa) = 12.22750 31.32602 21.77676
# Shear Modulus (GPa) = 20.70550 43.17258 31.93904
#
# Velocity S-wave (km/s) = 3.08306 4.45188 3.82913
# Velocity P-wave (km/s) = 4.27633 6.38799 5.43569
#
# Compressibility (1/GPa) = 0.08178288
#
# Stress axis : x y z
#
# Youngs Moduli (GPa) = 22.09996 33.57338 93.20910
#
# Poissons Ratio (x) = -0.38492 0.32522
# Poissons Ratio (y) = -0.25337 0.92891
# Poissons Ratio (z) = 0.07711 0.33459
#
# Static dielectric constant tensor:
#      x y z
#    x 1.792330 0.000000 0.000000 
#    y 0.000000 1.758240 0.000000 
#    z 0.000000 0.000000 1.890050 
# 
# From -- ./inp_files/3032.got.cif
#   From: 2010.05.17/outbox.cif.g08.bks.cpg/sg26_2_cif.got.tgz:3032.got - 2010.06.04 01:07:29.
