data_PCOD9338823
_publ_section_title
;
Structure prediction by ZEFSAII (Michael W. Deem and Ramdas Pophale) SiO2 
 PCOD9338823
Probable space group: P C C 2
;
_chemical_formula_sum "Si O2"
_cell_formula_units_Z 28
_cell_length_a 8.276848
_cell_length_b 8.161866
_cell_length_c 20.162240
_cell_angle_alpha 90.000000
_cell_angle_beta 90.000000
_cell_angle_gamma 90.000000
_cell_volume 1362.050532
_symmetry_space_group_name_H-M "P C C 2"
_symmetry_group_IT_number 27
_symmetry_cell_setting 'orthorhombic'
loop_
_space_group_symop_operation_xyz
x,y,z
-x,-y,z
-x,y,1/2+z
x,-y,1/2+z
loop_
_atom_site_type_symbol
_atom_site_label
_atom_site_fract_x
_atom_site_fract_y
_atom_site_fract_z
Si Si1 0.189181 0.567209 0.868800
Si Si2 0.966754 0.825787 0.455834
Si Si3 0.000000 0.000000 0.701592
Si Si4 0.127123 0.651516 0.728434
Si Si5 0.500000 0.000000 0.005636
Si Si6 0.194590 0.481395 0.091961
Si Si7 0.784966 0.146945 0.090956
Si Si8 0.321561 0.318979 0.962667
O O1 0.166616 0.721308 0.917688
O O2 0.230310 0.615561 0.793863
O O3 0.318908 0.446123 0.901817
O O4 0.000000 0.500000 0.866633
O O5 0.916279 0.843146 0.532066
O O6 0.140237 0.746481 0.456074
O O7 0.000000 0.000000 0.423389
O O8 0.853232 0.949532 0.653290
O O9 0.046744 0.830575 0.737752
O O10 0.204989 0.637943 0.655422
O O11 0.000000 0.500000 0.724886
O O12 0.358484 0.942839 0.054002
O O13 0.560619 0.837670 0.966018
O O14 0.248703 0.665097 0.110147
O O15 0.000000 0.500000 0.073780
O O16 0.306037 0.417341 0.032099
#
# Coordination Sequence:
#
# PCOD9338823 Si02
#       8
#     4   4   2   4   2   4   4   4
#     4   9  20  35  56  89 123 158 198 266 324 377
#     4  11  18  33  60  84 115 150 200 258 314 365
#     4  12  20  36  64  92 130 160 210 270 318 380
#     4  10  20  34  57  97 124 155 205 261 327 377
#     4  12  26  34  54  98 124 162 216 264 320 386
#     4  11  18  36  64  88 119 162 203 263 320 375
#     4  12  21  36  58  92 121 157 203 265 318 374
#     4  11  20  37  58  88 125 158 208 261 320 371
#
# _framework density 20.557238999999999
#
# number of rings (size 3 to 8) (size 9 to 14) (size 15 to 20)
#    0.000    1.143    7.857    1.286    1.000    0.571 
#    0.000    0.000    0.000    0.857   11.143    0.000 
#    0.000    0.000    0.000    0.000    0.000    0.000 
#
# Total GULP energy -156099.490139 kJ/mol
# GULP energy per Si atom -5574.981791 kJ/mol
# Density = 2.051045 g / cm^3
# Si number density = 20.557239 Si / 1000 Ang^3
#
#
#
# Elastic Constant Matrix: (Units=GPa)
#
#
# Indices 1 2 3 4 5 6 
#
# 1 43.1513 27.8089 17.3847 0.0000 0.0000 0.0000
# 2 27.8089 144.2983 36.0478 0.0000 0.0000 0.0000
# 3 17.3847 36.0478 96.6671 0.0000 0.0000 0.0000
# 4 0.0000 0.0000 0.0000 -2.5445 0.0000 0.0000
# 5 0.0000 0.0000 0.0000 0.0000 -6.7555 0.0000
# 6 0.0000 0.0000 0.0000 0.0000 0.0000 26.0827
#
#
#
# Elastic Compliance Matrix: (Units=1/GPa)
#
#
# Indices 1 2 3 4 5 6 
#
# 1 0.027360 -0.004459 -0.003258 0.000000 0.000000 0.000000
# 2 -0.004459 0.008369 -0.002319 0.000000 0.000000 0.000000
# 3 -0.003258 -0.002319 0.011795 0.000000 0.000000 0.000000
# 4 0.000000 0.000000 0.000000 -0.393001 0.000000 0.000000
# 5 0.000000 0.000000 0.000000 0.000000 -0.148028 0.000000
# 6 0.000000 0.000000 0.000000 0.000000 0.000000 0.038340
#
#
# Mechanical properties :
#
#
# Convention : Reuss Voigt Hill
#
# Bulk Modulus (GPa) = 36.42550 49.62217 43.02383
# Shear Modulus (GPa) = -11.73869 16.88154 2.57143
#
# Velocity S-wave (km/s) = -2.39220 2.86876 1.11963
# Velocity P-wave (km/s) = 3.18235 5.92992 4.75875
#
# Compressibility (1/GPa) = 0.02745329
#
# Stress axis : x y z
#
# Youngs Moduli (GPa) = 36.54922 119.49282 84.77905
#
# Poissons Ratio (x) = 0.53282 0.27619
# Poissons Ratio (y) = 0.16297 0.19659
# Poissons Ratio (z) = 0.11907 0.27708
#
# Static dielectric constant tensor:
#      x y z
#    x 1.780970 0.000000 0.000000 
#    y 0.000000 1.896740 0.000000 
#    z 0.000000 0.000000 1.756640 
# 
# From -- ./inp_files/4774.got.cif
#   From: 2010.05.17/outbox.cif.g08.bks.cpg/sg27_3_cif.got.tgz:4774.got - 2010.06.04 01:11:05.
