data_PCOD9338167
_publ_section_title
;
Structure prediction by ZEFSAII (Michael W. Deem and Ramdas Pophale) SiO2 
 PCOD9338167
Probable space group: P M C 21
;
_chemical_formula_sum "Si O2"
_cell_formula_units_Z 32
_cell_length_a 7.827488
_cell_length_b 15.890191
_cell_length_c 11.533278
_cell_angle_alpha 90.000000
_cell_angle_beta 90.000000
_cell_angle_gamma 90.000000
_cell_volume 1434.512340
_symmetry_space_group_name_H-M "P M C 21"
_symmetry_group_IT_number 26
_symmetry_cell_setting 'orthorhombic'
loop_
_space_group_symop_operation_xyz
x,y,z
-x,-y,1/2+z
-x,y,z
x,-y,1/2+z
loop_
_atom_site_type_symbol
_atom_site_label
_atom_site_fract_x
_atom_site_fract_y
_atom_site_fract_z
Si Si1 0.201266 0.987337 0.126850
Si Si2 0.703398 0.146196 0.434298
Si Si3 0.800623 0.545301 0.416636
Si Si4 0.696969 0.724224 0.483157
Si Si5 0.203080 0.470110 0.658807
Si Si6 0.195283 0.143675 0.807320
Si Si7 0.296586 0.277659 0.622519
Si Si8 0.701594 0.832453 0.679266
O O1 0.268024 0.938088 0.241778
O O2 0.000000 0.997414 0.143656
O O3 0.280577 0.078523 0.114977
O O4 0.227638 0.927410 0.016485
O O5 0.500000 0.130987 0.428056
O O6 0.727731 0.235736 0.497262
O O7 0.776585 0.151747 0.306002
O O8 0.788735 0.646785 0.421734
O O9 0.728980 0.514691 0.291135
O O10 0.727520 0.515174 0.541711
O O11 0.000000 0.520625 0.417121
O O12 0.500000 0.698688 0.494571
O O13 0.705305 0.809341 0.407905
O O14 0.772710 0.754450 0.605761
O O15 0.232267 0.371522 0.635207
O O16 0.000000 0.488058 0.663869
O O17 0.198865 0.214649 0.707453
O O18 0.000000 0.127471 0.844947
O O19 0.500000 0.274491 0.650344
O O20 0.500000 0.814313 0.691878
#
# Coordination Sequence:
#
# PCOD9338167 Si02
#       8
#     4   4   4   4   4   4   4   4
#     4  10  22  37  57  86 115 148 194 246 294 344
#     4   9  20  39  58  80 114 153 193 238 293 356
#     4  10  22  40  61  86 120 159 200 246 302 365
#     4  11  23  38  59  87 116 153 198 243 293 352
#     4  10  21  38  60  87 119 157 198 243 300 364
#     4  10  20  36  58  83 114 149 187 237 289 344
#     4  10  19  34  60  88 111 144 191 239 288 344
#     4  10  23  40  57  81 117 157 195 240 297 357
#
# _framework density 22.307231999999999
#
# number of rings (size 3 to 8) (size 9 to 14) (size 15 to 20)
#    0.000    2.000    1.250    1.500    1.750    5.000 
#    0.000    0.000    0.000    0.000    0.000    0.000 
#    0.000    0.000    0.000    0.000    0.000    0.000 
#
# Total GULP energy -178536.111633 kJ/mol
# GULP energy per Si atom -5579.253489 kJ/mol
# Density = 2.225646 g / cm^3
# Si number density = 22.307232 Si / 1000 Ang^3
#
#
#
# Elastic Constant Matrix: (Units=GPa)
#
#
# Indices 1 2 3 4 5 6 
#
# 1 33.4420 -5.4719 8.3797 0.0000 0.0000 0.0000
# 2 -5.4719 44.7661 35.1549 0.0000 0.0000 0.0000
# 3 8.3797 35.1549 145.0326 0.0000 0.0000 0.0000
# 4 0.0000 0.0000 0.0000 27.4359 0.0000 0.0000
# 5 0.0000 0.0000 0.0000 0.0000 6.0592 0.0000
# 6 0.0000 0.0000 0.0000 0.0000 0.0000 14.0613
#
#
#
# Elastic Compliance Matrix: (Units=1/GPa)
#
#
# Indices 1 2 3 4 5 6 
#
# 1 0.031843 0.006592 -0.003438 0.000000 0.000000 0.000000
# 2 0.006592 0.028955 -0.007399 0.000000 0.000000 0.000000
# 3 -0.003438 -0.007399 0.008887 0.000000 0.000000 0.000000
# 4 0.000000 0.000000 0.000000 0.036449 0.000000 0.000000
# 5 0.000000 0.000000 0.000000 0.000000 0.165038 0.000000
# 6 0.000000 0.000000 0.000000 0.000000 0.000000 0.071117
#
#
# Mechanical properties :
#
#
# Convention : Reuss Voigt Hill
#
# Bulk Modulus (GPa) = 16.34142 33.26288 24.80215
# Shear Modulus (GPa) = 13.47068 21.85648 17.66358
#
# Velocity S-wave (km/s) = 2.46004 3.13356 2.81700
# Velocity P-wave (km/s) = 3.92563 5.29489 4.66082
#
# Compressibility (1/GPa) = 0.06119418
#
# Stress axis : x y z
#
# Youngs Moduli (GPa) = 31.40457 34.53667 112.52196
#
# Poissons Ratio (x) = -0.22766 0.38680
# Poissons Ratio (y) = -0.20701 0.83258
# Poissons Ratio (z) = 0.10796 0.25555
#
# Static dielectric constant tensor:
#      x y z
#    x 1.811950 0.000000 0.000000 
#    y 0.000000 1.777960 0.000000 
#    z 0.000000 0.000000 1.919590 
# 
# From -- ./inp_files/3027.got.cif
#   From: 2010.05.17/outbox.cif.g08.bks.cpg/sg26_2_cif.got.tgz:3027.got - 2010.06.04 01:07:29.
