data_PCOD9338580
_publ_section_title
;
Structure prediction by ZEFSAII (Michael W. Deem and Ramdas Pophale) SiO2 
 PCOD9338580
Probable space group: P M C 21
;
_chemical_formula_sum "Si O2"
_cell_formula_units_Z 32
_cell_length_a 17.899761
_cell_length_b 5.252162
_cell_length_c 14.206293
_cell_angle_alpha 90.000000
_cell_angle_beta 90.000000
_cell_angle_gamma 90.000000
_cell_volume 1335.568333
_symmetry_space_group_name_H-M "P M C 21"
_symmetry_group_IT_number 26
_symmetry_cell_setting 'orthorhombic'
loop_
_space_group_symop_operation_xyz
x,y,z
-x,-y,1/2+z
-x,y,z
x,-y,1/2+z
loop_
_atom_site_type_symbol
_atom_site_label
_atom_site_fract_x
_atom_site_fract_y
_atom_site_fract_z
Si Si1 0.921378 0.131700 0.821470
Si Si2 0.279850 0.010980 0.547407
Si Si3 0.416327 0.180496 0.159502
Si Si4 0.583565 0.678885 0.287071
Si Si5 0.155441 0.617586 0.471745
Si Si6 0.915274 0.526913 0.649963
Si Si7 0.791642 0.084594 0.226751
Si Si8 0.287059 0.382756 0.373517
O O1 0.916154 0.263400 0.922010
O O2 0.920620 0.321140 0.732354
O O3 0.000000 0.981587 0.815918
O O4 0.838431 0.022988 0.813235
O O5 0.216143 0.818307 0.511024
O O6 0.243392 0.101915 0.647991
O O7 0.353085 0.861941 0.581771
O O8 0.301156 0.210354 0.466182
O O9 0.500000 0.149891 0.119029
O O10 0.409822 0.953564 0.237741
O O11 0.413775 0.458511 0.207221
O O12 0.500000 0.663815 0.330329
O O13 0.650932 0.599964 0.356774
O O14 0.122913 0.436248 0.553088
O O15 0.203693 0.479117 0.393370
O O16 0.857769 0.745264 0.681769
O O17 0.000000 0.617910 0.633031
O O18 0.724391 0.237006 0.274716
#
# Coordination Sequence:
#
# PCOD9338580 Si02
#       8
#     4   4   4   4   4   4   4   4
#     4  11  22  39  63  88 127 173 220 281 349 416
#     4  11  25  40  67  99 133 180 227 283 351 413
#     4  10  23  45  71 102 141 185 231 281 342 413
#     4  10  24  45  72 104 141 186 230 281 344 409
#     4  11  24  40  61  99 129 167 233 291 342 419
#     4  10  22  41  62  86 125 176 222 281 351 415
#     4  11  22  41  62  93 128 173 226 284 342 423
#     4  12  24  39  68  99 136 178 227 290 343 422
#
# _framework density 23.959838000000001
#
# number of rings (size 3 to 8) (size 9 to 14) (size 15 to 20)
#    0.000    1.250    3.750    1.500    5.250    0.500 
#    0.000    0.625    0.000    0.000    0.000    0.000 
#    0.000    0.000    0.000    0.000    0.000    0.000 
#
# Total GULP energy -178527.116715 kJ/mol
# GULP energy per Si atom -5578.972397 kJ/mol
# Density = 2.390530 g / cm^3
# Si number density = 23.959838 Si / 1000 Ang^3
#
#
#
# Elastic Constant Matrix: (Units=GPa)
#
#
# Indices 1 2 3 4 5 6 
#
# 1 143.5146 5.2897 40.6612 0.0000 0.0000 0.0000
# 2 5.2897 44.4441 2.8385 0.0000 0.0000 0.0000
# 3 40.6612 2.8385 59.0173 0.0000 0.0000 0.0000
# 4 0.0000 0.0000 0.0000 30.7303 0.0000 0.0000
# 5 0.0000 0.0000 0.0000 0.0000 55.1828 0.0000
# 6 0.0000 0.0000 0.0000 0.0000 0.0000 26.8628
#
#
#
# Elastic Compliance Matrix: (Units=1/GPa)
#
#
# Indices 1 2 3 4 5 6 
#
# 1 0.008677 -0.000653 -0.005947 0.000000 0.000000 0.000000
# 2 -0.000653 0.022619 -0.000638 0.000000 0.000000 0.000000
# 3 -0.005947 -0.000638 0.021072 0.000000 0.000000 0.000000
# 4 0.000000 0.000000 0.000000 0.032541 0.000000 0.000000
# 5 0.000000 0.000000 0.000000 0.000000 0.018122 0.000000
# 6 0.000000 0.000000 0.000000 0.000000 0.000000 0.037226
#
#
# Mechanical properties :
#
#
# Convention : Reuss Voigt Hill
#
# Bulk Modulus (GPa) = 26.39066 38.28387 32.33727
# Shear Modulus (GPa) = 29.87530 35.76763 32.82147
#
# Velocity S-wave (km/s) = 3.53496 3.86789 3.70517
# Velocity P-wave (km/s) = 5.26306 5.99670 5.64182
#
# Compressibility (1/GPa) = 0.03789219
#
# Stress axis : x y z
#
# Youngs Moduli (GPa) = 115.24936 44.21133 47.45642
#
# Poissons Ratio (x) = 0.02887 0.28221
# Poissons Ratio (y) = 0.07525 0.03028
# Poissons Ratio (z) = 0.68535 0.02821
#
# Static dielectric constant tensor:
#      x y z
#    x 1.889480 0.000000 0.000000 
#    y 0.000000 2.044970 0.000000 
#    z 0.000000 0.000000 2.008180 
# 
# From -- ./inp_files/4711.got.cif
#   From: 2010.05.17/outbox.cif.g08.bks.cpg/sg26_3_cif.got.tgz:4711.got - 2010.06.04 01:07:29.
