data_PCOD9338335
_publ_section_title
;
Structure prediction by ZEFSAII (Michael W. Deem and Ramdas Pophale) SiO2 
 PCOD9338335
Probable space group: P M C 21
;
_chemical_formula_sum "Si O2"
_cell_formula_units_Z 20
_cell_length_a 8.051095
_cell_length_b 13.036095
_cell_length_c 7.740429
_cell_angle_alpha 90.000000
_cell_angle_beta 90.000000
_cell_angle_gamma 90.000000
_cell_volume 812.395482
_symmetry_space_group_name_H-M "P M C 21"
_symmetry_group_IT_number 26
_symmetry_cell_setting 'orthorhombic'
loop_
_space_group_symop_operation_xyz
x,y,z
-x,-y,1/2+z
-x,y,z
x,-y,1/2+z
loop_
_atom_site_type_symbol
_atom_site_label
_atom_site_fract_x
_atom_site_fract_y
_atom_site_fract_z
Si Si1 0.318532 0.720574 0.884490
Si Si2 0.319007 0.852641 0.241743
Si Si3 0.000000 0.832102 0.764425
Si Si4 0.000000 0.036927 0.620562
Si Si5 0.803779 0.665846 0.443317
Si Si6 0.197561 0.533987 0.093629
O O1 0.500000 0.732542 0.804277
O O2 0.287814 0.607174 0.957982
O O3 0.164625 0.763260 0.774748
O O4 0.317763 0.789245 0.061275
O O5 0.500000 0.902147 0.262603
O O6 0.165689 0.929069 0.222630
O O7 0.289817 0.769085 0.392081
O O8 0.000000 0.914551 0.612487
O O9 0.000000 0.901175 0.940608
O O10 0.745488 0.583973 0.586460
O O11 0.000000 0.689400 0.460406
O O12 0.787678 0.592078 0.274256
O O13 0.000000 0.532867 0.050788
#
# Coordination Sequence:
#
# PCOD9338335 Si02
#       6
#     4   4   2   2   4   4
#     4   9  17  31  52  74  97 129 166 198 234 289
#     4   9  17  31  52  74  97 129 166 198 234 289
#     4  10  20  36  55  74  96 124 161 204 249 292
#     4  10  20  36  55  74  96 124 161 204 249 292
#     4   9  16  28  47  71  98 129 163 196 232 278
#     4   9  16  28  47  71  98 129 163 196 232 278
#
# _framework density 24.618552999999999
#
# number of rings (size 3 to 8) (size 9 to 14) (size 15 to 20)
#    0.000    2.800    2.000    0.000    0.000    1.600 
#    0.000    2.000    0.000    2.400    0.000    0.000 
#    0.000    0.000    0.000    0.000    0.000    0.000 
#
# Total GULP energy -111912.487676 kJ/mol
# GULP energy per Si atom -5595.624384 kJ/mol
# Density = 2.456252 g / cm^3
# Si number density = 24.618553 Si / 1000 Ang^3
#
#
#
# Elastic Constant Matrix: (Units=GPa)
#
#
# Indices 1 2 3 4 5 6 
#
# 1 149.1748 54.8586 26.5826 0.0000 0.0000 0.0000
# 2 54.8586 117.9278 7.2521 0.0000 0.0000 0.0000
# 3 26.5826 7.2521 80.9335 0.0000 0.0000 0.0000
# 4 0.0000 0.0000 0.0000 39.5973 0.0000 0.0000
# 5 0.0000 0.0000 0.0000 0.0000 19.7010 0.0000
# 6 0.0000 0.0000 0.0000 0.0000 0.0000 0.5582
#
#
#
# Elastic Compliance Matrix: (Units=1/GPa)
#
#
# Indices 1 2 3 4 5 6 
#
# 1 0.008550 -0.003826 -0.002465 0.000000 0.000000 0.000000
# 2 -0.003826 0.010239 0.000339 0.000000 0.000000 0.000000
# 3 -0.002465 0.000339 0.013135 0.000000 0.000000 0.000000
# 4 0.000000 0.000000 0.000000 0.025254 0.000000 0.000000
# 5 0.000000 0.000000 0.000000 0.000000 0.050759 0.000000
# 6 0.000000 0.000000 0.000000 0.000000 0.000000 1.791445
#
#
# Mechanical properties :
#
#
# Convention : Reuss Voigt Hill
#
# Bulk Modulus (GPa) = 49.95083 58.38029 54.16556
# Shear Modulus (GPa) = 2.60694 29.26084 15.93389
#
# Velocity S-wave (km/s) = 1.03016 3.45130 2.54683
# Velocity P-wave (km/s) = 4.66358 6.29662 5.54059
#
# Compressibility (1/GPa) = 0.02001969
#
# Stress axis : x y z
#
# Youngs Moduli (GPa) = 116.96278 97.67011 76.13142
#
# Poissons Ratio (x) = 0.37365 0.18769
# Poissons Ratio (y) = 0.44746 -0.02582
# Poissons Ratio (z) = 0.28836 -0.03312
#
# Static dielectric constant tensor:
#      x y z
#    x 1.909420 0.000000 0.000000 
#    y 0.000000 1.899120 0.000000 
#    z 0.000000 0.000000 2.064380 
# 
# From -- ./inp_files/1329.got.cif
#   From: 2010.05.17/outbox.cif.g08.bks.cpg/sg26_1_cif.got.tgz:1329.got - 2010.06.04 01:07:29.
