data_PCOD9338674
_publ_section_title
;
Structure prediction by ZEFSAII (Michael W. Deem and Ramdas Pophale) SiO2 
 PCOD9338674
Probable space group: P M C 21
;
_chemical_formula_sum "Si O2"
_cell_formula_units_Z 32
_cell_length_a 11.365903
_cell_length_b 7.077241
_cell_length_c 14.820643
_cell_angle_alpha 90.000000
_cell_angle_beta 90.000000
_cell_angle_gamma 90.000000
_cell_volume 1192.161181
_symmetry_space_group_name_H-M "P M C 21"
_symmetry_group_IT_number 26
_symmetry_cell_setting 'orthorhombic'
loop_
_space_group_symop_operation_xyz
x,y,z
-x,-y,1/2+z
-x,y,z
x,-y,1/2+z
loop_
_atom_site_type_symbol
_atom_site_label
_atom_site_fract_x
_atom_site_fract_y
_atom_site_fract_z
Si Si1 0.127256 0.599961 0.082820
Si Si2 0.373435 0.287729 0.823741
Si Si3 0.873775 0.937119 0.869197
Si Si4 0.871464 0.662739 0.295366
Si Si5 0.626911 0.148004 0.349262
Si Si6 0.627574 0.340164 0.610650
Si Si7 0.127160 0.160516 0.056572
Si Si8 0.373568 0.791911 0.635701
O O1 0.129772 0.587377 0.192884
O O2 0.249397 0.705808 0.062856
O O3 0.128766 0.387878 0.045646
O O4 0.000000 0.686382 0.058416
O O5 0.500000 0.375817 0.847079
O O6 0.250836 0.389626 0.844291
O O7 0.372656 0.079161 0.864999
O O8 0.371053 0.270250 0.714565
O O9 0.864635 0.106474 0.795053
O O10 0.761626 0.803317 0.870696
O O11 0.000000 0.841510 0.855717
O O12 0.875201 0.055874 0.961561
O O13 0.000000 0.616530 0.334742
O O14 0.500000 0.216194 0.384533
O O15 0.622217 0.186367 0.242637
O O16 0.500000 0.284924 0.574165
O O17 0.629462 0.568721 0.614734
O O18 0.251777 0.118816 0.103237
O O19 0.000000 0.119636 0.103124
O O20 0.500000 0.863822 0.599249
#
# Coordination Sequence:
#
# PCOD9338674 Si02
#       8
#     4   4   4   4   4   4   4   4
#     4   8  13  22  37  57  81 109 141 176 214 258
#     4   8  13  22  37  57  80 105 133 167 206 247
#     4   9  17  28  42  63  90 117 148 189 233 274
#     4   8  13  22  37  57  81 109 141 176 214 258
#     4   9  17  28  42  63  89 114 144 183 223 264
#     4   8  13  22  37  57  80 105 133 167 206 247
#     4   9  17  28  42  63  90 117 148 189 233 274
#     4   9  17  28  42  63  89 114 144 183 223 264
#
# _framework density 26.842008
#
# number of rings (size 3 to 8) (size 9 to 14) (size 15 to 20)
#    0.000    3.500    0.000    0.000    0.000    1.000 
#    0.000    0.000    0.000    0.000    0.000   28.000 
#    0.000  132.000    0.000    0.000    0.000    0.000 
#
# Total GULP energy -178607.339689 kJ/mol
# GULP energy per Si atom -5581.479365 kJ/mol
# Density = 2.678091 g / cm^3
# Si number density = 26.842008 Si / 1000 Ang^3
#
#
#
# Elastic Constant Matrix: (Units=GPa)
#
#
# Indices 1 2 3 4 5 6 
#
# 1 341.7183 3.0263 38.2100 0.0000 0.0000 0.0000
# 2 3.0263 111.1700 23.1969 0.0000 0.0000 0.0000
# 3 38.2100 23.1969 45.5058 0.0000 0.0000 0.0000
# 4 0.0000 0.0000 0.0000 -1.3978 0.0000 0.0000
# 5 0.0000 0.0000 0.0000 0.0000 -696.1111 0.0000
# 6 0.0000 0.0000 0.0000 0.0000 0.0000 58.7235
#
#
#
# Elastic Compliance Matrix: (Units=1/GPa)
#
#
# Indices 1 2 3 4 5 6 
#
# 1 0.003258 0.000540 -0.003011 0.000000 0.000000 0.000000
# 2 0.000540 0.010155 -0.005630 0.000000 0.000000 0.000000
# 3 -0.003011 -0.005630 0.027373 0.000000 0.000000 0.000000
# 4 0.000000 0.000000 0.000000 -0.715412 0.000000 0.000000
# 5 0.000000 0.000000 0.000000 0.000000 -0.001437 0.000000
# 6 0.000000 0.000000 0.000000 0.000000 0.000000 0.017029
#
#
# Mechanical properties :
#
#
# Convention : Reuss Voigt Hill
#
# Bulk Modulus (GPa) = 40.67606 69.69562 55.18584
# Shear Modulus (GPa) = -7.87854 -98.82634 -53.35244
#
# Velocity S-wave (km/s) = -1.71509 -6.07435 -4.46314
# Velocity P-wave (km/s) = 3.35630 4.81409 2.44036
#
# Compressibility (1/GPa) = 0.02458449
#
# Stress axis : x y z
#
# Youngs Moduli (GPa) = 306.91003 98.47118 36.53205
#
# Poissons Ratio (x) = -0.05313 0.11000
# Poissons Ratio (y) = -0.16560 0.20567
# Poissons Ratio (z) = 0.92409 0.55437
#
# Static dielectric constant tensor:
#      x y z
#    x 2.357880 0.000000 0.000000 
#    y 0.000000 2.007780 0.000000 
#    z 0.000000 0.000000 2.019510 
# 
# From -- ./inp_files/5183.got.cif
#   From: 2010.05.17/outbox.cif.g08.bks.cpg/sg26_3_cif.got.tgz:5183.got - 2010.06.04 01:07:29.
