data_PCOD9338150
_publ_section_title
;
Structure prediction by ZEFSAII (Michael W. Deem and Ramdas Pophale) SiO2 
 PCOD9338150
Probable space group: P M C 21
;
_chemical_formula_sum "Si O2"
_cell_formula_units_Z 32
_cell_length_a 8.215860
_cell_length_b 11.848373
_cell_length_c 16.954198
_cell_angle_alpha 90.000000
_cell_angle_beta 90.000000
_cell_angle_gamma 90.000000
_cell_volume 1650.399178
_symmetry_space_group_name_H-M "P M C 21"
_symmetry_group_IT_number 26
_symmetry_cell_setting 'orthorhombic'
loop_
_space_group_symop_operation_xyz
x,y,z
-x,-y,1/2+z
-x,y,z
x,-y,1/2+z
loop_
_atom_site_type_symbol
_atom_site_label
_atom_site_fract_x
_atom_site_fract_y
_atom_site_fract_z
Si Si1 0.807533 0.435581 0.705340
Si Si2 0.317042 0.900486 0.256315
Si Si3 0.685028 0.241516 0.598099
Si Si4 0.695162 0.139737 0.300868
Si Si5 0.303737 0.312236 0.176262
Si Si6 0.305360 0.194302 0.014847
Si Si7 0.299760 0.938838 0.973242
Si Si8 0.187510 0.706649 0.354958
O O1 0.773542 0.350219 0.633081
O O2 0.737041 0.556845 0.684602
O O3 0.742935 0.379189 0.787822
O O4 0.000000 0.445058 0.715374
O O5 0.500000 0.894624 0.292618
O O6 0.322669 0.841738 0.172679
O O7 0.201946 0.828121 0.311893
O O8 0.277020 0.030516 0.246588
O O9 0.500000 0.274787 0.576410
O O10 0.755439 0.162914 0.529871
O O11 0.500000 0.156111 0.309831
O O12 0.759777 0.246960 0.254063
O O13 0.753489 0.098409 0.385984
O O14 0.500000 0.301371 0.175345
O O15 0.243867 0.251719 0.095848
O O16 0.500000 0.185167 0.021908
O O17 0.268986 0.274134 0.939545
O O18 0.246258 0.065434 0.997806
O O19 0.500000 0.940454 0.976087
O O20 0.000000 0.677384 0.368332
#
# Coordination Sequence:
#
# PCOD9338150 Si02
#       8
#     4   4   4   4   4   4   4   4
#     4  10  22  40  56  72 105 148 187 224 269 321
#     4   9  15  28  52  79 106 137 170 210 268 320
#     4   9  17  30  54  82 106 135 175 221 261 312
#     4   9  16  29  52  81 112 139 167 213 271 323
#     4  10  21  36  56  82 109 142 186 229 268 322
#     4  10  19  34  57  85 112 138 175 224 277 328
#     4   9  16  29  53  86 116 136 165 214 273 327
#     4  10  20  34  54  79 106 141 183 223 263 317
#
# _framework density 19.389249
#
# number of rings (size 3 to 8) (size 9 to 14) (size 15 to 20)
#    0.000    2.500    1.250    1.500    0.000    5.000 
#    2.250    1.250    0.000    3.000    0.000    0.000 
#    0.000    0.000    0.000    0.000    0.000    0.000 
#
# Total GULP energy -178234.136618 kJ/mol
# GULP energy per Si atom -5569.816769 kJ/mol
# Density = 1.934512 g / cm^3
# Si number density = 19.389249 Si / 1000 Ang^3
#
#
#
# Elastic Constant Matrix: (Units=GPa)
#
#
# Indices 1 2 3 4 5 6 
#
# 1 9.3177 9.3149 11.8534 0.0000 0.0000 0.0000
# 2 9.3149 135.1697 79.5391 0.0000 0.0000 0.0000
# 3 11.8534 79.5391 98.1099 0.0000 0.0000 0.0000
# 4 0.0000 0.0000 0.0000 22.5584 0.0000 0.0000
# 5 0.0000 0.0000 0.0000 0.0000 10.4112 0.0000
# 6 0.0000 0.0000 0.0000 0.0000 0.0000 -29.4294
#
#
#
# Elastic Compliance Matrix: (Units=1/GPa)
#
#
# Indices 1 2 3 4 5 6 
#
# 1 0.126833 0.000529 -0.015753 0.000000 0.000000 0.000000
# 2 0.000529 0.014149 -0.011535 0.000000 0.000000 0.000000
# 3 -0.015753 -0.011535 0.021447 0.000000 0.000000 0.000000
# 4 0.000000 0.000000 0.000000 0.044329 0.000000 0.000000
# 5 0.000000 0.000000 0.000000 0.000000 0.096050 0.000000
# 6 0.000000 0.000000 0.000000 0.000000 0.000000 -0.033980
#
#
# Mechanical properties :
#
#
# Convention : Reuss Voigt Hill
#
# Bulk Modulus (GPa) = 9.18165 49.33470 29.25817
# Shear Modulus (GPa) = 13.94113 10.16737 12.05425
#
# Velocity S-wave (km/s) = 2.68435 2.29242 2.49609
# Velocity P-wave (km/s) = 3.78858 5.70145 4.84045
#
# Compressibility (1/GPa) = 0.10891292
#
# Stress axis : x y z
#
# Youngs Moduli (GPa) = 7.88436 70.67525 46.62585
#
# Poissons Ratio (x) = -0.03738 0.73448
# Poissons Ratio (y) = -0.00417 0.53782
# Poissons Ratio (z) = 0.12420 0.81523
#
# Static dielectric constant tensor:
#      x y z
#    x 1.702810 0.000000 0.000000 
#    y 0.000000 1.670980 0.000000 
#    z 0.000000 0.000000 1.716840 
# 
# From -- ./inp_files/4223.got.cif
#   From: 2010.05.17/outbox.cif.g08.bks.cpg/sg26_3_cif.got.tgz:4223.got - 2010.06.04 01:07:29.
