data_PCOD9338231
_publ_section_title
;
Structure prediction by ZEFSAII (Michael W. Deem and Ramdas Pophale) SiO2 
 PCOD9338231
Probable space group: P M C 21
;
_chemical_formula_sum "Si O2"
_cell_formula_units_Z 24
_cell_length_a 7.640786
_cell_length_b 14.198177
_cell_length_c 10.334929
_cell_angle_alpha 90.000000
_cell_angle_beta 90.000000
_cell_angle_gamma 90.000000
_cell_volume 1121.187171
_symmetry_space_group_name_H-M "P M C 21"
_symmetry_group_IT_number 26
_symmetry_cell_setting 'orthorhombic'
loop_
_space_group_symop_operation_xyz
x,y,z
-x,-y,1/2+z
-x,y,z
x,-y,1/2+z
loop_
_atom_site_type_symbol
_atom_site_label
_atom_site_fract_x
_atom_site_fract_y
_atom_site_fract_z
Si Si1 0.714812 0.223104 0.335800
Si Si2 0.714302 0.568410 0.921869
Si Si3 0.709154 0.134013 0.068644
Si Si4 0.711178 0.583577 0.213665
Si Si5 0.795526 0.797702 0.286052
Si Si6 0.702385 0.923181 0.050373
O O1 0.500000 0.224551 0.338925
O O2 0.769184 0.328407 0.372941
O O3 0.773641 0.189971 0.194258
O O4 0.776594 0.147759 0.442871
O O5 0.500000 0.567072 0.921912
O O6 0.774271 0.487161 0.824633
O O7 0.771544 0.555764 0.070003
O O8 0.500000 0.126821 0.087343
O O9 0.780726 0.027392 0.059913
O O10 0.740948 0.185636 0.933577
O O11 0.500000 0.578455 0.212779
O O12 0.757823 0.691264 0.243100
O O13 0.706446 0.870480 0.187615
O O14 0.000000 0.815980 0.274882
O O15 0.500000 0.936865 0.011624
#
# Coordination Sequence:
#
# PCOD9338231 Si02
#       6
#     4   4   4   4   4   4
#     4   9  17  32  57  88 115 139 185 249 304 348
#     4   9  18  32  58  89 111 140 187 250 307 342
#     4  10  21  36  62  91 115 149 196 248 294 341
#     4  10  20  37  61  86 113 146 195 251 299 348
#     4  12  25  39  56  84 125 166 196 229 288 357
#     4  10  19  38  64  88 113 148 197 251 298 340
#
# _framework density 21.405882999999999
#
# number of rings (size 3 to 8) (size 9 to 14) (size 15 to 20)
#    0.000    2.000    1.667    2.500    2.333    3.333 
#    0.000    1.667    0.000    0.000    0.000    0.000 
#    0.000    0.000    0.000    0.000    0.000    0.000 
#
# Total GULP energy -134119.331554 kJ/mol
# GULP energy per Si atom -5588.305481 kJ/mol
# Density = 2.135716 g / cm^3
# Si number density = 21.405883 Si / 1000 Ang^3
#
#
#
# Elastic Constant Matrix: (Units=GPa)
#
#
# Indices 1 2 3 4 5 6 
#
# 1 31.7275 -7.1937 -19.8733 0.0000 0.0000 0.0000
# 2 -7.1937 93.8744 45.4664 0.0000 0.0000 0.0000
# 3 -19.8733 45.4664 145.0529 0.0000 0.0000 0.0000
# 4 0.0000 0.0000 0.0000 78.2843 0.0000 0.0000
# 5 0.0000 0.0000 0.0000 0.0000 -112.5437 0.0000
# 6 0.0000 0.0000 0.0000 0.0000 0.0000 -61.4395
#
#
#
# Elastic Compliance Matrix: (Units=1/GPa)
#
#
# Indices 1 2 3 4 5 6 
#
# 1 0.034491 0.000418 0.004595 0.000000 0.000000 0.000000
# 2 0.000418 0.012564 -0.003881 0.000000 0.000000 0.000000
# 3 0.004595 -0.003881 0.008740 0.000000 0.000000 0.000000
# 4 0.000000 0.000000 0.000000 0.012774 0.000000 0.000000
# 5 0.000000 0.000000 0.000000 0.000000 -0.008885 0.000000
# 6 0.000000 0.000000 0.000000 0.000000 0.000000 -0.016276
#
#
# Mechanical properties :
#
#
# Convention : Reuss Voigt Hill
#
# Bulk Modulus (GPa) = 17.22416 34.16151 25.69284
# Shear Modulus (GPa) = 82.64803 -2.32275 40.16264
#
# Velocity S-wave (km/s) = 6.22043 -1.04281 4.33626
# Velocity P-wave (km/s) = 7.72371 3.81361 6.09095
#
# Compressibility (1/GPa) = 0.05805797
#
# Stress axis : x y z
#
# Youngs Moduli (GPa) = 28.99307 79.59101 114.41636
#
# Poissons Ratio (x) = -0.03325 -0.52569
# Poissons Ratio (y) = -0.01211 0.44405
# Poissons Ratio (z) = -0.13321 0.30889
#
# Static dielectric constant tensor:
#      x y z
#    x 1.812830 0.000000 0.000000 
#    y 0.000000 1.734290 0.000000 
#    z 0.000000 0.000000 1.756880 
# 
# From -- ./inp_files/1418.got.cif
#   From: 2010.05.17/outbox.cif.g08.bks.cpg/sg26_1_cif.got.tgz:1418.got - 2010.06.04 01:07:29.
