data_PCOD9338103
_publ_section_title
;
Structure prediction by ZEFSAII (Michael W. Deem and Ramdas Pophale) SiO2 
 PCOD9338103
Probable space group: P M C 21
;
_chemical_formula_sum "Si O2"
_cell_formula_units_Z 32
_cell_length_a 15.231171
_cell_length_b 13.048019
_cell_length_c 8.253480
_cell_angle_alpha 90.000000
_cell_angle_beta 90.000000
_cell_angle_gamma 90.000000
_cell_volume 1640.268624
_symmetry_space_group_name_H-M "P M C 21"
_symmetry_group_IT_number 26
_symmetry_cell_setting 'orthorhombic'
loop_
_space_group_symop_operation_xyz
x,y,z
-x,-y,1/2+z
-x,y,z
x,-y,1/2+z
loop_
_atom_site_type_symbol
_atom_site_label
_atom_site_fract_x
_atom_site_fract_y
_atom_site_fract_z
Si Si1 0.898591 0.155252 0.367080
Si Si2 0.409292 0.159521 0.334444
Si Si3 0.363927 0.023483 0.636587
Si Si4 0.601544 0.557201 0.102134
Si Si5 0.280898 0.819187 0.333652
Si Si6 0.599179 0.344948 0.961542
Si Si7 0.739382 0.284146 0.480483
Si Si8 0.831790 0.954847 0.544356
O O1 0.835775 0.251126 0.416161
O O2 0.874151 0.108431 0.190679
O O3 0.000000 0.184863 0.372801
O O4 0.882548 0.055475 0.482774
O O5 0.500000 0.219444 0.335696
O O6 0.405831 0.088133 0.494407
O O7 0.323419 0.225556 0.354370
O O8 0.405954 0.082419 0.186122
O O9 0.355755 0.096846 0.792996
O O10 0.262947 0.998038 0.597659
O O11 0.500000 0.577481 0.042552
O O12 0.612314 0.435197 0.090247
O O13 0.683867 0.610737 0.009302
O O14 0.602989 0.599722 0.284994
O O15 0.324572 0.738824 0.455832
O O16 0.195314 0.875646 0.402294
O O17 0.263887 0.766070 0.160506
O O18 0.500000 0.302724 0.977327
#
# Coordination Sequence:
#
# PCOD9338103 Si02
#       8
#     4   4   4   4   4   4   4   4
#     4  12  23  36  57  80 105 142 182 231 282 329
#     4  11  20  30  46  70 102 141 178 210 252 305
#     4  11  18  33  48  68 105 145 177 213 256 302
#     4   9  18  34  55  79 112 147 180 224 270 317
#     4  10  19  33  56  73 107 150 175 221 273 310
#     4   9  19  34  53  82 112 144 189 224 262 320
#     4  10  19  36  54  77 106 139 181 226 272 330
#     4  12  19  38  53  75 111 142 181 227 268 333
#
# _framework density 19.508997999999998
#
# number of rings (size 3 to 8) (size 9 to 14) (size 15 to 20)
#    0.000    1.500    6.250    1.125    0.000    4.500 
#    0.000    0.625    0.000    0.000    0.000    8.750 
#    0.000    0.000    0.000    0.000    0.000    0.000 
#
# Total GULP energy -178417.582403 kJ/mol
# GULP energy per Si atom -5575.549450 kJ/mol
# Density = 1.946459 g / cm^3
# Si number density = 19.508998 Si / 1000 Ang^3
#
#
#
# Elastic Constant Matrix: (Units=GPa)
#
#
# Indices 1 2 3 4 5 6 
#
# 1 129.8953 17.5329 14.7755 0.0000 0.0000 0.0000
# 2 17.5329 38.6393 11.9157 0.0000 0.0000 0.0000
# 3 14.7755 11.9157 61.7680 0.0000 0.0000 0.0000
# 4 0.0000 0.0000 0.0000 32.9866 0.0000 0.0000
# 5 0.0000 0.0000 0.0000 0.0000 10.4842 0.0000
# 6 0.0000 0.0000 0.0000 0.0000 0.0000 16.0740
#
#
#
# Elastic Compliance Matrix: (Units=1/GPa)
#
#
# Indices 1 2 3 4 5 6 
#
# 1 0.008304 -0.003355 -0.001339 0.000000 0.000000 0.000000
# 2 -0.003355 0.028873 -0.004767 0.000000 0.000000 0.000000
# 3 -0.001339 -0.004767 0.017430 0.000000 0.000000 0.000000
# 4 0.000000 0.000000 0.000000 0.030315 0.000000 0.000000
# 5 0.000000 0.000000 0.000000 0.000000 0.095382 0.000000
# 6 0.000000 0.000000 0.000000 0.000000 0.000000 0.062212
#
#
# Mechanical properties :
#
#
# Convention : Reuss Voigt Hill
#
# Bulk Modulus (GPa) = 28.02423 35.41677 31.72050
# Shear Modulus (GPa) = 18.29270 24.31417 21.30344
#
# Velocity S-wave (km/s) = 3.06544 3.53414 3.30810
# Velocity P-wave (km/s) = 5.18895 5.90313 5.55752
#
# Compressibility (1/GPa) = 0.03568341
#
# Stress axis : x y z
#
# Youngs Moduli (GPa) = 120.42867 34.63456 57.37363
#
# Poissons Ratio (x) = 0.11620 0.07683
# Poissons Ratio (y) = 0.40403 0.27352
# Poissons Ratio (z) = 0.16127 0.16512
#
# Static dielectric constant tensor:
#      x y z
#    x 1.630350 0.000000 0.000000 
#    y 0.000000 1.733220 0.000000 
#    z 0.000000 0.000000 1.759720 
# 
# From -- ./inp_files/2288.got.cif
#   From: 2010.05.17/outbox.cif.g08.bks.cpg/sg26_2_cif.got.tgz:2288.got - 2010.06.04 01:07:29.
