data_PCOD9338718
_publ_section_title
;
Structure prediction by ZEFSAII (Michael W. Deem and Ramdas Pophale) SiO2 
 PCOD9338718
Probable space group: P C C 2
;
_chemical_formula_sum "Si O2"
_cell_formula_units_Z 32
_cell_length_a 38.142313
_cell_length_b 6.928579
_cell_length_c 5.262023
_cell_angle_alpha 90.000000
_cell_angle_beta 90.000000
_cell_angle_gamma 90.000000
_cell_volume 1390.605494
_symmetry_space_group_name_H-M "P C C 2"
_symmetry_group_IT_number 27
_symmetry_cell_setting 'orthorhombic'
loop_
_space_group_symop_operation_xyz
x,y,z
-x,-y,z
-x,y,1/2+z
x,-y,1/2+z
loop_
_atom_site_type_symbol
_atom_site_label
_atom_site_fract_x
_atom_site_fract_y
_atom_site_fract_z
Si Si1 0.014047 0.782194 0.032060
Si Si2 0.485700 0.783943 0.518357
Si Si3 0.119897 0.231993 0.245085
Si Si4 0.092301 0.789610 0.244412
Si Si5 0.194413 0.871309 0.584407
Si Si6 0.586421 0.370179 0.666555
Si Si7 0.337322 0.376116 0.077704
Si Si8 0.730619 0.875453 0.186866
O O1 0.053320 0.791584 0.135078
O O2 0.989574 0.695761 0.252056
O O3 0.000000 0.000000 0.988104
O O4 0.489880 0.695914 0.238590
O O5 0.446205 0.769329 0.616329
O O6 0.500000 0.000000 0.478413
O O7 0.116233 0.307679 0.529559
O O8 0.159148 0.244512 0.140494
O O9 0.107885 0.006190 0.282741
O O10 0.094037 0.300104 0.023437
O O11 0.231978 0.772630 0.633536
O O12 0.193443 0.959424 0.300869
O O13 0.584371 0.533907 0.445070
O O14 0.624873 0.278018 0.627988
O O15 0.336570 0.546630 0.289153
O O16 0.303586 0.248636 0.133351
O O17 0.730313 0.954379 0.474610
#
# Coordination Sequence:
#
# PCOD9338718 Si02
#       8
#     4   4   4   4   4   4   4   4
#     4  10  16  22  26  35  53  79 118 179 235 270
#     4  10  21  37  53  80 114 145 179 224 278 317
#     4  10  14  22  31  47  65  95 129 167 223 290
#     4  10  16  20  31  42  59  90 136 168 232 292
#     4  10  16  27  41  61  91 116 143 191 246 304
#     4  10  21  37  59  83 107 144 188 225 261 316
#     4  10  21  40  61  83 115 150 187 226 273 328
#     4  10  21  35  55  85 112 139 178 222 277 327
#
# _framework density 23.011558000000001
#
# number of rings (size 3 to 8) (size 9 to 14) (size 15 to 20)
#    0.000    2.000    2.500    5.250    0.000    1.500 
#    4.500    0.000    0.000    0.000    0.000    0.000 
#    0.000    0.000    0.000    0.000    0.000    0.000 
#
# Total GULP energy -178605.151331 kJ/mol
# GULP energy per Si atom -5581.410979 kJ/mol
# Density = 2.295918 g / cm^3
# Si number density = 23.011558 Si / 1000 Ang^3
#
#
#
# Elastic Constant Matrix: (Units=GPa)
#
#
# Indices 1 2 3 4 5 6 
#
# 1 164.6636 -0.4089 -13.6994 0.0000 0.0000 0.0000
# 2 -0.4089 45.5693 -19.0779 0.0000 0.0000 0.0000
# 3 -13.6994 -19.0779 142.8706 0.0000 0.0000 0.0000
# 4 0.0000 0.0000 0.0000 -0.4104 0.0000 0.0000
# 5 0.0000 0.0000 0.0000 0.0000 38.1699 0.0000
# 6 0.0000 0.0000 0.0000 0.0000 0.0000 -0.2715
#
#
#
# Elastic Compliance Matrix: (Units=1/GPa)
#
#
# Indices 1 2 3 4 5 6 
#
# 1 0.006126 0.000319 0.000630 0.000000 0.000000 0.000000
# 2 0.000319 0.023261 0.003137 0.000000 0.000000 0.000000
# 3 0.000630 0.003137 0.007479 0.000000 0.000000 0.000000
# 4 0.000000 0.000000 0.000000 -2.436821 0.000000 0.000000
# 5 0.000000 0.000000 0.000000 0.000000 0.026199 0.000000
# 6 0.000000 0.000000 0.000000 0.000000 0.000000 -3.683103
#
#
# Mechanical properties :
#
#
# Convention : Reuss Voigt Hill
#
# Bulk Modulus (GPa) = 22.20442 31.85898 27.03170
# Shear Modulus (GPa) = -0.82644 33.25024 16.21190
#
# Velocity S-wave (km/s) = -0.59994 3.80536 2.65714
# Velocity P-wave (km/s) = 3.03155 5.76042 4.60287
#
# Compressibility (1/GPa) = 0.04503608
#
# Stress axis : x y z
#
# Youngs Moduli (GPa) = 163.23352 42.99107 133.71505
#
# Poissons Ratio (x) = -0.01370 -0.08424
# Poissons Ratio (y) = -0.05203 -0.41941
# Poissons Ratio (z) = -0.10283 -0.13485
#
# Static dielectric constant tensor:
#      x y z
#    x 1.868340 0.000000 0.000000 
#    y 0.000000 1.947490 0.000000 
#    z 0.000000 0.000000 1.939720 
# 
# From -- ./inp_files/741.got.cif
#   From: 2010.05.17/outbox.cif.g08.bks.cpg/sg27_1_cif.got.tgz:741.got - 2010.06.04 01:11:05.
