data_PCOD9338500
_publ_section_title
;
Structure prediction by ZEFSAII (Michael W. Deem and Ramdas Pophale) SiO2 
 PCOD9338500
Probable space group: P M C 21
;
_chemical_formula_sum "Si O2"
_cell_formula_units_Z 32
_cell_length_a 9.082795
_cell_length_b 14.843445
_cell_length_c 12.370835
_cell_angle_alpha 90.000000
_cell_angle_beta 90.000000
_cell_angle_gamma 90.000000
_cell_volume 1667.835579
_symmetry_space_group_name_H-M "P M C 21"
_symmetry_group_IT_number 26
_symmetry_cell_setting 'orthorhombic'
loop_
_space_group_symop_operation_xyz
x,y,z
-x,-y,1/2+z
-x,y,z
x,-y,1/2+z
loop_
_atom_site_type_symbol
_atom_site_label
_atom_site_fract_x
_atom_site_fract_y
_atom_site_fract_z
Si Si1 0.829921 0.550428 0.609620
Si Si2 0.676044 0.866828 0.873103
Si Si3 0.672275 0.369575 0.668805
Si Si4 0.830299 0.828602 0.505012
Si Si5 0.674972 0.273596 0.197243
Si Si6 0.162966 0.357973 0.879606
Si Si7 0.177030 0.952895 0.312214
Si Si8 0.322295 0.164291 0.622070
O O1 0.757058 0.453457 0.618968
O O2 0.749788 0.629876 0.676565
O O3 0.824151 0.581336 0.485273
O O4 0.000000 0.547877 0.643175
O O5 0.500000 0.882551 0.863577
O O6 0.706700 0.772468 0.812582
O O7 0.762453 0.946147 0.813197
O O8 0.713800 0.864927 0.999873
O O9 0.500000 0.378078 0.646526
O O10 0.709145 0.374793 0.795624
O O11 0.720168 0.269444 0.633957
O O12 0.734522 0.796065 0.606025
O O13 0.831275 0.743680 0.423392
O O14 0.779416 0.910208 0.429187
O O15 0.000000 0.843779 0.540180
O O16 0.500000 0.283469 0.185150
O O17 0.000000 0.371926 0.829968
O O18 0.245334 0.895341 0.214162
O O19 0.000000 0.949540 0.305659
O O20 0.500000 0.158423 0.636184
#
# Coordination Sequence:
#
# PCOD9338500 Si02
#       8
#     4   4   4   4   4   4   4   4
#     4  10  22  39  60  87 122 163 206 250 304 367
#     4  10  24  43  61  87 126 166 203 250 308 367
#     4  11  22  36  60  91 120 156 202 253 305 361
#     4   9  19  36  58  84 116 151 193 250 303 357
#     4  10  21  38  61  88 119 159 206 254 305 359
#     4   9  18  36  57  80 113 154 197 246 301 355
#     4  11  23  39  62  91 120 155 203 253 303 364
#     4  10  23  43  63  88 124 162 204 252 307 366
#
# _framework density 19.186544000000001
#
# number of rings (size 3 to 8) (size 9 to 14) (size 15 to 20)
#    0.000    2.000    1.250    2.250    1.750    6.500 
#    0.000    1.250    0.000    0.000    0.000    0.000 
#    0.000    0.000    0.000    0.000    0.000    0.000 
#
# Total GULP energy -178619.517931 kJ/mol
# GULP energy per Si atom -5581.859935 kJ/mol
# Density = 1.914287 g / cm^3
# Si number density = 19.186544 Si / 1000 Ang^3
#
#
#
# Elastic Constant Matrix: (Units=GPa)
#
#
# Indices 1 2 3 4 5 6 
#
# 1 60.9090 50.0443 29.2837 0.0000 0.0000 0.0000
# 2 50.0443 119.8404 38.2374 0.0000 0.0000 0.0000
# 3 29.2837 38.2374 51.2138 0.0000 0.0000 0.0000
# 4 0.0000 0.0000 0.0000 15.6442 0.0000 0.0000
# 5 0.0000 0.0000 0.0000 0.0000 -340.9165 0.0000
# 6 0.0000 0.0000 0.0000 0.0000 0.0000 23.4564
#
#
#
# Elastic Compliance Matrix: (Units=1/GPa)
#
#
# Indices 1 2 3 4 5 6 
#
# 1 0.028196 -0.008704 -0.009624 0.000000 0.000000 0.000000
# 2 -0.008704 0.013641 -0.005208 0.000000 0.000000 0.000000
# 3 -0.009624 -0.005208 0.028917 0.000000 0.000000 0.000000
# 4 0.000000 0.000000 0.000000 0.063921 0.000000 0.000000
# 5 0.000000 0.000000 0.000000 0.000000 -0.002933 0.000000
# 6 0.000000 0.000000 0.000000 0.000000 0.000000 0.042632
#
#
# Mechanical properties :
#
#
# Convention : Reuss Voigt Hill
#
# Bulk Modulus (GPa) = 42.22417 51.89934 47.06175
# Shear Modulus (GPa) = 21.80176 -52.73665 -15.46744
#
# Velocity S-wave (km/s) = 3.37457 -5.24842 -2.84238
# Velocity P-wave (km/s) = 6.10234 3.10150 3.71613
#
# Compressibility (1/GPa) = 0.02368312
#
# Stress axis : x y z
#
# Youngs Moduli (GPa) = 35.46592 73.31026 34.58162
#
# Poissons Ratio (x) = 0.63807 0.33281
# Poissons Ratio (y) = 0.30869 0.18009
# Poissons Ratio (z) = 0.34132 0.38178
#
# Static dielectric constant tensor:
#      x y z
#    x 1.755550 0.000000 0.000000 
#    y 0.000000 1.667960 0.000000 
#    z 0.000000 0.000000 1.668560 
# 
# From -- ./inp_files/3095.got.cif
#   From: 2010.05.17/outbox.cif.g08.bks.cpg/sg26_2_cif.got.tgz:3095.got - 2010.06.04 01:07:29.
