data_PCOD9338910
_publ_section_title
;
Structure prediction by ZEFSAII (Michael W. Deem and Ramdas Pophale) SiO2 
 PCOD9338910
Probable space group: P C C 2
;
_chemical_formula_sum "Si O2"
_cell_formula_units_Z 24
_cell_length_a 27.523336
_cell_length_b 7.049562
_cell_length_c 5.421438
_cell_angle_alpha 90.000000
_cell_angle_beta 90.000000
_cell_angle_gamma 90.000000
_cell_volume 1051.907864
_symmetry_space_group_name_H-M "P C C 2"
_symmetry_group_IT_number 27
_symmetry_cell_setting 'orthorhombic'
loop_
_space_group_symop_operation_xyz
x,y,z
-x,-y,z
-x,y,1/2+z
x,-y,1/2+z
loop_
_atom_site_type_symbol
_atom_site_label
_atom_site_fract_x
_atom_site_fract_y
_atom_site_fract_z
Si Si1 0.019467 0.213692 0.949510
Si Si2 0.881384 0.377669 0.568116
Si Si3 0.481631 0.717659 0.153810
Si Si4 0.328411 0.796049 0.561857
Si Si5 0.771297 0.625729 0.039497
Si Si6 0.630462 0.774343 0.561983
O O1 0.010893 0.299023 0.678069
O O2 0.075388 0.229417 0.027114
O O3 0.000000 0.000000 0.920789
O O4 0.886142 0.524973 0.337588
O O5 0.826545 0.299666 0.548560
O O6 0.500000 0.500000 0.184297
O O7 0.514008 0.798829 0.930267
O O8 0.426770 0.740204 0.064059
O O9 0.270323 0.784886 0.551868
O O10 0.346431 0.701246 0.811619
O O11 0.352362 0.004929 0.564605
O O12 0.348502 0.699957 0.317036
O O13 0.765710 0.491390 0.282551
#
# Coordination Sequence:
#
# PCOD9338910 Si02
#       6
#     4   4   4   4   4   4
#     4  10  21  37  55  85 126 161 210 255 304 360
#     4  10  21  37  61  86 120 163 206 255 307 361
#     4  10  21  40  59  86 120 151 193 237 288 353
#     4  10  21  40  60  89 117 155 193 250 297 356
#     4  10  21  40  60  91 121 155 202 250 305 359
#     4  10  21  40  62  87 120 151 199 234 296 361
#
# _framework density 22.815685999999999
#
# number of rings (size 3 to 8) (size 9 to 14) (size 15 to 20)
#    0.000    2.000    0.000    3.000    0.000    2.000 
#   18.000   16.667    0.000    0.000    0.000    0.000 
#    0.000    0.000    0.000    0.000    0.000    0.000 
#
# Total GULP energy -133969.057403 kJ/mol
# GULP energy per Si atom -5582.044058 kJ/mol
# Density = 2.276376 g / cm^3
# Si number density = 22.815686 Si / 1000 Ang^3
#
#
#
# Elastic Constant Matrix: (Units=GPa)
#
#
# Indices 1 2 3 4 5 6 
#
# 1 159.7290 21.5618 -4.9301 0.0000 0.0000 0.0000
# 2 21.5618 104.1287 -11.9311 0.0000 0.0000 0.0000
# 3 -4.9301 -11.9311 198.2594 0.0000 0.0000 0.0000
# 4 0.0000 0.0000 0.0000 -23.7839 0.0000 0.0000
# 5 0.0000 0.0000 0.0000 0.0000 40.0606 0.0000
# 6 0.0000 0.0000 0.0000 0.0000 0.0000 50.9006
#
#
#
# Elastic Compliance Matrix: (Units=1/GPa)
#
#
# Indices 1 2 3 4 5 6 
#
# 1 0.006442 -0.001325 0.000080 0.000000 0.000000 0.000000
# 2 -0.001325 0.009943 0.000565 0.000000 0.000000 0.000000
# 3 0.000080 0.000565 0.005080 0.000000 0.000000 0.000000
# 4 0.000000 0.000000 0.000000 -0.042045 0.000000 0.000000
# 5 0.000000 0.000000 0.000000 0.000000 0.024962 0.000000
# 6 0.000000 0.000000 0.000000 0.000000 0.000000 0.019646
#
#
# Mechanical properties :
#
#
# Convention : Reuss Voigt Hill
#
# Bulk Modulus (GPa) = 49.73451 52.39091 51.06271
# Shear Modulus (GPa) = 155.82401 43.92988 99.87695
#
# Velocity S-wave (km/s) = 8.27316 4.39273 6.62349
# Velocity P-wave (km/s) = 10.63513 6.98145 8.99573
#
# Compressibility (1/GPa) = 0.02010676
#
# Stress axis : x y z
#
# Youngs Moduli (GPa) = 155.23355 100.57742 196.85339
#
# Poissons Ratio (x) = 0.13323 -0.01584
# Poissons Ratio (y) = 0.20564 -0.11130
# Poissons Ratio (z) = -0.01249 -0.05687
#
# Static dielectric constant tensor:
#      x y z
#    x 1.830240 0.000000 0.000000 
#    y 0.000000 1.666280 0.000000 
#    z 0.000000 0.000000 1.921250 
# 
# From -- ./inp_files/656.got.cif
#   From: 2010.05.17/outbox.cif.g08.bks.cpg/sg27_1_cif.got.tgz:656.got - 2010.06.04 01:11:05.
