data_PCOD9338102
_publ_section_title
;
Structure prediction by ZEFSAII (Michael W. Deem and Ramdas Pophale) SiO2 
 PCOD9338102
Probable space group: P M C 21
;
_chemical_formula_sum "Si O2"
_cell_formula_units_Z 32
_cell_length_a 8.502474
_cell_length_b 10.840734
_cell_length_c 17.603646
_cell_angle_alpha 90.000000
_cell_angle_beta 90.000000
_cell_angle_gamma 90.000000
_cell_volume 1622.581901
_symmetry_space_group_name_H-M "P M C 21"
_symmetry_group_IT_number 26
_symmetry_cell_setting 'orthorhombic'
loop_
_space_group_symop_operation_xyz
x,y,z
-x,-y,1/2+z
-x,y,z
x,-y,1/2+z
loop_
_atom_site_type_symbol
_atom_site_label
_atom_site_fract_x
_atom_site_fract_y
_atom_site_fract_z
Si Si1 0.308514 0.443864 0.942620
Si Si2 0.812757 0.799592 0.362365
Si Si3 0.323979 0.074730 0.000236
Si Si4 0.179302 0.837486 0.041696
Si Si5 0.686363 0.284253 0.392006
Si Si6 0.679959 0.671234 0.594653
Si Si7 0.808920 0.904146 0.199861
Si Si8 0.187042 0.816170 0.733198
O O1 0.500000 0.432144 0.942724
O O2 0.236240 0.334338 0.892628
O O3 0.264283 0.574103 0.906233
O O4 0.258543 0.426337 0.031538
O O5 0.716253 0.895031 0.413827
O O6 0.775003 0.828629 0.275712
O O7 0.000000 0.817156 0.373881
O O8 0.500000 0.022315 0.008408
O O9 0.320408 0.202608 0.045443
O O10 0.191341 0.984714 0.030604
O O11 0.248595 0.828741 0.126289
O O12 0.000000 0.793418 0.038931
O O13 0.270015 0.782774 0.970490
O O14 0.500000 0.282057 0.381457
O O15 0.760139 0.221537 0.317727
O O16 0.500000 0.637979 0.613422
O O17 0.763748 0.711490 0.672186
O O18 0.000000 0.910356 0.191851
O O19 0.751841 0.046454 0.209117
O O20 0.000000 0.825059 0.733102
#
# Coordination Sequence:
#
# PCOD9338102 Si02
#       8
#     4   4   4   4   4   4   4   4
#     4   9  21  42  61  80 115 155 198 245 291 350
#     4  10  19  34  59  86 114 150 191 238 290 343
#     4  10  19  33  55  85 118 151 190 232 288 350
#     4  11  21  37  58  82 118 155 192 241 294 347
#     4  11  24  42  60  83 117 159 201 245 300 354
#     4   9  18  35  59  85 114 150 192 240 286 342
#     4   9  20  36  55  85 122 150 180 232 295 353
#     4  11  21  37  61  90 120 152 192 239 298 359
#
# _framework density 19.721655999999999
#
# number of rings (size 3 to 8) (size 9 to 14) (size 15 to 20)
#    0.000    2.000    1.250    3.375    0.000    4.000 
#    2.250    4.375    0.000    0.000    0.000    0.000 
#    0.000    0.000    0.000    0.000    0.000    0.000 
#
# Total GULP energy -178426.157390 kJ/mol
# GULP energy per Si atom -5575.817418 kJ/mol
# Density = 1.967677 g / cm^3
# Si number density = 19.721656 Si / 1000 Ang^3
#
#
#
# Elastic Constant Matrix: (Units=GPa)
#
#
# Indices 1 2 3 4 5 6 
#
# 1 29.5118 4.6514 19.6034 0.0000 0.0000 0.0000
# 2 4.6514 28.1309 20.4225 0.0000 0.0000 0.0000
# 3 19.6034 20.4225 153.2408 0.0000 0.0000 0.0000
# 4 0.0000 0.0000 0.0000 20.5713 0.0000 0.0000
# 5 0.0000 0.0000 0.0000 0.0000 28.7597 0.0000
# 6 0.0000 0.0000 0.0000 0.0000 0.0000 18.9164
#
#
#
# Elastic Compliance Matrix: (Units=1/GPa)
#
#
# Indices 1 2 3 4 5 6 
#
# 1 0.037257 -0.002990 -0.004368 0.000000 0.000000 0.000000
# 2 -0.002990 0.039596 -0.004895 0.000000 0.000000 0.000000
# 3 -0.004368 -0.004895 0.007737 0.000000 0.000000 0.000000
# 4 0.000000 0.000000 0.000000 0.048611 0.000000 0.000000
# 5 0.000000 0.000000 0.000000 0.000000 0.034771 0.000000
# 6 0.000000 0.000000 0.000000 0.000000 0.000000 0.052864
#
#
# Mechanical properties :
#
#
# Convention : Reuss Voigt Hill
#
# Bulk Modulus (GPa) = 16.64278 33.35979 25.00129
# Shear Modulus (GPa) = 18.84173 24.72990 21.78582
#
# Velocity S-wave (km/s) = 3.09428 3.54495 3.32726
# Velocity P-wave (km/s) = 4.60687 5.80583 5.24075
#
# Compressibility (1/GPa) = 0.06008613
#
# Stress axis : x y z
#
# Youngs Moduli (GPa) = 26.84039 25.25525 129.25385
#
# Poissons Ratio (x) = 0.07550 0.56455
# Poissons Ratio (y) = 0.08024 0.63263
# Poissons Ratio (z) = 0.11723 0.12361
#
# Static dielectric constant tensor:
#      x y z
#    x 1.687690 0.000000 0.000000 
#    y 0.000000 1.699880 0.000000 
#    z 0.000000 0.000000 1.720880 
# 
# From -- ./inp_files/5092.got.cif
#   From: 2010.05.17/outbox.cif.g08.bks.cpg/sg26_3_cif.got.tgz:5092.got - 2010.06.04 01:07:29.
