data_PCOD9338464
_publ_section_title
;
Structure prediction by ZEFSAII (Michael W. Deem and Ramdas Pophale) SiO2 
 PCOD9338464
Probable space group: P M C 21
;
_chemical_formula_sum "Si O2"
_cell_formula_units_Z 32
_cell_length_a 9.429273
_cell_length_b 14.350021
_cell_length_c 11.357556
_cell_angle_alpha 90.000000
_cell_angle_beta 90.000000
_cell_angle_gamma 90.000000
_cell_volume 1536.793919
_symmetry_space_group_name_H-M "P M C 21"
_symmetry_group_IT_number 26
_symmetry_cell_setting 'orthorhombic'
loop_
_space_group_symop_operation_xyz
x,y,z
-x,-y,1/2+z
-x,y,z
x,-y,1/2+z
loop_
_atom_site_type_symbol
_atom_site_label
_atom_site_fract_x
_atom_site_fract_y
_atom_site_fract_z
Si Si1 0.657048 0.426818 0.826790
Si Si2 0.836795 0.739105 0.042776
Si Si3 0.666325 0.769525 0.806410
Si Si4 0.172231 0.062841 0.197241
Si Si5 0.158561 0.520285 0.003314
Si Si6 0.830174 0.241856 0.806896
Si Si7 0.658805 0.586168 0.654445
Si Si8 0.171583 0.055914 0.929844
O O1 0.500000 0.394551 0.853527
O O2 0.760399 0.340427 0.832356
O O3 0.650300 0.481575 0.705170
O O4 0.715055 0.507451 0.911475
O O5 0.837355 0.625727 0.052504
O O6 0.795359 0.780207 0.169806
O O7 0.000000 0.767468 0.017255
O O8 0.737832 0.767982 0.935104
O O9 0.500000 0.794463 0.813476
O O10 0.753067 0.838998 0.722649
O O11 0.676658 0.667554 0.748172
O O12 0.000000 0.069730 0.197959
O O13 0.214235 0.003074 0.313731
O O14 0.213716 0.029611 0.064181
O O15 0.196509 0.429761 0.082489
O O16 0.000000 0.509672 0.953183
O O17 0.784995 0.161557 0.896908
O O18 0.000000 0.249800 0.811375
O O19 0.500000 0.603414 0.602398
O O20 0.000000 0.052749 0.929817
#
# Coordination Sequence:
#
# PCOD9338464 Si02
#       8
#     4   4   4   4   4   4   4   4
#     4  11  22  37  56  82 120 168 207 251 307 370
#     4  10  21  36  59  89 123 165 213 267 316 369
#     4  11  24  41  61  89 126 167 210 260 317 382
#     4  10  22  43  69  98 124 160 208 260 324 389
#     4  11  22  35  55  83 118 162 214 268 312 358
#     4  10  21  39  61  92 125 160 211 266 315 372
#     4  10  22  38  55  79 118 165 210 253 306 369
#     4   9  21  41  70  98 126 159 203 261 323 385
#
# _framework density 20.822571
#
# number of rings (size 3 to 8) (size 9 to 14) (size 15 to 20)
#    0.000    1.750    2.500    1.125    3.500    2.500 
#    0.000    1.250    0.000    0.000    0.000    0.000 
#    0.000    0.000    0.000    0.000    0.000    0.000 
#
# Total GULP energy -178173.005057 kJ/mol
# GULP energy per Si atom -5567.906408 kJ/mol
# Density = 2.077518 g / cm^3
# Si number density = 20.822571 Si / 1000 Ang^3
#
#
#
# Elastic Constant Matrix: (Units=GPa)
#
#
# Indices 1 2 3 4 5 6 
#
# 1 25.9598 7.9441 25.6577 0.0000 0.0000 0.0000
# 2 7.9441 68.4263 35.8405 0.0000 0.0000 0.0000
# 3 25.6577 35.8405 120.4221 0.0000 0.0000 0.0000
# 4 0.0000 0.0000 0.0000 33.8198 0.0000 0.0000
# 5 0.0000 0.0000 0.0000 0.0000 71.9783 0.0000
# 6 0.0000 0.0000 0.0000 0.0000 0.0000 90.3429
#
#
#
# Elastic Compliance Matrix: (Units=1/GPa)
#
#
# Indices 1 2 3 4 5 6 
#
# 1 0.048801 -0.000260 -0.010320 0.000000 0.000000 0.000000
# 2 -0.000260 0.017315 -0.005098 0.000000 0.000000 0.000000
# 3 -0.010320 -0.005098 0.012020 0.000000 0.000000 0.000000
# 4 0.000000 0.000000 0.000000 0.029568 0.000000 0.000000
# 5 0.000000 0.000000 0.000000 0.000000 0.013893 0.000000
# 6 0.000000 0.000000 0.000000 0.000000 0.000000 0.011069
#
#
# Mechanical properties :
#
#
# Convention : Reuss Voigt Hill
#
# Bulk Modulus (GPa) = 21.37697 39.29921 30.33809
# Shear Modulus (GPa) = 27.83717 48.91925 38.37821
#
# Velocity S-wave (km/s) = 3.66030 4.85225 4.29780
# Velocity P-wave (km/s) = 5.30587 7.09273 6.26335
#
# Compressibility (1/GPa) = 0.04677931
#
# Stress axis : x y z
#
# Youngs Moduli (GPa) = 20.49140 57.75466 83.19275
#
# Poissons Ratio (x) = 0.01502 0.85858
# Poissons Ratio (y) = 0.00533 0.42410
# Poissons Ratio (z) = 0.21148 0.29442
#
# Static dielectric constant tensor:
#      x y z
#    x 1.717420 0.000000 0.000000 
#    y 0.000000 1.748860 0.000000 
#    z 0.000000 0.000000 1.927020 
# 
# From -- ./inp_files/3018.got.cif
#   From: 2010.05.17/outbox.cif.g08.bks.cpg/sg26_2_cif.got.tgz:3018.got - 2010.06.04 01:07:29.
