data_PCOD9338801
_publ_section_title
;
Structure prediction by ZEFSAII (Michael W. Deem and Ramdas Pophale) SiO2 
 PCOD9338801
Probable space group: P C C 2
;
_chemical_formula_sum "Si O2"
_cell_formula_units_Z 24
_cell_length_a 4.720132
_cell_length_b 7.658172
_cell_length_c 27.559353
_cell_angle_alpha 90.000000
_cell_angle_beta 90.000000
_cell_angle_gamma 90.000000
_cell_volume 996.203992
_symmetry_space_group_name_H-M "P C C 2"
_symmetry_group_IT_number 27
_symmetry_cell_setting 'orthorhombic'
loop_
_space_group_symop_operation_xyz
x,y,z
-x,-y,z
-x,y,1/2+z
x,-y,1/2+z
loop_
_atom_site_type_symbol
_atom_site_label
_atom_site_fract_x
_atom_site_fract_y
_atom_site_fract_z
Si Si1 0.362434 0.189336 0.721050
Si Si2 0.892700 0.195021 0.321170
Si Si3 0.604834 0.303185 0.883789
Si Si4 0.133316 0.308790 0.161495
Si Si5 0.802307 0.678525 0.487379
Si Si6 0.225501 0.672092 0.552836
O O1 0.231935 0.261627 0.770634
O O2 0.615534 0.301455 0.699696
O O3 0.117220 0.185001 0.680547
O O4 0.500000 0.000000 0.730555
O O5 0.649773 0.193382 0.361563
O O6 0.149089 0.301216 0.344027
O O7 0.000000 0.000000 0.311521
O O8 0.500000 0.500000 0.891372
O O9 0.711294 0.244456 0.936314
O O10 0.259223 0.270695 0.108012
O O11 0.000000 0.500000 0.161159
O O12 0.520827 0.662120 0.522348
O O13 0.000000 0.500000 0.473225
O O14 0.024900 0.786339 0.518871
O O15 0.000000 0.500000 0.558664
#
# Coordination Sequence:
#
# PCOD9338801 Si02
#       6
#     4   4   4   4   4   4
#     4  12  27  49  70  93 141 196 228 274 359 424
#     4  12  27  49  70  93 141 196 228 274 359 424
#     4  12  24  41  76 111 132 174 240 295 329 401
#     4  12  24  41  76 111 132 174 240 295 329 401
#     4  10  19  35  64 102 136 180 209 269 345 425
#     4  10  19  35  64 102 136 180 209 269 345 425
#
# _framework density 24.091449999999998
#
# number of rings (size 3 to 8) (size 9 to 14) (size 15 to 20)
#    0.000    0.667    3.333    7.000    4.667    2.667 
#    0.000    1.667    0.000   20.000    0.000    0.000 
#    0.000    0.000    0.000    0.000    0.000    0.000 
#
# Total GULP energy -133885.815611 kJ/mol
# GULP energy per Si atom -5578.575650 kJ/mol
# Density = 2.403662 g / cm^3
# Si number density = 24.091450 Si / 1000 Ang^3
#
#
#
# Elastic Constant Matrix: (Units=GPa)
#
#
# Indices 1 2 3 4 5 6 
#
# 1 186.8413 11.9238 73.6901 0.0000 0.0000 0.0000
# 2 11.9238 20.1339 5.6671 0.0000 0.0000 0.0000
# 3 73.6901 5.6671 159.9212 0.0000 0.0000 0.0000
# 4 0.0000 0.0000 0.0000 -37.9358 0.0000 0.0000
# 5 0.0000 0.0000 0.0000 0.0000 17.7504 0.0000
# 6 0.0000 0.0000 0.0000 0.0000 0.0000 33.8630
#
#
#
# Elastic Compliance Matrix: (Units=1/GPa)
#
#
# Indices 1 2 3 4 5 6 
#
# 1 0.006732 -0.003145 -0.002991 0.000000 0.000000 0.000000
# 2 -0.003145 0.051637 -0.000381 0.000000 0.000000 0.000000
# 3 -0.002991 -0.000381 0.007645 0.000000 0.000000 0.000000
# 4 0.000000 0.000000 0.000000 -0.026360 0.000000 0.000000
# 5 0.000000 0.000000 0.000000 0.000000 0.056337 0.000000
# 6 0.000000 0.000000 0.000000 0.000000 0.000000 0.029531
#
#
# Mechanical properties :
#
#
# Convention : Reuss Voigt Hill
#
# Bulk Modulus (GPa) = 18.87464 61.05094 39.96279
# Shear Modulus (GPa) = 32.00710 21.10986 26.55848
#
# Velocity S-wave (km/s) = 3.64891 2.96334 3.32385
# Velocity P-wave (km/s) = 5.06007 6.09138 5.59952
#
# Compressibility (1/GPa) = 0.05298115
#
# Stress axis : x y z
#
# Youngs Moduli (GPa) = 148.53501 19.36586 130.80988
#
# Poissons Ratio (x) = 0.06091 0.39122
# Poissons Ratio (y) = 0.46718 0.04978
# Poissons Ratio (z) = 0.44423 0.00737
#
# Static dielectric constant tensor:
#      x y z
#    x 2.021830 0.000000 0.000000 
#    y 0.000000 2.108200 0.000000 
#    z 0.000000 0.000000 1.984090 
# 
# From -- ./inp_files/5194.got.cif
#   From: 2010.05.17/outbox.cif.g08.bks.cpg/sg27_3_cif.got.tgz:5194.got - 2010.06.04 01:11:05.
