data_PCOD9338173
_publ_section_title
;
Structure prediction by ZEFSAII (Michael W. Deem and Ramdas Pophale) SiO2 
 PCOD9338173
Probable space group: P M C 21
;
_chemical_formula_sum "Si O2"
_cell_formula_units_Z 22
_cell_length_a 14.410810
_cell_length_b 13.725766
_cell_length_c 4.996148
_cell_angle_alpha 90.000000
_cell_angle_beta 90.000000
_cell_angle_gamma 90.000000
_cell_volume 988.235106
_symmetry_space_group_name_H-M "P M C 21"
_symmetry_group_IT_number 26
_symmetry_cell_setting 'orthorhombic'
loop_
_space_group_symop_operation_xyz
x,y,z
-x,-y,1/2+z
-x,y,z
x,-y,1/2+z
loop_
_atom_site_type_symbol
_atom_site_label
_atom_site_fract_x
_atom_site_fract_y
_atom_site_fract_z
Si Si1 0.857186 0.718648 0.859930
Si Si2 0.500000 0.560278 0.889014
Si Si3 0.500000 0.930508 0.409764
Si Si4 0.301143 0.062768 0.033936
Si Si5 0.894519 0.158226 0.867882
Si Si6 0.000000 0.437715 0.448822
Si Si7 0.701230 0.571391 0.765749
O O1 0.898802 0.753149 0.579139
O O2 0.912742 0.630134 0.992546
O O3 0.760092 0.668641 0.799311
O O4 0.868858 0.805394 0.071050
O O5 0.500000 0.461666 0.704586
O O6 0.595575 0.605920 0.800747
O O7 0.500000 0.022140 0.616366
O O8 0.601611 0.881833 0.461348
O O9 0.198488 0.103738 0.970724
O O10 0.305874 0.967666 0.842650
O O11 0.000000 0.113959 0.865147
O O12 0.000000 0.527194 0.645743
O O13 0.717287 0.511810 0.492420
#
# Coordination Sequence:
#
# PCOD9338173 Si02
#       7
#     4   2   2   4   4   2   4
#     4  12  23  39  55  81 115 152 186 237 296 334
#     4   8  16  30  52  76 104 138 178 234 290 326
#     4   8  16  34  60  90 118 140 180 240 284 324
#     4  10  21  39  65  91 114 150 195 234 279 345
#     4  12  24  41  57  81 121 159 183 233 298 337
#     4  12  22  36  58  80 102 146 200 238 274 332
#     4  10  19  35  56  80 106 142 191 236 277 339
#
# _framework density 22.261908999999999
#
# number of rings (size 3 to 8) (size 9 to 14) (size 15 to 20)
#    0.000    1.455    1.818    4.364    0.000    0.727 
#    0.000    1.818    0.000    0.000    0.000    0.000 
#    0.000    0.000    0.000    0.000    0.000    0.000 
#
# Total GULP energy -122601.841766 kJ/mol
# GULP energy per Si atom -5572.810989 kJ/mol
# Density = 2.221124 g / cm^3
# Si number density = 22.261909 Si / 1000 Ang^3
#
#
#
# Elastic Constant Matrix: (Units=GPa)
#
#
# Indices 1 2 3 4 5 6 
#
# 1 193.2242 28.6731 -3.1849 0.0000 0.0000 0.0000
# 2 28.6731 7.6747 1.2494 0.0000 0.0000 0.0000
# 3 -3.1849 1.2494 99.6826 0.0000 0.0000 0.0000
# 4 0.0000 0.0000 0.0000 25.1496 0.0000 0.0000
# 5 0.0000 0.0000 0.0000 0.0000 22.0610 0.0000
# 6 0.0000 0.0000 0.0000 0.0000 0.0000 47.5596
#
#
#
# Elastic Compliance Matrix: (Units=1/GPa)
#
#
# Indices 1 2 3 4 5 6 
#
# 1 0.011699 -0.043856 0.000923 0.000000 0.000000 0.000000
# 2 -0.043856 0.294977 -0.005099 0.000000 0.000000 0.000000
# 3 0.000923 -0.005099 0.010125 0.000000 0.000000 0.000000
# 4 0.000000 0.000000 0.000000 0.039762 0.000000 0.000000
# 5 0.000000 0.000000 0.000000 0.000000 0.045329 0.000000
# 6 0.000000 0.000000 0.000000 0.000000 0.000000 0.021026
#
#
# Mechanical properties :
#
#
# Convention : Reuss Voigt Hill
#
# Bulk Modulus (GPa) = 4.53026 39.33962 21.93494
# Shear Modulus (GPa) = 8.43796 37.21030 22.82413
#
# Velocity S-wave (km/s) = 1.94898 4.09281 3.20543
# Velocity P-wave (km/s) = 2.66536 6.32806 4.85533
#
# Compressibility (1/GPa) = 0.22073773
#
# Stress axis : x y z
#
# Youngs Moduli (GPa) = 85.48072 3.39009 98.76293
#
# Poissons Ratio (x) = 0.14868 -0.09121
# Poissons Ratio (y) = 3.74888 0.50354
# Poissons Ratio (z) = -0.07894 0.01728
#
# Static dielectric constant tensor:
#      x y z
#    x 1.954720 0.000000 0.000000 
#    y 0.000000 1.801490 0.000000 
#    z 0.000000 0.000000 1.768580 
# 
# From -- ./inp_files/588.got.cif
#   From: 2010.05.17/outbox.cif.g08.bks.cpg/sg26_1_cif.got.tgz:588.got - 2010.06.04 01:07:29.
