data_PCOD9338158
_publ_section_title
;
Structure prediction by ZEFSAII (Michael W. Deem and Ramdas Pophale) SiO2 
 PCOD9338158
Probable space group: P M C 21
;
_chemical_formula_sum "Si O2"
_cell_formula_units_Z 32
_cell_length_a 8.841107
_cell_length_b 11.825757
_cell_length_c 16.476453
_cell_angle_alpha 90.000000
_cell_angle_beta 90.000000
_cell_angle_gamma 90.000000
_cell_volume 1722.659015
_symmetry_space_group_name_H-M "P M C 21"
_symmetry_group_IT_number 26
_symmetry_cell_setting 'orthorhombic'
loop_
_space_group_symop_operation_xyz
x,y,z
-x,-y,1/2+z
-x,y,z
x,-y,1/2+z
loop_
_atom_site_type_symbol
_atom_site_label
_atom_site_fract_x
_atom_site_fract_y
_atom_site_fract_z
Si Si1 0.818068 0.431606 0.705340
Si Si2 0.331335 0.900167 0.258045
Si Si3 0.671534 0.248536 0.597093
Si Si4 0.677847 0.140205 0.296430
Si Si5 0.180114 0.309949 0.180977
Si Si6 0.681541 0.197336 0.020386
Si Si7 0.316427 0.940830 0.977285
Si Si8 0.178277 0.717575 0.358838
O O1 0.760802 0.356128 0.630211
O O2 0.769232 0.560415 0.692827
O O3 0.768168 0.374675 0.791381
O O4 0.000000 0.427408 0.706855
O O5 0.500000 0.895294 0.297678
O O6 0.338084 0.831796 0.175573
O O7 0.213247 0.837237 0.315032
O O8 0.301036 0.030267 0.239877
O O9 0.500000 0.281742 0.573457
O O10 0.740352 0.165725 0.529755
O O11 0.500000 0.171271 0.296549
O O12 0.774739 0.241040 0.261377
O O13 0.717476 0.090364 0.384460
O O14 0.000000 0.309134 0.169742
O O15 0.255741 0.249123 0.103761
O O16 0.500000 0.196895 0.022870
O O17 0.737592 0.273504 0.944532
O O18 0.733011 0.066543 0.004278
O O19 0.500000 0.941020 0.986324
O O20 0.000000 0.702496 0.372119
#
# Coordination Sequence:
#
# PCOD9338158 Si02
#       8
#     4   4   4   4   4   4   4   4
#     4   9  21  41  58  75 111 155 191 229 283 337
#     4   9  16  30  53  81 112 147 182 223 279 333
#     4   9  17  31  56  84 108 138 184 233 270 322
#     4  10  19  35  57  81 115 152 184 226 284 341
#     4  11  24  41  57  80 114 154 196 238 284 337
#     4  11  21  38  62  88 116 148 186 233 292 347
#     4   9  18  34  57  86 118 145 176 226 287 343
#     4  10  19  34  58  85 112 147 189 234 279 334
#
# _framework density 18.575934
#
# number of rings (size 3 to 8) (size 9 to 14) (size 15 to 20)
#    0.000    2.250    1.250    1.875    0.000    4.000 
#    2.250    4.375    0.000    0.000    0.000    0.000 
#    0.000    0.000    0.000    0.000    0.000    0.000 
#
# Total GULP energy -178362.237306 kJ/mol
# GULP energy per Si atom -5573.819916 kJ/mol
# Density = 1.853365 g / cm^3
# Si number density = 18.575934 Si / 1000 Ang^3
#
#
#
# Elastic Constant Matrix: (Units=GPa)
#
#
# Indices 1 2 3 4 5 6 
#
# 1 28.9617 31.9340 22.5284 0.0000 0.0000 0.0000
# 2 31.9340 147.9183 55.3722 0.0000 0.0000 0.0000
# 3 22.5284 55.3722 70.2939 0.0000 0.0000 0.0000
# 4 0.0000 0.0000 0.0000 24.0022 0.0000 0.0000
# 5 0.0000 0.0000 0.0000 0.0000 22.1607 0.0000
# 6 0.0000 0.0000 0.0000 0.0000 0.0000 27.1983
#
#
#
# Elastic Compliance Matrix: (Units=1/GPa)
#
#
# Indices 1 2 3 4 5 6 
#
# 1 0.050475 -0.006866 -0.010768 0.000000 0.000000 0.000000
# 2 -0.006866 0.010522 -0.006088 0.000000 0.000000 0.000000
# 3 -0.010768 -0.006088 0.022472 0.000000 0.000000 0.000000
# 4 0.000000 0.000000 0.000000 0.041663 0.000000 0.000000
# 5 0.000000 0.000000 0.000000 0.000000 0.045125 0.000000
# 6 0.000000 0.000000 0.000000 0.000000 0.000000 0.036767
#
#
# Mechanical properties :
#
#
# Convention : Reuss Voigt Hill
#
# Bulk Modulus (GPa) = 27.75807 51.87147 39.81477
# Shear Modulus (GPa) = 18.76336 23.82818 21.29577
#
# Velocity S-wave (km/s) = 3.18164 3.58543 3.38955
# Velocity P-wave (km/s) = 5.33597 6.71752 6.06620
#
# Compressibility (1/GPa) = 0.03602556
#
# Stress axis : x y z
#
# Youngs Moduli (GPa) = 19.81169 95.04171 44.49885
#
# Poissons Ratio (x) = 0.65257 0.47917
# Poissons Ratio (y) = 0.13603 0.27090
# Poissons Ratio (z) = 0.21334 0.57859
#
# Static dielectric constant tensor:
#      x y z
#    x 1.647360 0.000000 0.000000 
#    y 0.000000 1.657920 0.000000 
#    z 0.000000 0.000000 1.675400 
# 
# From -- ./inp_files/4224.got.cif
#   From: 2010.05.17/outbox.cif.g08.bks.cpg/sg26_3_cif.got.tgz:4224.got - 2010.06.04 01:07:29.
