data_PCOD9338411
_publ_section_title
;
Structure prediction by ZEFSAII (Michael W. Deem and Ramdas Pophale) SiO2 
 PCOD9338411
Probable space group: P M C 21
;
_chemical_formula_sum "Si O2"
_cell_formula_units_Z 24
_cell_length_a 12.724748
_cell_length_b 5.135080
_cell_length_c 15.848506
_cell_angle_alpha 90.000000
_cell_angle_beta 90.000000
_cell_angle_gamma 90.000000
_cell_volume 1035.582572
_symmetry_space_group_name_H-M "P M C 21"
_symmetry_group_IT_number 26
_symmetry_cell_setting 'orthorhombic'
loop_
_space_group_symop_operation_xyz
x,y,z
-x,-y,1/2+z
-x,y,z
x,-y,1/2+z
loop_
_atom_site_type_symbol
_atom_site_label
_atom_site_fract_x
_atom_site_fract_y
_atom_site_fract_z
Si Si1 0.659747 0.137539 0.055880
Si Si2 0.620525 0.157811 0.390342
Si Si3 0.000000 0.169797 0.788327
Si Si4 0.000000 0.676358 0.903942
Si Si5 0.773224 0.838685 0.284232
Si Si6 0.384215 0.372617 0.665727
Si Si7 0.793394 0.447996 0.956602
O O1 0.610507 0.370862 0.109200
O O2 0.647410 0.875967 0.108812
O O3 0.616214 0.067874 0.962638
O O4 0.773693 0.259697 0.035207
O O5 0.500000 0.231044 0.370254
O O6 0.688409 0.061404 0.309555
O O7 0.690654 0.377437 0.436378
O O8 0.112600 0.113711 0.742829
O O9 0.000000 0.465280 0.825959
O O10 0.000000 0.959287 0.863882
O O11 0.895732 0.625095 0.957926
O O12 0.706294 0.624325 0.234960
O O13 0.805019 0.732422 0.375340
O O14 0.500000 0.324936 0.702736
#
# Coordination Sequence:
#
# PCOD9338411 Si02
#       7
#     4   4   2   2   4   4   4
#     4  11  25  42  63  90 131 175 210 254 321 387
#     4  11  21  38  65  97 127 164 212 264 314 381
#     4  10  20  40  66  91 125 166 203 262 326 371
#     4  10  20  38  68  95 123 160 211 266 318 371
#     4  10  24  40  64  96 126 165 215 269 316 381
#     4  12  25  42  62  91 133 175 211 258 322 391
#     4  10  22  42  67  96 126 165 219 267 321 376
#
# _framework density 23.175360999999999
#
# number of rings (size 3 to 8) (size 9 to 14) (size 15 to 20)
#    0.000    1.333    3.333    2.000    2.333    4.000 
#    0.000    1.667    0.000    0.000    0.000    0.000 
#    0.000    0.000    0.000    0.000    0.000    0.000 
#
# Total GULP energy -133862.677519 kJ/mol
# GULP energy per Si atom -5577.611563 kJ/mol
# Density = 2.312261 g / cm^3
# Si number density = 23.175361 Si / 1000 Ang^3
#
#
#
# Elastic Constant Matrix: (Units=GPa)
#
#
# Indices 1 2 3 4 5 6 
#
# 1 162.1772 26.5033 14.9689 0.0000 0.0000 0.0000
# 2 26.5033 124.5182 13.4158 0.0000 0.0000 0.0000
# 3 14.9689 13.4158 30.8659 0.0000 0.0000 0.0000
# 4 0.0000 0.0000 0.0000 24.1602 0.0000 0.0000
# 5 0.0000 0.0000 0.0000 0.0000 21.2612 0.0000
# 6 0.0000 0.0000 0.0000 0.0000 0.0000 22.7477
#
#
#
# Elastic Compliance Matrix: (Units=1/GPa)
#
#
# Indices 1 2 3 4 5 6 
#
# 1 0.006599 -0.001112 -0.002717 0.000000 0.000000 0.000000
# 2 -0.001112 0.008613 -0.003204 0.000000 0.000000 0.000000
# 3 -0.002717 -0.003204 0.035109 0.000000 0.000000 0.000000
# 4 0.000000 0.000000 0.000000 0.041390 0.000000 0.000000
# 5 0.000000 0.000000 0.000000 0.000000 0.047034 0.000000
# 6 0.000000 0.000000 0.000000 0.000000 0.000000 0.043960
#
#
# Mechanical properties :
#
#
# Convention : Reuss Voigt Hill
#
# Bulk Modulus (GPa) = 27.58318 47.48191 37.53255
# Shear Modulus (GPa) = 23.93998 31.14536 27.54267
#
# Velocity S-wave (km/s) = 3.21751 3.66990 3.45112
# Velocity P-wave (km/s) = 5.07257 6.20404 5.66662
#
# Compressibility (1/GPa) = 0.03625398
#
# Stress axis : x y z
#
# Youngs Moduli (GPa) = 151.54861 116.10572 28.48307
#
# Poissons Ratio (x) = 0.12908 0.07738
# Poissons Ratio (y) = 0.16849 0.09127
# Poissons Ratio (z) = 0.41173 0.37205
#
# Static dielectric constant tensor:
#      x y z
#    x 1.982570 0.000000 0.000000 
#    y 0.000000 1.893160 0.000000 
#    z 0.000000 0.000000 1.896180 
# 
# From -- ./inp_files/5129.got.cif
#   From: 2010.05.17/outbox.cif.g08.bks.cpg/sg26_3_cif.got.tgz:5129.got - 2010.06.04 01:07:29.
