data_PCOD9338868
_publ_section_title
;
Structure prediction by ZEFSAII (Michael W. Deem and Ramdas Pophale) SiO2 
 PCOD9338868
Probable space group: P C C 2
;
_chemical_formula_sum "Si O2"
_cell_formula_units_Z 32
_cell_length_a 5.399685
_cell_length_b 16.282796
_cell_length_c 18.147771
_cell_angle_alpha 90.000000
_cell_angle_beta 90.000000
_cell_angle_gamma 90.000000
_cell_volume 1595.587765
_symmetry_space_group_name_H-M "P C C 2"
_symmetry_group_IT_number 27
_symmetry_cell_setting 'orthorhombic'
loop_
_space_group_symop_operation_xyz
x,y,z
-x,-y,z
-x,y,1/2+z
x,-y,1/2+z
loop_
_atom_site_type_symbol
_atom_site_label
_atom_site_fract_x
_atom_site_fract_y
_atom_site_fract_z
Si Si1 0.877707 0.819359 0.584910
Si Si2 0.555838 0.096732 0.831725
Si Si3 0.817370 0.817881 0.210969
Si Si4 0.428804 0.405698 0.542065
Si Si5 0.437205 0.307391 0.682857
Si Si6 0.248925 0.051954 0.474928
Si Si7 0.796654 0.754372 0.828590
Si Si8 0.927881 0.679891 0.982443
O O1 0.719782 0.759496 0.636705
O O2 0.721247 0.882694 0.539135
O O3 0.060797 0.862128 0.642288
O O4 0.022565 0.764003 0.526360
O O5 0.612804 0.127536 0.749790
O O6 0.366382 0.168395 0.857679
O O7 0.500000 0.000000 0.824556
O O8 0.764829 0.095943 0.895175
O O9 0.711529 0.730656 0.183611
O O10 0.998081 0.796418 0.277628
O O11 0.500000 0.500000 0.529997
O O12 0.415348 0.386054 0.630243
O O13 0.663808 0.355562 0.509551
O O14 0.167950 0.376762 0.504463
O O15 0.349565 0.302858 0.768131
O O16 0.500000 0.000000 0.473230
O O17 0.000000 0.000000 0.485527
O O18 0.902990 0.701773 0.896079
#
# Coordination Sequence:
#
# PCOD9338868 Si02
#       8
#     4   4   4   4   4   4   4   4
#     4  10  22  40  63  93 128 170 232 273 328 395
#     4  10  24  39  60  89 131 174 228 280 342 380
#     4  10  20  40  64  88 126 169 232 270 331 390
#     4  11  24  45  72 105 139 172 213 275 346 405
#     4   9  21  41  65  99 125 176 223 267 326 415
#     4  11  27  42  61  90 130 175 228 283 342 389
#     4  10  23  40  66  97 127 181 227 276 319 401
#     4  11  24  40  75 100 133 178 225 272 329 409
#
# _framework density 20.055306000000002
#
# number of rings (size 3 to 8) (size 9 to 14) (size 15 to 20)
#    0.000    1.750    1.250    1.125   15.750    0.000 
#    6.750    0.625    2.750    0.000    0.000    0.000 
#    0.000    0.000    0.000    0.000    0.000    0.000 
#
# Total GULP energy -178299.944857 kJ/mol
# GULP energy per Si atom -5571.873277 kJ/mol
# Density = 2.000966 g / cm^3
# Si number density = 20.055306 Si / 1000 Ang^3
#
#
#
# Elastic Constant Matrix: (Units=GPa)
#
#
# Indices 1 2 3 4 5 6 
#
# 1 73.5484 21.0603 20.4615 0.0000 0.0000 0.0000
# 2 21.0603 62.8753 36.4011 0.0000 0.0000 0.0000
# 3 20.4615 36.4011 119.3848 0.0000 0.0000 0.0000
# 4 0.0000 0.0000 0.0000 18.9592 0.0000 0.0000
# 5 0.0000 0.0000 0.0000 0.0000 56.7288 0.0000
# 6 0.0000 0.0000 0.0000 0.0000 0.0000 22.6697
#
#
#
# Elastic Compliance Matrix: (Units=1/GPa)
#
#
# Indices 1 2 3 4 5 6 
#
# 1 0.015198 -0.004351 -0.001278 0.000000 0.000000 0.000000
# 2 -0.004351 0.020559 -0.005523 0.000000 0.000000 0.000000
# 3 -0.001278 -0.005523 0.010279 0.000000 0.000000 0.000000
# 4 0.000000 0.000000 0.000000 0.052745 0.000000 0.000000
# 5 0.000000 0.000000 0.000000 0.000000 0.017628 0.000000
# 6 0.000000 0.000000 0.000000 0.000000 0.000000 0.044112
#
#
# Mechanical properties :
#
#
# Convention : Reuss Voigt Hill
#
# Bulk Modulus (GPa) = 42.13571 45.73938 43.93755
# Shear Modulus (GPa) = 26.21434 31.53057 28.87246
#
# Velocity S-wave (km/s) = 3.61931 3.96938 3.79838
# Velocity P-wave (km/s) = 6.20655 6.62299 6.41815
#
# Compressibility (1/GPa) = 0.02373284
#
# Stress axis : x y z
#
# Youngs Moduli (GPa) = 65.79868 48.64008 97.28249
#
# Poissons Ratio (x) = 0.21161 0.12435
# Poissons Ratio (y) = 0.28626 0.53729
# Poissons Ratio (z) = 0.08411 0.26864
#
# Static dielectric constant tensor:
#      x y z
#    x 1.750150 0.000000 0.000000 
#    y 0.000000 1.692230 0.000000 
#    z 0.000000 0.000000 1.713160 
# 
# From -- ./inp_files/4082.got.cif
#   From: 2010.05.17/outbox.cif.g08.bks.cpg/sg27_3_cif.got.tgz:4082.got - 2010.06.04 01:11:05.
