data_PCOD9338432
_publ_section_title
;
Structure prediction by ZEFSAII (Michael W. Deem and Ramdas Pophale) SiO2 
 PCOD9338432
Probable space group: P M C 21
;
_chemical_formula_sum "Si O2"
_cell_formula_units_Z 30
_cell_length_a 11.804738
_cell_length_b 7.566573
_cell_length_c 15.786599
_cell_angle_alpha 90.000000
_cell_angle_beta 90.000000
_cell_angle_gamma 90.000000
_cell_volume 1410.081311
_symmetry_space_group_name_H-M "P M C 21"
_symmetry_group_IT_number 26
_symmetry_cell_setting 'orthorhombic'
loop_
_space_group_symop_operation_xyz
x,y,z
-x,-y,1/2+z
-x,y,z
x,-y,1/2+z
loop_
_atom_site_type_symbol
_atom_site_label
_atom_site_fract_x
_atom_site_fract_y
_atom_site_fract_z
Si Si1 0.624810 0.252151 0.070430
Si Si2 0.129696 0.434317 0.813709
Si Si3 0.732194 0.563495 0.969774
Si Si4 0.500000 0.017826 0.790636
Si Si5 0.341157 0.935496 0.951644
Si Si6 0.864848 0.302558 0.629202
Si Si7 0.731892 0.967238 0.695097
Si Si8 0.871244 0.982328 0.358931
O O1 0.500000 0.304962 0.101458
O O2 0.668056 0.389216 0.000946
O O3 0.711895 0.215402 0.145615
O O4 0.619632 0.062251 0.025422
O O5 0.160022 0.417590 0.714388
O O6 0.131884 0.229514 0.845475
O O7 0.000000 0.498035 0.820906
O O8 0.211253 0.536996 0.877890
O O9 0.823694 0.605865 0.043124
O O10 0.646714 0.728289 0.966494
O O11 0.403439 0.994458 0.866272
O O12 0.604624 0.027834 0.721469
O O13 0.207432 0.966760 0.936854
O O14 0.794789 0.121311 0.642591
O O15 0.000000 0.269662 0.629220
O O16 0.813260 0.937819 0.775415
O O17 0.000000 0.038340 0.369051
#
# Coordination Sequence:
#
# PCOD9338432 Si02
#       8
#     4   4   4   2   4   4   4   4
#     4  12  25  43  65  92 133 177 227 283 338 404
#     4   9  19  39  64  96 138 174 223 283 338 416
#     4  12  25  41  67 101 137 182 230 281 353 416
#     4  10  22  40  72  92 124 176 226 278 346 396
#     4  11  23  42  66  94 132 168 225 283 341 411
#     4  10  22  41  69 104 142 183 233 289 355 421
#     4  10  20  42  68  96 130 176 225 285 337 404
#     4   9  19  39  68  96 128 177 225 276 345 409
#
# _framework density 21.275369000000001
#
# number of rings (size 3 to 8) (size 9 to 14) (size 15 to 20)
#    0.000    1.600    4.000    1.600    0.933    3.200 
#    1.200    4.000    2.933    0.000    0.000    0.000 
#    0.000    0.000    0.000    0.000    0.000    0.000 
#
# Total GULP energy -167002.439914 kJ/mol
# GULP energy per Si atom -5566.747997 kJ/mol
# Density = 2.122695 g / cm^3
# Si number density = 21.275369 Si / 1000 Ang^3
#
#
#
# Elastic Constant Matrix: (Units=GPa)
#
#
# Indices 1 2 3 4 5 6 
#
# 1 123.9504 12.7746 25.0333 0.0000 0.0000 0.0000
# 2 12.7746 42.1855 10.3195 0.0000 0.0000 0.0000
# 3 25.0333 10.3195 68.9519 0.0000 0.0000 0.0000
# 4 0.0000 0.0000 0.0000 26.6611 0.0000 0.0000
# 5 0.0000 0.0000 0.0000 0.0000 37.5213 0.0000
# 6 0.0000 0.0000 0.0000 0.0000 0.0000 7.1852
#
#
#
# Elastic Compliance Matrix: (Units=1/GPa)
#
#
# Indices 1 2 3 4 5 6 
#
# 1 0.008861 -0.001968 -0.002922 0.000000 0.000000 0.000000
# 2 -0.001968 0.025043 -0.003033 0.000000 0.000000 0.000000
# 3 -0.002922 -0.003033 0.016018 0.000000 0.000000 0.000000
# 4 0.000000 0.000000 0.000000 0.037508 0.000000 0.000000
# 5 0.000000 0.000000 0.000000 0.000000 0.026652 0.000000
# 6 0.000000 0.000000 0.000000 0.000000 0.000000 0.139175
#
#
# Mechanical properties :
#
#
# Convention : Reuss Voigt Hill
#
# Bulk Modulus (GPa) = 29.34843 36.81586 33.08215
# Shear Modulus (GPa) = 17.82772 26.73755 22.28264
#
# Velocity S-wave (km/s) = 2.89788 3.54889 3.23978
# Velocity P-wave (km/s) = 5.00214 5.84251 5.43858
#
# Compressibility (1/GPa) = 0.03407337
#
# Stress axis : x y z
#
# Youngs Moduli (GPa) = 112.85643 39.93141 62.43044
#
# Poissons Ratio (x) = 0.07860 0.18245
# Poissons Ratio (y) = 0.22214 0.18938
# Poissons Ratio (z) = 0.32981 0.12113
#
# Static dielectric constant tensor:
#      x y z
#    x 1.768370 0.000000 0.000000 
#    y 0.000000 1.796900 0.000000 
#    z 0.000000 0.000000 1.799780 
# 
# From -- ./inp_files/4515.got.cif
#   From: 2010.05.17/outbox.cif.g08.bks.cpg/sg26_3_cif.got.tgz:4515.got - 2010.06.04 01:07:29.
