data_PCOD9338972
_publ_section_title
;
Structure prediction by ZEFSAII (Michael W. Deem and Ramdas Pophale) SiO2 
 PCOD9338972
Probable space group: P C C 2
;
_chemical_formula_sum "Si O2"
_cell_formula_units_Z 16
_cell_length_a 5.018091
_cell_length_b 5.321736
_cell_length_c 23.501262
_cell_angle_alpha 90.000000
_cell_angle_beta 90.000000
_cell_angle_gamma 90.000000
_cell_volume 627.600157
_symmetry_space_group_name_H-M "P C C 2"
_symmetry_group_IT_number 27
_symmetry_cell_setting 'orthorhombic'
loop_
_space_group_symop_operation_xyz
x,y,z
-x,-y,z
-x,y,1/2+z
x,-y,1/2+z
loop_
_atom_site_type_symbol
_atom_site_label
_atom_site_fract_x
_atom_site_fract_y
_atom_site_fract_z
Si Si1 0.847809 0.257696 0.695030
Si Si2 0.000000 0.000000 0.536897
Si Si3 0.500000 0.000000 0.620318
Si Si4 0.677337 0.749003 0.321206
Si Si5 0.684333 0.252915 0.946809
O O1 0.560483 0.223312 0.665533
O O2 0.840081 0.264414 0.763294
O O3 0.000000 0.500000 0.672803
O O4 0.000000 0.000000 0.681574
O O5 0.254098 0.970245 0.577263
O O6 0.089908 0.221387 0.494262
O O7 0.500000 0.500000 0.320763
O O8 0.810180 0.749238 0.383341
O O9 0.500000 0.000000 0.317551
O O10 0.500000 0.500000 0.953631
O O11 0.500000 0.000000 0.950550
#
# Coordination Sequence:
#
# PCOD9338972 Si02
#       5
#     4   2   2   4   4
#     4  12  27  47  75 113 155 201 259 325 398 468
#     4  12  26  52  78 110 158 210 266 318 384 466
#     4  12  28  52  76 114 154 212 266 320 380 466
#     4  10  21  43  75 109 152 193 250 323 399 472
#     4  10  24  47  75 113 153 201 259 326 398 470
#
# _framework density 25.493936999999999
#
# number of rings (size 3 to 8) (size 9 to 14) (size 15 to 20)
#    0.000    1.000    3.750    1.500    1.750    3.000 
#    0.000    0.000    0.000    0.000    0.000    0.000 
#    0.000    0.000    0.000    0.000    0.000    0.000 
#
# Total GULP energy -89510.456023 kJ/mol
# GULP energy per Si atom -5594.403501 kJ/mol
# Density = 2.543591 g / cm^3
# Si number density = 25.493937 Si / 1000 Ang^3
#
#
#
# Elastic Constant Matrix: (Units=GPa)
#
#
# Indices 1 2 3 4 5 6 
#
# 1 120.7165 61.6229 57.2975 0.0000 0.0000 0.0000
# 2 61.6229 214.7977 32.8735 0.0000 0.0000 0.0000
# 3 57.2975 32.8735 198.0388 0.0000 0.0000 0.0000
# 4 0.0000 0.0000 0.0000 -257.1243 0.0000 0.0000
# 5 0.0000 0.0000 0.0000 0.0000 9.2207 0.0000
# 6 0.0000 0.0000 0.0000 0.0000 0.0000 57.7267
#
#
#
# Elastic Compliance Matrix: (Units=1/GPa)
#
#
# Indices 1 2 3 4 5 6 
#
# 1 0.010969 -0.002731 -0.002720 0.000000 0.000000 0.000000
# 2 -0.002731 0.005457 -0.000116 0.000000 0.000000 0.000000
# 3 -0.002720 -0.000116 0.005856 0.000000 0.000000 0.000000
# 4 0.000000 0.000000 0.000000 -0.003889 0.000000 0.000000
# 5 0.000000 0.000000 0.000000 0.000000 0.108452 0.000000
# 6 0.000000 0.000000 0.000000 0.000000 0.000000 0.017323
#
#
# Mechanical properties :
#
#
# Convention : Reuss Voigt Hill
#
# Bulk Modulus (GPa) = 89.70135 93.01563 91.35849
# Shear Modulus (GPa) = 31.44333 -12.58477 9.42928
#
# Velocity S-wave (km/s) = 3.51574 -2.22421 1.92527
# Velocity P-wave (km/s) = 7.19321 5.47435 6.39182
#
# Compressibility (1/GPa) = 0.01114810
#
# Stress axis : x y z
#
# Youngs Moduli (GPa) = 91.16658 183.26382 170.77114
#
# Poissons Ratio (x) = 0.50041 0.46455
# Poissons Ratio (y) = 0.24893 0.01977
# Poissons Ratio (z) = 0.24800 0.02122
#
# Static dielectric constant tensor:
#      x y z
#    x 2.104360 0.000000 0.000000 
#    y 0.000000 2.042490 0.000000 
#    z 0.000000 0.000000 2.030390 
# 
# From -- ./inp_files/4928.got.cif
#   From: 2010.05.17/outbox.cif.g08.bks.cpg/sg27_3_cif.got.tgz:4928.got - 2010.06.04 01:11:05.
