data_PCOD9338306
_publ_section_title
;
Structure prediction by ZEFSAII (Michael W. Deem and Ramdas Pophale) SiO2 
 PCOD9338306
Probable space group: P M C 21
;
_chemical_formula_sum "Si O2"
_cell_formula_units_Z 32
_cell_length_a 8.987902
_cell_length_b 15.046572
_cell_length_c 12.570151
_cell_angle_alpha 90.000000
_cell_angle_beta 90.000000
_cell_angle_gamma 90.000000
_cell_volume 1699.950951
_symmetry_space_group_name_H-M "P M C 21"
_symmetry_group_IT_number 26
_symmetry_cell_setting 'orthorhombic'
loop_
_space_group_symop_operation_xyz
x,y,z
-x,-y,1/2+z
-x,y,z
x,-y,1/2+z
loop_
_atom_site_type_symbol
_atom_site_label
_atom_site_fract_x
_atom_site_fract_y
_atom_site_fract_z
Si Si1 0.821827 0.280420 0.525730
Si Si2 0.818188 0.146534 0.348280
Si Si3 0.824234 0.624496 0.559524
Si Si4 0.330133 0.451044 0.623676
Si Si5 0.669171 0.356935 0.850137
Si Si6 0.177203 0.190803 0.748371
Si Si7 0.179889 0.954398 0.412494
Si Si8 0.181657 0.173017 0.104988
O O1 0.772162 0.231752 0.417866
O O2 0.747954 0.374669 0.552786
O O3 0.792129 0.212931 0.625140
O O4 0.000000 0.293168 0.521871
O O5 0.773074 0.148262 0.224874
O O6 0.000000 0.146495 0.349407
O O7 0.767278 0.055473 0.404515
O O8 0.749397 0.545552 0.623799
O O9 0.778310 0.605530 0.438401
O O10 0.772458 0.725109 0.583197
O O11 0.000000 0.622100 0.574578
O O12 0.500000 0.461301 0.587704
O O13 0.328374 0.413502 0.742948
O O14 0.500000 0.352630 0.890232
O O15 0.729884 0.260877 0.816563
O O16 0.209853 0.095644 0.800459
O O17 0.000000 0.206974 0.764553
O O18 0.232496 0.894715 0.512281
O O19 0.000000 0.958002 0.422544
O O20 0.000000 0.171932 0.101555
#
# Coordination Sequence:
#
# PCOD9338306 Si02
#       8
#     4   4   4   4   4   4   4   4
#     4   9  18  32  51  79 110 142 182 229 277 325
#     4   9  18  29  47  78 115 148 180 221 275 333
#     4  11  21  35  56  81 111 145 183 233 282 332
#     4  10  22  38  56  80 108 145 189 230 280 340
#     4  10  20  35  54  77 106 140 182 230 278 330
#     4   9  16  29  50  75 103 135 179 228 273 320
#     4   9  16  27  47  75 107 143 178 221 272 325
#     4   9  18  31  47  75 112 144 177 218 275 329
#
# _framework density 18.824071
#
# number of rings (size 3 to 8) (size 9 to 14) (size 15 to 20)
#    0.000    2.500    1.250    1.125    1.750    2.500 
#    0.000    1.250    0.000    1.500    0.000    0.000 
#    0.000    0.000    0.000    0.000    0.000    0.000 
#
# Total GULP energy -178351.542646 kJ/mol
# GULP energy per Si atom -5573.485708 kJ/mol
# Density = 1.878123 g / cm^3
# Si number density = 18.824071 Si / 1000 Ang^3
#
#
#
# Elastic Constant Matrix: (Units=GPa)
#
#
# Indices 1 2 3 4 5 6 
#
# 1 20.0890 25.1061 12.8695 0.0000 0.0000 0.0000
# 2 25.1061 100.0910 35.4659 0.0000 0.0000 0.0000
# 3 12.8695 35.4659 66.2501 0.0000 0.0000 0.0000
# 4 0.0000 0.0000 0.0000 18.5234 0.0000 0.0000
# 5 0.0000 0.0000 0.0000 0.0000 12.7266 0.0000
# 6 0.0000 0.0000 0.0000 0.0000 0.0000 -2.7116
#
#
#
# Elastic Compliance Matrix: (Units=1/GPa)
#
#
# Indices 1 2 3 4 5 6 
#
# 1 0.074088 -0.016641 -0.005484 0.000000 0.000000 0.000000
# 2 -0.016641 0.016067 -0.005369 0.000000 0.000000 0.000000
# 3 -0.005484 -0.005369 0.019034 0.000000 0.000000 0.000000
# 4 0.000000 0.000000 0.000000 0.053986 0.000000 0.000000
# 5 0.000000 0.000000 0.000000 0.000000 0.078576 0.000000
# 6 0.000000 0.000000 0.000000 0.000000 0.000000 -0.368786
#
#
# Mechanical properties :
#
#
# Convention : Reuss Voigt Hill
#
# Bulk Modulus (GPa) = 18.44929 37.03479 27.74204
# Shear Modulus (GPa) = -92.62351 13.24024 -39.69163
#
# Velocity S-wave (km/s) = -7.02223 2.65499 -4.59688
# Velocity P-wave (km/s) = 7.47841 5.39588 3.66137
#
# Compressibility (1/GPa) = 0.05420263
#
# Stress axis : x y z
#
# Youngs Moduli (GPa) = 13.49746 62.23830 52.53844
#
# Poissons Ratio (x) = 1.03568 0.28811
# Poissons Ratio (y) = 0.22461 0.28207
# Poissons Ratio (z) = 0.07402 0.33415
#
# Static dielectric constant tensor:
#      x y z
#    x 1.631140 0.000000 0.000000 
#    y 0.000000 1.651390 0.000000 
#    z 0.000000 0.000000 1.680990 
# 
# From -- ./inp_files/2992.got.cif
#   From: 2010.05.17/outbox.cif.g08.bks.cpg/sg26_2_cif.got.tgz:2992.got - 2010.06.04 01:07:29.
