data_PCOD9338035
_publ_section_title
;
Structure prediction by ZEFSAII (Michael W. Deem and Ramdas Pophale) SiO2 
 PCOD9338035
Probable space group: P M C 21
;
_chemical_formula_sum "Si O2"
_cell_formula_units_Z 32
_cell_length_a 9.254207
_cell_length_b 11.759141
_cell_length_c 17.974000
_cell_angle_alpha 90.000000
_cell_angle_beta 90.000000
_cell_angle_gamma 90.000000
_cell_volume 1955.958090
_symmetry_space_group_name_H-M "P M C 21"
_symmetry_group_IT_number 26
_symmetry_cell_setting 'orthorhombic'
loop_
_space_group_symop_operation_xyz
x,y,z
-x,-y,1/2+z
-x,y,z
x,-y,1/2+z
loop_
_atom_site_type_symbol
_atom_site_label
_atom_site_fract_x
_atom_site_fract_y
_atom_site_fract_z
Si Si1 0.666559 0.148177 0.487120
Si Si2 0.166147 0.056714 0.927170
Si Si3 0.326384 0.268317 0.703788
Si Si4 0.827777 0.354505 0.558053
Si Si5 0.336031 0.970222 0.150764
Si Si6 0.173341 0.612712 0.508644
Si Si7 0.327831 0.726062 0.371491
Si Si8 0.163753 0.829368 0.592061
O O1 0.500000 0.165829 0.464828
O O2 0.750511 0.264915 0.503058
O O3 0.663251 0.084215 0.567525
O O4 0.752512 0.063382 0.433039
O O5 0.256220 0.149990 0.882131
O O6 0.000000 0.046398 0.902299
O O7 0.161902 0.108310 0.011307
O O8 0.500000 0.270629 0.688171
O O9 0.241728 0.332835 0.639086
O O10 0.280681 0.135091 0.699682
O O11 0.302392 0.312580 0.786822
O O12 0.803065 0.483616 0.532563
O O13 0.000000 0.332855 0.560157
O O14 0.500000 0.994522 0.172769
O O15 0.250031 0.087143 0.145830
O O16 0.254919 0.646043 0.433133
O O17 0.220618 0.703814 0.571892
O O18 0.000000 0.630610 0.498284
O O19 0.500000 0.733829 0.383709
O O20 0.000000 0.819256 0.618898
#
# Coordination Sequence:
#
# PCOD9338035 Si02
#       8
#     4   4   4   4   4   4   4   4
#     4   9  16  27  44  67  94 120 149 189 234 278
#     4   9  16  27  44  67  94 120 149 187 232 284
#     4   9  19  33  47  68  98 126 157 201 249 299
#     4  10  19  31  49  71  95 128 169 207 246 290
#     4   8  14  25  41  62  88 114 140 177 225 273
#     4   9  19  33  47  68  98 128 162 206 247 289
#     4  10  19  31  49  71  95 126 162 202 250 299
#     4   8  14  25  41  62  88 114 142 181 225 270
#
# _framework density 16.360268999999999
#
# number of rings (size 3 to 8) (size 9 to 14) (size 15 to 20)
#    0.000    3.000    0.000    3.000    0.000    8.000 
#    0.000    0.000    0.000    1.500    0.000    7.000 
#    0.000    0.000    0.000    0.000    0.000    0.000 
#
# Total GULP energy -178142.698262 kJ/mol
# GULP energy per Si atom -5566.959321 kJ/mol
# Density = 1.632303 g / cm^3
# Si number density = 16.360269 Si / 1000 Ang^3
#
#
#
# Elastic Constant Matrix: (Units=GPa)
#
#
# Indices 1 2 3 4 5 6 
#
# 1 89.2443 70.2829 40.4061 0.0000 0.0000 0.0000
# 2 70.2829 125.5469 38.7552 0.0000 0.0000 0.0000
# 3 40.4061 38.7552 52.2767 0.0000 0.0000 0.0000
# 4 0.0000 0.0000 0.0000 11.6662 0.0000 0.0000
# 5 0.0000 0.0000 0.0000 0.0000 11.4699 0.0000
# 6 0.0000 0.0000 0.0000 0.0000 0.0000 18.9775
#
#
#
# Elastic Compliance Matrix: (Units=1/GPa)
#
#
# Indices 1 2 3 4 5 6 
#
# 1 0.024263 -0.010107 -0.011261 0.000000 0.000000 0.000000
# 2 -0.010107 0.014539 -0.002967 0.000000 0.000000 0.000000
# 3 -0.011261 -0.002967 0.030032 0.000000 0.000000 0.000000
# 4 0.000000 0.000000 0.000000 0.085718 0.000000 0.000000
# 5 0.000000 0.000000 0.000000 0.000000 0.087185 0.000000
# 6 0.000000 0.000000 0.000000 0.000000 0.000000 0.052694
#
#
# Mechanical properties :
#
#
# Convention : Reuss Voigt Hill
#
# Bulk Modulus (GPa) = 49.58961 62.88405 56.23683
# Shear Modulus (GPa) = 14.29303 16.26429 15.27866
#
# Velocity S-wave (km/s) = 2.95895 3.15641 3.05927
# Velocity P-wave (km/s) = 6.48465 7.19753 6.85037
#
# Compressibility (1/GPa) = 0.02016551
#
# Stress axis : x y z
#
# Youngs Moduli (GPa) = 41.21491 68.78179 33.29748
#
# Poissons Ratio (x) = 0.69515 0.37497
# Poissons Ratio (y) = 0.41654 0.09878
# Poissons Ratio (z) = 0.46413 0.20405
#
# Static dielectric constant tensor:
#      x y z
#    x 1.559640 0.000000 0.000000 
#    y 0.000000 1.553120 0.000000 
#    z 0.000000 0.000000 1.550850 
# 
# From -- ./inp_files/5041.got.cif
#   From: 2010.05.17/outbox.cif.g08.bks.cpg/sg26_3_cif.got.tgz:5041.got - 2010.06.04 01:07:29.
