data_PCOD9338190
_publ_section_title
;
Structure prediction by ZEFSAII (Michael W. Deem and Ramdas Pophale) SiO2 
 PCOD9338190
Probable space group: P M C 21
;
_chemical_formula_sum "Si O2"
_cell_formula_units_Z 32
_cell_length_a 8.053500
_cell_length_b 19.832878
_cell_length_c 8.493087
_cell_angle_alpha 90.000000
_cell_angle_beta 90.000000
_cell_angle_gamma 90.000000
_cell_volume 1356.550533
_symmetry_space_group_name_H-M "P M C 21"
_symmetry_group_IT_number 26
_symmetry_cell_setting 'orthorhombic'
loop_
_space_group_symop_operation_xyz
x,y,z
-x,-y,1/2+z
-x,y,z
x,-y,1/2+z
loop_
_atom_site_type_symbol
_atom_site_label
_atom_site_fract_x
_atom_site_fract_y
_atom_site_fract_z
Si Si1 0.703794 0.404371 0.242080
Si Si2 0.197697 0.660147 0.256583
Si Si3 0.189075 0.021670 0.425849
Si Si4 0.700748 0.722971 0.926180
Si Si5 0.806338 0.786194 0.443971
Si Si6 0.310254 0.902441 0.238100
Si Si7 0.694002 0.854586 0.759079
Si Si8 0.696190 0.467059 0.919098
O O1 0.500000 0.403925 0.239152
O O2 0.756365 0.330035 0.292294
O O3 0.759861 0.459766 0.370282
O O4 0.765645 0.432214 0.075447
O O5 0.257904 0.713126 0.389871
O O6 0.277097 0.587126 0.280791
O O7 0.000000 0.653760 0.271065
O O8 0.239928 0.693607 0.090645
O O9 0.241744 0.060433 0.583655
O O10 0.207997 0.076875 0.287007
O O11 0.000000 0.998629 0.437727
O O12 0.297768 0.957649 0.377786
O O13 0.500000 0.724130 0.926780
O O14 0.754584 0.798106 0.883042
O O15 0.786572 0.836823 0.296324
O O16 0.713662 0.820092 0.589775
O O17 0.000000 0.780825 0.484726
O O18 0.500000 0.882874 0.209972
O O19 0.500000 0.869615 0.786952
O O20 0.500000 0.475377 0.944167
#
# Coordination Sequence:
#
# PCOD9338190 Si02
#       8
#     4   4   4   4   4   4   4   4
#     4   9  18  34  59  89 114 147 194 244 294 350
#     4  11  24  39  57  84 119 156 197 241 293 353
#     4  12  25  43  65  91 126 165 200 240 299 366
#     4  10  21  38  61  87 117 153 197 244 295 350
#     4  11  24  42  62  87 121 162 201 243 301 365
#     4  12  25  43  66  93 123 157 204 257 298 344
#     4  11  23  40  64  94 122 154 199 250 298 351
#     4  10  19  35  60  85 114 150 194 243 294 351
#
# _framework density 23.589244000000001
#
# number of rings (size 3 to 8) (size 9 to 14) (size 15 to 20)
#    0.000    1.250    0.000    6.375    0.000    8.000 
#    0.000    3.125    0.000    0.000    0.000    0.000 
#    0.000    0.000    0.000    0.000    0.000    0.000 
#
# Total GULP energy -179183.525969 kJ/mol
# GULP energy per Si atom -5599.485187 kJ/mol
# Density = 2.353555 g / cm^3
# Si number density = 23.589244 Si / 1000 Ang^3
#
#
#
# Elastic Constant Matrix: (Units=GPa)
#
#
# Indices 1 2 3 4 5 6 
#
# 1 38.6557 -5.7702 -8.8768 0.0000 0.0000 0.0000
# 2 -5.7702 86.8855 -16.4865 0.0000 0.0000 0.0000
# 3 -8.8768 -16.4865 61.1035 0.0000 0.0000 0.0000
# 4 0.0000 0.0000 0.0000 40.1221 0.0000 0.0000
# 5 0.0000 0.0000 0.0000 0.0000 15.7147 0.0000
# 6 0.0000 0.0000 0.0000 0.0000 0.0000 3.3414
#
#
#
# Elastic Compliance Matrix: (Units=1/GPa)
#
#
# Indices 1 2 3 4 5 6 
#
# 1 0.027354 0.002709 0.004705 0.000000 0.000000 0.000000
# 2 0.002709 0.012399 0.003739 0.000000 0.000000 0.000000
# 3 0.004705 0.003739 0.018058 0.000000 0.000000 0.000000
# 4 0.000000 0.000000 0.000000 0.024924 0.000000 0.000000
# 5 0.000000 0.000000 0.000000 0.000000 0.063635 0.000000
# 6 0.000000 0.000000 0.000000 0.000000 0.000000 0.299273
#
#
# Mechanical properties :
#
#
# Convention : Reuss Voigt Hill
#
# Bulk Modulus (GPa) = 12.48165 13.81974 13.15070
# Shear Modulus (GPa) = 11.11009 26.35420 18.73214
#
# Velocity S-wave (km/s) = 2.17256 3.34610 2.82103
# Velocity P-wave (km/s) = 3.40531 4.56067 4.02466
#
# Compressibility (1/GPa) = 0.08011762
#
# Stress axis : x y z
#
# Youngs Moduli (GPa) = 36.55737 80.65294 55.37711
#
# Poissons Ratio (x) = -0.21852 -0.26054
# Poissons Ratio (y) = -0.09905 -0.20705
# Poissons Ratio (z) = -0.17200 -0.30156
#
# Static dielectric constant tensor:
#      x y z
#    x 1.829120 0.000000 0.000000 
#    y 0.000000 1.851240 0.000000 
#    z 0.000000 0.000000 1.934390 
# 
# From -- ./inp_files/1596.got.cif
#   From: 2010.05.17/outbox.cif.g08.bks.cpg/sg26_1_cif.got.tgz:1596.got - 2010.06.04 01:07:29.
