data_PCOD9338592
_publ_section_title
;
Structure prediction by ZEFSAII (Michael W. Deem and Ramdas Pophale) SiO2 
 PCOD9338592
Probable space group: P M C 21
;
_chemical_formula_sum "Si O2"
_cell_formula_units_Z 32
_cell_length_a 8.564908
_cell_length_b 15.560657
_cell_length_c 12.229712
_cell_angle_alpha 90.000000
_cell_angle_beta 90.000000
_cell_angle_gamma 90.000000
_cell_volume 1629.922151
_symmetry_space_group_name_H-M "P M C 21"
_symmetry_group_IT_number 26
_symmetry_cell_setting 'orthorhombic'
loop_
_space_group_symop_operation_xyz
x,y,z
-x,-y,1/2+z
-x,y,z
x,-y,1/2+z
loop_
_atom_site_type_symbol
_atom_site_label
_atom_site_fract_x
_atom_site_fract_y
_atom_site_fract_z
Si Si1 0.814017 0.590012 0.698350
Si Si2 0.816086 0.912400 0.687371
Si Si3 0.818006 0.347264 0.966024
Si Si4 0.687365 0.753858 0.828664
Si Si5 0.315334 0.596011 0.240179
Si Si6 0.690179 0.749075 0.082402
Si Si7 0.314720 0.095430 0.738848
Si Si8 0.318818 0.167679 0.982293
O O1 0.768661 0.597381 0.570618
O O2 0.735555 0.666244 0.767327
O O3 0.767599 0.495686 0.737102
O O4 0.000000 0.602389 0.704601
O O5 0.758908 0.835883 0.766666
O O6 0.726301 0.901638 0.572632
O O7 0.000000 0.903951 0.670334
O O8 0.774538 0.006007 0.732493
O O9 0.717906 0.363317 0.858373
O O10 0.790744 0.249281 0.001321
O O11 0.000000 0.363052 0.941775
O O12 0.500000 0.761823 0.825525
O O13 0.737913 0.750627 0.955876
O O14 0.500000 0.583368 0.225344
O O15 0.259100 0.663697 0.148127
O O16 0.500000 0.748423 0.085237
O O17 0.738715 0.833783 0.150065
O O18 0.500000 0.079651 0.721321
O O19 0.297615 0.134992 0.859435
O O20 0.500000 0.193021 0.996483
#
# Coordination Sequence:
#
# PCOD9338592 Si02
#       8
#     4   4   4   4   4   4   4   4
#     4  11  25  43  62  93 131 168 208 262 321 375
#     4  12  26  42  61  94 133 167 206 259 318 381
#     4  11  23  41  65  93 129 165 205 263 323 377
#     4  11  23  42  67  93 123 168 216 262 310 372
#     4  11  23  42  67  95 125 165 214 263 312 379
#     4   9  21  42  65  93 124 157 209 265 312 362
#     4  10  22  43  67  93 123 163 211 262 312 372
#     4  11  22  41  70  94 120 163 215 266 312 370
#
# _framework density 19.632839000000001
#
# number of rings (size 3 to 8) (size 9 to 14) (size 15 to 20)
#    0.000    1.250    2.500    3.000    3.500    2.500 
#    0.000    2.500    0.000    0.000    0.000    0.000 
#    0.000    0.000    0.000    0.000    0.000    0.000 
#
# Total GULP energy -178876.425975 kJ/mol
# GULP energy per Si atom -5589.888312 kJ/mol
# Density = 1.958815 g / cm^3
# Si number density = 19.632839 Si / 1000 Ang^3
#
#
#
# Elastic Constant Matrix: (Units=GPa)
#
#
# Indices 1 2 3 4 5 6 
#
# 1 30.3509 12.3213 29.0950 0.0000 0.0000 0.0000
# 2 12.3213 98.8307 21.5457 0.0000 0.0000 0.0000
# 3 29.0950 21.5457 100.9216 0.0000 0.0000 0.0000
# 4 0.0000 0.0000 0.0000 11.4633 0.0000 0.0000
# 5 0.0000 0.0000 0.0000 0.0000 17.1044 0.0000
# 6 0.0000 0.0000 0.0000 0.0000 0.0000 -8.6622
#
#
#
# Elastic Compliance Matrix: (Units=1/GPa)
#
#
# Indices 1 2 3 4 5 6 
#
# 1 0.046367 -0.003006 -0.012726 0.000000 0.000000 0.000000
# 2 -0.003006 0.010807 -0.001440 0.000000 0.000000 0.000000
# 3 -0.012726 -0.001440 0.013885 0.000000 0.000000 0.000000
# 4 0.000000 0.000000 0.000000 0.087235 0.000000 0.000000
# 5 0.000000 0.000000 0.000000 0.000000 0.058464 0.000000
# 6 0.000000 0.000000 0.000000 0.000000 0.000000 -0.115443
#
#
# Mechanical properties :
#
#
# Convention : Reuss Voigt Hill
#
# Bulk Modulus (GPa) = 27.23719 39.55858 33.39788
# Shear Modulus (GPa) = 33.80702 15.12384 24.46543
#
# Velocity S-wave (km/s) = 4.15416 2.77850 3.53391
# Velocity P-wave (km/s) = 6.07559 5.52144 5.80513
#
# Compressibility (1/GPa) = 0.03671451
#
# Stress axis : x y z
#
# Youngs Moduli (GPa) = 21.56692 92.53122 72.02076
#
# Poissons Ratio (x) = 0.27819 0.91650
# Poissons Ratio (y) = 0.06484 0.10375
# Poissons Ratio (z) = 0.27445 0.13329
#
# Static dielectric constant tensor:
#      x y z
#    x 1.663510 0.000000 0.000000 
#    y 0.000000 1.653270 0.000000 
#    z 0.000000 0.000000 1.670240 
# 
# From -- ./inp_files/3030.got.cif
#   From: 2010.05.17/outbox.cif.g08.bks.cpg/sg26_2_cif.got.tgz:3030.got - 2010.06.04 01:07:29.
