data_PCOD9338420
_publ_section_title
;
Structure prediction by ZEFSAII (Michael W. Deem and Ramdas Pophale) SiO2 
 PCOD9338420
Probable space group: P M C 21
;
_chemical_formula_sum "Si O2"
_cell_formula_units_Z 30
_cell_length_a 15.481492
_cell_length_b 20.354656
_cell_length_c 5.007404
_cell_angle_alpha 90.000000
_cell_angle_beta 90.000000
_cell_angle_gamma 90.000000
_cell_volume 1577.935372
_symmetry_space_group_name_H-M "P M C 21"
_symmetry_group_IT_number 26
_symmetry_cell_setting 'orthorhombic'
loop_
_space_group_symop_operation_xyz
x,y,z
-x,-y,1/2+z
-x,y,z
x,-y,1/2+z
loop_
_atom_site_type_symbol
_atom_site_label
_atom_site_fract_x
_atom_site_fract_y
_atom_site_fract_z
Si Si1 0.602972 0.962416 0.276940
Si Si2 0.727919 0.144869 0.910337
Si Si3 0.777345 0.731823 0.120711
Si Si4 0.398759 0.546145 0.491813
Si Si5 0.097081 0.545294 0.688499
Si Si6 0.754442 0.645454 0.620002
Si Si7 0.840003 0.858721 0.939082
Si Si8 0.000000 0.048036 0.308939
O O1 0.500000 0.959105 0.280679
O O2 0.642341 0.896726 0.393542
O O3 0.630937 0.020288 0.478307
O O4 0.715857 0.215943 0.774060
O O5 0.796100 0.111298 0.704318
O O6 0.771346 0.147064 0.198475
O O7 0.740214 0.697828 0.856985
O O8 0.854289 0.782011 0.029004
O O9 0.793052 0.678869 0.352103
O O10 0.500000 0.566314 0.513018
O O11 0.384540 0.487694 0.705649
O O12 0.331330 0.604342 0.547214
O O13 0.105372 0.485556 0.895471
O O14 0.172578 0.596629 0.731295
O O15 0.000000 0.572886 0.721246
O O16 0.918436 0.903483 0.847909
O O17 0.000000 0.990353 0.529803
#
# Coordination Sequence:
#
# PCOD9338420 Si02
#       8
#     4   4   4   4   4   4   4   2
#     4  10  21  35  57  88 112 138 186 237 281 344
#     4  10  20  40  59  77 115 157 181 231 294 335
#     4  10  22  39  56  82 113 151 197 227 270 344
#     4  10  21  37  58  87 118 149 189 245 306 350
#     4  10  21  37  56  84 116 143 183 239 289 330
#     4  12  20  37  61  83 113 152 198 235 277 351
#     4  10  22  42  58  82 120 152 185 247 287 335
#     4  12  26  40  64  94 118 148 202 246 298 358
#
# _framework density 19.012184999999999
#
# number of rings (size 3 to 8) (size 9 to 14) (size 15 to 20)
#    0.800    0.800    1.333    4.000    0.000    3.200 
#    2.400    1.333    0.000    0.000    0.000    0.000 
#    0.000    0.000    0.000    0.000    0.000    0.000 
#
# Total GULP energy -167121.881908 kJ/mol
# GULP energy per Si atom -5570.729397 kJ/mol
# Density = 1.896891 g / cm^3
# Si number density = 19.012185 Si / 1000 Ang^3
#
#
#
# Elastic Constant Matrix: (Units=GPa)
#
#
# Indices 1 2 3 4 5 6 
#
# 1 28.5675 26.8966 -3.6655 0.0000 0.0000 0.0000
# 2 26.8966 63.7118 -3.8757 0.0000 0.0000 0.0000
# 3 -3.6655 -3.8757 74.0970 0.0000 0.0000 0.0000
# 4 0.0000 0.0000 0.0000 -11.0037 0.0000 0.0000
# 5 0.0000 0.0000 0.0000 0.0000 17.5167 0.0000
# 6 0.0000 0.0000 0.0000 0.0000 0.0000 46.0650
#
#
#
# Elastic Compliance Matrix: (Units=1/GPa)
#
#
# Indices 1 2 3 4 5 6 
#
# 1 0.058285 -0.024508 0.001601 0.000000 0.000000 0.000000
# 2 -0.024508 0.026051 0.000150 0.000000 0.000000 0.000000
# 3 0.001601 0.000150 0.013583 0.000000 0.000000 0.000000
# 4 0.000000 0.000000 0.000000 -0.090879 0.000000 0.000000
# 5 0.000000 0.000000 0.000000 0.000000 0.057088 0.000000
# 6 0.000000 0.000000 0.000000 0.000000 0.000000 0.021708
#
#
# Mechanical properties :
#
#
# Convention : Reuss Voigt Hill
#
# Bulk Modulus (GPa) = 19.08184 22.78747 20.93465
# Shear Modulus (GPa) = 33.59781 20.31698 26.95739
#
# Velocity S-wave (km/s) = 4.20834 3.27254 3.76959
# Velocity P-wave (km/s) = 5.80275 5.12748 5.47553
#
# Compressibility (1/GPa) = 0.05240586
#
# Stress axis : x y z
#
# Youngs Moduli (GPa) = 17.15709 38.38594 73.62199
#
# Poissons Ratio (x) = 0.94077 -0.11789
# Poissons Ratio (y) = 0.42049 -0.01106
# Poissons Ratio (z) = -0.02747 -0.00577
#
# Static dielectric constant tensor:
#      x y z
#    x 1.653550 0.000000 0.000000 
#    y 0.000000 1.737190 0.000000 
#    z 0.000000 0.000000 1.664670 
# 
# From -- ./inp_files/645.got.cif
#   From: 2010.05.17/outbox.cif.g08.bks.cpg/sg26_1_cif.got.tgz:645.got - 2010.06.04 01:07:29.
