data_PCOD9338392
_publ_section_title
;
Structure prediction by ZEFSAII (Michael W. Deem and Ramdas Pophale) SiO2 
 PCOD9338392
Probable space group: P M C 21
;
_chemical_formula_sum "Si O2"
_cell_formula_units_Z 32
_cell_length_a 9.085687
_cell_length_b 5.438520
_cell_length_c 31.929999
_cell_angle_alpha 90.000000
_cell_angle_beta 90.000000
_cell_angle_gamma 90.000000
_cell_volume 1577.747157
_symmetry_space_group_name_H-M "P M C 21"
_symmetry_group_IT_number 26
_symmetry_cell_setting 'orthorhombic'
loop_
_space_group_symop_operation_xyz
x,y,z
-x,-y,1/2+z
-x,y,z
x,-y,1/2+z
loop_
_atom_site_type_symbol
_atom_site_label
_atom_site_fract_x
_atom_site_fract_y
_atom_site_fract_z
Si Si1 0.677940 0.860098 0.835040
Si Si2 0.321564 0.640306 0.381232
Si Si3 0.678582 0.173512 0.236591
Si Si4 0.841939 0.796813 0.033317
Si Si5 0.661904 0.197912 0.050216
Si Si6 0.823153 0.324381 0.700669
Si Si7 0.168464 0.405573 0.969756
Si Si8 0.159452 0.555922 0.612692
O O1 0.500000 0.860170 0.837909
O O2 0.727621 0.607736 0.857188
O O3 0.727923 0.110513 0.857718
O O4 0.712638 0.858660 0.785924
O O5 0.500000 0.640958 0.382205
O O6 0.259840 0.632150 0.428074
O O7 0.500000 0.179492 0.231144
O O8 0.747846 0.933472 0.213737
O O9 0.749202 0.434066 0.222188
O O10 0.855059 0.596966 0.070000
O O11 0.000000 0.937607 0.037340
O O12 0.685416 0.910575 0.044290
O O13 0.836113 0.684928 0.987033
O O14 0.500000 0.294418 0.045547
O O15 0.721933 0.250875 0.096768
O O16 0.757941 0.276721 0.009841
O O17 0.803464 0.382941 0.651319
O O18 0.000000 0.314756 0.709024
O O19 0.000000 0.327338 0.963508
O O20 0.000000 0.672808 0.622463
#
# Coordination Sequence:
#
# PCOD9338392 Si02
#       8
#     4   4   4   4   4   4   4   4
#     4   9  20  39  63  89 123 162 203 252 316 378
#     4  10  20  37  62  91 119 157 207 257 305 366
#     4  11  23  43  69  97 130 171 216 266 325 390
#     4   9  19  37  58  78 111 159 201 240 295 366
#     4  11  22  35  57  86 117 152 198 255 302 353
#     4  11  24  42  66  98 133 172 216 266 323 388
#     4  10  22  39  56  82 117 158 200 245 303 367
#     4   9  21  40  59  81 116 163 205 245 307 374
#
# _framework density 20.282081999999999
#
# number of rings (size 3 to 8) (size 9 to 14) (size 15 to 20)
#    0.000    2.000    0.000    3.750    3.500    5.500 
#    0.000    3.750    0.000    0.000    0.000    0.000 
#    0.000    0.000    0.000    0.000    0.000    0.000 
#
# Total GULP energy -178139.021713 kJ/mol
# GULP energy per Si atom -5566.844429 kJ/mol
# Density = 2.023592 g / cm^3
# Si number density = 20.282082 Si / 1000 Ang^3
#
#
#
# Elastic Constant Matrix: (Units=GPa)
#
#
# Indices 1 2 3 4 5 6 
#
# 1 65.4750 18.4364 7.8794 0.0000 0.0000 0.0000
# 2 18.4364 74.5226 10.6834 0.0000 0.0000 0.0000
# 3 7.8794 10.6834 78.2800 0.0000 0.0000 0.0000
# 4 0.0000 0.0000 0.0000 23.3845 0.0000 0.0000
# 5 0.0000 0.0000 0.0000 0.0000 33.4324 0.0000
# 6 0.0000 0.0000 0.0000 0.0000 0.0000 18.8512
#
#
#
# Elastic Compliance Matrix: (Units=1/GPa)
#
#
# Indices 1 2 3 4 5 6 
#
# 1 0.016513 -0.003924 -0.001127 0.000000 0.000000 0.000000
# 2 -0.003924 0.014619 -0.001600 0.000000 0.000000 0.000000
# 3 -0.001127 -0.001600 0.013106 0.000000 0.000000 0.000000
# 4 0.000000 0.000000 0.000000 0.042763 0.000000 0.000000
# 5 0.000000 0.000000 0.000000 0.000000 0.029911 0.000000
# 6 0.000000 0.000000 0.000000 0.000000 0.000000 0.053047
#
#
# Mechanical properties :
#
#
# Convention : Reuss Voigt Hill
#
# Bulk Modulus (GPa) = 32.32327 32.47510 32.39919
# Shear Modulus (GPa) = 25.82990 27.21884 26.52437
#
# Velocity S-wave (km/s) = 3.57253 3.66733 3.62024
# Velocity P-wave (km/s) = 5.74358 5.82914 5.78652
#
# Compressibility (1/GPa) = 0.03093746
#
# Stress axis : x y z
#
# Youngs Moduli (GPa) = 60.55673 68.40473 76.29830
#
# Poissons Ratio (x) = 0.26841 0.08596
# Poissons Ratio (y) = 0.23761 0.12209
# Poissons Ratio (z) = 0.06823 0.10946
#
# Static dielectric constant tensor:
#      x y z
#    x 1.652330 0.000000 0.000000 
#    y 0.000000 1.891030 0.000000 
#    z 0.000000 0.000000 1.672860 
# 
# From -- ./inp_files/5679.got.cif
#   From: 2010.05.17/outbox.cif.g08.bks.cpg/sg26_3_cif.got.tgz:5679.got - 2010.06.04 01:07:29.
