data_PCOD9338762
_publ_section_title
;
Structure prediction by ZEFSAII (Michael W. Deem and Ramdas Pophale) SiO2 
 PCOD9338762
Probable space group: P C C 2
;
_chemical_formula_sum "Si O2"
_cell_formula_units_Z 22
_cell_length_a 16.671374
_cell_length_b 6.521709
_cell_length_c 8.125630
_cell_angle_alpha 90.000000
_cell_angle_beta 90.000000
_cell_angle_gamma 90.000000
_cell_volume 883.466027
_symmetry_space_group_name_H-M "P C C 2"
_symmetry_group_IT_number 27
_symmetry_cell_setting 'orthorhombic'
loop_
_space_group_symop_operation_xyz
x,y,z
-x,-y,z
-x,y,1/2+z
x,-y,1/2+z
loop_
_atom_site_type_symbol
_atom_site_label
_atom_site_fract_x
_atom_site_fract_y
_atom_site_fract_z
Si Si1 0.246364 0.075390 0.612250
Si Si2 0.595144 0.817071 0.802708
Si Si3 0.570149 0.278910 0.686588
Si Si4 0.000000 0.500000 0.484848
Si Si5 0.740118 0.327876 0.774034
Si Si6 0.880034 0.332250 0.244963
O O1 0.319158 0.177337 0.713693
O O2 0.248509 0.188546 0.437068
O O3 0.165291 0.124752 0.708896
O O4 0.253105 0.829782 0.619574
O O5 0.525883 0.692134 0.705655
O O6 0.577924 0.062289 0.785498
O O7 0.586988 0.755403 0.993170
O O8 0.646775 0.399508 0.763721
O O9 0.947491 0.338911 0.382909
O O10 0.932184 0.610396 0.587781
O O11 0.809407 0.497801 0.769441
#
# Coordination Sequence:
#
# PCOD9338762 Si02
#       6
#     4   4   4   2   4   4
#     4  11  23  39  65  96 128 166 210 255 306 369
#     4  10  18  31  54  85 126 167 208 252 299 357
#     4  10  18  31  54  85 126 167 208 252 299 357
#     4  10  24  46  70  90 122 164 200 258 326 382
#     4  11  23  39  65  96 128 166 210 255 306 369
#     4  11  24  46  69  90 126 162 205 258 318 377
#
# _framework density 24.90192
#
# number of rings (size 3 to 8) (size 9 to 14) (size 15 to 20)
#    0.000    1.455    1.818    7.636    5.091    0.000 
#    0.000    6.364    0.000    4.364    0.000    0.000 
#    0.000    0.000    0.000    0.000    0.000    0.000 
#
# Total GULP energy -122960.231439 kJ/mol
# GULP energy per Si atom -5589.101429 kJ/mol
# Density = 2.484524 g / cm^3
# Si number density = 24.901920 Si / 1000 Ang^3
#
#
#
# Elastic Constant Matrix: (Units=GPa)
#
#
# Indices 1 2 3 4 5 6 
#
# 1 168.7602 14.8217 33.5474 0.0000 0.0000 0.0000
# 2 14.8217 34.6808 -13.8343 0.0000 0.0000 0.0000
# 3 33.5474 -13.8343 108.6377 0.0000 0.0000 0.0000
# 4 0.0000 0.0000 0.0000 20.2971 0.0000 0.0000
# 5 0.0000 0.0000 0.0000 0.0000 -34.4432 0.0000
# 6 0.0000 0.0000 0.0000 0.0000 0.0000 38.6647
#
#
#
# Elastic Compliance Matrix: (Units=1/GPa)
#
#
# Indices 1 2 3 4 5 6 
#
# 1 0.006788 -0.003937 -0.002597 0.000000 0.000000 0.000000
# 2 -0.003937 0.032661 0.005375 0.000000 0.000000 0.000000
# 3 -0.002597 0.005375 0.010691 0.000000 0.000000 0.000000
# 4 0.000000 0.000000 0.000000 0.049268 0.000000 0.000000
# 5 0.000000 0.000000 0.000000 0.000000 -0.029033 0.000000
# 6 0.000000 0.000000 0.000000 0.000000 0.000000 0.025863
#
#
# Mechanical properties :
#
#
# Convention : Reuss Voigt Hill
#
# Bulk Modulus (GPa) = 20.91122 42.34983 31.63052
# Shear Modulus (GPa) = 43.66894 23.40663 33.53779
#
# Velocity S-wave (km/s) = 4.19219 3.06919 3.67385
# Velocity P-wave (km/s) = 5.64343 5.44091 5.54309
#
# Compressibility (1/GPa) = 0.04782122
#
# Stress axis : x y z
#
# Youngs Moduli (GPa) = 147.32601 30.61750 93.53280
#
# Poissons Ratio (x) = 0.12054 0.24294
# Poissons Ratio (y) = 0.58002 -0.50273
# Poissons Ratio (z) = 0.38266 -0.16457
#
# Static dielectric constant tensor:
#      x y z
#    x 1.967370 0.000000 0.000000 
#    y 0.000000 2.094870 0.000000 
#    z 0.000000 0.000000 2.032320 
# 
# From -- ./inp_files/1559.got.cif
#   From: 2010.05.17/outbox.cif.g08.bks.cpg/sg27_1_cif.got.tgz:1559.got - 2010.06.04 01:11:05.
