data_PCOD9338207
_publ_section_title
;
Structure prediction by ZEFSAII (Michael W. Deem and Ramdas Pophale) SiO2 
 PCOD9338207
Probable space group: P M C 21
;
_chemical_formula_sum "Si O2"
_cell_formula_units_Z 32
_cell_length_a 8.183672
_cell_length_b 19.529429
_cell_length_c 8.409098
_cell_angle_alpha 90.000000
_cell_angle_beta 90.000000
_cell_angle_gamma 90.000000
_cell_volume 1343.962571
_symmetry_space_group_name_H-M "P M C 21"
_symmetry_group_IT_number 26
_symmetry_cell_setting 'orthorhombic'
loop_
_space_group_symop_operation_xyz
x,y,z
-x,-y,1/2+z
-x,y,z
x,-y,1/2+z
loop_
_atom_site_type_symbol
_atom_site_label
_atom_site_fract_x
_atom_site_fract_y
_atom_site_fract_z
Si Si1 0.812789 0.728612 0.670860
Si Si2 0.700101 0.969146 0.688993
Si Si3 0.697051 0.100367 0.515876
Si Si4 0.308791 0.600571 0.489216
Si Si5 0.193656 0.354632 0.500348
Si Si6 0.313464 0.846059 0.489830
Si Si7 0.807665 0.231363 0.681139
Si Si8 0.803349 0.521289 0.799766
O O1 0.780064 0.670861 0.536494
O O2 0.699441 0.793432 0.637670
O O3 0.000000 0.751854 0.660108
O O4 0.790476 0.690964 0.838984
O O5 0.500000 0.967980 0.688415
O O6 0.755961 0.918184 0.548478
O O7 0.747367 0.046955 0.654304
O O8 0.752194 0.935414 0.853467
O O9 0.500000 0.104234 0.514475
O O10 0.763139 0.175361 0.547990
O O11 0.500000 0.613604 0.469314
O O12 0.239013 0.556294 0.343712
O O13 0.278023 0.552468 0.643664
O O14 0.266277 0.305682 0.636785
O O15 0.254141 0.428763 0.444412
O O16 0.000000 0.365113 0.531445
O O17 0.500000 0.858778 0.444358
O O18 0.238093 0.804766 0.344800
O O19 0.000000 0.240835 0.679708
O O20 0.000000 0.527824 0.781632
#
# Coordination Sequence:
#
# PCOD9338207 Si02
#       8
#     4   4   4   4   4   4   4   4
#     4  10  20  38  60  82 109 147 188 232 286 346
#     4   9  19  35  59  84 111 145 185 229 279 334
#     4  10  19  36  59  83 108 143 185 228 277 334
#     4  11  22  37  57  86 118 149 189 241 290 342
#     4   8  18  36  58  79 105 142 186 227 274 334
#     4  11  22  37  56  83 114 148 188 233 280 335
#     4  11  22  37  55  81 113 147 185 231 280 333
#     4  10  20  38  60  82 110 151 194 235 288 352
#
# _framework density 23.810186999999999
#
# number of rings (size 3 to 8) (size 9 to 14) (size 15 to 20)
#    0.000    2.000    0.000    4.875    0.000    3.000 
#    0.000   14.375    0.000    0.000    0.000    0.000 
#    0.000    0.000    0.000    0.000    0.000    0.000 
#
# Total GULP energy -178925.807569 kJ/mol
# GULP energy per Si atom -5591.431487 kJ/mol
# Density = 2.375599 g / cm^3
# Si number density = 23.810187 Si / 1000 Ang^3
#
#
#
# Elastic Constant Matrix: (Units=GPa)
#
#
# Indices 1 2 3 4 5 6 
#
# 1 35.6769 -9.2744 1.5087 0.0000 0.0000 0.0000
# 2 -9.2744 101.3103 5.4856 0.0000 0.0000 0.0000
# 3 1.5087 5.4856 52.5452 0.0000 0.0000 0.0000
# 4 0.0000 0.0000 0.0000 44.2594 0.0000 0.0000
# 5 0.0000 0.0000 0.0000 0.0000 31.7446 0.0000
# 6 0.0000 0.0000 0.0000 0.0000 0.0000 22.4710
#
#
#
# Elastic Compliance Matrix: (Units=1/GPa)
#
#
# Indices 1 2 3 4 5 6 
#
# 1 0.028777 0.002694 -0.001108 0.000000 0.000000 0.000000
# 2 0.002694 0.010179 -0.001140 0.000000 0.000000 0.000000
# 3 -0.001108 -0.001140 0.019182 0.000000 0.000000 0.000000
# 4 0.000000 0.000000 0.000000 0.022594 0.000000 0.000000
# 5 0.000000 0.000000 0.000000 0.000000 0.031501 0.000000
# 6 0.000000 0.000000 0.000000 0.000000 0.000000 0.044502
#
#
# Mechanical properties :
#
#
# Convention : Reuss Voigt Hill
#
# Bulk Modulus (GPa) = 16.94020 20.55246 18.74633
# Shear Modulus (GPa) = 28.48705 32.48252 30.48478
#
# Velocity S-wave (km/s) = 3.46269 3.69755 3.58204
# Velocity P-wave (km/s) = 4.80802 5.18457 4.99984
#
# Compressibility (1/GPa) = 0.05903117
#
# Stress axis : x y z
#
# Youngs Moduli (GPa) = 34.75054 98.24105 52.13205
#
# Poissons Ratio (x) = -0.26469 0.05774
# Poissons Ratio (y) = -0.09363 0.05943
# Poissons Ratio (z) = 0.03849 0.11200
#
# Static dielectric constant tensor:
#      x y z
#    x 1.802690 0.000000 0.000000 
#    y 0.000000 1.901570 0.000000 
#    z 0.000000 0.000000 2.001120 
# 
# From -- ./inp_files/1578.got.cif
#   From: 2010.05.17/outbox.cif.g08.bks.cpg/sg26_1_cif.got.tgz:1578.got - 2010.06.04 01:07:29.
