data_PCOD9338004
_publ_section_title
;
Structure prediction by ZEFSAII (Michael W. Deem and Ramdas Pophale) SiO2 
 PCOD9338004
Probable space group: P M C 21
;
_chemical_formula_sum "Si O2"
_cell_formula_units_Z 32
_cell_length_a 8.576006
_cell_length_b 12.207119
_cell_length_c 15.930754
_cell_angle_alpha 90.000000
_cell_angle_beta 90.000000
_cell_angle_gamma 90.000000
_cell_volume 1667.763965
_symmetry_space_group_name_H-M "P M C 21"
_symmetry_group_IT_number 26
_symmetry_cell_setting 'orthorhombic'
loop_
_space_group_symop_operation_xyz
x,y,z
-x,-y,1/2+z
-x,y,z
x,-y,1/2+z
loop_
_atom_site_type_symbol
_atom_site_label
_atom_site_fract_x
_atom_site_fract_y
_atom_site_fract_z
Si Si1 0.312222 0.259876 0.290190
Si Si2 0.809868 0.729666 0.285020
Si Si3 0.187163 0.506595 0.847077
Si Si4 0.686804 0.113041 0.445927
Si Si5 0.188332 0.257705 0.597894
Si Si6 0.186712 0.495873 0.045558
Si Si7 0.314174 0.268004 0.103097
Si Si8 0.186744 0.132319 0.946324
O O1 0.500000 0.256339 0.290118
O O2 0.261406 0.382729 0.313045
O O3 0.256191 0.177983 0.362914
O O4 0.259142 0.232638 0.195865
O O5 0.760928 0.604026 0.300639
O O6 0.762325 0.769312 0.192897
O O7 0.757537 0.804244 0.362524
O O8 0.000000 0.728774 0.286258
O O9 0.000000 0.515850 0.837926
O O10 0.220269 0.493293 0.946082
O O11 0.500000 0.109931 0.443870
O O12 0.740136 0.180479 0.527424
O O13 0.750588 0.990502 0.448184
O O14 0.229594 0.384418 0.579538
O O15 0.000000 0.249955 0.592346
O O16 0.270681 0.395225 0.090039
O O17 0.000000 0.481984 0.056465
O O18 0.500000 0.255031 0.098479
O O19 0.238903 0.199208 0.028184
O O20 0.000000 0.130521 0.944223
#
# Coordination Sequence:
#
# PCOD9338004 Si02
#       8
#     4   4   4   4   4   4   4   4
#     4  10  23  40  58  85 122 158 194 236 287 350
#     4   9  19  36  59  87 119 149 187 239 288 339
#     4  10  18  34  61  90 119 152 191 238 288 341
#     4  11  24  42  60  82 115 153 195 245 296 346
#     4  10  20  37  61  89 118 153 194 237 287 344
#     4  10  19  34  60  91 122 154 193 239 288 343
#     4  11  23  39  60  88 122 158 195 237 290 350
#     4  11  23  42  63  84 113 151 199 247 292 345
#
# _framework density 19.187369
#
# number of rings (size 3 to 8) (size 9 to 14) (size 15 to 20)
#    0.000    1.750    2.500    1.875    0.000    4.500 
#    0.000    4.375    0.000    0.000    0.000    0.000 
#    0.000    0.000    0.000    0.000    0.000    0.000 
#
# Total GULP energy -178791.597891 kJ/mol
# GULP energy per Si atom -5587.237434 kJ/mol
# Density = 1.914370 g / cm^3
# Si number density = 19.187369 Si / 1000 Ang^3
#
#
#
# Elastic Constant Matrix: (Units=GPa)
#
#
# Indices 1 2 3 4 5 6 
#
# 1 19.1871 21.2347 23.8436 0.0000 0.0000 0.0000
# 2 21.2347 113.3301 35.6304 0.0000 0.0000 0.0000
# 3 23.8436 35.6304 94.7392 0.0000 0.0000 0.0000
# 4 0.0000 0.0000 0.0000 -0.6666 0.0000 0.0000
# 5 0.0000 0.0000 0.0000 0.0000 18.0463 0.0000
# 6 0.0000 0.0000 0.0000 0.0000 0.0000 73.8343
#
#
#
# Elastic Compliance Matrix: (Units=1/GPa)
#
#
# Indices 1 2 3 4 5 6 
#
# 1 0.085614 -0.010510 -0.017594 0.000000 0.000000 0.000000
# 2 -0.010510 0.011297 -0.001604 0.000000 0.000000 0.000000
# 3 -0.017594 -0.001604 0.015586 0.000000 0.000000 0.000000
# 4 0.000000 0.000000 0.000000 -1.500195 0.000000 0.000000
# 5 0.000000 0.000000 0.000000 0.000000 0.055413 0.000000
# 6 0.000000 0.000000 0.000000 0.000000 0.000000 0.013544
#
#
# Mechanical properties :
#
#
# Convention : Reuss Voigt Hill
#
# Bulk Modulus (GPa) = 18.83881 43.18596 31.01239
# Shear Modulus (GPa) = -4.02696 28.01265 11.99285
#
# Velocity S-wave (km/s) = -1.45028 3.82508 2.50279
# Velocity P-wave (km/s) = 2.65240 6.48573 4.95479
#
# Compressibility (1/GPa) = 0.05308190
#
# Stress axis : x y z
#
# Youngs Moduli (GPa) = 11.68033 88.51738 64.15824
#
# Poissons Ratio (x) = 0.93031 1.12882
# Poissons Ratio (y) = 0.12276 0.10289
# Poissons Ratio (z) = 0.20551 0.14195
#
# Static dielectric constant tensor:
#      x y z
#    x 1.660980 0.000000 0.000000 
#    y 0.000000 1.626050 0.000000 
#    z 0.000000 0.000000 1.680860 
# 
# From -- ./inp_files/4311.got.cif
#   From: 2010.05.17/outbox.cif.g08.bks.cpg/sg26_3_cif.got.tgz:4311.got - 2010.06.04 01:07:29.
