data_PCOD9338219
_publ_section_title
;
Structure prediction by ZEFSAII (Michael W. Deem and Ramdas Pophale) SiO2 
 PCOD9338219
Probable space group: P M C 21
;
_chemical_formula_sum "Si O2"
_cell_formula_units_Z 20
_cell_length_a 15.012969
_cell_length_b 5.273197
_cell_length_c 13.562494
_cell_angle_alpha 90.000000
_cell_angle_beta 90.000000
_cell_angle_gamma 90.000000
_cell_volume 1073.693053
_symmetry_space_group_name_H-M "P M C 21"
_symmetry_group_IT_number 26
_symmetry_cell_setting 'orthorhombic'
loop_
_space_group_symop_operation_xyz
x,y,z
-x,-y,1/2+z
-x,y,z
x,-y,1/2+z
loop_
_atom_site_type_symbol
_atom_site_label
_atom_site_fract_x
_atom_site_fract_y
_atom_site_fract_z
Si Si1 0.174715 0.396290 0.596480
Si Si2 0.223670 0.709204 0.879324
Si Si3 0.668030 0.409596 0.735336
Si Si4 0.104276 0.894774 0.702422
Si Si5 0.598395 0.901633 0.821049
O O1 0.175592 0.355123 0.479945
O O2 0.276878 0.399046 0.635104
O O3 0.131109 0.659446 0.631612
O O4 0.128396 0.158362 0.649844
O O5 0.256739 0.459039 0.820223
O O6 0.162600 0.857726 0.801213
O O7 0.317216 0.860198 0.893435
O O8 0.609263 0.661762 0.747558
O O9 0.615249 0.158567 0.761541
O O10 0.000000 0.883836 0.724637
O O11 0.500000 0.900630 0.865778
#
# Coordination Sequence:
#
# PCOD9338219 Si02
#       5
#     4   4   4   4   4
#     4  11  21  40  64  84 118 161 196 240 305 350
#     4   9  23  38  65  81 124 157 191 246 299 348
#     4   9  19  37  57  85 116 156 189 243 283 348
#     4  11  24  40  59  91 119 151 203 248 292 358
#     4  10  19  37  61  85 119 157 191 241 291 342
#
# _framework density 18.627298
#
# number of rings (size 3 to 8) (size 9 to 14) (size 15 to 20)
#    1.200    0.800    2.000    1.200    2.800    1.600 
#    0.000    2.000    0.000    0.000    0.000    0.000 
#    0.000    0.000    0.000    0.000    0.000    0.000 
#
# Total GULP energy -111379.950868 kJ/mol
# GULP energy per Si atom -5568.997543 kJ/mol
# Density = 1.858490 g / cm^3
# Si number density = 18.627298 Si / 1000 Ang^3
#
#
#
# Elastic Constant Matrix: (Units=GPa)
#
#
# Indices 1 2 3 4 5 6 
#
# 1 99.3237 7.0322 10.2740 0.0000 0.0000 0.0000
# 2 7.0322 110.9409 -0.7031 0.0000 0.0000 0.0000
# 3 10.2740 -0.7031 74.3254 0.0000 0.0000 0.0000
# 4 0.0000 0.0000 0.0000 12.6985 0.0000 0.0000
# 5 0.0000 0.0000 0.0000 0.0000 0.1345 0.0000
# 6 0.0000 0.0000 0.0000 0.0000 0.0000 52.7802
#
#
#
# Elastic Compliance Matrix: (Units=1/GPa)
#
#
# Indices 1 2 3 4 5 6 
#
# 1 0.010262 -0.000660 -0.001425 0.000000 0.000000 0.000000
# 2 -0.000660 0.009057 0.000177 0.000000 0.000000 0.000000
# 3 -0.001425 0.000177 0.013653 0.000000 0.000000 0.000000
# 4 0.000000 0.000000 0.000000 0.078750 0.000000 0.000000
# 5 0.000000 0.000000 0.000000 0.000000 7.436479 0.000000
# 6 0.000000 0.000000 0.000000 0.000000 0.000000 0.018947
#
#
# Mechanical properties :
#
#
# Convention : Reuss Voigt Hill
#
# Bulk Modulus (GPa) = 34.29715 35.31071 34.80393
# Shear Modulus (GPa) = 0.65957 30.98841 15.82399
#
# Velocity S-wave (km/s) = 0.59570 4.08315 2.91779
# Velocity P-wave (km/s) = 4.35034 6.42083 5.48418
#
# Compressibility (1/GPa) = 0.02915694
#
# Stress axis : x y z
#
# Youngs Moduli (GPa) = 97.44535 110.41508 73.24409
#
# Poissons Ratio (x) = 0.07282 0.10436
# Poissons Ratio (y) = 0.06427 -0.01295
# Poissons Ratio (z) = 0.13884 -0.01953
#
# Static dielectric constant tensor:
#      x y z
#    x 1.660400 0.000000 0.000000 
#    y 0.000000 1.649460 0.000000 
#    z 0.000000 0.000000 1.612260 
# 
# From -- ./inp_files/3468.got.cif
#   From: 2010.05.17/outbox.cif.g08.bks.cpg/sg26_2_cif.got.tgz:3468.got - 2010.06.04 01:07:29.
