data_PCOD9338090
_publ_section_title
;
Structure prediction by ZEFSAII (Michael W. Deem and Ramdas Pophale) SiO2 
 PCOD9338090
Probable space group: P M C 21
;
_chemical_formula_sum "Si O2"
_cell_formula_units_Z 26
_cell_length_a 24.125236
_cell_length_b 8.407862
_cell_length_c 5.415556
_cell_angle_alpha 90.000000
_cell_angle_beta 90.000000
_cell_angle_gamma 90.000000
_cell_volume 1098.500342
_symmetry_space_group_name_H-M "P M C 21"
_symmetry_group_IT_number 26
_symmetry_cell_setting 'orthorhombic'
loop_
_space_group_symop_operation_xyz
x,y,z
-x,-y,1/2+z
-x,y,z
x,-y,1/2+z
loop_
_atom_site_type_symbol
_atom_site_label
_atom_site_fract_x
_atom_site_fract_y
_atom_site_fract_z
Si Si1 0.098368 0.056993 0.405390
Si Si2 0.213560 0.563439 0.760546
Si Si3 0.660163 0.560245 0.704480
Si Si4 0.065247 0.402788 0.507964
Si Si5 0.775422 0.062195 0.345110
Si Si6 0.377641 0.102225 0.108830
Si Si7 0.500000 0.096991 0.181557
O O1 0.098813 0.240572 0.478169
O O2 0.161587 0.994939 0.371267
O O3 0.071989 0.965591 0.636295
O O4 0.187333 0.520034 0.498446
O O5 0.276700 0.497701 0.736326
O O6 0.218481 0.750922 0.801553
O O7 0.633896 0.470205 0.471931
O O8 0.661344 0.746002 0.640914
O O9 0.074404 0.488504 0.768034
O O10 0.000000 0.356970 0.502485
O O11 0.748582 0.977967 0.108262
O O12 0.440470 0.173951 0.129898
O O13 0.372292 0.985066 0.345126
O O14 0.500000 0.041313 0.468173
#
# Coordination Sequence:
#
# PCOD9338090 Si02
#       7
#     4   4   4   4   4   4   2
#     4  10  21  36  54  78 106 136 169 209 258 304
#     4  10  21  36  54  75 102 137 171 204 252 307
#     4  10  21  36  51  74 107 134 163 210 257 298
#     4  10  21  36  54  78 106 136 173 214 251 295
#     4  10  21  36  54  78 106 132 168 216 254 294
#     4  10  19  33  54  76  98 132 173 207 246 300
#     4   8  16  30  48  72 100 126 162 210 248 288
#
# _framework density 23.668631999999999
#
# number of rings (size 3 to 8) (size 9 to 14) (size 15 to 20)
#    0.000    2.154    0.000    2.769    0.000    3.077 
#    0.000    0.769    0.000    0.000    0.000    0.000 
#    0.000    0.000    0.000    0.000    0.000    0.000 
#
# Total GULP energy -145280.904217 kJ/mol
# GULP energy per Si atom -5587.727085 kJ/mol
# Density = 2.361476 g / cm^3
# Si number density = 23.668632 Si / 1000 Ang^3
#
#
#
# Elastic Constant Matrix: (Units=GPa)
#
#
# Indices 1 2 3 4 5 6 
#
# 1 75.5832 -13.6909 9.5575 0.0000 0.0000 0.0000
# 2 -13.6909 86.8607 47.0940 0.0000 0.0000 0.0000
# 3 9.5575 47.0940 217.2404 0.0000 0.0000 0.0000
# 4 0.0000 0.0000 0.0000 42.8286 0.0000 0.0000
# 5 0.0000 0.0000 0.0000 0.0000 19.5215 0.0000
# 6 0.0000 0.0000 0.0000 0.0000 0.0000 18.8089
#
#
#
# Elastic Compliance Matrix: (Units=1/GPa)
#
#
# Indices 1 2 3 4 5 6 
#
# 1 0.013904 0.002859 -0.001232 0.000000 0.000000 0.000000
# 2 0.002859 0.013634 -0.003081 0.000000 0.000000 0.000000
# 3 -0.001232 -0.003081 0.005325 0.000000 0.000000 0.000000
# 4 0.000000 0.000000 0.000000 0.023349 0.000000 0.000000
# 5 0.000000 0.000000 0.000000 0.000000 0.051226 0.000000
# 6 0.000000 0.000000 0.000000 0.000000 0.000000 0.053166
#
#
# Mechanical properties :
#
#
# Convention : Reuss Voigt Hill
#
# Bulk Modulus (GPa) = 33.38216 51.73394 42.55805
# Shear Modulus (GPa) = 28.81894 38.68005 33.74950
#
# Velocity S-wave (km/s) = 3.49320 4.04695 3.78023
# Velocity P-wave (km/s) = 5.51403 6.61378 6.08879
#
# Compressibility (1/GPa) = 0.02995612
#
# Stress axis : x y z
#
# Youngs Moduli (GPa) = 71.92124 73.34582 187.78019
#
# Poissons Ratio (x) = -0.20972 0.23126
# Poissons Ratio (y) = -0.20564 0.57863
# Poissons Ratio (z) = 0.08857 0.22601
#
# Static dielectric constant tensor:
#      x y z
#    x 1.998380 0.000000 0.000000 
#    y 0.000000 1.827860 0.000000 
#    z 0.000000 0.000000 2.004000 
# 
# From -- ./inp_files/1057.got.cif
#   From: 2010.05.17/outbox.cif.g08.bks.cpg/sg26_1_cif.got.tgz:1057.got - 2010.06.04 01:07:29.
