data_PCOD9338679
_publ_section_title
;
Structure prediction by ZEFSAII (Michael W. Deem and Ramdas Pophale) SiO2 
 PCOD9338679
Probable space group: P M C 21
;
_chemical_formula_sum "Si O2"
_cell_formula_units_Z 32
_cell_length_a 9.458264
_cell_length_b 19.305000
_cell_length_c 8.141003
_cell_angle_alpha 90.000000
_cell_angle_beta 90.000000
_cell_angle_gamma 90.000000
_cell_volume 1486.480282
_symmetry_space_group_name_H-M "P M C 21"
_symmetry_group_IT_number 26
_symmetry_cell_setting 'orthorhombic'
loop_
_space_group_symop_operation_xyz
x,y,z
-x,-y,1/2+z
-x,y,z
x,-y,1/2+z
loop_
_atom_site_type_symbol
_atom_site_label
_atom_site_fract_x
_atom_site_fract_y
_atom_site_fract_z
Si Si1 0.162321 0.160299 0.596330
Si Si2 0.169111 0.974903 0.258093
Si Si3 0.661707 0.356837 0.410431
Si Si4 0.339089 0.274981 0.762085
Si Si5 0.165976 0.526437 0.077513
Si Si6 0.834875 0.239257 0.248497
Si Si7 0.826592 0.106284 0.079876
Si Si8 0.164681 0.391884 0.921508
O O1 0.191178 0.078541 0.607173
O O2 0.260091 0.204434 0.716701
O O3 0.170756 0.193216 0.416129
O O4 0.000000 0.169474 0.653124
O O5 0.219429 0.931273 0.413545
O O6 0.000000 0.982879 0.280020
O O7 0.222098 0.051212 0.217759
O O8 0.500000 0.368300 0.360180
O O9 0.660462 0.315969 0.586296
O O10 0.742726 0.427067 0.454549
O O11 0.745137 0.307335 0.285172
O O12 0.500000 0.264268 0.813238
O O13 0.255893 0.324075 0.888249
O O14 0.207027 0.445865 0.063316
O O15 0.000000 0.530185 0.030110
O O16 0.177380 0.561023 0.256104
O O17 0.781389 0.184774 0.112911
O O18 0.000000 0.256952 0.221423
O O19 0.000000 0.108950 0.082249
O O20 0.000000 0.372748 0.939284
#
# Coordination Sequence:
#
# PCOD9338679 Si02
#       8
#     4   4   4   4   4   4   4   4
#     4   9  16  27  45  67  89 115 148 185 224 266
#     4   9  16  26  42  66  94 120 147 183 226 268
#     4   9  17  29  46  67  90 118 152 187 222 264
#     4   9  17  29  46  67  90 118 152 187 222 264
#     4   9  17  30  48  69  92 118 149 185 224 266
#     4   9  16  27  45  67  89 115 148 185 224 266
#     4   9  16  26  42  66  94 120 147 183 226 268
#     4   9  17  30  48  69  92 118 149 185 224 266
#
# _framework density 21.527363000000001
#
# number of rings (size 3 to 8) (size 9 to 14) (size 15 to 20)
#    0.000    3.000    0.000    1.500    0.000    6.500 
#    0.000    1.250    0.000    9.000    0.000    0.000 
#    0.000    0.000    0.000    0.000    0.000    0.000 
#
# Total GULP energy -178618.417158 kJ/mol
# GULP energy per Si atom -5581.825536 kJ/mol
# Density = 2.147837 g / cm^3
# Si number density = 21.527363 Si / 1000 Ang^3
#
#
#
# Elastic Constant Matrix: (Units=GPa)
#
#
# Indices 1 2 3 4 5 6 
#
# 1 46.1707 33.9077 5.9276 0.0000 0.0000 0.0000
# 2 33.9077 103.7108 19.9932 0.0000 0.0000 0.0000
# 3 5.9276 19.9932 68.7348 0.0000 0.0000 0.0000
# 4 0.0000 0.0000 0.0000 40.5083 0.0000 0.0000
# 5 0.0000 0.0000 0.0000 0.0000 2.0230 0.0000
# 6 0.0000 0.0000 0.0000 0.0000 0.0000 -1.4642
#
#
#
# Elastic Compliance Matrix: (Units=1/GPa)
#
#
# Indices 1 2 3 4 5 6 
#
# 1 0.028507 -0.009372 0.000268 0.000000 0.000000 0.000000
# 2 -0.009372 0.013296 -0.003059 0.000000 0.000000 0.000000
# 3 0.000268 -0.003059 0.015415 0.000000 0.000000 0.000000
# 4 0.000000 0.000000 0.000000 0.024686 0.000000 0.000000
# 5 0.000000 0.000000 0.000000 0.000000 0.494328 0.000000
# 6 0.000000 0.000000 0.000000 0.000000 0.000000 -0.682972
#
#
# Mechanical properties :
#
#
# Convention : Reuss Voigt Hill
#
# Bulk Modulus (GPa) = 30.40290 37.58590 33.99440
# Shear Modulus (GPa) = -69.97970 18.79927 -25.59021
#
# Velocity S-wave (km/s) = -5.70770 2.95833 -3.45154
# Velocity P-wave (km/s) = 5.41143 5.40059 0.24208
#
# Compressibility (1/GPa) = 0.03289160
#
# Stress axis : x y z
#
# Youngs Moduli (GPa) = 35.07908 75.21049 64.86998
#
# Poissons Ratio (x) = 0.70486 -0.01736
# Poissons Ratio (y) = 0.32875 0.19845
# Poissons Ratio (z) = -0.00939 0.23009
#
# Static dielectric constant tensor:
#      x y z
#    x 1.714600 0.000000 0.000000 
#    y 0.000000 1.764200 0.000000 
#    z 0.000000 0.000000 1.880110 
# 
# From -- ./inp_files/3136.got.cif
#   From: 2010.05.17/outbox.cif.g08.bks.cpg/sg26_2_cif.got.tgz:3136.got - 2010.06.04 01:07:29.
