data_PCOD9338455
_publ_section_title
;
Structure prediction by ZEFSAII (Michael W. Deem and Ramdas Pophale) SiO2 
 PCOD9338455
Probable space group: P M C 21
;
_chemical_formula_sum "Si O2"
_cell_formula_units_Z 32
_cell_length_a 8.954263
_cell_length_b 11.482088
_cell_length_c 16.076740
_cell_angle_alpha 90.000000
_cell_angle_beta 90.000000
_cell_angle_gamma 90.000000
_cell_volume 1652.908090
_symmetry_space_group_name_H-M "P M C 21"
_symmetry_group_IT_number 26
_symmetry_cell_setting 'orthorhombic'
loop_
_space_group_symop_operation_xyz
x,y,z
-x,-y,1/2+z
-x,y,z
x,-y,1/2+z
loop_
_atom_site_type_symbol
_atom_site_label
_atom_site_fract_x
_atom_site_fract_y
_atom_site_fract_z
Si Si1 0.823768 0.769492 0.153350
Si Si2 0.179997 0.582642 0.488921
Si Si3 0.331969 0.075885 0.525528
Si Si4 0.172542 0.144961 0.975847
Si Si5 0.668783 0.179101 0.339432
Si Si6 0.827369 0.043119 0.789247
Si Si7 0.178992 0.426459 0.327860
Si Si8 0.677891 0.480791 0.656901
O O1 0.786541 0.844548 0.072503
O O2 0.779279 0.854369 0.228417
O O3 0.728560 0.653178 0.152986
O O4 0.000000 0.741861 0.159752
O O5 0.213918 0.719430 0.476457
O O6 0.223496 0.506014 0.407760
O O7 0.256487 0.539749 0.573551
O O8 0.000000 0.571073 0.497418
O O9 0.500000 0.087866 0.559815
O O10 0.335254 0.123231 0.431405
O O11 0.277973 0.942369 0.526419
O O12 0.177907 0.096190 0.881827
O O13 0.000000 0.134791 0.004652
O O14 0.500000 0.210526 0.315026
O O15 0.769363 0.293755 0.341003
O O16 0.733642 0.074827 0.283621
O O17 0.000000 0.015140 0.770276
O O18 0.252456 0.468872 0.241928
O O19 0.000000 0.433868 0.320570
O O20 0.500000 0.492285 0.658249
#
# Coordination Sequence:
#
# PCOD9338455 Si02
#       8
#     4   4   4   4   4   4   4   4
#     4  11  22  38  60  84 112 148 192 239 288 345
#     4  10  22  41  65  90 119 160 206 250 295 349
#     4  10  21  36  56  85 118 150 186 233 290 350
#     4   9  18  36  60  84 111 146 191 238 287 343
#     4  10  21  37  57  84 117 151 190 237 292 350
#     4   9  19  36  59  85 111 144 188 237 287 344
#     4  11  23  41  65  89 118 160 206 250 295 349
#     4  12  26  41  60  89 124 159 197 246 302 362
#
# _framework density 19.359818000000001
#
# number of rings (size 3 to 8) (size 9 to 14) (size 15 to 20)
#    0.000    1.750    0.000    4.125    0.000    9.000 
#    0.000    3.750    0.000    0.000    0.000    0.000 
#    0.000    0.000    0.000    0.000    0.000    0.000 
#
# Total GULP energy -178706.132692 kJ/mol
# GULP energy per Si atom -5584.566647 kJ/mol
# Density = 1.931575 g / cm^3
# Si number density = 19.359818 Si / 1000 Ang^3
#
#
#
# Elastic Constant Matrix: (Units=GPa)
#
#
# Indices 1 2 3 4 5 6 
#
# 1 65.9247 53.9115 39.2076 0.0000 0.0000 0.0000
# 2 53.9115 135.3453 41.6456 0.0000 0.0000 0.0000
# 3 39.2076 41.6456 70.0295 0.0000 0.0000 0.0000
# 4 0.0000 0.0000 0.0000 24.3892 0.0000 0.0000
# 5 0.0000 0.0000 0.0000 0.0000 20.5893 0.0000
# 6 0.0000 0.0000 0.0000 0.0000 0.0000 8.2952
#
#
#
# Elastic Compliance Matrix: (Units=1/GPa)
#
#
# Indices 1 2 3 4 5 6 
#
# 1 0.028162 -0.007792 -0.011134 0.000000 0.000000 0.000000
# 2 -0.007792 0.011199 -0.002297 0.000000 0.000000 0.000000
# 3 -0.011134 -0.002297 0.021879 0.000000 0.000000 0.000000
# 4 0.000000 0.000000 0.000000 0.041002 0.000000 0.000000
# 5 0.000000 0.000000 0.000000 0.000000 0.048569 0.000000
# 6 0.000000 0.000000 0.000000 0.000000 0.000000 0.120551
#
#
# Mechanical properties :
#
#
# Convention : Reuss Voigt Hill
#
# Bulk Modulus (GPa) = 53.20604 60.09211 56.64907
# Shear Modulus (GPa) = 15.62138 19.75707 17.68923
#
# Velocity S-wave (km/s) = 2.84368 3.19802 3.02604
# Velocity P-wave (km/s) = 6.19067 6.68905 6.44468
#
# Compressibility (1/GPa) = 0.01879486
#
# Stress axis : x y z
#
# Youngs Moduli (GPa) = 35.50825 89.29202 45.70525
#
# Poissons Ratio (x) = 0.69577 0.50886
# Poissons Ratio (y) = 0.27668 0.10501
# Poissons Ratio (z) = 0.39533 0.20514
#
# Static dielectric constant tensor:
#      x y z
#    x 1.665000 0.000000 0.000000 
#    y 0.000000 1.653660 0.000000 
#    z 0.000000 0.000000 1.694350 
# 
# From -- ./inp_files/4309.got.cif
#   From: 2010.05.17/outbox.cif.g08.bks.cpg/sg26_3_cif.got.tgz:4309.got - 2010.06.04 01:07:29.
