data_PCOD9338960
_publ_section_title
;
Structure prediction by ZEFSAII (Michael W. Deem and Ramdas Pophale) SiO2 
 PCOD9338960
Probable space group: P C C 2
;
_chemical_formula_sum "Si O2"
_cell_formula_units_Z 32
_cell_length_a 7.047775
_cell_length_b 13.556131
_cell_length_c 14.666460
_cell_angle_alpha 90.000000
_cell_angle_beta 90.000000
_cell_angle_gamma 90.000000
_cell_volume 1401.241819
_symmetry_space_group_name_H-M "P C C 2"
_symmetry_group_IT_number 27
_symmetry_cell_setting 'orthorhombic'
loop_
_space_group_symop_operation_xyz
x,y,z
-x,-y,z
-x,y,1/2+z
x,-y,1/2+z
loop_
_atom_site_type_symbol
_atom_site_label
_atom_site_fract_x
_atom_site_fract_y
_atom_site_fract_z
Si Si1 0.728282 0.720498 0.312910
Si Si2 0.257752 0.120832 0.721365
Si Si3 0.373613 0.080838 0.147109
Si Si4 0.971494 0.881480 0.362558
Si Si5 0.882540 0.604971 0.815437
Si Si6 0.461397 0.616352 0.170724
Si Si7 0.542385 0.617018 0.956616
Si Si8 0.012751 0.120183 0.062777
O O1 0.471119 0.854526 0.198046
O O2 0.624130 0.671023 0.227877
O O3 0.598170 0.685292 0.396956
O O4 0.939611 0.677155 0.318481
O O5 0.266897 0.001192 0.709155
O O6 0.120463 0.157676 0.642416
O O7 0.168994 0.149729 0.815668
O O8 0.212161 0.164050 0.313130
O O9 0.228820 0.140565 0.087639
O O10 0.500000 0.000000 0.089015
O O11 0.955243 0.844493 0.464967
O O12 0.000000 0.000000 0.364312
O O13 0.739856 0.625406 0.728100
O O14 0.749352 0.620729 0.905770
O O15 0.000000 0.500000 0.811712
O O16 0.500000 0.500000 0.177150
O O17 0.494588 0.640969 0.063140
O O18 0.500000 0.500000 0.945752
O O19 0.000000 0.000000 0.061869
#
# Coordination Sequence:
#
# PCOD9338960 Si02
#       8
#     4   4   4   4   4   4   4   4
#     4  11  23  43  65 103 145 183 230 296 350 419
#     4   8  17  36  58  84 111 153 214 282 340 385
#     4   7  15  30  56  81 107 147 204 280 340 385
#     4  11  23  40  68  91 126 184 239 283 338 408
#     4  11  19  40  70 104 145 183 223 285 351 429
#     4  10  21  41  71 106 142 183 227 284 364 448
#     4  10  21  41  71 106 144 181 224 287 364 443
#     4   9  16  35  58  82 112 152 214 281 333 392
#
# _framework density 22.836886
#
# number of rings (size 3 to 8) (size 9 to 14) (size 15 to 20)
#    0.750    1.500    2.500    1.875    0.000    1.000 
#    6.750   11.250    5.500    0.000    0.000    0.000 
#    0.000    0.000    0.000    0.000    0.000    0.000 
#
# Total GULP energy -178202.290363 kJ/mol
# GULP energy per Si atom -5568.821574 kJ/mol
# Density = 2.278491 g / cm^3
# Si number density = 22.836886 Si / 1000 Ang^3
#
#
#
# Elastic Constant Matrix: (Units=GPa)
#
#
# Indices 1 2 3 4 5 6 
#
# 1 172.1406 38.6987 67.9485 0.0000 0.0000 0.0000
# 2 38.6987 86.2007 37.5160 0.0000 0.0000 0.0000
# 3 67.9485 37.5160 117.1769 0.0000 0.0000 0.0000
# 4 0.0000 0.0000 0.0000 -20.1483 0.0000 0.0000
# 5 0.0000 0.0000 0.0000 0.0000 -8.5659 0.0000
# 6 0.0000 0.0000 0.0000 0.0000 0.0000 18.6203
#
#
#
# Elastic Compliance Matrix: (Units=1/GPa)
#
#
# Indices 1 2 3 4 5 6 
#
# 1 0.007760 -0.001772 -0.003932 0.000000 0.000000 0.000000
# 2 -0.001772 0.013884 -0.003417 0.000000 0.000000 0.000000
# 3 -0.003932 -0.003417 0.011909 0.000000 0.000000 0.000000
# 4 0.000000 0.000000 0.000000 -0.049632 0.000000 0.000000
# 5 0.000000 0.000000 0.000000 0.000000 -0.116742 0.000000
# 6 0.000000 0.000000 0.000000 0.000000 0.000000 0.053705
#
#
# Mechanical properties :
#
#
# Convention : Reuss Voigt Hill
#
# Bulk Modulus (GPa) = 65.32488 73.76051 69.54270
# Shear Modulus (GPa) = -89.65306 13.40490 -38.12408
#
# Velocity S-wave (km/s) = -6.27242 2.42541 -4.09027
# Velocity P-wave (km/s) = 4.87756 6.34133 2.86547
#
# Compressibility (1/GPa) = 0.01530810
#
# Stress axis : x y z
#
# Youngs Moduli (GPa) = 128.86896 72.02654 83.97345
#
# Poissons Ratio (x) = 0.12765 0.33021
# Poissons Ratio (y) = 0.22839 0.28697
# Poissons Ratio (z) = 0.50676 0.24614
#
# Static dielectric constant tensor:
#      x y z
#    x 1.868110 0.000000 0.000000 
#    y 0.000000 2.523000 0.000000 
#    z 0.000000 0.000000 1.864550 
# 
# From -- ./inp_files/3177.got.cif
#   From: 2010.05.17/outbox.cif.g08.bks.cpg/sg27_2_cif.got.tgz:3177.got - 2010.06.04 01:11:05.
