data_PCOD9338523
_publ_section_title
;
Structure prediction by ZEFSAII (Michael W. Deem and Ramdas Pophale) SiO2 
 PCOD9338523
Probable space group: P M C 21
;
_chemical_formula_sum "Si O2"
_cell_formula_units_Z 24
_cell_length_a 13.245013
_cell_length_b 16.315064
_cell_length_c 5.127689
_cell_angle_alpha 90.000000
_cell_angle_beta 90.000000
_cell_angle_gamma 90.000000
_cell_volume 1108.058903
_symmetry_space_group_name_H-M "P M C 21"
_symmetry_group_IT_number 26
_symmetry_cell_setting 'orthorhombic'
loop_
_space_group_symop_operation_xyz
x,y,z
-x,-y,1/2+z
-x,y,z
x,-y,1/2+z
loop_
_atom_site_type_symbol
_atom_site_label
_atom_site_fract_x
_atom_site_fract_y
_atom_site_fract_z
Si Si1 0.283794 0.468362 0.728350
Si Si2 0.807706 0.311531 0.661724
Si Si3 0.500000 0.690685 0.751133
Si Si4 0.000000 0.948583 0.646690
Si Si5 0.280035 0.228545 0.182221
Si Si6 0.500000 0.574946 0.251694
Si Si7 0.000000 0.562826 0.156522
Si Si8 0.779837 0.056181 0.042236
O O1 0.237278 0.528717 0.515941
O O2 0.275931 0.380296 0.600343
O O3 0.401194 0.480808 0.769692
O O4 0.791830 0.245175 0.434268
O O5 0.906025 0.371556 0.661617
O O6 0.775346 0.273527 0.938511
O O7 0.606205 0.740073 0.736163
O O8 0.500000 0.634593 0.496857
O O9 0.500000 0.634823 0.006236
O O10 0.105570 0.908685 0.572640
O O11 0.000000 0.027914 0.451550
O O12 0.288491 0.133205 0.106451
O O13 0.000000 0.497649 0.400519
O O14 0.768982 0.985471 0.260940
#
# Coordination Sequence:
#
# PCOD9338523 Si02
#       8
#     4   4   2   2   4   2   2   4
#     4  12  22  37  58  87 120 153 203 261 312 372
#     4  12  25  43  65  94 125 174 219 263 323 392
#     4  12  22  43  62  91 130 172 206 278 332 381
#     4   8  16  32  56  84 118 148 182 242 310 360
#     4  12  24  43  68  93 131 172 219 270 326 399
#     4  12  22  39  60  87 124 158 216 260 330 387
#     4  12  26  48  70  96 136 180 222 274 320 374
#     4  10  21  39  63  94 127 165 210 266 328 387
#
# _framework density 21.659497000000002
#
# number of rings (size 3 to 8) (size 9 to 14) (size 15 to 20)
#    0.000    0.667    3.333    5.500    0.000    1.333 
#    0.000    2.500    0.000    0.000    0.000    0.000 
#    0.000    0.000    0.000    0.000    0.000    0.000 
#
# Total GULP energy -133834.369416 kJ/mol
# GULP energy per Si atom -5576.432059 kJ/mol
# Density = 2.161020 g / cm^3
# Si number density = 21.659497 Si / 1000 Ang^3
#
#
#
# Elastic Constant Matrix: (Units=GPa)
#
#
# Indices 1 2 3 4 5 6 
#
# 1 110.4103 24.6249 24.2156 0.0000 0.0000 0.0000
# 2 24.6249 57.0904 -0.8452 0.0000 0.0000 0.0000
# 3 24.2156 -0.8452 113.8522 0.0000 0.0000 0.0000
# 4 0.0000 0.0000 0.0000 26.3769 0.0000 0.0000
# 5 0.0000 0.0000 0.0000 0.0000 17.3230 0.0000
# 6 0.0000 0.0000 0.0000 0.0000 0.0000 30.6991
#
#
#
# Elastic Compliance Matrix: (Units=1/GPa)
#
#
# Indices 1 2 3 4 5 6 
#
# 1 0.010584 -0.004599 -0.002285 0.000000 0.000000 0.000000
# 2 -0.004599 0.019516 0.001123 0.000000 0.000000 0.000000
# 3 -0.002285 0.001123 0.009278 0.000000 0.000000 0.000000
# 4 0.000000 0.000000 0.000000 0.037912 0.000000 0.000000
# 5 0.000000 0.000000 0.000000 0.000000 0.057727 0.000000
# 6 0.000000 0.000000 0.000000 0.000000 0.000000 0.032574
#
#
# Mechanical properties :
#
#
# Convention : Reuss Voigt Hill
#
# Bulk Modulus (GPa) = 35.89941 41.92707 38.91324
# Shear Modulus (GPa) = 26.53943 30.43696 28.48820
#
# Velocity S-wave (km/s) = 3.50423 3.75273 3.63061
# Velocity P-wave (km/s) = 5.74310 6.17873 5.96490
#
# Compressibility (1/GPa) = 0.02785561
#
# Stress axis : x y z
#
# Youngs Moduli (GPa) = 94.48142 51.23887 107.78506
#
# Poissons Ratio (x) = 0.23565 0.24632
# Poissons Ratio (y) = 0.43453 -0.12105
# Poissons Ratio (z) = 0.21592 -0.05755
#
# Static dielectric constant tensor:
#      x y z
#    x 1.999950 0.000000 0.000000 
#    y 0.000000 1.768570 0.000000 
#    z 0.000000 0.000000 1.851050 
# 
# From -- ./inp_files/615.got.cif
#   From: 2010.05.17/outbox.cif.g08.bks.cpg/sg26_1_cif.got.tgz:615.got - 2010.06.04 01:07:29.
