data_PCOD9338903
_publ_section_title
;
Structure prediction by ZEFSAII (Michael W. Deem and Ramdas Pophale) SiO2 
 PCOD9338903
Probable space group: P C C 2
;
_chemical_formula_sum "Si O2"
_cell_formula_units_Z 18
_cell_length_a 7.703666
_cell_length_b 9.406551
_cell_length_c 10.570035
_cell_angle_alpha 90.000000
_cell_angle_beta 90.000000
_cell_angle_gamma 90.000000
_cell_volume 765.956816
_symmetry_space_group_name_H-M "P C C 2"
_symmetry_group_IT_number 27
_symmetry_cell_setting 'orthorhombic'
loop_
_space_group_symop_operation_xyz
x,y,z
-x,-y,z
-x,y,1/2+z
x,-y,1/2+z
loop_
_atom_site_type_symbol
_atom_site_label
_atom_site_fract_x
_atom_site_fract_y
_atom_site_fract_z
Si Si1 0.772709 0.657516 0.020490
Si Si2 0.792819 0.526771 0.759353
Si Si3 0.309044 0.029696 0.946163
Si Si4 0.000000 0.000000 0.256139
Si Si5 0.879890 0.225647 0.090127
O O1 0.729613 0.590827 0.157791
O O2 0.984642 0.682711 0.006620
O O3 0.724463 0.554722 0.901385
O O4 0.689387 0.812772 0.004837
O O5 0.772722 0.672819 0.680750
O O6 0.000000 0.500000 0.766410
O O7 0.165883 0.031736 0.838294
O O8 0.500000 0.000000 0.898027
O O9 0.239440 0.895969 0.029193
O O10 0.019993 0.137506 0.171475
#
# Coordination Sequence:
#
# PCOD9338903 Si02
#       5
#     4   4   4   2   4
#     4  11  21  42  67 105 140 191 235 303 357 445
#     4  10  21  36  68 100 138 188 246 285 366 435
#     4  12  25  42  71 109 143 187 245 308 369 436
#     4  12  20  42  72 100 144 190 240 308 364 434
#     4  11  20  41  68 100 143 185 246 299 368 429
#
# _framework density 23.500019000000002
#
# number of rings (size 3 to 8) (size 9 to 14) (size 15 to 20)
#    0.000    0.889    6.667    2.000    0.000    2.667 
#    0.000    1.111    0.000   13.333    0.000    1.556 
#    0.000    0.000    0.000    0.000    0.000    0.000 
#
# Total GULP energy -100480.212960 kJ/mol
# GULP energy per Si atom -5582.234053 kJ/mol
# Density = 2.344653 g / cm^3
# Si number density = 23.500019 Si / 1000 Ang^3
#
#
#
# Elastic Constant Matrix: (Units=GPa)
#
#
# Indices 1 2 3 4 5 6 
#
# 1 71.3214 22.5161 24.9865 0.0000 0.0000 0.0000
# 2 22.5161 120.3326 47.6918 0.0000 0.0000 0.0000
# 3 24.9865 47.6918 104.6538 0.0000 0.0000 0.0000
# 4 0.0000 0.0000 0.0000 50.9454 0.0000 0.0000
# 5 0.0000 0.0000 0.0000 0.0000 -14.2790 0.0000
# 6 0.0000 0.0000 0.0000 0.0000 0.0000 11.4741
#
#
#
# Elastic Compliance Matrix: (Units=1/GPa)
#
#
# Indices 1 2 3 4 5 6 
#
# 1 0.015601 -0.001761 -0.002922 0.000000 0.000000 0.000000
# 2 -0.001761 0.010341 -0.004292 0.000000 0.000000 0.000000
# 3 -0.002922 -0.004292 0.012209 0.000000 0.000000 0.000000
# 4 0.000000 0.000000 0.000000 0.019629 0.000000 0.000000
# 5 0.000000 0.000000 0.000000 0.000000 -0.070033 0.000000
# 6 0.000000 0.000000 0.000000 0.000000 0.000000 0.087153
#
#
# Mechanical properties :
#
#
# Convention : Reuss Voigt Hill
#
# Bulk Modulus (GPa) = 49.50468 54.07739 51.79104
# Shear Modulus (GPa) = 50.20947 23.03566 36.62257
#
# Velocity S-wave (km/s) = 4.62732 3.13428 3.95195
# Velocity P-wave (km/s) = 7.04706 6.01330 6.55060
#
# Compressibility (1/GPa) = 0.02020011
#
# Stress axis : x y z
#
# Youngs Moduli (GPa) = 64.09954 96.70364 81.90728
#
# Poissons Ratio (x) = 0.17029 0.23935
# Poissons Ratio (y) = 0.11288 0.35155
# Poissons Ratio (z) = 0.18731 0.41505
#
# Static dielectric constant tensor:
#      x y z
#    x 1.767650 0.000000 0.000000 
#    y 0.000000 1.921670 0.000000 
#    z 0.000000 0.000000 1.970480 
# 
# From -- ./inp_files/2227.got.cif
#   From: 2010.05.17/outbox.cif.g08.bks.cpg/sg27_2_cif.got.tgz:2227.got - 2010.06.04 01:11:05.
