data_PCOD9338436
_publ_section_title
;
Structure prediction by ZEFSAII (Michael W. Deem and Ramdas Pophale) SiO2 
 PCOD9338436
Probable space group: P M C 21
;
_chemical_formula_sum "Si O2"
_cell_formula_units_Z 26
_cell_length_a 7.153448
_cell_length_b 18.118526
_cell_length_c 7.742753
_cell_angle_alpha 90.000000
_cell_angle_beta 90.000000
_cell_angle_gamma 90.000000
_cell_volume 1003.537702
_symmetry_space_group_name_H-M "P M C 21"
_symmetry_group_IT_number 26
_symmetry_cell_setting 'orthorhombic'
loop_
_space_group_symop_operation_xyz
x,y,z
-x,-y,1/2+z
-x,y,z
x,-y,1/2+z
loop_
_atom_site_type_symbol
_atom_site_label
_atom_site_fract_x
_atom_site_fract_y
_atom_site_fract_z
Si Si1 0.274800 0.754053 0.445420
Si Si2 0.717578 0.607737 0.593621
Si Si3 0.274814 0.911393 0.378148
Si Si4 0.275145 0.305180 0.559697
Si Si5 0.275663 0.076240 0.474678
Si Si6 0.718971 0.543804 0.205997
Si Si7 0.000000 0.198045 0.367317
O O1 0.500000 0.753386 0.459717
O O2 0.203189 0.689837 0.570604
O O3 0.206130 0.837028 0.470050
O O4 0.235069 0.731026 0.247900
O O5 0.500000 0.617295 0.646492
O O6 0.726778 0.576182 0.397860
O O7 0.797085 0.538618 0.697741
O O8 0.500000 0.910463 0.393329
O O9 0.233017 0.904937 0.174571
O O10 0.218555 0.991347 0.444533
O O11 0.500000 0.301714 0.534468
O O12 0.216241 0.390754 0.580459
O O13 0.162446 0.258857 0.422955
O O14 0.500000 0.082108 0.447642
O O15 0.162770 0.132829 0.359570
O O16 0.500000 0.535447 0.161275
#
# Coordination Sequence:
#
# PCOD9338436 Si02
#       7
#     4   4   4   4   4   4   2
#     4   8  13  26  49  71  98 133 168 207 248 298
#     4   8  13  22  43  72  98 129 167 205 248 298
#     4   9  17  33  54  75 107 138 168 214 262 306
#     4   9  17  30  49  76 104 133 174 218 251 297
#     4  10  21  35  54  80 107 135 171 217 262 309
#     4   8  14  25  44  72 103 129 164 209 250 298
#     4  12  20  30  54  78 102 138 178 216 256 304
#
# _framework density 25.908342999999999
#
# number of rings (size 3 to 8) (size 9 to 14) (size 15 to 20)
#    0.000    3.077    1.538    2.308    0.000    0.615 
#    0.000    0.000    3.385    3.692    0.000    0.000 
#    0.000    0.000    0.000    0.000    0.000    0.000 
#
# Total GULP energy -144877.045815 kJ/mol
# GULP energy per Si atom -5572.194070 kJ/mol
# Density = 2.584937 g / cm^3
# Si number density = 25.908343 Si / 1000 Ang^3
#
#
#
# Elastic Constant Matrix: (Units=GPa)
#
#
# Indices 1 2 3 4 5 6 
#
# 1 153.5196 50.0464 3.6139 0.0000 0.0000 0.0000
# 2 50.0464 641.9673 -159.7125 0.0000 0.0000 0.0000
# 3 3.6139 -159.7125 202.9565 0.0000 0.0000 0.0000
# 4 0.0000 0.0000 0.0000 18.2615 0.0000 0.0000
# 5 0.0000 0.0000 0.0000 0.0000 -1.6026 0.0000
# 6 0.0000 0.0000 0.0000 0.0000 0.0000 116.4694
#
#
#
# Elastic Compliance Matrix: (Units=1/GPa)
#
#
# Indices 1 2 3 4 5 6 
#
# 1 0.006755 -0.000692 -0.000665 0.000000 0.000000 0.000000
# 2 -0.000692 0.002008 0.001592 0.000000 0.000000 0.000000
# 3 -0.000665 0.001592 0.006192 0.000000 0.000000 0.000000
# 4 0.000000 0.000000 0.000000 0.054760 0.000000 0.000000
# 5 0.000000 0.000000 0.000000 0.000000 -0.623989 0.000000
# 6 0.000000 0.000000 0.000000 0.000000 0.000000 0.008586
#
#
# Mechanical properties :
#
#
# Convention : Reuss Voigt Hill
#
# Bulk Modulus (GPa) = 64.82626 87.37100 76.09863
# Shear Modulus (GPa) = -9.24184 100.25869 45.50842
#
# Velocity S-wave (km/s) = -1.89073 6.22748 4.19563
# Velocity P-wave (km/s) = 4.50657 9.24689 7.27372
#
# Compressibility (1/GPa) = 0.01542585
#
# Stress axis : x y z
#
# Youngs Moduli (GPa) = 148.03690 498.05530 161.49729
#
# Poissons Ratio (x) = 0.34466 0.10737
# Poissons Ratio (y) = 0.10244 -0.25716
# Poissons Ratio (z) = 0.09842 -0.79307
#
# Static dielectric constant tensor:
#      x y z
#    x 1.947820 0.000000 0.000000 
#    y 0.000000 2.038400 0.000000 
#    z 0.000000 0.000000 2.033960 
# 
# From -- ./inp_files/1527.got.cif
#   From: 2010.05.17/outbox.cif.g08.bks.cpg/sg26_1_cif.got.tgz:1527.got - 2010.06.04 01:07:29.
