data_PCOD9338961
_publ_section_title
;
Structure prediction by ZEFSAII (Michael W. Deem and Ramdas Pophale) SiO2 
 PCOD9338961
Probable space group: P C C 2
;
_chemical_formula_sum "Si O2"
_cell_formula_units_Z 24
_cell_length_a 15.109168
_cell_length_b 8.213797
_cell_length_c 8.925589
_cell_angle_alpha 90.000000
_cell_angle_beta 90.000000
_cell_angle_gamma 90.000000
_cell_volume 1107.698073
_symmetry_space_group_name_H-M "P C C 2"
_symmetry_group_IT_number 27
_symmetry_cell_setting 'orthorhombic'
loop_
_space_group_symop_operation_xyz
x,y,z
-x,-y,z
-x,y,1/2+z
x,-y,1/2+z
loop_
_atom_site_type_symbol
_atom_site_label
_atom_site_fract_x
_atom_site_fract_y
_atom_site_fract_z
Si Si1 0.052033 0.670879 0.562570
Si Si2 0.500000 0.500000 0.390343
Si Si3 0.068149 0.131205 0.774065
Si Si4 0.316141 0.058902 0.483425
Si Si5 0.793231 0.858080 0.199053
Si Si6 0.425436 0.287815 0.653764
Si Si7 0.500000 0.000000 0.321532
O O1 0.080312 0.729469 0.397423
O O2 0.139324 0.709420 0.664666
O O3 0.000000 0.500000 0.561302
O O4 0.979174 0.792112 0.631192
O O5 0.459376 0.366164 0.500344
O O6 0.574456 0.425548 0.280769
O O7 0.149877 0.022850 0.724267
O O8 0.000000 0.000000 0.842190
O O9 0.263563 0.149526 0.350812
O O10 0.338051 0.186313 0.616447
O O11 0.410772 0.004302 0.417559
O O12 0.266666 0.904757 0.555873
O O13 0.495546 0.157961 0.716946
#
# Coordination Sequence:
#
# PCOD9338961 Si02
#       7
#     4   2   4   4   4   4   2
#     4  11  23  42  71 104 139 180 229 297 383 454
#     4  10  24  42  66  96 142 188 252 306 386 430
#     4  10  21  41  71  97 131 183 228 283 363 453
#     4  12  24  41  71 106 145 188 268 307 356 428
#     4  11  24  42  70 105 142 189 243 319 358 440
#     4  11  23  42  68 100 140 197 256 310 365 437
#     4  12  24  40  78 104 140 206 274 306 358 434
#
# _framework density 21.666554999999999
#
# number of rings (size 3 to 8) (size 9 to 14) (size 15 to 20)
#    0.000    1.000    5.000    2.500    2.333    0.000 
#    0.000    1.667    0.000    0.000    0.000    0.000 
#    0.000    0.000    0.000    0.000    0.000    0.000 
#
# Total GULP energy -134003.722435 kJ/mol
# GULP energy per Si atom -5583.488435 kJ/mol
# Density = 2.161724 g / cm^3
# Si number density = 21.666555 Si / 1000 Ang^3
#
#
#
# Elastic Constant Matrix: (Units=GPa)
#
#
# Indices 1 2 3 4 5 6 
#
# 1 107.0339 36.6538 34.5981 0.0000 0.0000 0.0000
# 2 36.6538 101.5877 39.7222 0.0000 0.0000 0.0000
# 3 34.5981 39.7222 104.9976 0.0000 0.0000 0.0000
# 4 0.0000 0.0000 0.0000 31.8370 0.0000 0.0000
# 5 0.0000 0.0000 0.0000 0.0000 25.2147 0.0000
# 6 0.0000 0.0000 0.0000 0.0000 0.0000 33.8244
#
#
#
# Elastic Compliance Matrix: (Units=1/GPa)
#
#
# Indices 1 2 3 4 5 6 
#
# 1 0.011208 -0.003051 -0.002539 0.000000 0.000000 0.000000
# 2 -0.003051 0.012383 -0.003679 0.000000 0.000000 0.000000
# 3 -0.002539 -0.003679 0.011753 0.000000 0.000000 0.000000
# 4 0.000000 0.000000 0.000000 0.031410 0.000000 0.000000
# 5 0.000000 0.000000 0.000000 0.000000 0.039659 0.000000
# 6 0.000000 0.000000 0.000000 0.000000 0.000000 0.029564
#
#
# Mechanical properties :
#
#
# Convention : Reuss Voigt Hill
#
# Bulk Modulus (GPa) = 59.50577 59.50748 59.50663
# Shear Modulus (GPa) = 31.22672 31.68490 31.45581
#
# Velocity S-wave (km/s) = 3.80049 3.82827 3.81440
# Velocity P-wave (km/s) = 6.83975 6.86044 6.85010
#
# Compressibility (1/GPa) = 0.01680509
#
# Stress axis : x y z
#
# Youngs Moduli (GPa) = 89.21819 80.75369 85.08759
#
# Poissons Ratio (x) = 0.24641 0.21603
# Poissons Ratio (y) = 0.27224 0.31307
# Poissons Ratio (z) = 0.22652 0.29712
#
# Static dielectric constant tensor:
#      x y z
#    x 1.824940 0.000000 0.000000 
#    y 0.000000 1.840030 0.000000 
#    z 0.000000 0.000000 1.832710 
# 
# From -- ./inp_files/1163.got.cif
#   From: 2010.05.17/outbox.cif.g08.bks.cpg/sg27_1_cif.got.tgz:1163.got - 2010.06.04 01:11:05.
