data_PCOD9338208
_publ_section_title
;
Structure prediction by ZEFSAII (Michael W. Deem and Ramdas Pophale) SiO2 
 PCOD9338208
Probable space group: P M C 21
;
_chemical_formula_sum "Si O2"
_cell_formula_units_Z 32
_cell_length_a 15.304855
_cell_length_b 7.094528
_cell_length_c 11.912370
_cell_angle_alpha 90.000000
_cell_angle_beta 90.000000
_cell_angle_gamma 90.000000
_cell_volume 1293.453739
_symmetry_space_group_name_H-M "P M C 21"
_symmetry_group_IT_number 26
_symmetry_cell_setting 'orthorhombic'
loop_
_space_group_symop_operation_xyz
x,y,z
-x,-y,1/2+z
-x,y,z
x,-y,1/2+z
loop_
_atom_site_type_symbol
_atom_site_label
_atom_site_fract_x
_atom_site_fract_y
_atom_site_fract_z
Si Si1 0.681985 0.741575 0.586780
Si Si2 0.600020 0.230709 0.445080
Si Si3 0.907159 0.656813 0.686078
Si Si4 0.250350 0.404404 0.298598
Si Si5 0.840905 0.730180 0.443951
Si Si6 0.902243 0.797863 0.209631
Si Si7 0.404912 0.790837 0.375742
Si Si8 0.701908 0.139070 0.665352
O O1 0.718033 0.576927 0.666921
O O2 0.756367 0.821507 0.501585
O O3 0.609448 0.689610 0.496065
O O4 0.665261 0.923425 0.663652
O O5 0.500000 0.296930 0.449716
O O6 0.663168 0.338151 0.360004
O O7 0.650951 0.230244 0.562356
O O8 0.595486 0.011368 0.407932
O O9 0.829847 0.736097 0.764024
O O10 0.898340 0.696880 0.554225
O O11 0.902843 0.429617 0.694920
O O12 0.000000 0.720126 0.729920
O O13 0.200437 0.543537 0.385058
O O14 0.890121 0.831560 0.343142
O O15 0.807948 0.857113 0.158189
O O16 0.000000 0.862047 0.171729
O O17 0.500000 0.741317 0.328296
O O18 0.330686 0.765903 0.281462
#
# Coordination Sequence:
#
# PCOD9338208 Si02
#       8
#     4   4   4   4   4   4   4   4
#     4  10  21  37  59  87 121 155 198 252 308 362
#     4  10  21  36  59  88 118 159 205 252 306 365
#     4   9  19  35  58  88 119 160 209 246 292 364
#     4  10  20  36  59  87 123 159 201 253 310 359
#     4  10  19  36  60  83 119 163 199 241 303 358
#     4  10  20  35  58  86 117 157 200 246 299 361
#     4  10  20  36  62  88 113 158 207 248 302 370
#     4  11  20  37  61  85 124 155 201 258 310 361
#
# _framework density 24.739964000000001
#
# number of rings (size 3 to 8) (size 9 to 14) (size 15 to 20)
#    0.000    2.000    2.500    1.500    0.000    1.500 
#    0.000    4.375    0.000    0.750    0.000    0.000 
#    0.000    0.000    0.000    0.000    0.000    0.000 
#
# Total GULP energy -178389.059998 kJ/mol
# GULP energy per Si atom -5574.658125 kJ/mol
# Density = 2.468366 g / cm^3
# Si number density = 24.739964 Si / 1000 Ang^3
#
#
#
# Elastic Constant Matrix: (Units=GPa)
#
#
# Indices 1 2 3 4 5 6 
#
# 1 211.8874 16.4865 66.2164 0.0000 0.0000 0.0000
# 2 16.4865 53.0750 1.5832 0.0000 0.0000 0.0000
# 3 66.2164 1.5832 112.0226 0.0000 0.0000 0.0000
# 4 0.0000 0.0000 0.0000 36.0558 0.0000 0.0000
# 5 0.0000 0.0000 0.0000 0.0000 32.2253 0.0000
# 6 0.0000 0.0000 0.0000 0.0000 0.0000 11.3695
#
#
#
# Elastic Compliance Matrix: (Units=1/GPa)
#
#
# Indices 1 2 3 4 5 6 
#
# 1 0.005946 -0.001743 -0.003490 0.000000 0.000000 0.000000
# 2 -0.001743 0.019360 0.000757 0.000000 0.000000 0.000000
# 3 -0.003490 0.000757 0.010979 0.000000 0.000000 0.000000
# 4 0.000000 0.000000 0.000000 0.027735 0.000000 0.000000
# 5 0.000000 0.000000 0.000000 0.000000 0.031032 0.000000
# 6 0.000000 0.000000 0.000000 0.000000 0.000000 0.087955
#
#
# Mechanical properties :
#
#
# Convention : Reuss Voigt Hill
#
# Bulk Modulus (GPa) = 36.58653 60.61748 48.60201
# Shear Modulus (GPa) = 24.86713 35.44338 30.15525
#
# Velocity S-wave (km/s) = 3.17383 3.78913 3.49505
# Velocity P-wave (km/s) = 5.31521 6.61047 5.99791
#
# Compressibility (1/GPa) = 0.02733246
#
# Stress axis : x y z
#
# Youngs Moduli (GPa) = 168.18883 51.65273 91.08359
#
# Poissons Ratio (x) = 0.09002 0.31787
# Poissons Ratio (y) = 0.29312 -0.06891
# Poissons Ratio (z) = 0.58696 -0.03908
#
# Static dielectric constant tensor:
#      x y z
#    x 2.059650 0.000000 0.000000 
#    y 0.000000 2.078250 0.000000 
#    z 0.000000 0.000000 1.933810 
# 
# From -- ./inp_files/3613.got.cif
#   From: 2010.05.17/outbox.cif.g08.bks.cpg/sg26_2_cif.got.tgz:3613.got - 2010.06.04 01:07:29.
