data_PCOD9338925
_publ_section_title
;
Structure prediction by ZEFSAII (Michael W. Deem and Ramdas Pophale) SiO2 
 PCOD9338925
Probable space group: P C C 2
;
_chemical_formula_sum "Si O2"
_cell_formula_units_Z 28
_cell_length_a 5.359104
_cell_length_b 19.232081
_cell_length_c 11.470361
_cell_angle_alpha 90.000000
_cell_angle_beta 90.000000
_cell_angle_gamma 90.000000
_cell_volume 1182.212511
_symmetry_space_group_name_H-M "P C C 2"
_symmetry_group_IT_number 27
_symmetry_cell_setting 'orthorhombic'
loop_
_space_group_symop_operation_xyz
x,y,z
-x,-y,z
-x,y,1/2+z
x,-y,1/2+z
loop_
_atom_site_type_symbol
_atom_site_label
_atom_site_fract_x
_atom_site_fract_y
_atom_site_fract_z
Si Si1 0.500000 0.000000 0.196700
Si Si2 0.473042 0.154775 0.261646
Si Si3 0.251390 0.541733 0.060918
Si Si4 0.081508 0.660314 0.236012
Si Si5 0.244286 0.777743 0.060883
Si Si6 0.024978 0.856247 0.371922
Si Si7 0.000000 0.000000 0.230275
Si Si8 0.416161 0.659514 0.884167
O O1 0.470391 0.070982 0.267251
O O2 0.232379 0.996191 0.141464
O O3 0.199785 0.177546 0.297044
O O4 0.703179 0.173659 0.345169
O O5 0.551294 0.180407 0.134950
O O6 0.500000 0.500000 0.101534
O O7 0.362879 0.590386 0.958971
O O8 0.000000 0.500000 0.022314
O O9 0.146003 0.591734 0.161911
O O10 0.305901 0.663484 0.331179
O O11 0.804001 0.659011 0.287965
O O12 0.107941 0.725608 0.149344
O O13 0.064616 0.834843 0.000413
O O14 0.365416 0.724690 0.969062
O O15 0.025669 0.934313 0.318053
#
# Coordination Sequence:
#
# PCOD9338925 Si02
#       8
#     2   4   4   4   4   4   2   4
#     4   8  16  34  56  80 112 148 190 246 308 364
#     4  10  21  38  60  86 119 157 201 256 312 366
#     4  11  24  42  68 100 127 162 212 254 303 372
#     4  11  25  43  64  93 131 168 206 256 310 366
#     4  11  24  40  64  92 123 166 216 256 307 378
#     4  10  21  38  60  86 119 157 201 256 312 366
#     4   8  16  34  56  80 112 148 190 246 308 364
#     4  11  25  43  64  93 131 168 206 256 310 366
#
# _framework density 23.684403
#
# number of rings (size 3 to 8) (size 9 to 14) (size 15 to 20)
#    0.000    1.714    0.000    3.429    0.000   10.286 
#    0.000    8.571    0.000    0.000    0.000    0.000 
#    0.000    0.000    0.000    0.000    0.000    0.000 
#
# Total GULP energy -156214.921436 kJ/mol
# GULP energy per Si atom -5579.104337 kJ/mol
# Density = 2.363050 g / cm^3
# Si number density = 23.684403 Si / 1000 Ang^3
#
#
#
# Elastic Constant Matrix: (Units=GPa)
#
#
# Indices 1 2 3 4 5 6 
#
# 1 94.0925 5.4318 -23.1990 0.0000 0.0000 0.0000
# 2 5.4318 109.3114 19.6012 0.0000 0.0000 0.0000
# 3 -23.1990 19.6012 43.3725 0.0000 0.0000 0.0000
# 4 0.0000 0.0000 0.0000 -23.7349 0.0000 0.0000
# 5 0.0000 0.0000 0.0000 0.0000 24.6693 0.0000
# 6 0.0000 0.0000 0.0000 0.0000 0.0000 22.4472
#
#
#
# Elastic Compliance Matrix: (Units=1/GPa)
#
#
# Indices 1 2 3 4 5 6 
#
# 1 0.012632 -0.002001 0.007661 0.000000 0.000000 0.000000
# 2 -0.002001 0.010272 -0.005713 0.000000 0.000000 0.000000
# 3 0.007661 -0.005713 0.029736 0.000000 0.000000 0.000000
# 4 0.000000 0.000000 0.000000 -0.042132 0.000000 0.000000
# 5 0.000000 0.000000 0.000000 0.000000 0.040536 0.000000
# 6 0.000000 0.000000 0.000000 0.000000 0.000000 0.044549
#
#
# Mechanical properties :
#
#
# Convention : Reuss Voigt Hill
#
# Bulk Modulus (GPa) = 19.03528 27.82714 23.43121
# Shear Modulus (GPa) = 44.16554 21.00581 32.58567
#
# Velocity S-wave (km/s) = 4.32296 2.98133 3.71324
# Velocity P-wave (km/s) = 5.74211 4.86063 5.31966
#
# Compressibility (1/GPa) = 0.05253403
#
# Stress axis : x y z
#
# Youngs Moduli (GPa) = 79.16209 97.35187 33.62967
#
# Poissons Ratio (x) = 0.19485 -0.25765
# Poissons Ratio (y) = 0.15844 0.19212
# Poissons Ratio (z) = -0.60648 0.55615
#
# Static dielectric constant tensor:
#      x y z
#    x 1.961660 0.000000 0.000000 
#    y 0.000000 1.966760 0.000000 
#    z 0.000000 0.000000 1.930350 
# 
# From -- ./inp_files/2095.got.cif
#   From: 2010.05.17/outbox.cif.g08.bks.cpg/sg27_2_cif.got.tgz:2095.got - 2010.06.04 01:11:05.
