data_PCOD9338054
_publ_section_title
;
Structure prediction by ZEFSAII (Michael W. Deem and Ramdas Pophale) SiO2 
 PCOD9338054
Probable space group: P M C 21
;
_chemical_formula_sum "Si O2"
_cell_formula_units_Z 32
_cell_length_a 9.160869
_cell_length_b 11.533752
_cell_length_c 18.204670
_cell_angle_alpha 90.000000
_cell_angle_beta 90.000000
_cell_angle_gamma 90.000000
_cell_volume 1923.490707
_symmetry_space_group_name_H-M "P M C 21"
_symmetry_group_IT_number 26
_symmetry_cell_setting 'orthorhombic'
loop_
_space_group_symop_operation_xyz
x,y,z
-x,-y,1/2+z
-x,y,z
x,-y,1/2+z
loop_
_atom_site_type_symbol
_atom_site_label
_atom_site_fract_x
_atom_site_fract_y
_atom_site_fract_z
Si Si1 0.174753 0.219764 0.130350
Si Si2 0.333252 0.543020 0.409291
Si Si3 0.674880 0.876551 0.774640
Si Si4 0.167479 0.336540 0.345529
Si Si5 0.333873 0.668103 0.249207
Si Si6 0.173329 0.761151 0.468501
Si Si7 0.834399 0.534626 0.686748
Si Si8 0.825904 0.117236 0.814185
O O1 0.264506 0.156551 0.193697
O O2 0.207363 0.357710 0.135467
O O3 0.000000 0.207292 0.145294
O O4 0.206349 0.182324 0.047213
O O5 0.500000 0.520630 0.430674
O O6 0.241871 0.425012 0.402121
O O7 0.335165 0.600743 0.327623
O O8 0.258489 0.641018 0.458401
O O9 0.500000 0.875860 0.775624
O O10 0.739217 0.777855 0.828894
O O11 0.740799 0.000045 0.796810
O O12 0.163920 0.405651 0.267658
O O13 0.000000 0.308949 0.364646
O O14 0.500000 0.701554 0.232247
O O15 0.269612 0.575700 0.191766
O O16 0.232531 0.779353 0.262197
O O17 0.204032 0.840843 0.397840
O O18 0.000000 0.735705 0.467463
O O19 0.000000 0.498138 0.669974
O O20 0.000000 0.102411 0.805765
#
# Coordination Sequence:
#
# PCOD9338054 Si02
#       8
#     4   4   4   4   4   4   4   4
#     4   9  18  33  51  72  98 128 164 204 247 298
#     4   9  16  26  43  69  98 123 149 187 237 287
#     4  11  21  32  48  72 100 130 167 208 251 296
#     4   9  16  28  46  67  92 122 156 193 233 279
#     4   9  16  26  42  66  94 120 149 188 231 275
#     4   9  18  32  51  73  97 128 165 204 247 299
#     4   8  14  25  43  66  91 118 147 183 229 279
#     4  10  19  32  50  71  96 129 169 207 245 291
#
# _framework density 16.636419
#
# number of rings (size 3 to 8) (size 9 to 14) (size 15 to 20)
#    0.000    2.750    0.000    3.375    0.000    7.000 
#    0.000    0.000    0.000    1.500    0.000   10.500 
#    0.000    0.000    0.000    0.000    0.000    0.000 
#
# Total GULP energy -178266.041005 kJ/mol
# GULP energy per Si atom -5570.813781 kJ/mol
# Density = 1.659855 g / cm^3
# Si number density = 16.636419 Si / 1000 Ang^3
#
#
#
# Elastic Constant Matrix: (Units=GPa)
#
#
# Indices 1 2 3 4 5 6 
#
# 1 120.2119 75.4372 43.2439 0.0000 0.0000 0.0000
# 2 75.4372 102.9238 31.4050 0.0000 0.0000 0.0000
# 3 43.2439 31.4050 47.9091 0.0000 0.0000 0.0000
# 4 0.0000 0.0000 0.0000 11.4912 0.0000 0.0000
# 5 0.0000 0.0000 0.0000 0.0000 9.4478 0.0000
# 6 0.0000 0.0000 0.0000 0.0000 0.0000 26.2102
#
#
#
# Elastic Compliance Matrix: (Units=1/GPa)
#
#
# Indices 1 2 3 4 5 6 
#
# 1 0.018434 -0.010543 -0.009728 0.000000 0.000000 0.000000
# 2 -0.010543 0.018175 -0.002398 0.000000 0.000000 0.000000
# 3 -0.009728 -0.002398 0.031225 0.000000 0.000000 0.000000
# 4 0.000000 0.000000 0.000000 0.087023 0.000000 0.000000
# 5 0.000000 0.000000 0.000000 0.000000 0.105845 0.000000
# 6 0.000000 0.000000 0.000000 0.000000 0.000000 0.038153
#
#
# Mechanical properties :
#
#
# Convention : Reuss Voigt Hill
#
# Bulk Modulus (GPa) = 44.45007 63.46857 53.95932
# Shear Modulus (GPa) = 14.21699 17.49374 15.85536
#
# Velocity S-wave (km/s) = 2.92647 3.24625 3.09050
# Velocity P-wave (km/s) = 6.18025 7.23077 6.72605
#
# Compressibility (1/GPa) = 0.02249715
#
# Stress axis : x y z
#
# Youngs Moduli (GPa) = 54.24709 55.02127 32.02525
#
# Poissons Ratio (x) = 0.58008 0.31155
# Poissons Ratio (y) = 0.57192 0.07678
# Poissons Ratio (z) = 0.52772 0.13192
#
# Static dielectric constant tensor:
#      x y z
#    x 1.562430 0.000000 0.000000 
#    y 0.000000 1.544960 0.000000 
#    z 0.000000 0.000000 1.577420 
# 
# From -- ./inp_files/5006.got.cif
#   From: 2010.05.17/outbox.cif.g08.bks.cpg/sg26_3_cif.got.tgz:5006.got - 2010.06.04 01:07:29.
