data_PCOD9338052
_publ_section_title
;
Structure prediction by ZEFSAII (Michael W. Deem and Ramdas Pophale) SiO2 
 PCOD9338052
Probable space group: P M C 21
;
_chemical_formula_sum "Si O2"
_cell_formula_units_Z 32
_cell_length_a 8.167047
_cell_length_b 6.917675
_cell_length_c 22.303500
_cell_angle_alpha 90.000000
_cell_angle_beta 90.000000
_cell_angle_gamma 90.000000
_cell_volume 1260.080323
_symmetry_space_group_name_H-M "P M C 21"
_symmetry_group_IT_number 26
_symmetry_cell_setting 'orthorhombic'
loop_
_space_group_symop_operation_xyz
x,y,z
-x,-y,1/2+z
-x,y,z
x,-y,1/2+z
loop_
_atom_site_type_symbol
_atom_site_label
_atom_site_fract_x
_atom_site_fract_y
_atom_site_fract_z
Si Si1 0.686392 0.826448 0.753080
Si Si2 0.192640 0.524743 0.093972
Si Si3 0.813786 0.066853 0.376081
Si Si4 0.686395 0.666729 0.346054
Si Si5 0.316197 0.620682 0.218010
Si Si6 0.299788 0.913555 0.625669
Si Si7 0.803589 0.411460 0.970751
Si Si8 0.305880 0.969984 0.998990
O O1 0.500000 0.884814 0.767334
O O2 0.678286 0.610518 0.727688
O O3 0.747989 0.950792 0.695562
O O4 0.786637 0.817253 0.814670
O O5 0.256682 0.643303 0.150640
O O6 0.228835 0.298804 0.109817
O O7 0.000000 0.555508 0.092006
O O8 0.260639 0.542531 0.026083
O O9 0.692426 0.887576 0.366735
O O10 0.779568 0.139632 0.443395
O O11 0.000000 0.994644 0.376469
O O12 0.500000 0.596694 0.338604
O O13 0.768993 0.678328 0.280467
O O14 0.761038 0.549378 0.401435
O O15 0.500000 0.700673 0.219091
O O16 0.500000 0.902925 0.625242
O O17 0.249903 0.045161 0.568525
O O18 0.732645 0.197413 0.984995
O O19 0.000000 0.403044 0.974899
O O20 0.500000 0.937266 0.996266
#
# Coordination Sequence:
#
# PCOD9338052 Si02
#       8
#     4   4   4   4   4   4   4   4
#     4   9  17  32  50  69  94 122 152 192 233 274
#     4   9  16  25  42  67  94 121 150 185 230 276
#     4  11  21  31  45  70  99 127 156 188 228 278
#     4  10  19  32  50  71  93 123 159 195 233 273
#     4   9  19  33  50  71  94 120 156 196 233 273
#     4   8  15  27  45  67  90 116 152 194 233 269
#     4   9  16  26  41  66  95 121 150 188 229 273
#     4   9  15  26  45  67  89 118 153 192 233 270
#
# _framework density 25.395206999999999
#
# number of rings (size 3 to 8) (size 9 to 14) (size 15 to 20)
#    0.000    2.750    0.000    4.875    0.000    5.000 
#    0.000    0.000    0.000    1.500    0.000    3.500 
#    0.000    0.000    0.000    0.000    0.000    0.000 
#
# Total GULP energy -178538.620319 kJ/mol
# GULP energy per Si atom -5579.331885 kJ/mol
# Density = 2.533741 g / cm^3
# Si number density = 25.395207 Si / 1000 Ang^3
#
#
#
# Elastic Constant Matrix: (Units=GPa)
#
#
# Indices 1 2 3 4 5 6 
#
# 1 54.5063 -7.6477 33.8191 0.0000 0.0000 0.0000
# 2 -7.6477 56.0203 44.0598 0.0000 0.0000 0.0000
# 3 33.8191 44.0598 289.9690 0.0000 0.0000 0.0000
# 4 0.0000 0.0000 0.0000 59.6196 0.0000 0.0000
# 5 0.0000 0.0000 0.0000 0.0000 16.9244 0.0000
# 6 0.0000 0.0000 0.0000 0.0000 0.0000 78.1186
#
#
#
# Elastic Compliance Matrix: (Units=1/GPa)
#
#
# Indices 1 2 3 4 5 6 
#
# 1 0.021165 0.005487 -0.003302 0.000000 0.000000 0.000000
# 2 0.005487 0.021696 -0.003936 0.000000 0.000000 0.000000
# 3 -0.003302 -0.003936 0.004432 0.000000 0.000000 0.000000
# 4 0.000000 0.000000 0.000000 0.016773 0.000000 0.000000
# 5 0.000000 0.000000 0.000000 0.000000 0.059086 0.000000
# 6 0.000000 0.000000 0.000000 0.000000 0.000000 0.012801
#
#
# Mechanical properties :
#
#
# Convention : Reuss Voigt Hill
#
# Bulk Modulus (GPa) = 22.83700 60.10642 41.47171
# Shear Modulus (GPa) = 32.45629 52.95017 42.70323
#
# Velocity S-wave (km/s) = 3.57886 4.57118 4.10512
# Velocity P-wave (km/s) = 5.10782 7.18197 6.23180
#
# Compressibility (1/GPa) = 0.04378859
#
# Stress axis : x y z
#
# Youngs Moduli (GPa) = 47.24742 46.09210 225.63648
#
# Poissons Ratio (x) = -0.25289 0.74509
# Poissons Ratio (y) = -0.25922 0.88821
# Poissons Ratio (z) = 0.15602 0.18144
#
# Static dielectric constant tensor:
#      x y z
#    x 1.891210 0.000000 0.000000 
#    y 0.000000 2.121130 0.000000 
#    z 0.000000 0.000000 2.157210 
# 
# From -- ./inp_files/5067.got.cif
#   From: 2010.05.17/outbox.cif.g08.bks.cpg/sg26_3_cif.got.tgz:5067.got - 2010.06.04 01:07:29.
