data_PCOD9338617
_publ_section_title
;
Structure prediction by ZEFSAII (Michael W. Deem and Ramdas Pophale) SiO2 
 PCOD9338617
Probable space group: P M C 21
;
_chemical_formula_sum "Si O2"
_cell_formula_units_Z 14
_cell_length_a 8.890032
_cell_length_b 9.134648
_cell_length_c 7.202049
_cell_angle_alpha 90.000000
_cell_angle_beta 90.000000
_cell_angle_gamma 90.000000
_cell_volume 584.859048
_symmetry_space_group_name_H-M "P M C 21"
_symmetry_group_IT_number 26
_symmetry_cell_setting 'orthorhombic'
loop_
_space_group_symop_operation_xyz
x,y,z
-x,-y,1/2+z
-x,y,z
x,-y,1/2+z
loop_
_atom_site_type_symbol
_atom_site_label
_atom_site_fract_x
_atom_site_fract_y
_atom_site_fract_z
Si Si1 0.000000 0.702774 0.677511
Si Si2 0.500000 0.954596 0.104936
Si Si3 0.000000 0.354233 0.742892
Si Si4 0.500000 0.542995 0.803527
Si Si5 0.500000 0.248818 0.955406
Si Si6 0.750303 0.748108 0.954733
O O1 0.000000 0.701599 0.454966
O O2 0.855735 0.775362 0.774769
O O3 0.000000 0.531286 0.740135
O O4 0.500000 0.887881 0.312306
O O5 0.649334 0.884225 0.013511
O O6 0.500000 0.129002 0.123319
O O7 0.143177 0.297280 0.627176
O O8 0.500000 0.631132 0.286581
O O9 0.500000 0.386212 0.098523
O O10 0.648578 0.610432 0.897484
#
# Coordination Sequence:
#
# PCOD9338617 Si02
#       6
#     2   2   2   2   2   4
#     4  11  23  38  69 105 160 201 264 321 375 457
#     4  11  26  49  75 112 163 192 248 329 411 453
#     4  11  23  38  69 107 156 205 262 319 377 457
#     4  11  26  43  83 112 145 196 276 321 375 461
#     4  12  28  48  76 124 154 204 250 334 398 462
#     4  10  24  45  70 117 150 202 258 324 386 465
#
# _framework density 23.937391000000002
#
# number of rings (size 3 to 8) (size 9 to 14) (size 15 to 20)
#    0.000    1.143    2.857    3.429   12.000    0.000 
#    0.000    0.000    0.000   34.286    0.000    0.000 
#    0.000    0.000    0.000    0.000    0.000    0.000 
#
# Total GULP energy -77994.943254 kJ/mol
# GULP energy per Si atom -5571.067375 kJ/mol
# Density = 2.388291 g / cm^3
# Si number density = 23.937391 Si / 1000 Ang^3
#
#
#
# Elastic Constant Matrix: (Units=GPa)
#
#
# Indices 1 2 3 4 5 6 
#
# 1 129.4802 11.8988 31.8638 0.0000 0.0000 0.0000
# 2 11.8988 123.4669 -19.4807 0.0000 0.0000 0.0000
# 3 31.8638 -19.4807 166.7293 0.0000 0.0000 0.0000
# 4 0.0000 0.0000 0.0000 42.7512 0.0000 0.0000
# 5 0.0000 0.0000 0.0000 0.0000 14.2095 0.0000
# 6 0.0000 0.0000 0.0000 0.0000 0.0000 20.6677
#
#
#
# Elastic Compliance Matrix: (Units=1/GPa)
#
#
# Indices 1 2 3 4 5 6 
#
# 1 0.008239 -0.001062 -0.001699 0.000000 0.000000 0.000000
# 2 -0.001062 0.008388 0.001183 0.000000 0.000000 0.000000
# 3 -0.001699 0.001183 0.006461 0.000000 0.000000 0.000000
# 4 0.000000 0.000000 0.000000 0.023391 0.000000 0.000000
# 5 0.000000 0.000000 0.000000 0.000000 0.070375 0.000000
# 6 0.000000 0.000000 0.000000 0.000000 0.000000 0.048385
#
#
# Mechanical properties :
#
#
# Convention : Reuss Voigt Hill
#
# Bulk Modulus (GPa) = 50.16897 52.02668 51.09783
# Shear Modulus (GPa) = 28.56522 41.88534 35.22528
#
# Velocity S-wave (km/s) = 3.45821 4.18758 3.84025
# Velocity P-wave (km/s) = 6.07861 6.72033 6.40751
#
# Compressibility (1/GPa) = 0.01993264
#
# Stress axis : x y z
#
# Youngs Moduli (GPa) = 121.37702 119.21298 154.78449
#
# Poissons Ratio (x) = 0.12660 0.26292
# Poissons Ratio (y) = 0.12890 -0.18312
# Poissons Ratio (z) = 0.20617 -0.14104
#
# Static dielectric constant tensor:
#      x y z
#    x 1.869260 0.000000 0.000000 
#    y 0.000000 1.840300 0.000000 
#    z 0.000000 0.000000 2.022870 
# 
# From -- ./inp_files/1187.got.cif
#   From: 2010.05.17/outbox.cif.g08.bks.cpg/sg26_1_cif.got.tgz:1187.got - 2010.06.04 01:07:29.
