data_PCOD9338321
_publ_section_title
;
Structure prediction by ZEFSAII (Michael W. Deem and Ramdas Pophale) SiO2 
 PCOD9338321
Probable space group: P M C 21
;
_chemical_formula_sum "Si O2"
_cell_formula_units_Z 32
_cell_length_a 7.607188
_cell_length_b 16.486976
_cell_length_c 10.761867
_cell_angle_alpha 90.000000
_cell_angle_beta 90.000000
_cell_angle_gamma 90.000000
_cell_volume 1349.748258
_symmetry_space_group_name_H-M "P M C 21"
_symmetry_group_IT_number 26
_symmetry_cell_setting 'orthorhombic'
loop_
_space_group_symop_operation_xyz
x,y,z
-x,-y,1/2+z
-x,y,z
x,-y,1/2+z
loop_
_atom_site_type_symbol
_atom_site_label
_atom_site_fract_x
_atom_site_fract_y
_atom_site_fract_z
Si Si1 0.699256 0.156067 0.500000
Si Si2 0.198628 0.006432 0.346176
Si Si3 0.201478 0.747460 0.522988
Si Si4 0.703184 0.763338 0.249327
Si Si5 0.796846 0.681204 0.885260
Si Si6 0.205135 0.407913 0.639975
Si Si7 0.782702 0.917913 0.590953
Si Si8 0.212958 0.589470 0.634686
O O1 0.500000 0.125659 0.515470
O O2 0.803905 0.091606 0.420332
O O3 0.772768 0.182377 0.634942
O O4 0.693588 0.239775 0.424458
O O5 0.274756 0.027673 0.209450
O O6 0.000000 0.977161 0.323876
O O7 0.276762 0.949669 0.455050
O O8 0.203788 0.772591 0.379752
O O9 0.275324 0.823775 0.599859
O O10 0.275864 0.656153 0.534462
O O11 0.000000 0.740343 0.565600
O O12 0.500000 0.785305 0.265772
O O13 0.712822 0.668787 0.209881
O O14 0.746725 0.637355 0.760236
O O15 0.000000 0.707148 0.874898
O O16 0.787094 0.616891 0.996089
O O17 0.281265 0.498179 0.647192
O O18 0.000000 0.409121 0.680455
O O19 0.000000 0.919646 0.591767
O O20 0.000000 0.578552 0.619185
#
# Coordination Sequence:
#
# PCOD9338321 Si02
#       8
#     4   4   4   4   4   4   4   4
#     4  10  21  37  56  79 109 146 190 234 279 332
#     4  10  20  37  62  90 119 149 187 233 284 342
#     4  10  20  35  57  84 115 150 188 233 287 341
#     4  10  22  38  54  78 114 151 190 237 283 335
#     4   9  17  32  54  79 107 139 178 225 279 335
#     4   9  18  32  54  82 108 142 185 229 279 337
#     4   9  20  36  59  92 123 148 186 238 288 340
#     4   9  18  31  54  84 111 139 180 233 281 332
#
# _framework density 23.708126
#
# number of rings (size 3 to 8) (size 9 to 14) (size 15 to 20)
#    0.000    2.500    0.000    1.500    3.500    3.500 
#    0.000    5.000    0.000    0.000    0.000    0.000 
#    0.000    0.000    0.000    0.000    0.000    0.000 
#
# Total GULP energy -178563.541801 kJ/mol
# GULP energy per Si atom -5580.110681 kJ/mol
# Density = 2.365417 g / cm^3
# Si number density = 23.708126 Si / 1000 Ang^3
#
#
#
# Elastic Constant Matrix: (Units=GPa)
#
#
# Indices 1 2 3 4 5 6 
#
# 1 45.9330 0.9177 3.9783 0.0000 0.0000 0.0000
# 2 0.9177 92.7953 11.9971 0.0000 0.0000 0.0000
# 3 3.9783 11.9971 93.6640 0.0000 0.0000 0.0000
# 4 0.0000 0.0000 0.0000 -8.4252 0.0000 0.0000
# 5 0.0000 0.0000 0.0000 0.0000 -14.9124 0.0000
# 6 0.0000 0.0000 0.0000 0.0000 0.0000 -43.1261
#
#
#
# Elastic Compliance Matrix: (Units=1/GPa)
#
#
# Indices 1 2 3 4 5 6 
#
# 1 0.021852 -0.000098 -0.000916 0.000000 0.000000 0.000000
# 2 -0.000098 0.010958 -0.001399 0.000000 0.000000 0.000000
# 3 -0.000916 -0.001399 0.010895 0.000000 0.000000 0.000000
# 4 0.000000 0.000000 0.000000 -0.118691 0.000000 0.000000
# 5 0.000000 0.000000 0.000000 0.000000 -0.067058 0.000000
# 6 0.000000 0.000000 0.000000 0.000000 0.000000 -0.023188
#
#
# Mechanical properties :
#
#
# Convention : Reuss Voigt Hill
#
# Bulk Modulus (GPa) = 25.72059 29.57539 27.64799
# Shear Modulus (GPa) = -33.91055 1.07389 -16.41833
#
# Velocity S-wave (km/s) = -3.78608 0.67375 -2.63443
# Velocity P-wave (km/s) = 2.87056 3.62038 1.55997
#
# Compressibility (1/GPa) = 0.03887935
#
# Stress axis : x y z
#
# Youngs Moduli (GPa) = 45.76223 91.25503 91.78860
#
# Poissons Ratio (x) = 0.00892 0.08404
# Poissons Ratio (y) = 0.00447 0.12845
# Poissons Ratio (z) = 0.04190 0.12771
#
# Static dielectric constant tensor:
#      x y z
#    x 1.973520 0.000000 0.000000 
#    y 0.000000 1.929830 0.000000 
#    z 0.000000 0.000000 1.895530 
# 
# From -- ./inp_files/3088.got.cif
#   From: 2010.05.17/outbox.cif.g08.bks.cpg/sg26_2_cif.got.tgz:3088.got - 2010.06.04 01:07:29.
