data_PCOD9338591
_publ_section_title
;
Structure prediction by ZEFSAII (Michael W. Deem and Ramdas Pophale) SiO2 
 PCOD9338591
Probable space group: P M C 21
;
_chemical_formula_sum "Si O2"
_cell_formula_units_Z 32
_cell_length_a 9.015032
_cell_length_b 15.394920
_cell_length_c 12.119221
_cell_angle_alpha 90.000000
_cell_angle_beta 90.000000
_cell_angle_gamma 90.000000
_cell_volume 1681.974527
_symmetry_space_group_name_H-M "P M C 21"
_symmetry_group_IT_number 26
_symmetry_cell_setting 'orthorhombic'
loop_
_space_group_symop_operation_xyz
x,y,z
-x,-y,1/2+z
-x,y,z
x,-y,1/2+z
loop_
_atom_site_type_symbol
_atom_site_label
_atom_site_fract_x
_atom_site_fract_y
_atom_site_fract_z
Si Si1 0.324905 0.889634 0.325990
Si Si2 0.675036 0.088247 0.264333
Si Si3 0.175811 0.393604 0.834191
Si Si4 0.177364 0.242421 0.659310
Si Si5 0.327064 0.332613 0.058171
Si Si6 0.673475 0.573002 0.782750
Si Si7 0.321517 0.748796 0.918648
Si Si8 0.824746 0.844099 0.557163
O O1 0.500000 0.869830 0.327086
O O2 0.249544 0.837633 0.225858
O O3 0.250470 0.860446 0.439627
O O4 0.307004 0.993158 0.315385
O O5 0.500000 0.101400 0.239447
O O6 0.720260 0.166304 0.346396
O O7 0.765392 0.092259 0.151148
O O8 0.208767 0.328674 0.732537
O O9 0.224923 0.491413 0.809356
O O10 0.000000 0.387842 0.856458
O O11 0.266144 0.363208 0.941179
O O12 0.243889 0.250118 0.537220
O O13 0.000000 0.231735 0.654237
O O14 0.500000 0.307332 0.050844
O O15 0.314696 0.403968 0.153590
O O16 0.230647 0.250493 0.094249
O O17 0.500000 0.552198 0.806411
O O18 0.711144 0.659917 0.852035
O O19 0.500000 0.752316 0.933513
O O20 0.000000 0.847684 0.546215
#
# Coordination Sequence:
#
# PCOD9338591 Si02
#       8
#     4   4   4   4   4   4   4   4
#     4  11  24  42  68  94 123 169 216 261 309 367
#     4  10  23  44  67  93 124 165 216 260 307 372
#     4  11  25  42  62  92 130 167 206 257 316 378
#     4  11  25  43  61  91 131 169 207 257 319 377
#     4  11  22  42  69  93 122 163 214 264 309 369
#     4  10  23  42  66  94 122 160 211 261 309 369
#     4  10  22  43  66  91 124 165 212 261 310 372
#     4  12  24  40  65  96 130 164 204 261 325 376
#
# _framework density 19.025259999999999
#
# number of rings (size 3 to 8) (size 9 to 14) (size 15 to 20)
#    0.000    1.250    2.500    2.625    3.500    4.500 
#    0.000    0.000    0.000    0.000    0.000    0.000 
#    0.000    0.000    0.000    0.000    0.000    0.000 
#
# Total GULP energy -178882.041181 kJ/mol
# GULP energy per Si atom -5590.063787 kJ/mol
# Density = 1.898196 g / cm^3
# Si number density = 19.025260 Si / 1000 Ang^3
#
#
#
# Elastic Constant Matrix: (Units=GPa)
#
#
# Indices 1 2 3 4 5 6 
#
# 1 62.8471 42.2619 48.5523 0.0000 0.0000 0.0000
# 2 42.2619 86.1102 28.3653 0.0000 0.0000 0.0000
# 3 48.5523 28.3653 116.7261 0.0000 0.0000 0.0000
# 4 0.0000 0.0000 0.0000 16.7455 0.0000 0.0000
# 5 0.0000 0.0000 0.0000 0.0000 -77.4806 0.0000
# 6 0.0000 0.0000 0.0000 0.0000 0.0000 68.0827
#
#
#
# Elastic Compliance Matrix: (Units=1/GPa)
#
#
# Indices 1 2 3 4 5 6 
#
# 1 0.032324 -0.012430 -0.010424 0.000000 0.000000 0.000000
# 2 -0.012430 0.017404 0.000941 0.000000 0.000000 0.000000
# 3 -0.010424 0.000941 0.012674 0.000000 0.000000 0.000000
# 4 0.000000 0.000000 0.000000 0.059718 0.000000 0.000000
# 5 0.000000 0.000000 0.000000 0.000000 -0.012906 0.000000
# 6 0.000000 0.000000 0.000000 0.000000 0.000000 0.014688
#
#
# Mechanical properties :
#
#
# Convention : Reuss Voigt Hill
#
# Bulk Modulus (GPa) = 53.83658 56.00471 54.92064
# Shear Modulus (GPa) = 28.74889 11.23643 19.99266
#
# Velocity S-wave (km/s) = 3.89149 2.43288 3.24520
# Velocity P-wave (km/s) = 6.96782 6.11496 6.55527
#
# Compressibility (1/GPa) = 0.01857473
#
# Stress axis : x y z
#
# Youngs Moduli (GPa) = 30.93695 57.45921 78.89915
#
# Poissons Ratio (x) = 0.71423 0.82248
# Poissons Ratio (y) = 0.38455 -0.07426
# Poissons Ratio (z) = 0.32250 -0.05408
#
# Static dielectric constant tensor:
#      x y z
#    x 1.643910 0.000000 0.000000 
#    y 0.000000 1.669220 0.000000 
#    z 0.000000 0.000000 1.636840 
# 
# From -- ./inp_files/2989.got.cif
#   From: 2010.05.17/outbox.cif.g08.bks.cpg/sg26_2_cif.got.tgz:2989.got - 2010.06.04 01:07:29.
