data_PCOD9338099
_publ_section_title
;
Structure prediction by ZEFSAII (Michael W. Deem and Ramdas Pophale) SiO2 
 PCOD9338099
Probable space group: P M C 21
;
_chemical_formula_sum "Si O2"
_cell_formula_units_Z 32
_cell_length_a 7.744004
_cell_length_b 12.052089
_cell_length_c 16.469921
_cell_angle_alpha 90.000000
_cell_angle_beta 90.000000
_cell_angle_gamma 90.000000
_cell_volume 1537.161204
_symmetry_space_group_name_H-M "P M C 21"
_symmetry_group_IT_number 26
_symmetry_cell_setting 'orthorhombic'
loop_
_space_group_symop_operation_xyz
x,y,z
-x,-y,1/2+z
-x,y,z
x,-y,1/2+z
loop_
_atom_site_type_symbol
_atom_site_label
_atom_site_fract_x
_atom_site_fract_y
_atom_site_fract_z
Si Si1 0.297708 0.584389 0.785860
Si Si2 0.290427 0.219386 0.180456
Si Si3 0.287881 0.922000 0.837768
Si Si4 0.801425 0.455643 0.572374
Si Si5 0.702363 0.361345 0.744577
Si Si6 0.699946 0.272869 0.447909
Si Si7 0.295994 0.828489 0.348183
Si Si8 0.796621 0.304216 0.009897
O O1 0.500000 0.569817 0.764639
O O2 0.223782 0.663093 0.716476
O O3 0.220622 0.463318 0.795956
O O4 0.296008 0.652784 0.867304
O O5 0.500000 0.218636 0.180363
O O6 0.238147 0.129192 0.249199
O O7 0.233703 0.222812 0.087214
O O8 0.500000 0.914961 0.839392
O O9 0.231374 0.843607 0.913008
O O10 0.224627 0.046932 0.850389
O O11 0.716867 0.408812 0.654250
O O12 0.791775 0.350240 0.512700
O O13 0.728479 0.570977 0.533608
O O14 0.000000 0.479286 0.592168
O O15 0.500000 0.349218 0.763730
O O16 0.776686 0.244603 0.773334
O O17 0.500000 0.258678 0.474506
O O18 0.500000 0.848315 0.336561
O O19 0.276046 0.754560 0.429353
O O20 0.000000 0.316464 0.996206
#
# Coordination Sequence:
#
# PCOD9338099 Si02
#       8
#     4   4   4   4   4   4   4   4
#     4   8  14  27  51  80 102 129 174 221 270 319
#     4   9  16  32  59  82 107 142 181 232 278 321
#     4   8  17  36  60  86 110 136 183 236 278 320
#     4  11  23  36  51  79 117 149 182 224 274 332
#     4  10  19  33  55  80 108 142 182 226 277 333
#     4   9  17  33  58  82 106 138 177 225 274 323
#     4  10  21  38  60  85 111 145 188 234 281 329
#     4  11  23  37  54  82 117 151 187 226 276 337
#
# _framework density 20.817595000000001
#
# number of rings (size 3 to 8) (size 9 to 14) (size 15 to 20)
#    0.000    2.500    1.250    3.000    0.000    3.000 
#    2.250    4.375    0.000    0.000    0.000    0.000 
#    0.000    0.000    0.000    0.000    0.000    0.000 
#
# Total GULP energy -178165.139133 kJ/mol
# GULP energy per Si atom -5567.660598 kJ/mol
# Density = 2.077021 g / cm^3
# Si number density = 20.817595 Si / 1000 Ang^3
#
#
#
# Elastic Constant Matrix: (Units=GPa)
#
#
# Indices 1 2 3 4 5 6 
#
# 1 31.7463 4.9110 -9.5155 0.0000 0.0000 0.0000
# 2 4.9110 177.5686 51.2786 0.0000 0.0000 0.0000
# 3 -9.5155 51.2786 52.7472 0.0000 0.0000 0.0000
# 4 0.0000 0.0000 0.0000 23.5652 0.0000 0.0000
# 5 0.0000 0.0000 0.0000 0.0000 87.9504 0.0000
# 6 0.0000 0.0000 0.0000 0.0000 0.0000 5.3143
#
#
#
# Elastic Compliance Matrix: (Units=1/GPa)
#
#
# Indices 1 2 3 4 5 6 
#
# 1 0.035138 -0.003896 0.010126 0.000000 0.000000 0.000000
# 2 -0.003896 0.008262 -0.008735 0.000000 0.000000 0.000000
# 3 0.010126 -0.008735 0.029277 0.000000 0.000000 0.000000
# 4 0.000000 0.000000 0.000000 0.042436 0.000000 0.000000
# 5 0.000000 0.000000 0.000000 0.000000 0.011370 0.000000
# 6 0.000000 0.000000 0.000000 0.000000 0.000000 0.188173
#
#
# Mechanical properties :
#
#
# Convention : Reuss Voigt Hill
#
# Bulk Modulus (GPa) = 14.77814 39.49002 27.13408
# Shear Modulus (GPa) = 14.61053 37.72518 26.16785
#
# Velocity S-wave (km/s) = 2.65209 4.26159 3.54928
# Velocity P-wave (km/s) = 4.06108 6.57461 5.46434
#
# Compressibility (1/GPa) = 0.06766753
#
# Stress axis : x y z
#
# Youngs Moduli (GPa) = 28.45942 121.03938 34.15703
#
# Poissons Ratio (x) = 0.47159 -0.34589
# Poissons Ratio (y) = 0.11088 0.29835
# Poissons Ratio (z) = -0.28819 1.05723
#
# Static dielectric constant tensor:
#      x y z
#    x 1.752800 0.000000 0.000000 
#    y 0.000000 1.813310 0.000000 
#    z 0.000000 0.000000 1.792040 
# 
# From -- ./inp_files/4299.got.cif
#   From: 2010.05.17/outbox.cif.g08.bks.cpg/sg26_3_cif.got.tgz:4299.got - 2010.06.04 01:07:29.
