data_PCOD9338723
_publ_section_title
;
Structure prediction by ZEFSAII (Michael W. Deem and Ramdas Pophale) SiO2 
 PCOD9338723
Probable space group: P C C 2
;
_chemical_formula_sum "Si O2"
_cell_formula_units_Z 24
_cell_length_a 6.881660
_cell_length_b 27.113926
_cell_length_c 5.345382
_cell_angle_alpha 90.000000
_cell_angle_beta 90.000000
_cell_angle_gamma 90.000000
_cell_volume 997.388520
_symmetry_space_group_name_H-M "P C C 2"
_symmetry_group_IT_number 27
_symmetry_cell_setting 'orthorhombic'
loop_
_space_group_symop_operation_xyz
x,y,z
-x,-y,z
-x,y,1/2+z
x,-y,1/2+z
loop_
_atom_site_type_symbol
_atom_site_label
_atom_site_fract_x
_atom_site_fract_y
_atom_site_fract_z
Si Si1 0.222456 0.519317 0.488990
Si Si2 0.626340 0.126792 0.863628
Si Si3 0.872002 0.628894 0.861797
Si Si4 0.276067 0.980843 0.005996
Si Si5 0.735068 0.232163 0.003244
Si Si6 0.292556 0.271101 0.002205
O O1 0.304532 0.514806 0.768127
O O2 0.220943 0.575063 0.393339
O O3 0.000000 0.500000 0.525027
O O4 0.464874 0.128073 0.086472
O O5 0.729365 0.074713 0.906744
O O6 0.747267 0.176225 0.910755
O O7 0.972568 0.632509 0.590306
O O8 0.720943 0.673240 0.904776
O O9 0.500000 0.000000 0.040012
O O10 0.195560 0.984787 0.285604
O O11 0.800929 0.266938 0.776355
O O12 0.507992 0.248861 0.035980
O O13 0.807527 0.238803 0.285008
#
# Coordination Sequence:
#
# PCOD9338723 Si02
#       6
#     4   4   4   4   4   4
#     4  10  16  30  48  67  99 115 142 180 213 290
#     4  12  16  25  43  57  81 118 162 199 216 263
#     4  12  21  32  50  77 101 121 147 183 249 287
#     4  10  16  22  31  54  84 111 147 184 230 278
#     4  10  19  35  47  66  87 126 180 192 216 256
#     4  10  20  32  49  67  93 121 157 207 220 263
#
# _framework density 24.062839
#
# number of rings (size 3 to 8) (size 9 to 14) (size 15 to 20)
#    0.000    1.333   10.000    1.000    0.000    0.000 
#    0.000    0.000    0.000    0.000    0.000   14.000 
#    0.000    0.000    0.000    0.000    0.000  203.333 
#
# Total GULP energy -134008.266152 kJ/mol
# GULP energy per Si atom -5583.677756 kJ/mol
# Density = 2.400807 g / cm^3
# Si number density = 24.062839 Si / 1000 Ang^3
#
#
#
# Elastic Constant Matrix: (Units=GPa)
#
#
# Indices 1 2 3 4 5 6 
#
# 1 66.6780 -21.1856 -23.7522 0.0000 0.0000 0.0000
# 2 -21.1856 124.0190 -28.5493 0.0000 0.0000 0.0000
# 3 -23.7522 -28.5493 159.9501 0.0000 0.0000 0.0000
# 4 0.0000 0.0000 0.0000 44.2330 0.0000 0.0000
# 5 0.0000 0.0000 0.0000 0.0000 -52.3732 0.0000
# 6 0.0000 0.0000 0.0000 0.0000 0.0000 13.0617
#
#
#
# Elastic Compliance Matrix: (Units=1/GPa)
#
#
# Indices 1 2 3 4 5 6 
#
# 1 0.017326 0.003704 0.003234 0.000000 0.000000 0.000000
# 2 0.003704 0.009201 0.002192 0.000000 0.000000 0.000000
# 3 0.003234 0.002192 0.007124 0.000000 0.000000 0.000000
# 4 0.000000 0.000000 0.000000 0.022608 0.000000 0.000000
# 5 0.000000 0.000000 0.000000 0.000000 -0.019094 0.000000
# 6 0.000000 0.000000 0.000000 0.000000 0.000000 0.076560
#
#
# Mechanical properties :
#
#
# Convention : Reuss Voigt Hill
#
# Bulk Modulus (GPa) = 19.26329 22.63031 20.94680
# Shear Modulus (GPa) = 44.33921 29.25990 36.79955
#
# Velocity S-wave (km/s) = 4.29726 3.49087 3.91488
# Velocity P-wave (km/s) = 5.71355 5.06689 5.39991
#
# Compressibility (1/GPa) = 0.05191222
#
# Stress axis : x y z
#
# Youngs Moduli (GPa) = 57.71508 108.68690 140.38015
#
# Poissons Ratio (x) = -0.40261 -0.45401
# Poissons Ratio (y) = -0.21379 -0.30776
# Poissons Ratio (z) = -0.18666 -0.23828
#
# Static dielectric constant tensor:
#      x y z
#    x 4.067750 0.000000 0.000000 
#    y 0.000000 1.861480 0.000000 
#    z 0.000000 0.000000 1.995140 
# 
# From -- ./inp_files/182.got.cif
#   From: 2010.05.17/outbox.cif.g08.bks.cpg/sg27_1_cif.got.tgz:182.got - 2010.06.04 01:11:05.
