data_PCOD9338070
_publ_section_title
;
Structure prediction by ZEFSAII (Michael W. Deem and Ramdas Pophale) SiO2 
 PCOD9338070
Probable space group: P M C 21
;
_chemical_formula_sum "Si O2"
_cell_formula_units_Z 32
_cell_length_a 8.688391
_cell_length_b 11.577937
_cell_length_c 16.823515
_cell_angle_alpha 90.000000
_cell_angle_beta 90.000000
_cell_angle_gamma 90.000000
_cell_volume 1692.338673
_symmetry_space_group_name_H-M "P M C 21"
_symmetry_group_IT_number 26
_symmetry_cell_setting 'orthorhombic'
loop_
_space_group_symop_operation_xyz
x,y,z
-x,-y,1/2+z
-x,y,z
x,-y,1/2+z
loop_
_atom_site_type_symbol
_atom_site_label
_atom_site_fract_x
_atom_site_fract_y
_atom_site_fract_z
Si Si1 0.317086 0.944185 0.020570
Si Si2 0.314959 0.200530 0.969296
Si Si3 0.183204 0.284121 0.131087
Si Si4 0.678439 0.792159 0.870473
Si Si5 0.681518 0.566441 0.775808
Si Si6 0.818125 0.317451 0.810305
Si Si7 0.679452 0.149724 0.687187
Si Si8 0.175288 0.065336 0.239387
O O1 0.500000 0.963226 0.034501
O O2 0.253616 0.897650 0.103952
O O3 0.302256 0.839963 0.958440
O O4 0.260554 0.067488 0.986307
O O5 0.500000 0.200282 0.966659
O O6 0.254588 0.252799 0.886659
O O7 0.258543 0.277474 0.044203
O O8 0.252136 0.374145 0.195284
O O9 0.208677 0.156730 0.169370
O O10 0.000000 0.302354 0.125155
O O11 0.500000 0.819350 0.846824
O O12 0.700054 0.659217 0.847266
O O13 0.799687 0.861212 0.818043
O O14 0.500000 0.546838 0.763948
O O15 0.761476 0.448320 0.800493
O O16 0.766858 0.252095 0.730142
O O17 0.000000 0.313376 0.819106
O O18 0.500000 0.179382 0.678802
O O19 0.704313 0.037805 0.741949
O O20 0.000000 0.023102 0.232735
#
# Coordination Sequence:
#
# PCOD9338070 Si02
#       8
#     4   4   4   4   4   4   4   4
#     4   9  19  35  59  91 121 149 190 248 301 354
#     4  11  21  38  64  94 123 158 205 251 304 368
#     4  10  20  36  60  90 124 159 198 250 304 357
#     4   9  18  35  60  87 114 149 196 247 296 349
#     4  10  21  40  64  87 115 158 211 256 300 364
#     4  12  26  43  60  85 123 164 205 257 317 367
#     4  11  21  37  59  84 119 158 200 247 299 359
#     4  10  19  32  54  86 121 155 191 234 297 358
#
# _framework density 18.908745
#
# number of rings (size 3 to 8) (size 9 to 14) (size 15 to 20)
#    0.000    1.750    1.250    3.750    0.000    2.500 
#    2.250    1.875    0.000    0.000    0.000    0.000 
#    0.000    0.000    0.000    0.000    0.000    0.000 
#
# Total GULP energy -178505.866589 kJ/mol
# GULP energy per Si atom -5578.308331 kJ/mol
# Density = 1.886571 g / cm^3
# Si number density = 18.908745 Si / 1000 Ang^3
#
#
#
# Elastic Constant Matrix: (Units=GPa)
#
#
# Indices 1 2 3 4 5 6 
#
# 1 74.2482 43.3497 34.9077 0.0000 0.0000 0.0000
# 2 43.3497 109.3459 66.1194 0.0000 0.0000 0.0000
# 3 34.9077 66.1194 82.2209 0.0000 0.0000 0.0000
# 4 0.0000 0.0000 0.0000 19.5424 0.0000 0.0000
# 5 0.0000 0.0000 0.0000 0.0000 20.5350 0.0000
# 6 0.0000 0.0000 0.0000 0.0000 0.0000 20.9840
#
#
#
# Elastic Compliance Matrix: (Units=1/GPa)
#
#
# Indices 1 2 3 4 5 6 
#
# 1 0.018092 -0.004921 -0.003724 0.000000 0.000000 0.000000
# 2 -0.004921 0.019140 -0.013303 0.000000 0.000000 0.000000
# 3 -0.003724 -0.013303 0.024441 0.000000 0.000000 0.000000
# 4 0.000000 0.000000 0.000000 0.051171 0.000000 0.000000
# 5 0.000000 0.000000 0.000000 0.000000 0.048697 0.000000
# 6 0.000000 0.000000 0.000000 0.000000 0.000000 0.047655
#
#
# Mechanical properties :
#
#
# Convention : Reuss Voigt Hill
#
# Bulk Modulus (GPa) = 56.24846 61.61871 58.93358
# Shear Modulus (GPa) = 19.30374 20.30817 19.80596
#
# Velocity S-wave (km/s) = 3.19860 3.28076 3.23994
# Velocity P-wave (km/s) = 6.59191 6.85634 6.72543
#
# Compressibility (1/GPa) = 0.01777826
#
# Stress axis : x y z
#
# Youngs Moduli (GPa) = 55.27259 52.24704 40.91485
#
# Poissons Ratio (x) = 0.25709 0.15238
# Poissons Ratio (y) = 0.27197 0.54427
# Poissons Ratio (z) = 0.20585 0.69502
#
# Static dielectric constant tensor:
#      x y z
#    x 1.644590 0.000000 0.000000 
#    y 0.000000 1.663320 0.000000 
#    z 0.000000 0.000000 1.682010 
# 
# From -- ./inp_files/4215.got.cif
#   From: 2010.05.17/outbox.cif.g08.bks.cpg/sg26_3_cif.got.tgz:4215.got - 2010.06.04 01:07:29.
