data_PCOD9338149
_publ_section_title
;
Structure prediction by ZEFSAII (Michael W. Deem and Ramdas Pophale) SiO2 
 PCOD9338149
Probable space group: P M C 21
;
_chemical_formula_sum "Si O2"
_cell_formula_units_Z 32
_cell_length_a 7.637642
_cell_length_b 12.585364
_cell_length_c 14.598160
_cell_angle_alpha 90.000000
_cell_angle_beta 90.000000
_cell_angle_gamma 90.000000
_cell_volume 1403.211703
_symmetry_space_group_name_H-M "P M C 21"
_symmetry_group_IT_number 26
_symmetry_cell_setting 'orthorhombic'
loop_
_space_group_symop_operation_xyz
x,y,z
-x,-y,1/2+z
-x,y,z
x,-y,1/2+z
loop_
_atom_site_type_symbol
_atom_site_label
_atom_site_fract_x
_atom_site_fract_y
_atom_site_fract_z
Si Si1 0.710098 0.918097 0.161970
Si Si2 0.791282 0.154461 0.174678
Si Si3 0.700829 0.575277 0.000211
Si Si4 0.789755 0.170461 0.965521
Si Si5 0.293529 0.063162 0.448939
Si Si6 0.284369 0.680215 0.188250
Si Si7 0.198310 0.733700 0.845457
Si Si8 0.703900 0.608514 0.378995
O O1 0.500000 0.915649 0.165107
O O2 0.773000 0.803682 0.197555
O O3 0.761460 0.031774 0.203528
O O4 0.763318 0.925210 0.054890
O O5 0.725636 0.168143 0.071157
O O6 0.721335 0.241266 0.246146
O O7 0.000000 0.169591 0.173112
O O8 0.500000 0.549827 0.025190
O O9 0.704615 0.659477 0.917243
O O10 0.783292 0.470262 0.954812
O O11 0.775031 0.629847 0.091747
O O12 0.000000 0.176609 0.965396
O O13 0.715261 0.271841 0.914875
O O14 0.735944 0.058520 0.921871
O O15 0.500000 0.087329 0.443636
O O16 0.194970 0.149695 0.390274
O O17 0.500000 0.682715 0.188354
O O18 0.224666 0.612159 0.275742
O O19 0.000000 0.692387 0.836747
O O20 0.500000 0.577039 0.370565
#
# Coordination Sequence:
#
# PCOD9338149 Si02
#       8
#     4   4   4   4   4   4   4   4
#     4   9  17  32  55  80 111 150 190 232 281 337
#     4   9  21  37  53  80 120 157 188 230 286 346
#     4  10  21  40  61  83 116 155 196 241 287 339
#     4  10  21  39  58  81 118 155 188 235 291 344
#     4  10  19  34  57  84 114 150 190 234 285 340
#     4   9  18  36  57  83 115 147 188 239 289 338
#     4  11  22  36  56  85 117 152 193 236 286 342
#     4  10  22  38  61  88 113 150 197 243 289 340
#
# _framework density 22.804825999999998
#
# number of rings (size 3 to 8) (size 9 to 14) (size 15 to 20)
#    0.000    2.250    1.250    1.125    1.750    3.500 
#    0.000    1.875    0.000    0.000    0.000    0.000 
#    0.000    0.000    0.000    0.000    0.000    0.000 
#
# Total GULP energy -178680.302283 kJ/mol
# GULP energy per Si atom -5583.759446 kJ/mol
# Density = 2.275292 g / cm^3
# Si number density = 22.804826 Si / 1000 Ang^3
#
#
#
# Elastic Constant Matrix: (Units=GPa)
#
#
# Indices 1 2 3 4 5 6 
#
# 1 47.2842 -9.0791 0.1780 0.0000 0.0000 0.0000
# 2 -9.0791 82.2566 22.5184 0.0000 0.0000 0.0000
# 3 0.1780 22.5184 68.4046 0.0000 0.0000 0.0000
# 4 0.0000 0.0000 0.0000 25.6050 0.0000 0.0000
# 5 0.0000 0.0000 0.0000 0.0000 1.1719 0.0000
# 6 0.0000 0.0000 0.0000 0.0000 0.0000 37.2515
#
#
#
# Elastic Compliance Matrix: (Units=1/GPa)
#
#
# Indices 1 2 3 4 5 6 
#
# 1 0.021660 0.002644 -0.000927 0.000000 0.000000 0.000000
# 2 0.002644 0.013684 -0.004512 0.000000 0.000000 0.000000
# 3 -0.000927 -0.004512 0.016106 0.000000 0.000000 0.000000
# 4 0.000000 0.000000 0.000000 0.039055 0.000000 0.000000
# 5 0.000000 0.000000 0.000000 0.000000 0.853326 0.000000
# 6 0.000000 0.000000 0.000000 0.000000 0.000000 0.026845
#
#
# Mechanical properties :
#
#
# Convention : Reuss Voigt Hill
#
# Bulk Modulus (GPa) = 21.80430 25.01999 23.41215
# Shear Modulus (GPa) = 5.04260 25.09423 15.06842
#
# Velocity S-wave (km/s) = 1.48862 3.32081 2.57331
# Velocity P-wave (km/s) = 3.54072 5.06941 4.37239
#
# Compressibility (1/GPa) = 0.04586251
#
# Stress axis : x y z
#
# Youngs Moduli (GPa) = 46.16809 73.07782 62.08676
#
# Poissons Ratio (x) = -0.19325 0.05755
# Poissons Ratio (y) = -0.12209 0.28011
# Poissons Ratio (z) = 0.04279 0.32970
#
# Static dielectric constant tensor:
#      x y z
#    x 1.858440 0.000000 0.000000 
#    y 0.000000 1.829990 0.000000 
#    z 0.000000 0.000000 1.881200 
# 
# From -- ./inp_files/4181.got.cif
#   From: 2010.05.17/outbox.cif.g08.bks.cpg/sg26_3_cif.got.tgz:4181.got - 2010.06.04 01:07:29.
