data_PCOD9338776
_publ_section_title
;
Structure prediction by ZEFSAII (Michael W. Deem and Ramdas Pophale) SiO2 
 PCOD9338776
Probable space group: P C C 2
;
_chemical_formula_sum "Si O2"
_cell_formula_units_Z 24
_cell_length_a 14.834257
_cell_length_b 5.509759
_cell_length_c 13.421826
_cell_angle_alpha 90.000000
_cell_angle_beta 90.000000
_cell_angle_gamma 90.000000
_cell_volume 1097.008534
_symmetry_space_group_name_H-M "P C C 2"
_symmetry_group_IT_number 27
_symmetry_cell_setting 'orthorhombic'
loop_
_space_group_symop_operation_xyz
x,y,z
-x,-y,z
-x,y,1/2+z
x,-y,1/2+z
loop_
_atom_site_type_symbol
_atom_site_label
_atom_site_fract_x
_atom_site_fract_y
_atom_site_fract_z
Si Si1 0.302221 0.599242 0.598200
Si Si2 0.500000 0.500000 0.565631
Si Si3 0.170951 0.277329 0.459911
Si Si4 0.200539 0.545936 0.277746
Si Si5 0.053280 0.758627 0.144106
Si Si6 0.500000 0.000000 0.437335
Si Si7 0.691020 0.106589 0.403518
O O1 0.403876 0.513282 0.621464
O O2 0.245508 0.407458 0.531015
O O3 0.242591 0.638056 0.696351
O O4 0.311866 0.819172 0.520659
O O5 0.503931 0.747935 0.500054
O O6 0.141932 0.449996 0.369853
O O7 0.091048 0.204316 0.532265
O O8 0.224822 0.070912 0.401988
O O9 0.138959 0.726475 0.215260
O O10 0.284803 0.672265 0.331993
O O11 0.000000 0.500000 0.147652
O O12 0.000000 0.000000 0.172682
O O13 0.406563 0.995552 0.377398
#
# Coordination Sequence:
#
# PCOD9338776 Si02
#       7
#     4   2   4   4   4   2   4
#     4   9  20  39  62  92 137 181 226 271 336 388
#     4  10  18  38  62  94 130 188 228 274 318 394
#     4  10  22  43  70  93 134 179 221 277 346 403
#     4  10  24  43  67 102 135 176 225 287 341 405
#     4  11  28  49  73 100 136 176 225 285 348 418
#     4  10  20  38  66  96 138 180 236 264 322 390
#     4  10  21  40  69  97 137 189 222 280 333 403
#
# _framework density 21.877680999999999
#
# number of rings (size 3 to 8) (size 9 to 14) (size 15 to 20)
#    0.000    2.000    1.667    0.000    9.333    2.000 
#    3.000    0.000    0.000    0.000    0.000    0.000 
#    0.000    0.000    0.000    0.000    0.000    0.000 
#
# Total GULP energy -133791.016212 kJ/mol
# GULP energy per Si atom -5574.625675 kJ/mol
# Density = 2.182789 g / cm^3
# Si number density = 21.877681 Si / 1000 Ang^3
#
#
#
# Elastic Constant Matrix: (Units=GPa)
#
#
# Indices 1 2 3 4 5 6 
#
# 1 69.0148 14.4784 31.7412 0.0000 0.0000 0.0000
# 2 14.4784 61.9588 8.7381 0.0000 0.0000 0.0000
# 3 31.7412 8.7381 104.4363 0.0000 0.0000 0.0000
# 4 0.0000 0.0000 0.0000 5.9296 0.0000 0.0000
# 5 0.0000 0.0000 0.0000 0.0000 14.4063 0.0000
# 6 0.0000 0.0000 0.0000 0.0000 0.0000 25.2087
#
#
#
# Elastic Compliance Matrix: (Units=1/GPa)
#
#
# Indices 1 2 3 4 5 6 
#
# 1 0.017518 -0.003383 -0.005041 0.000000 0.000000 0.000000
# 2 -0.003383 0.016986 -0.000393 0.000000 0.000000 0.000000
# 3 -0.005041 -0.000393 0.011140 0.000000 0.000000 0.000000
# 4 0.000000 0.000000 0.000000 0.168644 0.000000 0.000000
# 5 0.000000 0.000000 0.000000 0.000000 0.069414 0.000000
# 6 0.000000 0.000000 0.000000 0.000000 0.000000 0.039669
#
#
# Mechanical properties :
#
#
# Convention : Reuss Voigt Hill
#
# Bulk Modulus (GPa) = 35.70150 38.36948 37.03549
# Shear Modulus (GPa) = 14.27180 21.13908 17.70544
#
# Velocity S-wave (km/s) = 2.55688 3.11181 2.84789
# Velocity P-wave (km/s) = 5.00709 5.52154 5.27060
#
# Compressibility (1/GPa) = 0.02801003
#
# Stress axis : x y z
#
# Youngs Moduli (GPa) = 57.08492 58.87332 89.76456
#
# Poissons Ratio (x) = 0.19914 0.45252
# Poissons Ratio (y) = 0.19309 0.03529
# Poissons Ratio (z) = 0.28777 0.02314
#
# Static dielectric constant tensor:
#      x y z
#    x 1.820910 0.000000 0.000000 
#    y 0.000000 1.921440 0.000000 
#    z 0.000000 0.000000 1.753740 
# 
# From -- ./inp_files/3037.got.cif
#   From: 2010.05.17/outbox.cif.g08.bks.cpg/sg27_2_cif.got.tgz:3037.got - 2010.06.04 01:11:05.
