data_PCOD9338923
_publ_section_title
;
Structure prediction by ZEFSAII (Michael W. Deem and Ramdas Pophale) SiO2 
 PCOD9338923
Probable space group: P C C 2
;
_chemical_formula_sum "Si O2"
_cell_formula_units_Z 30
_cell_length_a 21.349494
_cell_length_b 5.003029
_cell_length_c 12.519882
_cell_angle_alpha 90.000000
_cell_angle_beta 90.000000
_cell_angle_gamma 90.000000
_cell_volume 1337.275359
_symmetry_space_group_name_H-M "P C C 2"
_symmetry_group_IT_number 27
_symmetry_cell_setting 'orthorhombic'
loop_
_space_group_symop_operation_xyz
x,y,z
-x,-y,z
-x,y,1/2+z
x,-y,1/2+z
loop_
_atom_site_type_symbol
_atom_site_label
_atom_site_fract_x
_atom_site_fract_y
_atom_site_fract_z
Si Si1 0.500000 0.500000 0.736800
Si Si2 0.653559 0.067776 0.738601
Si Si3 0.224951 0.804686 0.619294
Si Si4 0.116414 0.185922 0.297135
Si Si5 0.829468 0.699113 0.523235
Si Si6 0.939098 0.330903 0.199369
Si Si7 0.616538 0.595275 0.860689
Si Si8 0.435733 0.864537 0.563516
O O1 0.548493 0.658665 0.809146
O O2 0.461524 0.682030 0.657898
O O3 0.710250 0.219736 0.680951
O O4 0.628665 0.288070 0.826253
O O5 0.611830 0.964830 0.636598
O O6 0.665440 0.799816 0.806882
O O7 0.204695 0.587091 0.531016
O O8 0.221124 0.096497 0.569308
O O9 0.171630 0.802477 0.710475
O O10 0.146111 0.173412 0.413577
O O11 0.084073 0.472887 0.292387
O O12 0.068071 0.961061 0.254255
O O13 0.889617 0.680612 0.601997
O O14 0.000000 0.500000 0.160321
O O15 0.603793 0.684834 0.981517
O O16 0.500000 0.000000 0.519121
#
# Coordination Sequence:
#
# PCOD9338923 Si02
#       8
#     2   4   4   4   4   4   4   4
#     4  10  22  42  58  86 114 154 190 250 298 392
#     4  11  25  43  59  94 121 157 204 264 309 378
#     4  10  22  40  63  87 126 159 213 263 313 365
#     4  10  21  38  62  92 124 170 213 257 312 364
#     4  10  21  39  65  90 122 172 210 256 310 367
#     4  10  21  38  59  92 131 165 208 260 304 364
#     4  11  25  38  63  85 117 154 198 245 318 376
#     4  11  24  39  62  85 118 157 198 248 316 388
#
# _framework density 22.433675999999998
#
# number of rings (size 3 to 8) (size 9 to 14) (size 15 to 20)
#    0.000    1.600    1.333    2.400    5.600    2.667 
#    0.000    4.000    0.000    0.000    0.000    0.000 
#    0.000    0.000    0.000    0.000    0.000    0.000 
#
# Total GULP energy -167058.152643 kJ/mol
# GULP energy per Si atom -5568.605088 kJ/mol
# Density = 2.238262 g / cm^3
# Si number density = 22.433676 Si / 1000 Ang^3
#
#
#
# Elastic Constant Matrix: (Units=GPa)
#
#
# Indices 1 2 3 4 5 6 
#
# 1 31.3286 9.7690 -13.5098 0.0000 0.0000 0.0000
# 2 9.7690 85.8880 20.8509 0.0000 0.0000 0.0000
# 3 -13.5098 20.8509 27.3765 0.0000 0.0000 0.0000
# 4 0.0000 0.0000 0.0000 32.4575 0.0000 0.0000
# 5 0.0000 0.0000 0.0000 0.0000 0.3065 0.0000
# 6 0.0000 0.0000 0.0000 0.0000 0.0000 22.0428
#
#
#
# Elastic Compliance Matrix: (Units=1/GPa)
#
#
# Indices 1 2 3 4 5 6 
#
# 1 0.052869 -0.015148 0.037627 0.000000 0.000000 0.000000
# 2 -0.015148 0.018624 -0.021660 0.000000 0.000000 0.000000
# 3 0.037627 -0.021660 0.071593 0.000000 0.000000 0.000000
# 4 0.000000 0.000000 0.000000 0.030810 0.000000 0.000000
# 5 0.000000 0.000000 0.000000 0.000000 3.263132 0.000000
# 6 0.000000 0.000000 0.000000 0.000000 0.000000 0.045366
#
#
# Mechanical properties :
#
#
# Convention : Reuss Voigt Hill
#
# Bulk Modulus (GPa) = 6.90967 19.86813 13.38890
# Shear Modulus (GPa) = 1.41683 19.46022 10.43853
#
# Velocity S-wave (km/s) = 0.79557 2.94846 2.15944
# Velocity P-wave (km/s) = 1.98258 4.52402 3.49267
#
# Compressibility (1/GPa) = 0.14472480
#
# Stress axis : x y z
#
# Youngs Moduli (GPa) = 18.91460 53.69278 13.96776
#
# Poissons Ratio (x) = 0.81334 -0.52557
# Poissons Ratio (y) = 0.28652 0.30255
# Poissons Ratio (z) = -0.71171 1.16301
#
# Static dielectric constant tensor:
#      x y z
#    x 2.132380 0.000000 0.000000 
#    y 0.000000 1.837730 0.000000 
#    z 0.000000 0.000000 1.802410 
# 
# From -- ./inp_files/2858.got.cif
#   From: 2010.05.17/outbox.cif.g08.bks.cpg/sg27_2_cif.got.tgz:2858.got - 2010.06.04 01:11:05.
