data_PCOD9338748
_publ_section_title
;
Structure prediction by ZEFSAII (Michael W. Deem and Ramdas Pophale) SiO2 
 PCOD9338748
Probable space group: P C C 2
;
_chemical_formula_sum "Si O2"
_cell_formula_units_Z 20
_cell_length_a 5.249782
_cell_length_b 11.296517
_cell_length_c 13.973085
_cell_angle_alpha 90.000000
_cell_angle_beta 90.000000
_cell_angle_gamma 90.000000
_cell_volume 828.663349
_symmetry_space_group_name_H-M "P C C 2"
_symmetry_group_IT_number 27
_symmetry_cell_setting 'orthorhombic'
loop_
_space_group_symop_operation_xyz
x,y,z
-x,-y,z
-x,y,1/2+z
x,-y,1/2+z
loop_
_atom_site_type_symbol
_atom_site_label
_atom_site_fract_x
_atom_site_fract_y
_atom_site_fract_z
Si Si1 0.000000 0.500000 0.979000
Si Si2 0.580435 0.376120 0.841258
Si Si3 0.000000 0.000000 0.166606
Si Si4 0.670929 0.880717 0.303142
Si Si5 0.289089 0.700996 0.523947
Si Si6 0.228619 0.845838 0.026903
O O1 0.178945 0.584880 0.910749
O O2 0.180262 0.426056 0.050895
O O3 0.500000 0.500000 0.794046
O O4 0.606498 0.256684 0.781034
O O5 0.360247 0.332990 0.914177
O O6 0.780599 0.043148 0.096353
O O7 0.081527 0.101195 0.238946
O O8 0.720818 0.880342 0.417121
O O9 0.500000 0.000000 0.286067
O O10 0.548879 0.757824 0.559967
O O11 0.053074 0.789774 0.531716
#
# Coordination Sequence:
#
# PCOD9338748 Si02
#       6
#     2   4   2   4   4   4
#     4  10  16  38  70 116 132 182 250 300 362 454
#     4   9  20  37  72 108 143 183 245 296 373 438
#     4  12  30  42  70 108 150 202 246 314 374 452
#     4  11  26  45  73 111 145 195 254 307 373 450
#     4  10  20  39  68 107 136 190 236 301 364 446
#     4  11  26  44  70 100 155 190 245 305 380 431
#
# _framework density 24.135252000000001
#
# number of rings (size 3 to 8) (size 9 to 14) (size 15 to 20)
#    0.000    1.600    4.000    0.600   14.000    0.000 
#    0.000    0.000    0.000    7.200    0.000    0.000 
#    0.000    0.000    0.000    0.000    0.000    0.000 
#
# Total GULP energy -111430.147665 kJ/mol
# GULP energy per Si atom -5571.507383 kJ/mol
# Density = 2.408032 g / cm^3
# Si number density = 24.135252 Si / 1000 Ang^3
#
#
#
# Elastic Constant Matrix: (Units=GPa)
#
#
# Indices 1 2 3 4 5 6 
#
# 1 141.6563 57.6234 16.5726 0.0000 0.0000 0.0000
# 2 57.6234 181.0969 28.7597 0.0000 0.0000 0.0000
# 3 16.5726 28.7597 84.5798 0.0000 0.0000 0.0000
# 4 0.0000 0.0000 0.0000 -103.8949 0.0000 0.0000
# 5 0.0000 0.0000 0.0000 0.0000 4.9636 0.0000
# 6 0.0000 0.0000 0.0000 0.0000 0.0000 55.0081
#
#
#
# Elastic Compliance Matrix: (Units=1/GPa)
#
#
# Indices 1 2 3 4 5 6 
#
# 1 0.008154 -0.002475 -0.000756 0.000000 0.000000 0.000000
# 2 -0.002475 0.006588 -0.001755 0.000000 0.000000 0.000000
# 3 -0.000756 -0.001755 0.012568 0.000000 0.000000 0.000000
# 4 0.000000 0.000000 0.000000 -0.009625 0.000000 0.000000
# 5 0.000000 0.000000 0.000000 0.000000 0.201468 0.000000
# 6 0.000000 0.000000 0.000000 0.000000 0.000000 0.018179
#
#
# Mechanical properties :
#
#
# Convention : Reuss Voigt Hill
#
# Bulk Modulus (GPa) = 57.67576 68.13829 62.90702
# Shear Modulus (GPa) = 19.75627 11.50719 15.63173
#
# Velocity S-wave (km/s) = 2.86416 2.18590 2.54770
# Velocity P-wave (km/s) = 5.90649 5.88761 5.89706
#
# Compressibility (1/GPa) = 0.01733831
#
# Stress axis : x y z
#
# Youngs Moduli (GPa) = 122.63270 151.79029 79.56590
#
# Poissons Ratio (x) = 0.37561 0.06018
# Poissons Ratio (y) = 0.30346 0.13966
# Poissons Ratio (z) = 0.09275 0.26643
#
# Static dielectric constant tensor:
#      x y z
#    x 2.141210 0.000000 0.000000 
#    y 0.000000 2.200320 0.000000 
#    z 0.000000 0.000000 1.873560 
# 
# From -- ./inp_files/2964.got.cif
#   From: 2010.05.17/outbox.cif.g08.bks.cpg/sg27_2_cif.got.tgz:2964.got - 2010.06.04 01:11:05.
