data_PCOD9338567
_publ_section_title
;
Structure prediction by ZEFSAII (Michael W. Deem and Ramdas Pophale) SiO2 
 PCOD9338567
Probable space group: P M C 21
;
_chemical_formula_sum "Si O2"
_cell_formula_units_Z 32
_cell_length_a 13.644292
_cell_length_b 10.169091
_cell_length_c 11.067589
_cell_angle_alpha 90.000000
_cell_angle_beta 90.000000
_cell_angle_gamma 90.000000
_cell_volume 1535.628494
_symmetry_space_group_name_H-M "P M C 21"
_symmetry_group_IT_number 26
_symmetry_cell_setting 'orthorhombic'
loop_
_space_group_symop_operation_xyz
x,y,z
-x,-y,1/2+z
-x,y,z
x,-y,1/2+z
loop_
_atom_site_type_symbol
_atom_site_label
_atom_site_fract_x
_atom_site_fract_y
_atom_site_fract_z
Si Si1 0.298331 0.429080 0.965480
Si Si2 0.261697 0.794434 0.294570
Si Si3 0.888225 0.564597 0.885338
Si Si4 0.388225 0.935404 0.106849
Si Si5 0.238303 0.705566 0.697616
Si Si6 0.201669 0.929080 0.526706
Si Si7 0.388092 0.289285 0.405174
Si Si8 0.888092 0.789285 0.087012
O O1 0.319215 0.321119 0.863064
O O2 0.182815 0.458874 0.945512
O O3 0.355721 0.564136 0.945130
O O4 0.304470 0.368729 0.098243
O O5 0.337826 0.892941 0.231738
O O6 0.195530 0.868729 0.393944
O O7 0.189230 0.745559 0.188898
O O8 0.837825 0.607058 0.760449
O O9 0.000000 0.522997 0.871583
O O10 0.883616 0.691521 0.973390
O O11 0.500000 0.977003 0.120603
O O12 0.383616 0.808480 0.018796
O O13 0.317185 0.041126 0.046675
O O14 0.180784 0.821118 0.629122
O O15 0.310770 0.754441 0.803288
O O16 0.144279 0.064136 0.547056
O O17 0.500000 0.289908 0.360801
O O18 0.000000 0.789908 0.131385
#
# Coordination Sequence:
#
# PCOD9338567 Si02
#       8
#     4   4   4   4   4   4   4   4
#     4  10  22  39  61  87 116 152 193 238 286 339
#     4  10  22  39  61  87 116 152 193 238 286 339
#     4  10  23  39  60  87 117 153 192 235 289 345
#     4  10  23  39  60  87 117 153 192 235 289 345
#     4  10  22  39  61  87 116 152 193 238 286 339
#     4  10  22  39  61  87 116 152 193 238 286 339
#     4  10  23  39  60  87 117 153 192 235 289 345
#     4  10  23  39  60  87 117 153 192 235 289 345
#
# _framework density 20.838374000000002
#
# number of rings (size 3 to 8) (size 9 to 14) (size 15 to 20)
#    0.000    2.000    0.000    3.000   14.000    4.000 
#    0.000    5.000    0.000    0.000    0.000    0.000 
#    0.000    0.000    0.000    0.000    0.000    0.000 
#
# Total GULP energy -178797.739067 kJ/mol
# GULP energy per Si atom -5587.429346 kJ/mol
# Density = 2.079094 g / cm^3
# Si number density = 20.838374 Si / 1000 Ang^3
#
#
#
# Elastic Constant Matrix: (Units=GPa)
#
#
# Indices 1 2 3 4 5 6 
#
# 1 70.8212 -25.8484 -3.9056 0.0000 0.0000 0.0000
# 2 -25.8484 38.8860 3.1711 0.0000 0.0000 0.0000
# 3 -3.9056 3.1711 70.7166 0.0000 0.0000 0.0000
# 4 0.0000 0.0000 0.0000 1.1724 0.0000 0.0000
# 5 0.0000 0.0000 0.0000 0.0000 -2.3600 0.0000
# 6 0.0000 0.0000 0.0000 0.0000 0.0000 12.2524
#
#
#
# Elastic Compliance Matrix: (Units=1/GPa)
#
#
# Indices 1 2 3 4 5 6 
#
# 1 0.018659 0.012364 0.000476 0.000000 0.000000 0.000000
# 2 0.012364 0.034004 -0.000842 0.000000 0.000000 0.000000
# 3 0.000476 -0.000842 0.014205 0.000000 0.000000 0.000000
# 4 0.000000 0.000000 0.000000 0.852980 0.000000 0.000000
# 5 0.000000 0.000000 0.000000 0.000000 -0.423737 0.000000
# 6 0.000000 0.000000 0.000000 0.000000 0.000000 0.081617
#
#
# Mechanical properties :
#
#
# Convention : Reuss Voigt Hill
#
# Bulk Modulus (GPa) = 11.00542 14.13980 12.57261
# Shear Modulus (GPa) = 8.56138 16.01340 12.28739
#
# Velocity S-wave (km/s) = 2.02913 2.77511 2.43091
# Velocity P-wave (km/s) = 3.28369 4.13141 3.73170
#
# Compressibility (1/GPa) = 0.09086429
#
# Stress axis : x y z
#
# Youngs Moduli (GPa) = 53.59339 29.40866 70.39780
#
# Poissons Ratio (x) = -0.36362 -0.03351
# Poissons Ratio (y) = -0.66264 0.05927
# Poissons Ratio (z) = -0.02551 0.02476
#
# Static dielectric constant tensor:
#      x y z
#    x 1.730560 0.000000 0.000000 
#    y 0.000000 1.748750 0.000000 
#    z 0.000000 0.000000 1.768810 
# 
# From -- ./inp_files/3583.got.cif
#   From: 2010.05.17/outbox.cif.g08.bks.cpg/sg26_2_cif.got.tgz:3583.got - 2010.06.04 01:07:29.
