data_PCOD9338153
_publ_section_title
;
Structure prediction by ZEFSAII (Michael W. Deem and Ramdas Pophale) SiO2 
 PCOD9338153
Probable space group: P M C 21
;
_chemical_formula_sum "Si O2"
_cell_formula_units_Z 32
_cell_length_a 9.170149
_cell_length_b 12.698528
_cell_length_c 14.095205
_cell_angle_alpha 90.000000
_cell_angle_beta 90.000000
_cell_angle_gamma 90.000000
_cell_volume 1641.349888
_symmetry_space_group_name_H-M "P M C 21"
_symmetry_group_IT_number 26
_symmetry_cell_setting 'orthorhombic'
loop_
_space_group_symop_operation_xyz
x,y,z
-x,-y,1/2+z
-x,y,z
x,-y,1/2+z
loop_
_atom_site_type_symbol
_atom_site_label
_atom_site_fract_x
_atom_site_fract_y
_atom_site_fract_z
Si Si1 0.673689 0.133623 0.301800
Si Si2 0.166471 0.364964 0.016344
Si Si3 0.824138 0.402040 0.541654
Si Si4 0.332775 0.447150 0.737851
Si Si5 0.832597 0.346090 0.244302
Si Si6 0.677830 0.083878 0.710003
Si Si7 0.674106 0.185101 0.509906
Si Si8 0.334101 0.756383 0.369828
O O1 0.500000 0.150434 0.288188
O O2 0.760601 0.237669 0.274723
O O3 0.696007 0.116884 0.414792
O O4 0.718977 0.034472 0.237939
O O5 0.251744 0.271990 0.965407
O O6 0.000000 0.360969 0.982810
O O7 0.220664 0.484634 0.997956
O O8 0.168853 0.351635 0.129609
O O9 0.762436 0.408343 0.648771
O O10 0.755636 0.296710 0.498446
O O11 0.000000 0.397665 0.541748
O O12 0.500000 0.467093 0.707151
O O13 0.260975 0.553582 0.776234
O O14 0.335044 0.353560 0.812880
O O15 0.000000 0.354859 0.276856
O O16 0.500000 0.088641 0.710014
O O17 0.722886 0.127580 0.606997
O O18 0.728358 0.159050 0.795939
O O19 0.500000 0.205998 0.518495
O O20 0.500000 0.787938 0.391689
#
# Coordination Sequence:
#
# PCOD9338153 Si02
#       8
#     4   4   4   4   4   4   4   4
#     4  10  22  38  62  89 112 152 203 244 296 353
#     4   9  21  37  53  80 118 158 193 232 289 350
#     4  10  20  35  55  83 117 157 197 237 292 350
#     4  10  19  34  57  86 117 150 191 241 292 346
#     4  10  22  40  57  80 120 159 192 240 297 349
#     4   9  19  39  60  85 119 151 193 247 297 346
#     4  10  20  37  59  84 116 153 193 247 297 347
#     4  10  20  34  57  87 115 150 192 238 290 343
#
# _framework density 19.496148999999999
#
# number of rings (size 3 to 8) (size 9 to 14) (size 15 to 20)
#    0.000    2.250    1.250    1.875    1.750    5.500 
#    0.000    3.750    0.000    0.000    0.000    0.000 
#    0.000    0.000    0.000    0.000    0.000    0.000 
#
# Total GULP energy -178545.687372 kJ/mol
# GULP energy per Si atom -5579.552730 kJ/mol
# Density = 1.945178 g / cm^3
# Si number density = 19.496149 Si / 1000 Ang^3
#
#
#
# Elastic Constant Matrix: (Units=GPa)
#
#
# Indices 1 2 3 4 5 6 
#
# 1 41.7545 24.5362 15.8698 0.0000 0.0000 0.0000
# 2 24.5362 91.8311 17.7099 0.0000 0.0000 0.0000
# 3 15.8698 17.7099 45.2228 0.0000 0.0000 0.0000
# 4 0.0000 0.0000 0.0000 26.6057 0.0000 0.0000
# 5 0.0000 0.0000 0.0000 0.0000 2.4772 0.0000
# 6 0.0000 0.0000 0.0000 0.0000 0.0000 7.2829
#
#
#
# Elastic Compliance Matrix: (Units=1/GPa)
#
#
# Indices 1 2 3 4 5 6 
#
# 1 0.031026 -0.006696 -0.008266 0.000000 0.000000 0.000000
# 2 -0.006696 0.013224 -0.002829 0.000000 0.000000 0.000000
# 3 -0.008266 -0.002829 0.026121 0.000000 0.000000 0.000000
# 4 0.000000 0.000000 0.000000 0.037586 0.000000 0.000000
# 5 0.000000 0.000000 0.000000 0.000000 0.403685 0.000000
# 6 0.000000 0.000000 0.000000 0.000000 0.000000 0.137308
#
#
# Mechanical properties :
#
#
# Convention : Reuss Voigt Hill
#
# Bulk Modulus (GPa) = 28.74354 32.78224 30.76289
# Shear Modulus (GPa) = 7.18259 15.31932 11.25096
#
# Velocity S-wave (km/s) = 1.92149 2.80618 2.40487
# Velocity P-wave (km/s) = 4.43824 5.22980 4.85020
#
# Compressibility (1/GPa) = 0.03479042
#
# Stress axis : x y z
#
# Youngs Moduli (GPa) = 32.23147 75.61917 38.28307
#
# Poissons Ratio (x) = 0.50632 0.31643
# Poissons Ratio (y) = 0.21581 0.10831
# Poissons Ratio (z) = 0.26641 0.21394
#
# Static dielectric constant tensor:
#      x y z
#    x 1.680760 0.000000 0.000000 
#    y 0.000000 1.667630 0.000000 
#    z 0.000000 0.000000 1.709920 
# 
# From -- ./inp_files/4270.got.cif
#   From: 2010.05.17/outbox.cif.g08.bks.cpg/sg26_3_cif.got.tgz:4270.got - 2010.06.04 01:07:29.
