data_PCOD9338198
_publ_section_title
;
Structure prediction by ZEFSAII (Michael W. Deem and Ramdas Pophale) SiO2 
 PCOD9338198
Probable space group: P M C 21
;
_chemical_formula_sum "Si O2"
_cell_formula_units_Z 32
_cell_length_a 17.019278
_cell_length_b 5.167100
_cell_length_c 15.733188
_cell_angle_alpha 90.000000
_cell_angle_beta 90.000000
_cell_angle_gamma 90.000000
_cell_volume 1383.581451
_symmetry_space_group_name_H-M "P M C 21"
_symmetry_group_IT_number 26
_symmetry_cell_setting 'orthorhombic'
loop_
_space_group_symop_operation_xyz
x,y,z
-x,-y,1/2+z
-x,y,z
x,-y,1/2+z
loop_
_atom_site_type_symbol
_atom_site_label
_atom_site_fract_x
_atom_site_fract_y
_atom_site_fract_z
Si Si1 0.256732 0.131727 0.045680
Si Si2 0.911517 0.865007 0.906541
Si Si3 0.411601 0.422322 0.009493
Si Si4 0.907820 0.367813 0.015083
Si Si5 0.216510 0.359585 0.291606
Si Si6 0.266810 0.834211 0.204201
Si Si7 0.331538 0.194963 0.415620
Si Si8 0.587081 0.200273 0.814922
O O1 0.174190 0.280275 0.060511
O O2 0.258474 0.879686 0.105114
O O3 0.338045 0.292759 0.057638
O O4 0.270582 0.020823 0.950183
O O5 0.859678 0.768434 0.829985
O O6 0.000000 0.822768 0.880356
O O7 0.897667 0.662900 0.984322
O O8 0.904714 0.160095 0.937504
O O9 0.500000 0.386774 0.042694
O O10 0.386093 0.717639 0.993208
O O11 0.412043 0.330117 0.909455
O O12 0.000000 0.342769 0.048498
O O13 0.206974 0.623727 0.241188
O O14 0.273867 0.402521 0.373009
O O15 0.254146 0.126238 0.237867
O O16 0.349149 0.732578 0.243282
O O17 0.389619 0.089434 0.343832
O O18 0.500000 0.225935 0.780743
#
# Coordination Sequence:
#
# PCOD9338198 Si02
#       8
#     4   4   4   4   4   4   4   4
#     4  11  24  38  60  89 127 172 201 265 314 382
#     4  10  20  36  64  94 118 151 207 267 310 357
#     4  10  20  36  61  90 117 154 214 264 309 364
#     4  10  21  37  62  95 123 158 210 262 311 367
#     4  11  21  40  60  88 118 159 204 254 299 377
#     4  11  25  38  59  88 126 164 202 241 318 380
#     4  10  19  35  64  84 114 159 212 258 303 362
#     4   9  19  36  55  82 115 153 201 251 303 363
#
# _framework density 23.128381999999998
#
# number of rings (size 3 to 8) (size 9 to 14) (size 15 to 20)
#    0.000    1.750    2.500    1.875    3.500    1.000 
#    0.000    1.250    0.000    0.000    0.000    0.000 
#    0.000    0.000    0.000    0.000    0.000    0.000 
#
# Total GULP energy -178255.560210 kJ/mol
# GULP energy per Si atom -5570.486257 kJ/mol
# Density = 2.307574 g / cm^3
# Si number density = 23.128382 Si / 1000 Ang^3
#
#
#
# Elastic Constant Matrix: (Units=GPa)
#
#
# Indices 1 2 3 4 5 6 
#
# 1 120.8561 -12.7314 24.3244 0.0000 0.0000 0.0000
# 2 -12.7314 55.3667 1.6731 0.0000 0.0000 0.0000
# 3 24.3244 1.6731 23.7977 0.0000 0.0000 0.0000
# 4 0.0000 0.0000 0.0000 27.5250 0.0000 0.0000
# 5 0.0000 0.0000 0.0000 0.0000 13.4571 0.0000
# 6 0.0000 0.0000 0.0000 0.0000 0.0000 24.6170
#
#
#
# Elastic Compliance Matrix: (Units=1/GPa)
#
#
# Indices 1 2 3 4 5 6 
#
# 1 0.010844 0.002834 -0.011283 0.000000 0.000000 0.000000
# 2 0.002834 0.018841 -0.004222 0.000000 0.000000 0.000000
# 3 -0.011283 -0.004222 0.053851 0.000000 0.000000 0.000000
# 4 0.000000 0.000000 0.000000 0.036331 0.000000 0.000000
# 5 0.000000 0.000000 0.000000 0.000000 0.074310 0.000000
# 6 0.000000 0.000000 0.000000 0.000000 0.000000 0.040622
#
#
# Mechanical properties :
#
#
# Convention : Reuss Voigt Hill
#
# Bulk Modulus (GPa) = 17.18384 25.17251 21.17818
# Shear Modulus (GPa) = 17.88669 25.57010 21.72840
#
# Velocity S-wave (km/s) = 2.78396 3.32862 3.06840
# Velocity P-wave (km/s) = 4.21661 5.06758 4.66156
#
# Compressibility (1/GPa) = 0.05819421
#
# Stress axis : x y z
#
# Youngs Moduli (GPa) = 92.21846 53.07646 18.56993
#
# Poissons Ratio (x) = -0.15044 0.20953
# Poissons Ratio (y) = -0.26139 0.07840
# Poissons Ratio (z) = 1.04051 0.22408
#
# Static dielectric constant tensor:
#      x y z
#    x 1.911410 0.000000 0.000000 
#    y 0.000000 2.039080 0.000000 
#    z 0.000000 0.000000 1.932540 
# 
# From -- ./inp_files/4712.got.cif
#   From: 2010.05.17/outbox.cif.g08.bks.cpg/sg26_3_cif.got.tgz:4712.got - 2010.06.04 01:07:29.
