data_PCOD9338407
_publ_section_title
;
Structure prediction by ZEFSAII (Michael W. Deem and Ramdas Pophale) SiO2 
 PCOD9338407
Probable space group: P M C 21
;
_chemical_formula_sum "Si O2"
_cell_formula_units_Z 30
_cell_length_a 19.582294
_cell_length_b 5.310069
_cell_length_c 12.324168
_cell_angle_alpha 90.000000
_cell_angle_beta 90.000000
_cell_angle_gamma 90.000000
_cell_volume 1281.508057
_symmetry_space_group_name_H-M "P M C 21"
_symmetry_group_IT_number 26
_symmetry_cell_setting 'orthorhombic'
loop_
_space_group_symop_operation_xyz
x,y,z
-x,-y,1/2+z
-x,y,z
x,-y,1/2+z
loop_
_atom_site_type_symbol
_atom_site_label
_atom_site_fract_x
_atom_site_fract_y
_atom_site_fract_z
Si Si1 0.919512 0.007435 0.558350
Si Si2 0.615654 0.208024 0.618538
Si Si3 0.919941 0.498779 0.197182
Si Si4 0.169928 0.236957 0.375433
Si Si5 0.720298 0.578289 0.497885
Si Si6 0.619393 0.453837 0.831041
Si Si7 0.500000 0.761551 0.958099
Si Si8 0.723533 0.172029 0.211474
O O1 0.901674 0.233676 0.642805
O O2 0.874407 0.060173 0.452502
O O3 0.000000 0.040940 0.531547
O O4 0.912686 0.732390 0.611695
O O5 0.664317 0.403062 0.556860
O O6 0.583821 0.325675 0.727696
O O7 0.559371 0.110971 0.536387
O O8 0.667533 0.015666 0.669416
O O9 0.876142 0.418959 0.301132
O O10 0.000000 0.511785 0.227298
O O11 0.221089 0.410787 0.444808
O O12 0.217516 0.083110 0.291417
O O13 0.668526 0.712766 0.411340
O O14 0.753080 0.729538 0.597218
O O15 0.560761 0.607687 0.892329
O O16 0.678369 0.626963 0.777860
#
# Coordination Sequence:
#
# PCOD9338407 Si02
#       8
#     4   4   4   4   4   4   2   4
#     4  10  23  44  67  98 139 181 234 296 353 415
#     4  10  21  39  61  90 123 164 212 272 329 398
#     4  10  23  44  68 101 141 181 237 299 349 418
#     4  11  22  40  66  94 129 184 230 276 355 422
#     4   9  21  40  59  85 127 167 212 273 332 399
#     4   9  20  39  59  85 120 166 209 258 335 398
#     4  10  20  38  64  88 122 160 214 266 330 400
#     4  10  22  40  59  90 129 163 216 279 326 403
#
# _framework density 23.409921000000001
#
# number of rings (size 3 to 8) (size 9 to 14) (size 15 to 20)
#    0.000    2.133    0.000    1.600    1.867    4.800 
#    9.600   10.667    0.000    0.000    0.000    0.000 
#    0.000    0.000    0.000    0.000    0.000    0.000 
#
# Total GULP energy -167011.305079 kJ/mol
# GULP energy per Si atom -5567.043503 kJ/mol
# Density = 2.335664 g / cm^3
# Si number density = 23.409921 Si / 1000 Ang^3
#
#
#
# Elastic Constant Matrix: (Units=GPa)
#
#
# Indices 1 2 3 4 5 6 
#
# 1 93.1495 4.1403 65.8090 0.0000 0.0000 0.0000
# 2 4.1403 38.4878 11.9098 0.0000 0.0000 0.0000
# 3 65.8090 11.9098 103.7470 0.0000 0.0000 0.0000
# 4 0.0000 0.0000 0.0000 8.1340 0.0000 0.0000
# 5 0.0000 0.0000 0.0000 0.0000 -89.7509 0.0000
# 6 0.0000 0.0000 0.0000 0.0000 0.0000 19.6661
#
#
#
# Elastic Compliance Matrix: (Units=1/GPa)
#
#
# Indices 1 2 3 4 5 6 
#
# 1 0.019573 0.001800 -0.012622 0.000000 0.000000 0.000000
# 2 0.001800 0.027105 -0.004254 0.000000 0.000000 0.000000
# 3 -0.012622 -0.004254 0.018134 0.000000 0.000000 0.000000
# 4 0.000000 0.000000 0.000000 0.122940 0.000000 0.000000
# 5 0.000000 0.000000 0.000000 0.000000 -0.011142 0.000000
# 6 0.000000 0.000000 0.000000 0.000000 0.000000 0.050849
#
#
# Mechanical properties :
#
#
# Convention : Reuss Voigt Hill
#
# Bulk Modulus (GPa) = 28.85126 44.34473 36.59799
# Shear Modulus (GPa) = 18.57612 -2.15516 8.21048
#
# Velocity S-wave (km/s) = 2.82000 -0.96053 1.87480
# Velocity P-wave (km/s) = 4.79106 4.21351 4.51154
#
# Compressibility (1/GPa) = 0.03466054
#
# Stress axis : x y z
#
# Youngs Moduli (GPa) = 51.09131 36.89384 55.14617
#
# Poissons Ratio (x) = -0.06642 0.69606
# Poissons Ratio (y) = -0.09198 0.23457
# Poissons Ratio (z) = 0.64488 0.15693
#
# Static dielectric constant tensor:
#      x y z
#    x 2.166090 0.000000 0.000000 
#    y 0.000000 2.002310 0.000000 
#    z 0.000000 0.000000 2.354890 
# 
# From -- ./inp_files/3721.got.cif
#   From: 2010.05.17/outbox.cif.g08.bks.cpg/sg26_2_cif.got.tgz:3721.got - 2010.06.04 01:07:29.
