data_PCOD9338638
_publ_section_title
;
Structure prediction by ZEFSAII (Michael W. Deem and Ramdas Pophale) SiO2 
 PCOD9338638
Probable space group: P M C 21
;
_chemical_formula_sum "Si O2"
_cell_formula_units_Z 16
_cell_length_a 10.500019
_cell_length_b 12.200079
_cell_length_c 5.114037
_cell_angle_alpha 90.000000
_cell_angle_beta 90.000000
_cell_angle_gamma 90.000000
_cell_volume 655.113567
_symmetry_space_group_name_H-M "P M C 21"
_symmetry_group_IT_number 26
_symmetry_cell_setting 'orthorhombic'
loop_
_space_group_symop_operation_xyz
x,y,z
-x,-y,1/2+z
-x,y,z
x,-y,1/2+z
loop_
_atom_site_type_symbol
_atom_site_label
_atom_site_fract_x
_atom_site_fract_y
_atom_site_fract_z
Si Si1 0.858906 0.790275 0.545270
Si Si2 0.293030 0.779222 0.025345
Si Si3 0.500000 0.417479 0.456999
Si Si4 0.856041 0.541912 0.628560
Si Si5 0.500000 0.935405 0.270828
O O1 0.817845 0.767526 0.245917
O O2 0.867222 0.668838 0.673299
O O3 0.000000 0.840970 0.551749
O O4 0.758826 0.835517 0.757152
O O5 0.381309 0.864063 0.179438
O O6 0.380011 0.670444 0.969918
O O7 0.500000 0.506251 0.695570
O O8 0.789277 0.520273 0.358507
O O9 0.000000 0.494368 0.591007
O O10 0.500000 0.960411 0.576982
#
# Coordination Sequence:
#
# PCOD9338638 Si02
#       5
#     4   4   2   4   2
#     4  11  22  37  59  89 131 171 200 250 316 379
#     4  11  24  41  65  97 125 163 218 258 312 387
#     4  11  24  41  62  90 130 175 216 271 322 358
#     4   9  17  28  43  69 108 159 212 242 265 321
#     4  11  24  47  76  96 116 153 210 279 324 358
#
# _framework density 24.423245999999999
#
# number of rings (size 3 to 8) (size 9 to 14) (size 15 to 20)
#    0.000    1.500    0.000    5.250    0.000   14.000 
#    0.000    0.000    0.000   16.500    0.000    0.000 
#    0.000    0.000    0.000    0.000    0.000    0.000 
#
# Total GULP energy -89225.785586 kJ/mol
# GULP energy per Si atom -5576.611599 kJ/mol
# Density = 2.436766 g / cm^3
# Si number density = 24.423246 Si / 1000 Ang^3
#
#
#
# Elastic Constant Matrix: (Units=GPa)
#
#
# Indices 1 2 3 4 5 6 
#
# 1 116.4382 7.0807 29.9520 0.0000 0.0000 0.0000
# 2 7.0807 16.1726 -21.6247 0.0000 0.0000 0.0000
# 3 29.9520 -21.6247 142.2512 0.0000 0.0000 0.0000
# 4 0.0000 0.0000 0.0000 34.9418 0.0000 0.0000
# 5 0.0000 0.0000 0.0000 0.0000 32.8781 0.0000
# 6 0.0000 0.0000 0.0000 0.0000 0.0000 10.1061
#
#
#
# Elastic Compliance Matrix: (Units=1/GPa)
#
#
# Indices 1 2 3 4 5 6 
#
# 1 0.010037 -0.009063 -0.003491 0.000000 0.000000 0.000000
# 2 -0.009063 0.085790 0.014950 0.000000 0.000000 0.000000
# 3 -0.003491 0.014950 0.010038 0.000000 0.000000 0.000000
# 4 0.000000 0.000000 0.000000 0.028619 0.000000 0.000000
# 5 0.000000 0.000000 0.000000 0.000000 0.030415 0.000000
# 6 0.000000 0.000000 0.000000 0.000000 0.000000 0.098950
#
#
# Mechanical properties :
#
#
# Convention : Reuss Voigt Hill
#
# Bulk Modulus (GPa) = 9.03689 33.96424 21.50057
# Shear Modulus (GPa) = 16.89511 32.88214 24.88862
#
# Velocity S-wave (km/s) = 2.63299 3.67324 3.19573
# Velocity P-wave (km/s) = 3.59885 5.65039 4.73702
#
# Compressibility (1/GPa) = 0.11065757
#
# Stress axis : x y z
#
# Youngs Moduli (GPa) = 99.62746 11.65631 99.62602
#
# Poissons Ratio (x) = 0.10564 0.34781
# Poissons Ratio (y) = 0.90289 -1.48939
# Poissons Ratio (z) = 0.34781 -0.17426
#
# Static dielectric constant tensor:
#      x y z
#    x 2.132790 0.000000 0.000000 
#    y 0.000000 1.925070 0.000000 
#    z 0.000000 0.000000 2.071660 
# 
# From -- ./inp_files/306.got.cif
#   From: 2010.05.17/outbox.cif.g08.bks.cpg/sg26_1_cif.got.tgz:306.got - 2010.06.04 01:07:29.
