data_PCOD9338661
_publ_section_title
;
Structure prediction by ZEFSAII (Michael W. Deem and Ramdas Pophale) SiO2 
 PCOD9338661
Probable space group: P M C 21
;
_chemical_formula_sum "Si O2"
_cell_formula_units_Z 18
_cell_length_a 12.841209
_cell_length_b 7.444406
_cell_length_c 6.934090
_cell_angle_alpha 90.000000
_cell_angle_beta 90.000000
_cell_angle_gamma 90.000000
_cell_volume 662.865535
_symmetry_space_group_name_H-M "P M C 21"
_symmetry_group_IT_number 26
_symmetry_cell_setting 'orthorhombic'
loop_
_space_group_symop_operation_xyz
x,y,z
-x,-y,1/2+z
-x,y,z
x,-y,1/2+z
loop_
_atom_site_type_symbol
_atom_site_label
_atom_site_fract_x
_atom_site_fract_y
_atom_site_fract_z
Si Si1 0.663346 0.861814 0.500000
Si Si2 0.112998 0.351424 0.405447
Si Si3 0.500000 0.419389 0.911874
Si Si4 0.660622 0.742104 0.943745
Si Si5 0.888075 0.769407 0.463865
O O1 0.591153 0.731363 0.377725
O O2 0.659314 0.771346 0.711017
O O3 0.781437 0.871121 0.421886
O O4 0.624838 0.064495 0.517571
O O5 0.220156 0.294312 0.504135
O O6 0.117701 0.566939 0.382141
O O7 0.000000 0.311140 0.497205
O O8 0.111798 0.262745 0.194627
O O9 0.588776 0.570437 0.974483
O O10 0.000000 0.852628 0.411154
#
# Coordination Sequence:
#
# PCOD9338661 Si02
#       5
#     4   4   2   4   4
#     4  11  25  42  65  96 127 166 211 259 315 375
#     4   9  18  36  62  92 125 162 204 252 310 373
#     4  12  24  44  64  88 120 168 212 266 304 364
#     4  11  25  42  65  96 127 166 211 259 315 375
#     4   9  18  36  62  92 125 162 204 252 310 373
#
# _framework density 27.154831999999999
#
# number of rings (size 3 to 8) (size 9 to 14) (size 15 to 20)
#    0.000    1.778    2.222    1.333    0.000    6.222 
#    0.000    0.000    0.000    0.000    0.000    0.000 
#    0.000    0.000    0.000    0.000    0.000    0.000 
#
# Total GULP energy -100365.123845 kJ/mol
# GULP energy per Si atom -5575.840214 kJ/mol
# Density = 2.709303 g / cm^3
# Si number density = 27.154832 Si / 1000 Ang^3
#
#
#
# Elastic Constant Matrix: (Units=GPa)
#
#
# Indices 1 2 3 4 5 6 
#
# 1 254.0503 102.0208 10.0470 0.0000 0.0000 0.0000
# 2 102.0208 203.0850 5.7644 0.0000 0.0000 0.0000
# 3 10.0470 5.7644 77.1839 0.0000 0.0000 0.0000
# 4 0.0000 0.0000 0.0000 -31.5200 0.0000 0.0000
# 5 0.0000 0.0000 0.0000 0.0000 30.2411 0.0000
# 6 0.0000 0.0000 0.0000 0.0000 0.0000 8536.2591
#
#
#
# Elastic Compliance Matrix: (Units=1/GPa)
#
#
# Indices 1 2 3 4 5 6 
#
# 1 0.004947 -0.002472 -0.000459 0.000000 0.000000 0.000000
# 2 -0.002472 0.006170 -0.000139 0.000000 0.000000 0.000000
# 3 -0.000459 -0.000139 0.013026 0.000000 0.000000 0.000000
# 4 0.000000 0.000000 0.000000 -0.031726 0.000000 0.000000
# 5 0.000000 0.000000 0.000000 0.000000 0.033068 0.000000
# 6 0.000000 0.000000 0.000000 0.000000 0.000000 0.000117
#
#
# Mechanical properties :
#
#
# Convention : Reuss Voigt Hill
#
# Bulk Modulus (GPa) = 55.54852 85.55373 70.55113
# Shear Modulus (GPa) = 132.47134 1734.76183 933.61658
#
# Velocity S-wave (km/s) = 6.99211 25.30272 18.56229
# Velocity P-wave (km/s) = 9.25672 29.75250 22.03291
#
# Compressibility (1/GPa) = 0.01800228
#
# Stress axis : x y z
#
# Youngs Moduli (GPa) = 202.13563 162.07677 76.76808
#
# Poissons Ratio (x) = 0.40069 0.03526
# Poissons Ratio (y) = 0.49972 0.01067
# Poissons Ratio (z) = 0.09285 0.02253
#
# Static dielectric constant tensor:
#      x y z
#    x 2.099860 0.000000 0.000000 
#    y 0.000000 1.980540 0.000000 
#    z 0.000000 0.000000 2.261500 
# 
# From -- ./inp_files/3429.got.cif
#   From: 2010.05.17/outbox.cif.g08.bks.cpg/sg26_2_cif.got.tgz:3429.got - 2010.06.04 01:07:29.
