data_PCOD9338597
_publ_section_title
;
Structure prediction by ZEFSAII (Michael W. Deem and Ramdas Pophale) SiO2 
 PCOD9338597
Probable space group: P M C 21
;
_chemical_formula_sum "Si O2"
_cell_formula_units_Z 24
_cell_length_a 12.317227
_cell_length_b 5.147441
_cell_length_c 17.229036
_cell_angle_alpha 90.000000
_cell_angle_beta 90.000000
_cell_angle_gamma 90.000000
_cell_volume 1092.358774
_symmetry_space_group_name_H-M "P M C 21"
_symmetry_group_IT_number 26
_symmetry_cell_setting 'orthorhombic'
loop_
_space_group_symop_operation_xyz
x,y,z
-x,-y,1/2+z
-x,y,z
x,-y,1/2+z
loop_
_atom_site_type_symbol
_atom_site_label
_atom_site_fract_x
_atom_site_fract_y
_atom_site_fract_z
Si Si1 0.724979 0.215357 0.263150
Si Si2 0.500000 0.828817 0.445135
Si Si3 0.115195 0.043152 0.060004
Si Si4 0.749183 0.718210 0.158363
Si Si5 0.874473 0.287139 0.406476
Si Si6 0.500000 0.329884 0.348858
Si Si7 0.708684 0.426874 0.017476
O O1 0.752334 0.471445 0.213868
O O2 0.819746 0.185229 0.327709
O O3 0.609757 0.265014 0.303933
O O4 0.713140 0.961256 0.210149
O O5 0.500000 0.633417 0.371127
O O6 0.393021 0.737419 0.489987
O O7 0.500000 0.130917 0.422288
O O8 0.137710 0.809863 0.119369
O O9 0.000000 0.169392 0.075102
O O10 0.211548 0.242850 0.065374
O O11 0.117513 0.931484 0.973004
O O12 0.680241 0.650851 0.080063
O O13 0.783342 0.476152 0.445500
O O14 0.000000 0.385099 0.396289
#
# Coordination Sequence:
#
# PCOD9338597 Si02
#       7
#     4   2   4   4   4   2   4
#     4  12  25  46  69 101 143 180 229 283 359 421
#     4  12  26  42  79 101 138 181 240 290 337 418
#     4  10  22  45  72 102 140 185 233 292 350 410
#     4  11  26  45  68 100 142 184 228 284 346 423
#     4  10  23  41  70 100 135 180 236 292 346 417
#     4  12  26  46  69 107 138 183 218 298 351 404
#     4  11  23  46  70 104 138 183 242 287 348 418
#
# _framework density 21.970801999999999
#
# number of rings (size 3 to 8) (size 9 to 14) (size 15 to 20)
#    0.000    1.000    3.333    2.500    4.667    3.333 
#    0.000    0.833    0.000    0.000    0.000    0.000 
#    0.000    0.000    0.000    0.000    0.000    0.000 
#
# Total GULP energy -134003.953745 kJ/mol
# GULP energy per Si atom -5583.498073 kJ/mol
# Density = 2.192080 g / cm^3
# Si number density = 21.970802 Si / 1000 Ang^3
#
#
#
# Elastic Constant Matrix: (Units=GPa)
#
#
# Indices 1 2 3 4 5 6 
#
# 1 116.4836 8.5854 43.4427 0.0000 0.0000 0.0000
# 2 8.5854 77.0437 19.5998 0.0000 0.0000 0.0000
# 3 43.4427 19.5998 83.5345 0.0000 0.0000 0.0000
# 4 0.0000 0.0000 0.0000 36.0019 0.0000 0.0000
# 5 0.0000 0.0000 0.0000 0.0000 -18.6164 0.0000
# 6 0.0000 0.0000 0.0000 0.0000 0.0000 31.0909
#
#
#
# Elastic Compliance Matrix: (Units=1/GPa)
#
#
# Indices 1 2 3 4 5 6 
#
# 1 0.010655 0.000236 -0.005597 0.000000 0.000000 0.000000
# 2 0.000236 0.013809 -0.003363 0.000000 0.000000 0.000000
# 3 -0.005597 -0.003363 0.015671 0.000000 0.000000 0.000000
# 4 0.000000 0.000000 0.000000 0.027776 0.000000 0.000000
# 5 0.000000 0.000000 0.000000 0.000000 -0.053716 0.000000
# 6 0.000000 0.000000 0.000000 0.000000 0.000000 0.032164
#
#
# Mechanical properties :
#
#
# Convention : Reuss Voigt Hill
#
# Bulk Modulus (GPa) = 44.07594 46.70197 45.38896
# Shear Modulus (GPa) = 70.06057 23.39088 46.72573
#
# Velocity S-wave (km/s) = 5.65308 3.26641 4.61664
# Velocity P-wave (km/s) = 7.91924 5.96058 7.00867
#
# Compressibility (1/GPa) = 0.02268812
#
# Stress axis : x y z
#
# Youngs Moduli (GPa) = 93.85529 72.41745 63.81351
#
# Poissons Ratio (x) = -0.01712 0.35713
# Poissons Ratio (y) = -0.02219 0.21460
# Poissons Ratio (z) = 0.52526 0.24354
#
# Static dielectric constant tensor:
#      x y z
#    x 1.821900 0.000000 0.000000 
#    y 0.000000 1.861930 0.000000 
#    z 0.000000 0.000000 1.829670 
# 
# From -- ./inp_files/5123.got.cif
#   From: 2010.05.17/outbox.cif.g08.bks.cpg/sg26_3_cif.got.tgz:5123.got - 2010.06.04 01:07:29.
