data_PCOD9338539
_publ_section_title
;
Structure prediction by ZEFSAII (Michael W. Deem and Ramdas Pophale) SiO2 
 PCOD9338539
Probable space group: P M C 21
;
_chemical_formula_sum "Si O2"
_cell_formula_units_Z 32
_cell_length_a 15.679908
_cell_length_b 8.207436
_cell_length_c 10.323858
_cell_angle_alpha 90.000000
_cell_angle_beta 90.000000
_cell_angle_gamma 90.000000
_cell_volume 1328.596296
_symmetry_space_group_name_H-M "P M C 21"
_symmetry_group_IT_number 26
_symmetry_cell_setting 'orthorhombic'
loop_
_space_group_symop_operation_xyz
x,y,z
-x,-y,1/2+z
-x,y,z
x,-y,1/2+z
loop_
_atom_site_type_symbol
_atom_site_label
_atom_site_fract_x
_atom_site_fract_y
_atom_site_fract_z
Si Si1 0.733087 0.369090 0.668890
Si Si2 0.595213 0.214321 0.525367
Si Si3 0.904169 0.006972 0.819223
Si Si4 0.778460 0.237846 0.937046
Si Si5 0.092370 0.320481 0.630504
Si Si6 0.598348 0.365297 0.253917
Si Si7 0.094144 0.683000 0.661679
Si Si8 0.591349 0.838524 0.516143
O O1 0.665394 0.230135 0.634994
O O2 0.777967 0.340235 0.805907
O O3 0.812897 0.341886 0.570355
O O4 0.670052 0.522789 0.686596
O O5 0.500000 0.261215 0.568225
O O6 0.618875 0.326784 0.402872
O O7 0.591040 0.027830 0.484684
O O8 0.827248 0.067149 0.909367
O O9 0.906891 0.149030 0.708191
O O10 0.000000 0.008987 0.877296
O O11 0.888952 0.827319 0.762858
O O12 0.832953 0.309589 0.053922
O O13 0.678821 0.228265 0.963429
O O14 0.088088 0.495690 0.706393
O O15 0.000000 0.320305 0.557502
O O16 0.500000 0.428600 0.249469
O O17 0.595369 0.199760 0.169557
O O18 0.000000 0.721075 0.605300
O O19 0.500000 0.766627 0.470895
#
# Coordination Sequence:
#
# PCOD9338539 Si02
#       8
#     4   4   4   4   4   4   4   4
#     4  11  24  40  65  96 128 170 217 272 337 399
#     4  10  24  44  66  92 128 171 220 277 335 399
#     4   9  20  41  64  94 132 170 219 275 331 394
#     4  11  24  37  66  95 129 173 214 278 333 400
#     4   9  20  39  62  90 128 168 210 263 321 386
#     4  10  23  43  67  94 130 172 221 282 335 403
#     4  10  21  40  67  94 130 175 219 269 333 401
#     4  10  24  42  63  93 131 173 220 270 333 398
#
# _framework density 24.085570000000001
#
# number of rings (size 3 to 8) (size 9 to 14) (size 15 to 20)
#    0.000    2.000    0.000    1.500    8.750    2.500 
#    0.000    2.500    0.000   10.500    0.000    0.000 
#    0.000    0.000    0.000    0.000    0.000    0.000 
#
# Total GULP energy -178269.833318 kJ/mol
# GULP energy per Si atom -5570.932291 kJ/mol
# Density = 2.403075 g / cm^3
# Si number density = 24.085570 Si / 1000 Ang^3
#
#
#
# Elastic Constant Matrix: (Units=GPa)
#
#
# Indices 1 2 3 4 5 6 
#
# 1 214.3886 12.9429 39.8144 0.0000 0.0000 0.0000
# 2 12.9429 79.7267 11.4108 0.0000 0.0000 0.0000
# 3 39.8144 11.4108 33.1070 0.0000 0.0000 0.0000
# 4 0.0000 0.0000 0.0000 28.3259 0.0000 0.0000
# 5 0.0000 0.0000 0.0000 0.0000 20.4640 0.0000
# 6 0.0000 0.0000 0.0000 0.0000 0.0000 20.2311
#
#
#
# Elastic Compliance Matrix: (Units=1/GPa)
#
#
# Indices 1 2 3 4 5 6 
#
# 1 0.006006 0.000062 -0.007244 0.000000 0.000000 0.000000
# 2 0.000062 0.013194 -0.004622 0.000000 0.000000 0.000000
# 3 -0.007244 -0.004622 0.040510 0.000000 0.000000 0.000000
# 4 0.000000 0.000000 0.000000 0.035303 0.000000 0.000000
# 5 0.000000 0.000000 0.000000 0.000000 0.048866 0.000000
# 6 0.000000 0.000000 0.000000 0.000000 0.000000 0.049429
#
#
# Mechanical properties :
#
#
# Convention : Reuss Voigt Hill
#
# Bulk Modulus (GPa) = 27.69949 50.61761 39.15855
# Shear Modulus (GPa) = 21.83873 31.34116 26.58995
#
# Velocity S-wave (km/s) = 3.01444 3.61119 3.32622
# Velocity P-wave (km/s) = 4.86222 6.20072 5.57181
#
# Compressibility (1/GPa) = 0.03610174
#
# Stress axis : x y z
#
# Youngs Moduli (GPa) = 166.49983 75.79021 24.68535
#
# Poissons Ratio (x) = -0.00468 0.17882
# Poissons Ratio (y) = -0.01029 0.11409
# Poissons Ratio (z) = 1.20614 0.35029
#
# Static dielectric constant tensor:
#      x y z
#    x 2.048700 0.000000 0.000000 
#    y 0.000000 1.920810 0.000000 
#    z 0.000000 0.000000 1.947540 
# 
# From -- ./inp_files/3582.got.cif
#   From: 2010.05.17/outbox.cif.g08.bks.cpg/sg26_2_cif.got.tgz:3582.got - 2010.06.04 01:07:29.
