data_PCOD9338009
_publ_section_title
;
Structure prediction by ZEFSAII (Michael W. Deem and Ramdas Pophale) SiO2 
 PCOD9338009
Probable space group: P M C 21
;
_chemical_formula_sum "Si O2"
_cell_formula_units_Z 32
_cell_length_a 8.558496
_cell_length_b 12.216583
_cell_length_c 15.882900
_cell_angle_alpha 90.000000
_cell_angle_beta 90.000000
_cell_angle_gamma 90.000000
_cell_volume 1660.645770
_symmetry_space_group_name_H-M "P M C 21"
_symmetry_group_IT_number 26
_symmetry_cell_setting 'orthorhombic'
loop_
_space_group_symop_operation_xyz
x,y,z
-x,-y,1/2+z
-x,y,z
x,-y,1/2+z
loop_
_atom_site_type_symbol
_atom_site_label
_atom_site_fract_x
_atom_site_fract_y
_atom_site_fract_z
Si Si1 0.811039 0.729308 0.934010
Si Si2 0.811242 0.744866 0.121610
Si Si3 0.313010 0.887639 0.274962
Si Si4 0.188421 0.498350 0.173258
Si Si5 0.313398 0.726723 0.608388
Si Si6 0.311180 0.859976 0.773549
Si Si7 0.189861 0.503951 0.369121
Si Si8 0.187270 0.743807 0.427670
O O1 0.749511 0.800254 0.856859
O O2 0.760054 0.603125 0.920238
O O3 0.000000 0.729991 0.931743
O O4 0.762529 0.770553 0.026094
O O5 0.741159 0.822913 0.192132
O O6 0.768591 0.618684 0.140861
O O7 0.000000 0.751314 0.127165
O O8 0.500000 0.885878 0.279014
O O9 0.247173 0.826155 0.356721
O O10 0.260625 0.013773 0.271653
O O11 0.261053 0.398487 0.122314
O O12 0.234720 0.490315 0.271427
O O13 0.000000 0.488926 0.167765
O O14 0.500000 0.732518 0.604692
O O15 0.258674 0.795138 0.689977
O O16 0.244531 0.770224 0.521151
O O17 0.500000 0.857086 0.774625
O O18 0.243605 0.620673 0.404167
O O19 0.000000 0.506442 0.371329
O O20 0.000000 0.743280 0.425835
#
# Coordination Sequence:
#
# PCOD9338009 Si02
#       8
#     4   4   4   4   4   4   4   4
#     4  10  20  36  61  90 117 148 193 241 283 342
#     4  10  21  38  60  89 122 153 191 242 295 349
#     4  11  24  42  61  82 113 156 201 245 292 349
#     4  10  18  35  62  88 119 157 191 233 291 350
#     4  11  23  39  59  89 123 157 197 241 289 352
#     4  10  24  43  59  79 116 159 196 241 297 347
#     4   9  17  33  60  89 117 150 186 231 291 347
#     4  11  22  40  64  90 119 154 193 242 300 354
#
# _framework density 19.269611999999999
#
# number of rings (size 3 to 8) (size 9 to 14) (size 15 to 20)
#    0.000    1.750    2.500    1.875    0.000    5.500 
#    0.000    6.250    0.000    0.000    0.000    0.000 
#    0.000    0.000    0.000    0.000    0.000    0.000 
#
# Total GULP energy -178800.776397 kJ/mol
# GULP energy per Si atom -5587.524262 kJ/mol
# Density = 1.922575 g / cm^3
# Si number density = 19.269612 Si / 1000 Ang^3
#
#
#
# Elastic Constant Matrix: (Units=GPa)
#
#
# Indices 1 2 3 4 5 6 
#
# 1 21.1274 24.0941 22.0374 0.0000 0.0000 0.0000
# 2 24.0941 124.3872 49.3905 0.0000 0.0000 0.0000
# 3 22.0374 49.3905 132.4497 0.0000 0.0000 0.0000
# 4 0.0000 0.0000 0.0000 -0.5438 0.0000 0.0000
# 5 0.0000 0.0000 0.0000 0.0000 13.3377 0.0000
# 6 0.0000 0.0000 0.0000 0.0000 0.0000 26.7940
#
#
#
# Elastic Compliance Matrix: (Units=1/GPa)
#
#
# Indices 1 2 3 4 5 6 
#
# 1 0.066303 -0.009934 -0.007328 0.000000 0.000000 0.000000
# 2 -0.009934 0.010925 -0.002421 0.000000 0.000000 0.000000
# 3 -0.007328 -0.002421 0.009672 0.000000 0.000000 0.000000
# 4 0.000000 0.000000 0.000000 -1.838769 0.000000 0.000000
# 5 0.000000 0.000000 0.000000 0.000000 0.074975 0.000000
# 6 0.000000 0.000000 0.000000 0.000000 0.000000 0.037322
#
#
# Mechanical properties :
#
#
# Convention : Reuss Voigt Hill
#
# Bulk Modulus (GPa) = 21.03674 52.11203 36.57439
# Shear Modulus (GPa) = -3.15585 20.08041 8.46228
#
# Velocity S-wave (km/s) = -1.28113 3.23162 2.09787
# Velocity P-wave (km/s) = 2.95844 6.40522 4.98895
#
# Compressibility (1/GPa) = 0.04753588
#
# Stress axis : x y z
#
# Youngs Moduli (GPa) = 15.08219 91.53371 103.39075
#
# Poissons Ratio (x) = 0.90926 0.75760
# Poissons Ratio (y) = 0.14982 0.25032
# Poissons Ratio (z) = 0.11051 0.22161
#
# Static dielectric constant tensor:
#      x y z
#    x 1.662200 0.000000 0.000000 
#    y 0.000000 1.653640 0.000000 
#    z 0.000000 0.000000 1.658890 
# 
# From -- ./inp_files/4221.got.cif
#   From: 2010.05.17/outbox.cif.g08.bks.cpg/sg26_3_cif.got.tgz:4221.got - 2010.06.04 01:07:29.
