data_PCOD9338280
_publ_section_title
;
Structure prediction by ZEFSAII (Michael W. Deem and Ramdas Pophale) SiO2 
 PCOD9338280
Probable space group: P M C 21
;
_chemical_formula_sum "Si O2"
_cell_formula_units_Z 32
_cell_length_a 7.448878
_cell_length_b 15.786826
_cell_length_c 11.608976
_cell_angle_alpha 90.000000
_cell_angle_beta 90.000000
_cell_angle_gamma 90.000000
_cell_volume 1365.147559
_symmetry_space_group_name_H-M "P M C 21"
_symmetry_group_IT_number 26
_symmetry_cell_setting 'orthorhombic'
loop_
_space_group_symop_operation_xyz
x,y,z
-x,-y,1/2+z
-x,y,z
x,-y,1/2+z
loop_
_atom_site_type_symbol
_atom_site_label
_atom_site_fract_x
_atom_site_fract_y
_atom_site_fract_z
Si Si1 0.797992 0.134551 0.801900
Si Si2 0.210787 0.733940 0.472808
Si Si3 0.281106 0.837783 0.937698
Si Si4 0.706509 0.985288 0.104030
Si Si5 0.280644 0.474801 0.686074
Si Si6 0.705830 0.456477 0.941141
Si Si7 0.716547 0.716988 0.129906
Si Si8 0.282993 0.163118 0.177439
O O1 0.798811 0.213985 0.714578
O O2 0.000000 0.106566 0.828979
O O3 0.708851 0.059512 0.729981
O O4 0.712602 0.181545 0.911054
O O5 0.292872 0.645801 0.432830
O O6 0.233402 0.753497 0.606931
O O7 0.000000 0.729885 0.445187
O O8 0.500000 0.842292 0.937992
O O9 0.218706 0.837621 0.807949
O O10 0.235748 0.751197 0.003814
O O11 0.216122 0.917998 0.013276
O O12 0.500000 0.996744 0.069575
O O13 0.788214 0.077653 0.117057
O O14 0.500000 0.481974 0.690710
O O15 0.218949 0.523312 0.569436
O O16 0.231736 0.377550 0.659227
O O17 0.219137 0.491707 0.818736
O O18 0.500000 0.487174 0.945554
O O19 0.500000 0.722978 0.142666
O O20 0.500000 0.158576 0.180401
#
# Coordination Sequence:
#
# PCOD9338280 Si02
#       8
#     4   4   4   4   4   4   4   4
#     4  10  20  34  54  78 107 144 186 226 267 324
#     4  11  24  39  54  79 115 154 192 231 275 333
#     4   8  16  31  50  79 110 135 174 227 280 333
#     4   9  19  34  56  82 108 140 182 233 284 336
#     4   9  18  32  57  88 111 140 186 240 291 342
#     4  10  20  37  60  87 115 147 191 240 295 350
#     4   9  16  32  57  81 107 139 178 228 281 334
#     4  10  21  35  56  82 109 145 185 233 289 338
#
# _framework density 23.440691000000001
#
# number of rings (size 3 to 8) (size 9 to 14) (size 15 to 20)
#    0.000    2.500    1.250    1.500    1.750    3.000 
#    0.000    7.500    0.000    0.000    0.000    0.000 
#    0.000    0.000    0.000    0.000    0.000    0.000 
#
# Total GULP energy -178517.180992 kJ/mol
# GULP energy per Si atom -5578.661906 kJ/mol
# Density = 2.338734 g / cm^3
# Si number density = 23.440691 Si / 1000 Ang^3
#
#
#
# Elastic Constant Matrix: (Units=GPa)
#
#
# Indices 1 2 3 4 5 6 
#
# 1 71.0790 -5.3081 -0.3998 0.0000 0.0000 0.0000
# 2 -5.3081 47.3387 39.7175 0.0000 0.0000 0.0000
# 3 -0.3998 39.7175 177.0405 0.0000 0.0000 0.0000
# 4 0.0000 0.0000 0.0000 27.9378 0.0000 0.0000
# 5 0.0000 0.0000 0.0000 0.0000 20.0031 0.0000
# 6 0.0000 0.0000 0.0000 0.0000 0.0000 2.3486
#
#
#
# Elastic Compliance Matrix: (Units=1/GPa)
#
#
# Indices 1 2 3 4 5 6 
#
# 1 0.014211 0.001930 -0.000401 0.000000 0.000000 0.000000
# 2 0.001930 0.026284 -0.005892 0.000000 0.000000 0.000000
# 3 -0.000401 -0.005892 0.006969 0.000000 0.000000 0.000000
# 4 0.000000 0.000000 0.000000 0.035794 0.000000 0.000000
# 5 0.000000 0.000000 0.000000 0.000000 0.049992 0.000000
# 6 0.000000 0.000000 0.000000 0.000000 0.000000 0.425783
#
#
# Mechanical properties :
#
#
# Convention : Reuss Voigt Hill
#
# Bulk Modulus (GPa) = 25.81462 40.38639 33.10050
# Shear Modulus (GPa) = 8.61070 27.48779 18.04924
#
# Velocity S-wave (km/s) = 1.91869 3.42812 2.77789
# Velocity P-wave (km/s) = 3.99314 5.73898 4.94374
#
# Compressibility (1/GPa) = 0.03873775
#
# Stress axis : x y z
#
# Youngs Moduli (GPa) = 70.36944 38.04527 143.48398
#
# Poissons Ratio (x) = -0.07342 0.05751
# Poissons Ratio (y) = -0.13580 0.84546
# Poissons Ratio (z) = 0.02821 0.22418
#
# Static dielectric constant tensor:
#      x y z
#    x 1.855480 0.000000 0.000000 
#    y 0.000000 1.837390 0.000000 
#    z 0.000000 0.000000 1.955420 
# 
# From -- ./inp_files/3033.got.cif
#   From: 2010.05.17/outbox.cif.g08.bks.cpg/sg26_2_cif.got.tgz:3033.got - 2010.06.04 01:07:29.
