data_PCOD9338425
_publ_section_title
;
Structure prediction by ZEFSAII (Michael W. Deem and Ramdas Pophale) SiO2 
 PCOD9338425
Probable space group: P M C 21
;
_chemical_formula_sum "Si O2"
_cell_formula_units_Z 18
_cell_length_a 11.151176
_cell_length_b 5.179215
_cell_length_c 13.533637
_cell_angle_alpha 90.000000
_cell_angle_beta 90.000000
_cell_angle_gamma 90.000000
_cell_volume 781.626246
_symmetry_space_group_name_H-M "P M C 21"
_symmetry_group_IT_number 26
_symmetry_cell_setting 'orthorhombic'
loop_
_space_group_symop_operation_xyz
x,y,z
-x,-y,1/2+z
-x,y,z
x,-y,1/2+z
loop_
_atom_site_type_symbol
_atom_site_label
_atom_site_fract_x
_atom_site_fract_y
_atom_site_fract_z
Si Si1 0.000000 0.511959 0.406271
Si Si2 0.000000 0.126173 0.060230
Si Si3 0.641197 0.932536 0.768707
Si Si4 0.000000 0.229466 0.722753
Si Si5 0.741156 0.570449 0.161703
Si Si6 0.787542 0.807385 0.958017
O O1 0.121161 0.359504 0.391517
O O2 0.000000 0.586784 0.520946
O O3 0.000000 0.765862 0.340292
O O4 0.000000 0.050991 0.173880
O O5 0.121764 0.001808 0.015002
O O6 0.500000 0.884349 0.773417
O O7 0.700391 0.709512 0.699673
O O8 0.696636 0.926238 0.879331
O O9 0.668009 0.208905 0.719842
O O10 0.120654 0.371782 0.689598
O O11 0.729531 0.631085 0.044313
#
# Coordination Sequence:
#
# PCOD9338425 Si02
#       6
#     2   2   4   2   4   4
#     4  11  19  41  68 103 140 179 226 288 365 428
#     4   9  21  37  63 107 137 174 224 282 361 421
#     4  12  27  47  70  98 139 192 242 282 341 413
#     4  10  20  40  71 102 143 177 218 294 358 419
#     4  11  26  45  72 107 137 182 230 294 354 417
#     4  10  24  42  68 101 137 181 231 291 352 418
#
# _framework density 23.028908999999999
#
# number of rings (size 3 to 8) (size 9 to 14) (size 15 to 20)
#    0.000    1.333    2.222    2.667    6.222    3.556 
#    0.000    0.000    0.000    0.000    0.000    0.000 
#    0.000    0.000    0.000    0.000    0.000    0.000 
#
# Total GULP energy -100697.423768 kJ/mol
# GULP energy per Si atom -5594.301320 kJ/mol
# Density = 2.297649 g / cm^3
# Si number density = 23.028909 Si / 1000 Ang^3
#
#
#
# Elastic Constant Matrix: (Units=GPa)
#
#
# Indices 1 2 3 4 5 6 
#
# 1 114.9319 6.6804 23.1550 0.0000 0.0000 0.0000
# 2 6.6804 57.0506 2.2353 0.0000 0.0000 0.0000
# 3 23.1550 2.2353 126.6512 0.0000 0.0000 0.0000
# 4 0.0000 0.0000 0.0000 36.5605 0.0000 0.0000
# 5 0.0000 0.0000 0.0000 0.0000 21.0764 0.0000
# 6 0.0000 0.0000 0.0000 0.0000 0.0000 25.1363
#
#
#
# Elastic Compliance Matrix: (Units=1/GPa)
#
#
# Indices 1 2 3 4 5 6 
#
# 1 0.009090 -0.001000 -0.001644 0.000000 0.000000 0.000000
# 2 -0.001000 0.017650 -0.000129 0.000000 0.000000 0.000000
# 3 -0.001644 -0.000129 0.008199 0.000000 0.000000 0.000000
# 4 0.000000 0.000000 0.000000 0.027352 0.000000 0.000000
# 5 0.000000 0.000000 0.000000 0.000000 0.047446 0.000000
# 6 0.000000 0.000000 0.000000 0.000000 0.000000 0.039783
#
#
# Mechanical properties :
#
#
# Convention : Reuss Voigt Hill
#
# Bulk Modulus (GPa) = 34.02135 40.30833 37.16484
# Shear Modulus (GPa) = 30.32799 34.32553 32.32676
#
# Velocity S-wave (km/s) = 3.63292 3.86494 3.75073
# Velocity P-wave (km/s) = 5.69235 6.12033 5.91021
#
# Compressibility (1/GPa) = 0.02939331
#
# Stress axis : x y z
#
# Youngs Moduli (GPa) = 110.00866 56.65585 121.97223
#
# Poissons Ratio (x) = 0.05666 0.20055
# Poissons Ratio (y) = 0.11001 0.01570
# Poissons Ratio (z) = 0.18088 0.00729
#
# Static dielectric constant tensor:
#      x y z
#    x 1.821730 0.000000 0.000000 
#    y 0.000000 1.882260 0.000000 
#    z 0.000000 0.000000 1.859250 
# 
# From -- ./inp_files/4389.got.cif
#   From: 2010.05.17/outbox.cif.g08.bks.cpg/sg26_3_cif.got.tgz:4389.got - 2010.06.04 01:07:29.
