data_PCOD9338722
_publ_section_title
;
Structure prediction by ZEFSAII (Michael W. Deem and Ramdas Pophale) SiO2 
 PCOD9338722
Probable space group: P C C 2
;
_chemical_formula_sum "Si O2"
_cell_formula_units_Z 24
_cell_length_a 22.617563
_cell_length_b 10.784401
_cell_length_c 5.463409
_cell_angle_alpha 90.000000
_cell_angle_beta 90.000000
_cell_angle_gamma 90.000000
_cell_volume 1332.617618
_symmetry_space_group_name_H-M "P C C 2"
_symmetry_group_IT_number 27
_symmetry_cell_setting 'orthorhombic'
loop_
_space_group_symop_operation_xyz
x,y,z
-x,-y,z
-x,y,1/2+z
x,-y,1/2+z
loop_
_atom_site_type_symbol
_atom_site_label
_atom_site_fract_x
_atom_site_fract_y
_atom_site_fract_z
Si Si1 0.665943 0.375811 0.155780
Si Si2 0.286861 0.653692 0.655777
Si Si3 0.975338 0.643029 0.155093
Si Si4 0.536711 0.339858 0.154507
Si Si5 0.432404 0.051023 0.648892
Si Si6 0.839717 0.580473 0.155099
O O1 0.682253 0.304967 0.404946
O O2 0.703035 0.503566 0.156086
O O3 0.597538 0.415237 0.154920
O O4 0.682506 0.304858 0.907037
O O5 0.216676 0.671114 0.655090
O O6 0.904708 0.639245 0.155075
O O7 0.000000 0.500000 0.155098
O O8 0.999998 0.699733 0.405095
O O9 0.499979 0.358589 0.404438
O O10 0.560000 0.198132 0.153962
O O11 0.500000 0.000000 0.646383
O O12 0.404699 0.001786 0.397479
O O13 0.835725 0.500034 0.405147
#
# Coordination Sequence:
#
# PCOD9338722 Si02
#       6
#     4   4   4   4   4   4
#     4  10  20  32  46  57  76  97 131 173 194 226
#     4  10  19  35  42  54  74 107 143 170 196 216
#     4  10  16  22  31  54  79  90 114 162 210 236
#     4  12  21  32  47  67  80  98 121 151 204 253
#     4  10  16  30  48  64  85  98 112 137 176 251
#     4  12  16  25  43  52  67 103 134 158 204 238
#
# _framework density 18.009667
#
# number of rings (size 3 to 8) (size 9 to 14) (size 15 to 20)
#    0.000    1.333   10.000    1.000    0.000    0.000 
#    0.000   10.000    0.000    0.000    0.000    0.000 
#    0.000    0.000    0.000    0.000    0.000    0.000 
#
# Total GULP energy -133798.896169 kJ/mol
# GULP energy per Si atom -5574.954007 kJ/mol
# Density = 1.796868 g / cm^3
# Si number density = 18.009667 Si / 1000 Ang^3
#
#
#
# Elastic Constant Matrix: (Units=GPa)
#
#
# Indices 1 2 3 4 5 6 
#
# 1 141.5453 -7.5406 61.3455 0.0000 0.0000 0.0000
# 2 -7.5406 33.3788 -0.2280 0.0000 0.0000 0.0000
# 3 61.3455 -0.2280 236.3606 0.0000 0.0000 0.0000
# 4 0.0000 0.0000 0.0000 -4.3708 0.0000 0.0000
# 5 0.0000 0.0000 0.0000 0.0000 26.5902 0.0000
# 6 0.0000 0.0000 0.0000 0.0000 0.0000 14.3321
#
#
#
# Elastic Compliance Matrix: (Units=1/GPa)
#
#
# Indices 1 2 3 4 5 6 
#
# 1 0.008068 0.001808 -0.002092 0.000000 0.000000 0.000000
# 2 0.001808 0.030365 -0.000440 0.000000 0.000000 0.000000
# 3 -0.002092 -0.000440 0.004773 0.000000 0.000000 0.000000
# 4 0.000000 0.000000 0.000000 -0.228789 0.000000 0.000000
# 5 0.000000 0.000000 0.000000 0.000000 0.037608 0.000000
# 6 0.000000 0.000000 0.000000 0.000000 0.000000 0.069773
#
#
# Mechanical properties :
#
#
# Convention : Reuss Voigt Hill
#
# Bulk Modulus (GPa) = 23.94739 57.60429 40.77584
# Shear Modulus (GPa) = -79.57412 31.15748 -24.20832
#
# Velocity S-wave (km/s) = -6.65432 4.16389 -3.67029
# Velocity P-wave (km/s) = 6.76123 7.42778 2.17460
#
# Compressibility (1/GPa) = 0.04175821
#
# Stress axis : x y z
#
# Youngs Moduli (GPa) = 123.94673 32.93299 209.49335
#
# Poissons Ratio (x) = -0.05955 0.43831
# Poissons Ratio (y) = -0.22414 0.09219
# Poissons Ratio (z) = 0.25933 0.01449
#
# Static dielectric constant tensor:
#      x y z
#    x 1.559300 0.000000 0.000000 
#    y 0.000000 1.617640 0.000000 
#    z 0.000000 0.000000 1.754920 
# 
# From -- ./inp_files/335.got.cif
#   From: 2010.05.17/outbox.cif.g08.bks.cpg/sg27_1_cif.got.tgz:335.got - 2010.06.04 01:11:05.
