data_PCOD9338162
_publ_section_title
;
Structure prediction by ZEFSAII (Michael W. Deem and Ramdas Pophale) SiO2 
 PCOD9338162
Probable space group: P M C 21
;
_chemical_formula_sum "Si O2"
_cell_formula_units_Z 32
_cell_length_a 7.578330
_cell_length_b 15.815282
_cell_length_c 11.580250
_cell_angle_alpha 90.000000
_cell_angle_beta 90.000000
_cell_angle_gamma 90.000000
_cell_volume 1387.932637
_symmetry_space_group_name_H-M "P M C 21"
_symmetry_group_IT_number 26
_symmetry_cell_setting 'orthorhombic'
loop_
_space_group_symop_operation_xyz
x,y,z
-x,-y,1/2+z
-x,y,z
x,-y,1/2+z
loop_
_atom_site_type_symbol
_atom_site_label
_atom_site_fract_x
_atom_site_fract_y
_atom_site_fract_z
Si Si1 0.701323 0.274735 0.469790
Si Si2 0.286977 0.707140 0.333808
Si Si3 0.796089 0.544679 0.027726
Si Si4 0.717396 0.161055 0.279468
Si Si5 0.715038 0.836526 0.516883
Si Si6 0.203387 0.516860 0.281633
Si Si7 0.797177 0.146504 0.652678
Si Si8 0.706994 0.020103 0.843316
O O1 0.500000 0.302207 0.458073
O O2 0.793943 0.353041 0.530906
O O3 0.775397 0.244577 0.347441
O O4 0.704533 0.188191 0.543407
O O5 0.500000 0.701493 0.323026
O O6 0.240497 0.747541 0.457112
O O7 0.208762 0.616778 0.307384
O O8 0.221954 0.778124 0.245462
O O9 0.718319 0.522062 0.900719
O O10 0.000000 0.516357 0.024389
O O11 0.720897 0.509398 0.150038
O O12 0.500000 0.161609 0.282163
O O13 0.773461 0.159309 0.147444
O O14 0.780624 0.073798 0.337069
O O15 0.500000 0.840988 0.514855
O O16 0.780555 0.914408 0.437673
O O17 0.000000 0.487309 0.275015
O O18 0.722741 0.064733 0.717700
O O19 0.000000 0.131316 0.624765
O O20 0.500000 0.011944 0.868885
#
# Coordination Sequence:
#
# PCOD9338162 Si02
#       8
#     4   4   4   4   4   4   4   4
#     4  11  22  36  58  87 114 150 195 240 286 342
#     4  10  19  34  59  85 109 142 187 236 282 336
#     4  10  22  40  60  84 117 157 196 239 293 356
#     4   9  19  33  54  83 115 148 186 236 293 342
#     4   8  16  31  50  79 114 142 178 232 288 338
#     4  10  21  38  60  85 116 154 195 236 290 355
#     4  11  21  35  56  80 112 149 185 233 284 338
#     4   9  18  33  57  83 107 144 192 238 280 337
#
# _framework density 23.055873999999999
#
# number of rings (size 3 to 8) (size 9 to 14) (size 15 to 20)
#    0.000    2.250    1.250    2.625    1.750    1.500 
#    0.000    1.250    0.000    7.500    0.000    0.000 
#    0.000    0.000    0.000    0.000    0.000    0.000 
#
# Total GULP energy -178531.384428 kJ/mol
# GULP energy per Si atom -5579.105763 kJ/mol
# Density = 2.300340 g / cm^3
# Si number density = 23.055874 Si / 1000 Ang^3
#
#
#
# Elastic Constant Matrix: (Units=GPa)
#
#
# Indices 1 2 3 4 5 6 
#
# 1 57.2811 -6.3283 5.8867 0.0000 0.0000 0.0000
# 2 -6.3283 44.2327 34.5290 0.0000 0.0000 0.0000
# 3 5.8867 34.5290 164.0542 0.0000 0.0000 0.0000
# 4 0.0000 0.0000 0.0000 28.8560 0.0000 0.0000
# 5 0.0000 0.0000 0.0000 0.0000 -5.1244 0.0000
# 6 0.0000 0.0000 0.0000 0.0000 0.0000 7.2785
#
#
#
# Elastic Compliance Matrix: (Units=1/GPa)
#
#
# Indices 1 2 3 4 5 6 
#
# 1 0.018011 0.003687 -0.001422 0.000000 0.000000 0.000000
# 2 0.003687 0.027807 -0.005985 0.000000 0.000000 0.000000
# 3 -0.001422 -0.005985 0.007406 0.000000 0.000000 0.000000
# 4 0.000000 0.000000 0.000000 0.034655 0.000000 0.000000
# 5 0.000000 0.000000 0.000000 0.000000 -0.195145 0.000000
# 6 0.000000 0.000000 0.000000 0.000000 0.000000 0.137390
#
#
# Mechanical properties :
#
#
# Convention : Reuss Voigt Hill
#
# Bulk Modulus (GPa) = 21.84146 37.08251 29.46198
# Shear Modulus (GPa) = 94.64966 21.63408 58.14187
#
# Velocity S-wave (km/s) = 6.41416 3.06654 5.02718
# Velocity P-wave (km/s) = 8.02179 5.35322 6.81931
#
# Compressibility (1/GPa) = 0.04578449
#
# Stress axis : x y z
#
# Youngs Moduli (GPa) = 55.52068 35.96190 135.02092
#
# Poissons Ratio (x) = -0.13260 0.19205
# Poissons Ratio (y) = -0.20471 0.80810
# Poissons Ratio (z) = 0.07897 0.21523
#
# Static dielectric constant tensor:
#      x y z
#    x 1.878170 0.000000 0.000000 
#    y 0.000000 1.820620 0.000000 
#    z 0.000000 0.000000 1.935680 
# 
# From -- ./inp_files/3118.got.cif
#   From: 2010.05.17/outbox.cif.g08.bks.cpg/sg26_2_cif.got.tgz:3118.got - 2010.06.04 01:07:29.
