data_PCOD9338997
_publ_section_title
;
Structure prediction by ZEFSAII (Michael W. Deem and Ramdas Pophale) SiO2 
 PCOD9338997
Probable space group: P C C 2
;
_chemical_formula_sum "Si O2"
_cell_formula_units_Z 32
_cell_length_a 14.262629
_cell_length_b 8.247929
_cell_length_c 11.820065
_cell_angle_alpha 90.000000
_cell_angle_beta 90.000000
_cell_angle_gamma 90.000000
_cell_volume 1390.478775
_symmetry_space_group_name_H-M "P C C 2"
_symmetry_group_IT_number 27
_symmetry_cell_setting 'orthorhombic'
loop_
_space_group_symop_operation_xyz
x,y,z
-x,-y,z
-x,y,1/2+z
x,-y,1/2+z
loop_
_atom_site_type_symbol
_atom_site_label
_atom_site_fract_x
_atom_site_fract_y
_atom_site_fract_z
Si Si1 0.178813 0.838154 0.775100
Si Si2 0.961419 0.184147 0.962647
Si Si3 0.799194 0.353211 0.087692
Si Si4 0.368095 0.295806 0.749754
Si Si5 0.852501 0.296158 0.551285
Si Si6 0.575936 0.860806 0.527909
Si Si7 0.284652 0.089109 0.921882
Si Si8 0.339762 0.369872 0.369247
O O1 0.146760 0.842587 0.647071
O O2 0.272428 0.726944 0.782766
O O3 0.209875 0.996853 0.843623
O O4 0.090993 0.774073 0.846316
O O5 0.880926 0.228633 0.054050
O O6 0.052489 0.291853 0.982015
O O7 0.000000 0.000000 0.963786
O O8 0.735700 0.302569 0.192672
O O9 0.842372 0.529872 0.108024
O O10 0.728964 0.383507 0.979677
O O11 0.430187 0.246449 0.641682
O O12 0.366601 0.152418 0.840756
O O13 0.377921 0.467804 0.812043
O O14 0.764227 0.244302 0.476040
O O15 0.577952 0.742878 0.419342
O O16 0.500000 0.000000 0.530352
O O17 0.673738 0.962391 0.512634
#
# Coordination Sequence:
#
# PCOD9338997 Si02
#       8
#     4   4   4   4   4   4   4   4
#     4  10  22  40  59  93 129 184 236 286 352 424
#     4  11  24  39  56  93 137 178 233 294 355 405
#     4  10  22  40  62  99 133 181 236 289 344 410
#     4  11  21  41  77 101 129 186 236 284 355 428
#     4  12  22  39  64  88 136 181 237 299 346 412
#     4  10  24  45  71 108 150 174 223 296 363 444
#     4  11  23  40  68  98 131 188 235 289 357 434
#     4   9  19  41  70  98 137 175 233 280 345 426
#
# _framework density 23.013656000000001
#
# number of rings (size 3 to 8) (size 9 to 14) (size 15 to 20)
#    0.000    1.500    3.750    1.875    1.750    2.000 
#    0.000    1.875    2.750    0.000    0.000    3.500 
#    0.000    0.000    0.000    0.000    0.000    0.000 
#
# Total GULP energy -178729.339311 kJ/mol
# GULP energy per Si atom -5585.291853 kJ/mol
# Density = 2.296128 g / cm^3
# Si number density = 23.013656 Si / 1000 Ang^3
#
#
#
# Elastic Constant Matrix: (Units=GPa)
#
#
# Indices 1 2 3 4 5 6 
#
# 1 64.0993 24.1556 28.1467 0.0000 0.0000 0.0000
# 2 24.1556 104.8082 34.2714 0.0000 0.0000 0.0000
# 3 28.1467 34.2714 69.0239 0.0000 0.0000 0.0000
# 4 0.0000 0.0000 0.0000 35.1661 0.0000 0.0000
# 5 0.0000 0.0000 0.0000 0.0000 7.3267 0.0000
# 6 0.0000 0.0000 0.0000 0.0000 0.0000 39.5137
#
#
#
# Elastic Compliance Matrix: (Units=1/GPa)
#
#
# Indices 1 2 3 4 5 6 
#
# 1 0.019440 -0.002254 -0.006808 0.000000 0.000000 0.000000
# 2 -0.002254 0.011652 -0.004866 0.000000 0.000000 0.000000
# 3 -0.006808 -0.004866 0.019680 0.000000 0.000000 0.000000
# 4 0.000000 0.000000 0.000000 0.028436 0.000000 0.000000
# 5 0.000000 0.000000 0.000000 0.000000 0.136488 0.000000
# 6 0.000000 0.000000 0.000000 0.000000 0.000000 0.025308
#
#
# Mechanical properties :
#
#
# Convention : Reuss Voigt Hill
#
# Bulk Modulus (GPa) = 43.63931 45.67542 44.65737
# Shear Modulus (GPa) = 18.08328 26.49181 22.28754
#
# Velocity S-wave (km/s) = 2.80619 3.39652 3.11537
# Velocity P-wave (km/s) = 5.43168 5.93902 5.69100
#
# Compressibility (1/GPa) = 0.02291512
#
# Stress axis : x y z
#
# Youngs Moduli (GPa) = 51.44109 85.82240 50.81311
#
# Poissons Ratio (x) = 0.19346 0.34593
# Poissons Ratio (y) = 0.11596 0.24726
# Poissons Ratio (z) = 0.35021 0.41762
#
# Static dielectric constant tensor:
#      x y z
#    x 1.894710 0.000000 0.000000 
#    y 0.000000 1.866010 0.000000 
#    z 0.000000 0.000000 1.838000 
# 
# From -- ./inp_files/2767.got.cif
#   From: 2010.05.17/outbox.cif.g08.bks.cpg/sg27_2_cif.got.tgz:2767.got - 2010.06.04 01:11:05.
