data_PCOD9338829
_publ_section_title
;
Structure prediction by ZEFSAII (Michael W. Deem and Ramdas Pophale) SiO2 
 PCOD9338829
Probable space group: P C C 2
;
_chemical_formula_sum "Si O2"
_cell_formula_units_Z 24
_cell_length_a 5.107046
_cell_length_b 7.961667
_cell_length_c 30.867273
_cell_angle_alpha 90.000000
_cell_angle_beta 90.000000
_cell_angle_gamma 90.000000
_cell_volume 1255.081828
_symmetry_space_group_name_H-M "P C C 2"
_symmetry_group_IT_number 27
_symmetry_cell_setting 'orthorhombic'
loop_
_space_group_symop_operation_xyz
x,y,z
-x,-y,z
-x,y,1/2+z
x,-y,1/2+z
loop_
_atom_site_type_symbol
_atom_site_label
_atom_site_fract_x
_atom_site_fract_y
_atom_site_fract_z
Si Si1 0.117477 0.187017 0.785830
Si Si2 0.749062 0.621723 0.958797
Si Si3 0.248250 0.119728 0.880552
Si Si4 0.250472 0.622499 0.647098
Si Si5 0.249154 0.621901 0.553577
Si Si6 0.380903 0.312431 0.239601
O O1 0.200373 0.217613 0.835468
O O2 0.378400 0.202784 0.757151
O O3 0.877910 0.300222 0.769003
O O4 0.000000 0.000000 0.783910
O O5 0.500000 0.500000 0.957344
O O6 0.729583 0.754798 0.920562
O O7 0.000000 0.500000 0.954301
O O8 0.756111 0.708415 0.006613
O O9 0.500000 0.000000 0.875772
O O10 0.000000 0.000000 0.887564
O O11 0.500000 0.500000 0.644829
O O12 0.239650 0.713212 0.600224
O O13 0.290185 0.728867 0.690579
O O14 0.000000 0.500000 0.652526
O O15 0.500000 0.500000 0.553287
O O16 0.000000 0.500000 0.554134
O O17 0.500000 0.500000 0.239810
#
# Coordination Sequence:
#
# PCOD9338829 Si02
#       6
#     4   4   4   4   4   4
#     4  11  23  39  54  74 108 148 178 211 268 330
#     4  10  20  35  57  86 108 133 177 228 265 301
#     4  11  23  40  57  76 106 148 181 211 267 333
#     4   9  16  29  49  78 109 137 168 211 263 315
#     4   8  15  28  49  76 108 136 165 208 263 315
#     4  11  21  35  57  84 106 134 180 229 261 298
#
# _framework density 19.122261000000002
#
# number of rings (size 3 to 8) (size 9 to 14) (size 15 to 20)
#    0.000    2.000    0.000    6.000    0.000    2.000 
#    0.000    0.000    0.000    3.000    0.000    0.000 
#    0.000    0.000    0.000    0.000    0.000    0.000 
#
# Total GULP energy -133792.781991 kJ/mol
# GULP energy per Si atom -5574.699250 kJ/mol
# Density = 1.907874 g / cm^3
# Si number density = 19.122261 Si / 1000 Ang^3
#
#
#
# Elastic Constant Matrix: (Units=GPa)
#
#
# Indices 1 2 3 4 5 6 
#
# 1 153.9300 12.3437 51.9935 0.0000 0.0000 0.0000
# 2 12.3437 21.9753 45.2295 0.0000 0.0000 0.0000
# 3 51.9935 45.2295 228.8662 0.0000 0.0000 0.0000
# 4 0.0000 0.0000 0.0000 -44.2667 0.0000 0.0000
# 5 0.0000 0.0000 0.0000 0.0000 30.5771 0.0000
# 6 0.0000 0.0000 0.0000 0.0000 0.0000 30.1781
#
#
#
# Elastic Compliance Matrix: (Units=1/GPa)
#
#
# Indices 1 2 3 4 5 6 
#
# 1 0.007053 -0.001119 -0.001381 0.000000 0.000000 0.000000
# 2 -0.001119 0.076883 -0.014940 0.000000 0.000000 0.000000
# 3 -0.001381 -0.014940 0.007636 0.000000 0.000000 0.000000
# 4 0.000000 0.000000 0.000000 -0.022590 0.000000 0.000000
# 5 0.000000 0.000000 0.000000 0.000000 0.032704 0.000000
# 6 0.000000 0.000000 0.000000 0.000000 0.000000 0.033137
#
#
# Mechanical properties :
#
#
# Convention : Reuss Voigt Hill
#
# Bulk Modulus (GPa) = 17.63923 69.32277 43.48100
# Shear Modulus (GPa) = 26.51124 22.97801 24.74463
#
# Velocity S-wave (km/s) = 3.72749 3.47022 3.60115
# Velocity P-wave (km/s) = 5.26973 7.23793 6.33079
#
# Compressibility (1/GPa) = 0.05669181
#
# Stress axis : x y z
#
# Youngs Moduli (GPa) = 141.79000 13.00671 130.96588
#
# Poissons Ratio (x) = 0.01456 0.18087
# Poissons Ratio (y) = 0.15867 1.95660
# Poissons Ratio (z) = 0.19582 0.19432
#
# Static dielectric constant tensor:
#      x y z
#    x 1.619790 0.000000 0.000000 
#    y 0.000000 1.622820 0.000000 
#    z 0.000000 0.000000 1.753630 
# 
# From -- ./inp_files/5192.got.cif
#   From: 2010.05.17/outbox.cif.g08.bks.cpg/sg27_3_cif.got.tgz:5192.got - 2010.06.04 01:11:05.
