data_PCOD9338065
_publ_section_title
;
Structure prediction by ZEFSAII (Michael W. Deem and Ramdas Pophale) SiO2 
 PCOD9338065
Probable space group: P M C 21
;
_chemical_formula_sum "Si O2"
_cell_formula_units_Z 32
_cell_length_a 7.628594
_cell_length_b 12.795630
_cell_length_c 14.467387
_cell_angle_alpha 90.000000
_cell_angle_beta 90.000000
_cell_angle_gamma 90.000000
_cell_volume 1412.200219
_symmetry_space_group_name_H-M "P M C 21"
_symmetry_group_IT_number 26
_symmetry_cell_setting 'orthorhombic'
loop_
_space_group_symop_operation_xyz
x,y,z
-x,-y,1/2+z
-x,y,z
x,-y,1/2+z
loop_
_atom_site_type_symbol
_atom_site_label
_atom_site_fract_x
_atom_site_fract_y
_atom_site_fract_z
Si Si1 0.302886 0.231993 0.016150
Si Si2 0.784646 0.879529 0.975298
Si Si3 0.798146 0.074263 0.862072
Si Si4 0.709749 0.358756 0.177525
Si Si5 0.203445 0.435241 0.917290
Si Si6 0.211046 0.823182 0.173335
Si Si7 0.291018 0.413803 0.703963
Si Si8 0.789488 0.661132 0.892902
O O1 0.500000 0.190056 0.027411
O O2 0.220165 0.265130 0.113825
O O3 0.205268 0.155932 0.946585
O O4 0.307348 0.344165 0.966058
O O5 0.731318 0.886771 0.082597
O O6 0.000000 0.882900 0.974200
O O7 0.727020 0.766142 0.940169
O O8 0.720454 0.968910 0.905709
O O9 0.721021 0.128526 0.770114
O O10 0.000000 0.050230 0.838650
O O11 0.500000 0.356743 0.163354
O O12 0.771396 0.477849 0.156266
O O13 0.747129 0.339093 0.284526
O O14 0.211874 0.416115 0.807075
O O15 0.275576 0.551455 0.933773
O O16 0.000000 0.427898 0.945537
O O17 0.253561 0.699969 0.162641
O O18 0.000000 0.826655 0.176669
O O19 0.500000 0.423238 0.713775
O O20 0.000000 0.657653 0.902018
#
# Coordination Sequence:
#
# PCOD9338065 Si02
#       8
#     4   4   4   4   4   4   4   4
#     4  11  22  36  55  81 116 154 191 234 283 337
#     4   9  20  38  59  85 115 149 191 241 291 336
#     4  10  21  38  59  83 113 150 196 237 281 342
#     4   9  21  37  53  80 118 157 191 230 286 343
#     4  10  19  32  53  83 115 147 186 232 283 337
#     4  10  20  35  57  83 112 147 189 239 286 337
#     4  10  19  34  55  80 113 151 190 232 283 341
#     4   9  19  36  57  83 114 147 188 237 285 337
#
# _framework density 22.659678
#
# number of rings (size 3 to 8) (size 9 to 14) (size 15 to 20)
#    0.000    2.250    1.250    1.125    1.750    3.000 
#    0.000    4.375    0.000    0.000    0.000    0.000 
#    0.000    0.000    0.000    0.000    0.000    0.000 
#
# Total GULP energy -178655.365271 kJ/mol
# GULP energy per Si atom -5582.980165 kJ/mol
# Density = 2.260810 g / cm^3
# Si number density = 22.659678 Si / 1000 Ang^3
#
#
#
# Elastic Constant Matrix: (Units=GPa)
#
#
# Indices 1 2 3 4 5 6 
#
# 1 59.0310 -0.9636 -6.5737 0.0000 0.0000 0.0000
# 2 -0.9636 100.0830 28.3174 0.0000 0.0000 0.0000
# 3 -6.5737 28.3174 65.0775 0.0000 0.0000 0.0000
# 4 0.0000 0.0000 0.0000 22.7744 0.0000 0.0000
# 5 0.0000 0.0000 0.0000 0.0000 27.4193 0.0000
# 6 0.0000 0.0000 0.0000 0.0000 0.0000 -10.0498
#
#
#
# Elastic Compliance Matrix: (Units=1/GPa)
#
#
# Indices 1 2 3 4 5 6 
#
# 1 0.017145 -0.000371 0.001893 0.000000 0.000000 0.000000
# 2 -0.000371 0.011403 -0.004999 0.000000 0.000000 0.000000
# 3 0.001893 -0.004999 0.017733 0.000000 0.000000 0.000000
# 4 0.000000 0.000000 0.000000 0.043909 0.000000 0.000000
# 5 0.000000 0.000000 0.000000 0.000000 0.036471 0.000000
# 6 0.000000 0.000000 0.000000 0.000000 0.000000 -0.099504
#
#
# Mechanical properties :
#
#
# Convention : Reuss Voigt Hill
#
# Bulk Modulus (GPa) = 25.42759 29.52796 27.47777
# Shear Modulus (GPa) = 105.89183 21.58953 63.74068
#
# Velocity S-wave (km/s) = 6.84345 3.09005 5.30948
# Velocity P-wave (km/s) = 8.58427 5.07844 7.05267
#
# Compressibility (1/GPa) = 0.03932736
#
# Stress axis : x y z
#
# Youngs Moduli (GPa) = 58.32597 87.69947 56.39270
#
# Poissons Ratio (x) = 0.03250 -0.10676
# Poissons Ratio (y) = 0.02161 0.28191
# Poissons Ratio (z) = -0.11042 0.43842
#
# Static dielectric constant tensor:
#      x y z
#    x 1.853210 0.000000 0.000000 
#    y 0.000000 1.847380 0.000000 
#    z 0.000000 0.000000 1.866010 
# 
# From -- ./inp_files/4229.got.cif
#   From: 2010.05.17/outbox.cif.g08.bks.cpg/sg26_3_cif.got.tgz:4229.got - 2010.06.04 01:07:29.
