data_PCOD9338737
_publ_section_title
;
Structure prediction by ZEFSAII (Michael W. Deem and Ramdas Pophale) SiO2 
 PCOD9338737
Probable space group: P C C 2
;
_chemical_formula_sum "Si O2"
_cell_formula_units_Z 24
_cell_length_a 21.317854
_cell_length_b 9.258462
_cell_length_c 5.577633
_cell_angle_alpha 90.000000
_cell_angle_beta 90.000000
_cell_angle_gamma 90.000000
_cell_volume 1100.860444
_symmetry_space_group_name_H-M "P C C 2"
_symmetry_group_IT_number 27
_symmetry_cell_setting 'orthorhombic'
loop_
_space_group_symop_operation_xyz
x,y,z
-x,-y,z
-x,y,1/2+z
x,-y,1/2+z
loop_
_atom_site_type_symbol
_atom_site_label
_atom_site_fract_x
_atom_site_fract_y
_atom_site_fract_z
Si Si1 0.662428 0.083999 0.182650
Si Si2 0.475544 0.830629 0.249946
Si Si3 0.838069 0.759144 0.246148
Si Si4 0.737967 0.487751 0.762522
Si Si5 0.800017 0.211259 0.246573
Si Si6 0.024241 0.664725 0.671882
O O1 0.599094 0.173251 0.219725
O O2 0.728931 0.159654 0.216113
O O3 0.659990 0.973844 0.409366
O O4 0.494514 0.768540 0.507562
O O5 0.500000 0.000000 0.257612
O O6 0.775492 0.661444 0.261418
O O7 0.839356 0.826730 0.510565
O O8 0.901402 0.669823 0.208942
O O9 0.827554 0.843585 0.998068
O O10 0.702255 0.499736 0.512406
O O11 0.791528 0.613650 0.763302
O O12 0.000000 0.500000 0.658453
O O13 0.006394 0.730739 0.413065
#
# Coordination Sequence:
#
# PCOD9338737 Si02
#       6
#     4   4   4   4   4   4
#     4  12  21  33  51  74 109 131 177 210 245 307
#     4  10  16  30  49  73  94 140 149 199 268 312
#     4  10  19  34  48  68 109 136 160 204 256 306
#     4   8  16  27  47  60  90 132 160 186 245 286
#     4  10  21  31  48  70  97 145 169 198 250 306
#     4  10  21  27  46  75 100 135 161 192 250 319
#
# _framework density 21.801129
#
# number of rings (size 3 to 8) (size 9 to 14) (size 15 to 20)
#    0.000    2.000    3.333    2.000   14.000    0.000 
#    0.000    0.000    0.000    0.000    0.000    0.000 
#    0.000   82.667    0.000    0.000    0.000    0.000 
#
# Total GULP energy -133711.986192 kJ/mol
# GULP energy per Si atom -5571.332758 kJ/mol
# Density = 2.175151 g / cm^3
# Si number density = 21.801129 Si / 1000 Ang^3
#
#
#
# Elastic Constant Matrix: (Units=GPa)
#
#
# Indices 1 2 3 4 5 6 
#
# 1 66.0100 -12.0292 -18.0987 0.0000 0.0000 0.0000
# 2 -12.0292 23.5507 -4.3673 0.0000 0.0000 0.0000
# 3 -18.0987 -4.3673 187.6012 0.0000 0.0000 0.0000
# 4 0.0000 0.0000 0.0000 -0.2510 0.0000 0.0000
# 5 0.0000 0.0000 0.0000 0.0000 33.8739 0.0000
# 6 0.0000 0.0000 0.0000 0.0000 0.0000 33.3303
#
#
#
# Elastic Compliance Matrix: (Units=1/GPa)
#
#
# Indices 1 2 3 4 5 6 
#
# 1 0.017345 0.009210 0.001888 0.000000 0.000000 0.000000
# 2 0.009210 0.047536 0.001995 0.000000 0.000000 0.000000
# 3 0.001888 0.001995 0.005559 0.000000 0.000000 0.000000
# 4 0.000000 0.000000 0.000000 -3.983739 0.000000 0.000000
# 5 0.000000 0.000000 0.000000 0.000000 0.029521 0.000000
# 6 0.000000 0.000000 0.000000 0.000000 0.000000 0.030003
#
#
# Mechanical properties :
#
#
# Convention : Reuss Voigt Hill
#
# Bulk Modulus (GPa) = 10.34934 23.13018 16.73976
# Shear Modulus (GPa) = -1.29946 34.16776 16.43415
#
# Velocity S-wave (km/s) = -0.77288 3.96314 2.74856
# Velocity P-wave (km/s) = 1.99023 5.61913 4.21519
#
# Compressibility (1/GPa) = 0.09662452
#
# Stress axis : x y z
#
# Youngs Moduli (GPa) = 57.65326 21.03684 179.88782
#
# Poissons Ratio (x) = -0.19374 -0.33958
# Poissons Ratio (y) = -0.53096 -0.35889
# Poissons Ratio (z) = -0.10883 -0.04197
#
# Static dielectric constant tensor:
#      x y z
#    x 1.725030 0.000000 0.000000 
#    y 0.000000 1.807020 0.000000 
#    z 0.000000 0.000000 1.969510 
# 
# From -- ./inp_files/315.got.cif
#   From: 2010.05.17/outbox.cif.g08.bks.cpg/sg27_1_cif.got.tgz:315.got - 2010.06.04 01:11:05.
