data_PCOD9338096
_publ_section_title
;
Structure prediction by ZEFSAII (Michael W. Deem and Ramdas Pophale) SiO2 
 PCOD9338096
Probable space group: P M C 21
;
_chemical_formula_sum "Si O2"
_cell_formula_units_Z 32
_cell_length_a 12.805836
_cell_length_b 8.458737
_cell_length_c 14.219783
_cell_angle_alpha 90.000000
_cell_angle_beta 90.000000
_cell_angle_gamma 90.000000
_cell_volume 1540.303941
_symmetry_space_group_name_H-M "P M C 21"
_symmetry_group_IT_number 26
_symmetry_cell_setting 'orthorhombic'
loop_
_space_group_symop_operation_xyz
x,y,z
-x,-y,1/2+z
-x,y,z
x,-y,1/2+z
loop_
_atom_site_type_symbol
_atom_site_label
_atom_site_fract_x
_atom_site_fract_y
_atom_site_fract_z
Si Si1 0.830963 0.437581 0.193280
Si Si2 0.615492 0.267796 0.161321
Si Si3 0.155295 0.746041 0.870705
Si Si4 0.109757 0.029164 0.528654
Si Si5 0.305615 0.979080 0.800896
Si Si6 0.703470 0.182946 0.969333
Si Si7 0.881313 0.422641 0.974694
Si Si8 0.880760 0.199038 0.722552
O O1 0.708933 0.387681 0.188255
O O2 0.878951 0.313268 0.267881
O O3 0.873974 0.420023 0.088007
O O4 0.850463 0.616048 0.228201
O O5 0.500000 0.324767 0.185943
O O6 0.633608 0.097857 0.213567
O O7 0.627138 0.245874 0.049060
O O8 0.269357 0.820397 0.855401
O O9 0.103251 0.886107 0.928352
O O10 0.144460 0.595596 0.936595
O O11 0.117189 0.155205 0.611875
O O12 0.000000 0.939252 0.544487
O O13 0.215432 0.931074 0.525286
O O14 0.349433 0.094975 0.881399
O O15 0.203187 0.076375 0.765406
O O16 0.788425 0.312628 0.936269
O O17 0.000000 0.383714 0.945707
O O18 0.000000 0.175976 0.757510
#
# Coordination Sequence:
#
# PCOD9338096 Si02
#       8
#     4   4   4   4   4   4   4   4
#     4  10  22  38  59  85 120 160 207 255 301 358
#     4  10  22  43  65  85 115 156 205 266 317 355
#     4  10  21  36  54  83 121 164 206 247 292 347
#     4  10  19  33  54  83 124 163 197 238 291 359
#     4  10  22  39  61  90 122 161 199 254 303 368
#     4  10  21  37  58  86 119 157 199 251 304 360
#     4  11  21  34  54  85 124 167 204 242 294 362
#     4  11  21  36  58  89 127 166 198 235 295 363
#
# _framework density 20.775120999999999
#
# number of rings (size 3 to 8) (size 9 to 14) (size 15 to 20)
#    0.000    1.750    2.500    1.875    0.000    6.500 
#    0.000    2.500    0.000   18.000    0.000    0.000 
#    0.000    0.000    0.000    0.000    0.000    0.000 
#
# Total GULP energy -178324.864154 kJ/mol
# GULP energy per Si atom -5572.652005 kJ/mol
# Density = 2.072784 g / cm^3
# Si number density = 20.775121 Si / 1000 Ang^3
#
#
#
# Elastic Constant Matrix: (Units=GPa)
#
#
# Indices 1 2 3 4 5 6 
#
# 1 90.7533 12.4394 4.4667 0.0000 0.0000 0.0000
# 2 12.4394 48.2919 -0.3855 0.0000 0.0000 0.0000
# 3 4.4667 -0.3855 86.2167 0.0000 0.0000 0.0000
# 4 0.0000 0.0000 0.0000 40.0840 0.0000 0.0000
# 5 0.0000 0.0000 0.0000 0.0000 0.7553 0.0000
# 6 0.0000 0.0000 0.0000 0.0000 0.0000 15.4267
#
#
#
# Elastic Compliance Matrix: (Units=1/GPa)
#
#
# Indices 1 2 3 4 5 6 
#
# 1 0.011454 -0.002955 -0.000607 0.000000 0.000000 0.000000
# 2 -0.002955 0.021471 0.000249 0.000000 0.000000 0.000000
# 3 -0.000607 0.000249 0.011631 0.000000 0.000000 0.000000
# 4 0.000000 0.000000 0.000000 0.024948 0.000000 0.000000
# 5 0.000000 0.000000 0.000000 0.000000 1.323897 0.000000
# 6 0.000000 0.000000 0.000000 0.000000 0.000000 0.064823
#
#
# Mechanical properties :
#
#
# Convention : Reuss Voigt Hill
#
# Bulk Modulus (GPa) = 26.36419 28.70034 27.53227
# Shear Modulus (GPa) = 3.38411 25.16930 14.27671
#
# Velocity S-wave (km/s) = 1.27768 3.48445 2.62430
# Velocity P-wave (km/s) = 3.85933 5.48027 4.73961
#
# Compressibility (1/GPa) = 0.03793023
#
# Stress axis : x y z
#
# Youngs Moduli (GPa) = 87.30723 46.57532 85.97553
#
# Poissons Ratio (x) = 0.13764 0.05215
# Poissons Ratio (y) = 0.25801 -0.02142
# Poissons Ratio (z) = 0.05296 -0.01160
#
# Static dielectric constant tensor:
#      x y z
#    x 1.770800 0.000000 0.000000 
#    y 0.000000 1.770800 0.000000 
#    z 0.000000 0.000000 1.778780 
# 
# From -- ./inp_files/4583.got.cif
#   From: 2010.05.17/outbox.cif.g08.bks.cpg/sg26_3_cif.got.tgz:4583.got - 2010.06.04 01:07:29.
