data_PCOD9338430
_publ_section_title
;
Structure prediction by ZEFSAII (Michael W. Deem and Ramdas Pophale) SiO2 
 PCOD9338430
Probable space group: P M C 21
;
_chemical_formula_sum "Si O2"
_cell_formula_units_Z 32
_cell_length_a 8.913152
_cell_length_b 12.106709
_cell_length_c 15.414714
_cell_angle_alpha 90.000000
_cell_angle_beta 90.000000
_cell_angle_gamma 90.000000
_cell_volume 1663.385410
_symmetry_space_group_name_H-M "P M C 21"
_symmetry_group_IT_number 26
_symmetry_cell_setting 'orthorhombic'
loop_
_space_group_symop_operation_xyz
x,y,z
-x,-y,1/2+z
-x,y,z
x,-y,1/2+z
loop_
_atom_site_type_symbol
_atom_site_label
_atom_site_fract_x
_atom_site_fract_y
_atom_site_fract_z
Si Si1 0.823047 0.987449 0.363340
Si Si2 0.319439 0.140745 0.217842
Si Si3 0.819340 0.517154 0.044649
Si Si4 0.324329 0.462718 0.865895
Si Si5 0.831338 0.257445 0.791406
Si Si6 0.827935 0.237772 0.585591
Si Si7 0.819721 0.384740 0.220396
Si Si8 0.678390 0.007278 0.550140
O O1 0.804336 0.867441 0.320188
O O2 0.000000 0.013583 0.365694
O O3 0.740418 0.076675 0.302807
O O4 0.758632 0.979104 0.460024
O O5 0.500000 0.146849 0.220867
O O6 0.250055 0.262883 0.213808
O O7 0.276307 0.069575 0.131910
O O8 0.778671 0.646877 0.044259
O O9 0.779686 0.457098 0.134963
O O10 0.000000 0.510824 0.036757
O O11 0.740338 0.464038 0.962593
O O12 0.500000 0.486011 0.865518
O O13 0.287855 0.342719 0.827324
O O14 0.240841 0.551315 0.804696
O O15 0.831303 0.260560 0.687965
O O16 0.000000 0.290536 0.821144
O O17 0.724488 0.133405 0.568801
O O18 0.000000 0.212477 0.557956
O O19 0.000000 0.377547 0.224727
O O20 0.500000 0.997223 0.540107
#
# Coordination Sequence:
#
# PCOD9338430 Si02
#       8
#     4   4   4   4   4   4   4   4
#     4  11  24  42  68  95 124 169 218 264 310 372
#     4  11  25  44  64  93 133 170 208 261 325 382
#     4  10  23  43  67  93 124 166 215 266 311 368
#     4  12  26  41  64  96 132 169 206 258 322 384
#     4  10  21  42  68  94 123 160 214 266 311 370
#     4  10  20  41  69  93 120 159 214 266 311 371
#     4  11  24  45  69  92 125 169 217 265 312 371
#     4  11  25  42  63  94 133 168 204 260 322 382
#
# _framework density 19.237874000000001
#
# number of rings (size 3 to 8) (size 9 to 14) (size 15 to 20)
#    0.000    1.250    2.500    2.625    3.500    4.500 
#    0.000    0.000    0.000    0.000    0.000    0.000 
#    0.000    0.000    0.000    0.000    0.000    0.000 
#
# Total GULP energy -178878.348543 kJ/mol
# GULP energy per Si atom -5589.948392 kJ/mol
# Density = 1.919409 g / cm^3
# Si number density = 19.237874 Si / 1000 Ang^3
#
#
#
# Elastic Constant Matrix: (Units=GPa)
#
#
# Indices 1 2 3 4 5 6 
#
# 1 46.1143 21.4064 10.9117 0.0000 0.0000 0.0000
# 2 21.4064 49.4168 -12.2441 0.0000 0.0000 0.0000
# 3 10.9117 -12.2441 47.7295 0.0000 0.0000 0.0000
# 4 0.0000 0.0000 0.0000 67.7899 0.0000 0.0000
# 5 0.0000 0.0000 0.0000 0.0000 19.5178 0.0000
# 6 0.0000 0.0000 0.0000 0.0000 0.0000 33.5120
#
#
#
# Elastic Compliance Matrix: (Units=1/GPa)
#
#
# Indices 1 2 3 4 5 6 
#
# 1 0.032301 -0.016896 -0.011719 0.000000 0.000000 0.000000
# 2 -0.016896 0.030447 0.011673 0.000000 0.000000 0.000000
# 3 -0.011719 0.011673 0.026625 0.000000 0.000000 0.000000
# 4 0.000000 0.000000 0.000000 0.014751 0.000000 0.000000
# 5 0.000000 0.000000 0.000000 0.000000 0.051235 0.000000
# 6 0.000000 0.000000 0.000000 0.000000 0.000000 0.029840
#
#
# Mechanical properties :
#
#
# Convention : Reuss Voigt Hill
#
# Bulk Modulus (GPa) = 18.02102 20.37875 19.19988
# Shear Modulus (GPa) = 21.04549 32.37638 26.71093
#
# Velocity S-wave (km/s) = 3.31110 4.10683 3.73024
# Velocity P-wave (km/s) = 4.89955 5.75361 5.34367
#
# Compressibility (1/GPa) = 0.05549077
#
# Stress axis : x y z
#
# Youngs Moduli (GPa) = 30.95844 32.84358 37.55856
#
# Poissons Ratio (x) = 0.55492 0.44015
# Poissons Ratio (y) = 0.52307 -0.43843
# Poissons Ratio (z) = 0.36280 -0.38339
#
# Static dielectric constant tensor:
#      x y z
#    x 1.654570 0.000000 0.000000 
#    y 0.000000 1.583580 0.000000 
#    z 0.000000 0.000000 1.654410 
# 
# From -- ./inp_files/4322.got.cif
#   From: 2010.05.17/outbox.cif.g08.bks.cpg/sg26_3_cif.got.tgz:4322.got - 2010.06.04 01:07:29.
