data_PCOD9338337
_publ_section_title
;
Structure prediction by ZEFSAII (Michael W. Deem and Ramdas Pophale) SiO2 
 PCOD9338337
Probable space group: P M C 21
;
_chemical_formula_sum "Si O2"
_cell_formula_units_Z 32
_cell_length_a 7.533101
_cell_length_b 19.445668
_cell_length_c 8.233225
_cell_angle_alpha 90.000000
_cell_angle_beta 90.000000
_cell_angle_gamma 90.000000
_cell_volume 1206.053688
_symmetry_space_group_name_H-M "P M C 21"
_symmetry_group_IT_number 26
_symmetry_cell_setting 'orthorhombic'
loop_
_space_group_symop_operation_xyz
x,y,z
-x,-y,1/2+z
-x,y,z
x,-y,1/2+z
loop_
_atom_site_type_symbol
_atom_site_label
_atom_site_fract_x
_atom_site_fract_y
_atom_site_fract_z
Si Si1 0.283423 0.395870 0.146910
Si Si2 0.206863 0.856800 0.638647
Si Si3 0.791838 0.266324 0.334922
Si Si4 0.293661 0.018239 0.928843
Si Si5 0.295175 0.521853 0.338469
Si Si6 0.713649 0.771063 0.315243
Si Si7 0.282633 0.896596 0.120269
Si Si8 0.205357 0.356846 0.627750
O O1 0.500000 0.393391 0.141899
O O2 0.222004 0.319357 0.184252
O O3 0.222425 0.447658 0.290320
O O4 0.217371 0.433765 0.984772
O O5 0.284074 0.807766 0.780976
O O6 0.285516 0.929819 0.583407
O O7 0.224764 0.809210 0.477133
O O8 0.000000 0.868028 0.668979
O O9 0.712666 0.311745 0.481433
O O10 0.000000 0.255507 0.369370
O O11 0.500000 0.008283 0.892171
O O12 0.218884 0.943491 0.972101
O O13 0.219265 0.059940 0.777816
O O14 0.500000 0.510272 0.379309
O O15 0.288754 0.571445 0.180837
O O16 0.500000 0.769425 0.322126
O O17 0.771094 0.819422 0.162565
O O18 0.779643 0.695252 0.279997
O O19 0.500000 0.896358 0.117657
O O20 0.000000 0.369851 0.592381
#
# Coordination Sequence:
#
# PCOD9338337 Si02
#       8
#     4   4   4   4   4   4   4   4
#     4  10  21  37  60  85 110 139 177 222 267 314
#     4  10  20  36  55  77 107 144 182 223 269 322
#     4  10  23  39  54  76 110 146 181 219 266 321
#     4   9  17  32  52  75 103 137 177 222 268 319
#     4  10  21  38  59  85 112 141 177 221 269 320
#     4  10  20  36  57  81 107 140 181 226 273 324
#     4   8  16  30  50  74 101 132 170 215 264 314
#     4  11  23  38  55  79 110 145 181 222 268 320
#
# _framework density 26.532813999999998
#
# number of rings (size 3 to 8) (size 9 to 14) (size 15 to 20)
#    0.000    2.250    0.000    3.375    0.000    7.000 
#    0.000    4.375    0.000    0.000    0.000    0.000 
#    0.000    0.000    0.000    0.000    0.000    0.000 
#
# Total GULP energy -179012.306290 kJ/mol
# GULP energy per Si atom -5594.134572 kJ/mol
# Density = 2.647242 g / cm^3
# Si number density = 26.532814 Si / 1000 Ang^3
#
#
#
# Elastic Constant Matrix: (Units=GPa)
#
#
# Indices 1 2 3 4 5 6 
#
# 1 95.1963 -0.6247 2.8813 0.0000 0.0000 0.0000
# 2 -0.6247 160.1094 11.7580 0.0000 0.0000 0.0000
# 3 2.8813 11.7580 69.9508 0.0000 0.0000 0.0000
# 4 0.0000 0.0000 0.0000 54.2025 0.0000 0.0000
# 5 0.0000 0.0000 0.0000 0.0000 15.3481 0.0000
# 6 0.0000 0.0000 0.0000 0.0000 0.0000 16.7819
#
#
#
# Elastic Compliance Matrix: (Units=1/GPa)
#
#
# Indices 1 2 3 4 5 6 
#
# 1 0.010519 0.000074 -0.000446 0.000000 0.000000 0.000000
# 2 0.000074 0.006324 -0.001066 0.000000 0.000000 0.000000
# 3 -0.000446 -0.001066 0.014493 0.000000 0.000000 0.000000
# 4 0.000000 0.000000 0.000000 0.018449 0.000000 0.000000
# 5 0.000000 0.000000 0.000000 0.000000 0.065155 0.000000
# 6 0.000000 0.000000 0.000000 0.000000 0.000000 0.059588
#
#
# Mechanical properties :
#
#
# Convention : Reuss Voigt Hill
#
# Bulk Modulus (GPa) = 35.13674 39.25397 37.19535
# Shear Modulus (GPa) = 26.75357 38.01596 32.38477
#
# Velocity S-wave (km/s) = 3.17885 3.78933 3.49743
# Velocity P-wave (km/s) = 5.17155 5.82855 5.50985
#
# Compressibility (1/GPa) = 0.02846024
#
# Stress axis : x y z
#
# Youngs Moduli (GPa) = 95.06987 158.12007 68.99736
#
# Poissons Ratio (x) = -0.01166 0.03075
# Poissons Ratio (y) = -0.00701 0.07356
# Poissons Ratio (z) = 0.04237 0.16857
#
# Static dielectric constant tensor:
#      x y z
#    x 1.983020 0.000000 0.000000 
#    y 0.000000 2.017390 0.000000 
#    z 0.000000 0.000000 2.215430 
# 
# From -- ./inp_files/1593.got.cif
#   From: 2010.05.17/outbox.cif.g08.bks.cpg/sg26_1_cif.got.tgz:1593.got - 2010.06.04 01:07:29.
