data_PCOD9338229
_publ_section_title
;
Structure prediction by ZEFSAII (Michael W. Deem and Ramdas Pophale) SiO2 
 PCOD9338229
Probable space group: P M C 21
;
_chemical_formula_sum "Si O2"
_cell_formula_units_Z 24
_cell_length_a 15.432416
_cell_length_b 8.532123
_cell_length_c 9.983080
_cell_angle_alpha 90.000000
_cell_angle_beta 90.000000
_cell_angle_gamma 90.000000
_cell_volume 1314.484837
_symmetry_space_group_name_H-M "P M C 21"
_symmetry_group_IT_number 26
_symmetry_cell_setting 'orthorhombic'
loop_
_space_group_symop_operation_xyz
x,y,z
-x,-y,1/2+z
-x,y,z
x,-y,1/2+z
loop_
_atom_site_type_symbol
_atom_site_label
_atom_site_fract_x
_atom_site_fract_y
_atom_site_fract_z
Si Si1 0.186027 0.873212 0.377170
Si Si2 0.212043 0.304906 0.154419
Si Si3 0.347354 0.088300 0.285898
Si Si4 0.779017 0.325819 0.625112
Si Si5 0.099015 0.189858 0.392224
Si Si6 0.594800 0.164569 0.577194
O O1 0.198111 0.795250 0.520642
O O2 0.182061 0.741905 0.263156
O O3 0.269991 0.976388 0.338619
O O4 0.110414 0.002057 0.378795
O O5 0.299351 0.240014 0.225107
O O6 0.217108 0.487550 0.122852
O O7 0.134002 0.267292 0.256014
O O8 0.400549 0.126777 0.419038
O O9 0.394129 0.991430 0.168444
O O10 0.836086 0.249306 0.507540
O O11 0.679350 0.269132 0.609329
O O12 0.000000 0.230689 0.420402
O O13 0.500000 0.234086 0.607995
#
# Coordination Sequence:
#
# PCOD9338229 Si02
#       6
#     4   4   4   4   4   4
#     4  10  20  37  63  86 116 159 203 243 301 356
#     4  11  21  39  63  88 122 162 197 248 314 358
#     4  10  19  38  61  89 117 158 204 253 295 351
#     4  11  23  39  63  89 129 159 196 254 309 359
#     4  11  23  41  64  90 119 157 207 251 299 367
#     4  11  21  38  63  92 123 163 210 249 293 359
#
# _framework density 18.258102999999998
#
# number of rings (size 3 to 8) (size 9 to 14) (size 15 to 20)
#    0.000    1.333    5.000    3.500    0.000    3.333 
#    0.000    3.333    0.000    0.000    0.000    0.000 
#    0.000    0.000    0.000    0.000    0.000    0.000 
#
# Total GULP energy -133952.744563 kJ/mol
# GULP energy per Si atom -5581.364357 kJ/mol
# Density = 1.821655 g / cm^3
# Si number density = 18.258103 Si / 1000 Ang^3
#
#
#
# Elastic Constant Matrix: (Units=GPa)
#
#
# Indices 1 2 3 4 5 6 
#
# 1 112.2227 26.7849 27.7766 0.0000 0.0000 0.0000
# 2 26.7849 80.0405 10.2091 0.0000 0.0000 0.0000
# 3 27.7766 10.2091 101.6884 0.0000 0.0000 0.0000
# 4 0.0000 0.0000 0.0000 18.7554 0.0000 0.0000
# 5 0.0000 0.0000 0.0000 0.0000 4.4274 0.0000
# 6 0.0000 0.0000 0.0000 0.0000 0.0000 8.4929
#
#
#
# Elastic Compliance Matrix: (Units=1/GPa)
#
#
# Indices 1 2 3 4 5 6 
#
# 1 0.010272 -0.003120 -0.002493 0.000000 0.000000 0.000000
# 2 -0.003120 0.013603 -0.000514 0.000000 0.000000 0.000000
# 3 -0.002493 -0.000514 0.010566 0.000000 0.000000 0.000000
# 4 0.000000 0.000000 0.000000 0.053318 0.000000 0.000000
# 5 0.000000 0.000000 0.000000 0.000000 0.225866 0.000000
# 6 0.000000 0.000000 0.000000 0.000000 0.000000 0.117746
#
#
# Mechanical properties :
#
#
# Convention : Reuss Voigt Hill
#
# Bulk Modulus (GPa) = 45.06513 47.05474 46.05994
# Shear Modulus (GPa) = 11.08596 21.61385 16.34991
#
# Velocity S-wave (km/s) = 2.46678 3.44436 2.99572
# Velocity P-wave (km/s) = 5.73142 6.45338 6.10308
#
# Compressibility (1/GPa) = 0.02219010
#
# Stress axis : x y z
#
# Youngs Moduli (GPa) = 97.34799 73.51243 94.63929
#
# Poissons Ratio (x) = 0.22933 0.23591
# Poissons Ratio (y) = 0.30369 0.04860
# Poissons Ratio (z) = 0.24267 0.03775
#
# Static dielectric constant tensor:
#      x y z
#    x 1.639660 0.000000 0.000000 
#    y 0.000000 1.604420 0.000000 
#    z 0.000000 0.000000 1.635210 
# 
# From -- ./inp_files/2112.got.cif
#   From: 2010.05.17/outbox.cif.g08.bks.cpg/sg26_2_cif.got.tgz:2112.got - 2010.06.04 01:07:29.
