data_PCOD9338312
_publ_section_title
;
Structure prediction by ZEFSAII (Michael W. Deem and Ramdas Pophale) SiO2 
 PCOD9338312
Probable space group: P M C 21
;
_chemical_formula_sum "Si O2"
_cell_formula_units_Z 32
_cell_length_a 8.936070
_cell_length_b 7.166026
_cell_length_c 28.830852
_cell_angle_alpha 90.000000
_cell_angle_beta 90.000000
_cell_angle_gamma 90.000000
_cell_volume 1846.215609
_symmetry_space_group_name_H-M "P M C 21"
_symmetry_group_IT_number 26
_symmetry_cell_setting 'orthorhombic'
loop_
_space_group_symop_operation_xyz
x,y,z
-x,-y,1/2+z
-x,y,z
x,-y,1/2+z
loop_
_atom_site_type_symbol
_atom_site_label
_atom_site_fract_x
_atom_site_fract_y
_atom_site_fract_z
Si Si1 0.678165 0.308663 0.613040
Si Si2 0.822029 0.667801 0.367069
Si Si3 0.179858 0.008822 0.937671
Si Si4 0.821281 0.014599 0.792091
Si Si5 0.678768 0.997324 0.191300
Si Si6 0.179100 0.018841 0.545332
Si Si7 0.321854 0.735618 0.864397
Si Si8 0.821227 0.286677 0.122423
O O1 0.500000 0.331778 0.609862
O O2 0.711237 0.178958 0.657829
O O3 0.738594 0.192392 0.569157
O O4 0.756807 0.507224 0.617392
O O5 0.732221 0.477047 0.365665
O O6 0.000000 0.627261 0.368146
O O7 0.785578 0.796978 0.411568
O O8 0.792033 0.799921 0.322689
O O9 0.261281 0.845735 0.909449
O O10 0.000000 0.981746 0.933119
O O11 0.219013 0.009179 0.991723
O O12 0.750403 0.843771 0.820768
O O13 0.000000 0.990359 0.789558
O O14 0.751246 0.027497 0.741415
O O15 0.500000 0.016562 0.195044
O O16 0.747054 0.176426 0.165154
O O17 0.000000 0.049960 0.548009
O O18 0.212793 0.837524 0.576708
O O19 0.500000 0.747625 0.862005
O O20 0.000000 0.291634 0.128264
#
# Coordination Sequence:
#
# PCOD9338312 Si02
#       8
#     4   4   4   4   4   4   4   4
#     4  10  21  36  54  79 112 145 176 217 270 321
#     4   9  19  36  56  78 106 141 180 220 264 315
#     4   9  19  37  58  78 105 141 181 224 265 311
#     4  10  21  38  59  80 104 138 180 223 264 312
#     4  10  21  37  56  79 109 142 176 219 269 318
#     4   9  19  36  57  80 105 139 183 225 265 311
#     4  11  22  35  54  81 112 142 174 217 269 323
#     4  10  20  35  56  81 109 142 182 223 262 313
#
# _framework density 17.332754999999999
#
# number of rings (size 3 to 8) (size 9 to 14) (size 15 to 20)
#    0.000    2.250    0.000    3.375    0.000    7.000 
#    0.000    5.000    0.000    0.000    0.000    0.000 
#    0.000    0.000    0.000    0.000    0.000    0.000 
#
# Total GULP energy -178654.425992 kJ/mol
# GULP energy per Si atom -5582.950812 kJ/mol
# Density = 1.729331 g / cm^3
# Si number density = 17.332755 Si / 1000 Ang^3
#
#
#
# Elastic Constant Matrix: (Units=GPa)
#
#
# Indices 1 2 3 4 5 6 
#
# 1 75.9751 73.8513 63.6527 0.0000 0.0000 0.0000
# 2 73.8513 138.1830 56.7141 0.0000 0.0000 0.0000
# 3 63.6527 56.7141 143.3622 0.0000 0.0000 0.0000
# 4 0.0000 0.0000 0.0000 5.3338 0.0000 0.0000
# 5 0.0000 0.0000 0.0000 0.0000 19.2122 0.0000
# 6 0.0000 0.0000 0.0000 0.0000 0.0000 22.8435
#
#
#
# Elastic Compliance Matrix: (Units=1/GPa)
#
#
# Indices 1 2 3 4 5 6 
#
# 1 0.036700 -0.015432 -0.010190 0.000000 0.000000 0.000000
# 2 -0.015432 0.015128 0.000867 0.000000 0.000000 0.000000
# 3 -0.010190 0.000867 0.011157 0.000000 0.000000 0.000000
# 4 0.000000 0.000000 0.000000 0.187482 0.000000 0.000000
# 5 0.000000 0.000000 0.000000 0.000000 0.052050 0.000000
# 6 0.000000 0.000000 0.000000 0.000000 0.000000 0.043776
#
#
# Mechanical properties :
#
#
# Convention : Reuss Voigt Hill
#
# Bulk Modulus (GPa) = 74.20948 82.88405 78.54677
# Shear Modulus (GPa) = 12.49078 20.36472 16.42775
#
# Velocity S-wave (km/s) = 2.68740 3.43144 3.08195
# Velocity P-wave (km/s) = 7.24824 7.97639 7.62102
#
# Compressibility (1/GPa) = 0.01347537
#
# Stress axis : x y z
#
# Youngs Moduli (GPa) = 27.24805 66.10045 89.63250
#
# Poissons Ratio (x) = 1.02006 0.91334
# Poissons Ratio (y) = 0.42049 -0.07770
# Poissons Ratio (z) = 0.27765 -0.05730
#
# Static dielectric constant tensor:
#      x y z
#    x 1.575560 0.000000 0.000000 
#    y 0.000000 1.556570 0.000000 
#    z 0.000000 0.000000 1.571150 
# 
# From -- ./inp_files/5681.got.cif
#   From: 2010.05.17/outbox.cif.g08.bks.cpg/sg26_3_cif.got.tgz:5681.got - 2010.06.04 01:07:29.
