data_PCOD9338752
_publ_section_title
;
Structure prediction by ZEFSAII (Michael W. Deem and Ramdas Pophale) SiO2 
 PCOD9338752
Probable space group: P C C 2
;
_chemical_formula_sum "Si O2"
_cell_formula_units_Z 24
_cell_length_a 5.386080
_cell_length_b 8.609097
_cell_length_c 24.816731
_cell_angle_alpha 90.000000
_cell_angle_beta 90.000000
_cell_angle_gamma 90.000000
_cell_volume 1150.734077
_symmetry_space_group_name_H-M "P C C 2"
_symmetry_group_IT_number 27
_symmetry_cell_setting 'orthorhombic'
loop_
_space_group_symop_operation_xyz
x,y,z
-x,-y,z
-x,y,1/2+z
x,-y,1/2+z
loop_
_atom_site_type_symbol
_atom_site_label
_atom_site_fract_x
_atom_site_fract_y
_atom_site_fract_z
Si Si1 0.266310 0.319398 0.153030
Si Si2 0.248793 0.903054 0.316557
Si Si3 0.094698 0.325164 0.269462
Si Si4 0.765536 0.321391 0.107932
Si Si5 0.753336 0.601351 0.485088
Si Si6 0.577822 0.319508 0.875872
O O1 0.266029 0.308694 0.217271
O O2 0.508741 0.248443 0.126607
O O3 0.250187 0.500050 0.131778
O O4 0.009290 0.247819 0.133111
O O5 0.344476 0.790996 0.364336
O O6 0.140273 0.790604 0.270091
O O7 0.500000 0.000000 0.302341
O O8 0.000000 0.000000 0.331011
O O9 0.242085 0.301217 0.324872
O O10 0.000000 0.500000 0.268508
O O11 0.789480 0.325921 0.043772
O O12 0.500000 0.500000 0.490628
O O13 0.705000 0.709351 0.433346
O O14 0.000000 0.500000 0.473702
O O15 0.500000 0.500000 0.875753
#
# Coordination Sequence:
#
# PCOD9338752 Si02
#       6
#     4   4   4   4   4   4
#     4  10  20  30  55  84 130 165 201 257 328 383
#     4  12  27  46  63  90 137 180 219 260 331 416
#     4  12  23  39  66 100 133 164 222 278 332 383
#     4  10  17  33  49  85 131 168 197 255 334 384
#     4  11  20  34  55  87 134 165 208 264 335 378
#     4  11  25  38  67  99 132 166 218 284 331 380
#
# _framework density 20.856252000000001
#
# number of rings (size 3 to 8) (size 9 to 14) (size 15 to 20)
#    0.000    1.000    8.333    0.500    7.000    0.000 
#    0.000    0.000    0.000    0.000    0.000    7.000 
#    0.000    0.000    0.000    0.000    0.000    0.000 
#
# Total GULP energy -133865.128391 kJ/mol
# GULP energy per Si atom -5577.713683 kJ/mol
# Density = 2.080878 g / cm^3
# Si number density = 20.856252 Si / 1000 Ang^3
#
#
#
# Elastic Constant Matrix: (Units=GPa)
#
#
# Indices 1 2 3 4 5 6 
#
# 1 161.7151 28.8429 31.7439 0.0000 0.0000 0.0000
# 2 28.8429 63.9419 10.1689 0.0000 0.0000 0.0000
# 3 31.7439 10.1689 156.6629 0.0000 0.0000 0.0000
# 4 0.0000 0.0000 0.0000 -6.8593 0.0000 0.0000
# 5 0.0000 0.0000 0.0000 0.0000 7.9636 0.0000
# 6 0.0000 0.0000 0.0000 0.0000 0.0000 16.4212
#
#
#
# Elastic Compliance Matrix: (Units=1/GPa)
#
#
# Indices 1 2 3 4 5 6 
#
# 1 0.006947 -0.002940 -0.001217 0.000000 0.000000 0.000000
# 2 -0.002940 0.017047 -0.000511 0.000000 0.000000 0.000000
# 3 -0.001217 -0.000511 0.006663 0.000000 0.000000 0.000000
# 4 0.000000 0.000000 0.000000 -0.145788 0.000000 0.000000
# 5 0.000000 0.000000 0.000000 0.000000 0.125572 0.000000
# 6 0.000000 0.000000 0.000000 0.000000 0.000000 0.060897
#
#
# Mechanical properties :
#
#
# Convention : Reuss Voigt Hill
#
# Bulk Modulus (GPa) = 46.90183 58.20348 52.55265
# Shear Modulus (GPa) = 56.96102 24.27604 40.61853
#
# Velocity S-wave (km/s) = 5.23169 3.41540 4.41789
# Velocity P-wave (km/s) = 7.68316 6.59703 7.16072
#
# Compressibility (1/GPa) = 0.02132113
#
# Stress axis : x y z
#
# Youngs Moduli (GPa) = 143.94796 58.66255 150.08621
#
# Poissons Ratio (x) = 0.17248 0.18262
# Poissons Ratio (y) = 0.42322 0.07666
# Poissons Ratio (z) = 0.17515 0.02996
#
# Static dielectric constant tensor:
#      x y z
#    x 1.842720 0.000000 0.000000 
#    y 0.000000 1.855670 0.000000 
#    z 0.000000 0.000000 1.756020 
# 
# From -- ./inp_files/4975.got.cif
#   From: 2010.05.17/outbox.cif.g08.bks.cpg/sg27_3_cif.got.tgz:4975.got - 2010.06.04 01:11:05.
