data_PCOD9338187
_publ_section_title
;
Structure prediction by ZEFSAII (Michael W. Deem and Ramdas Pophale) SiO2 
 PCOD9338187
Probable space group: P M C 21
;
_chemical_formula_sum "Si O2"
_cell_formula_units_Z 32
_cell_length_a 7.860476
_cell_length_b 19.749843
_cell_length_c 10.464407
_cell_angle_alpha 90.000000
_cell_angle_beta 90.000000
_cell_angle_gamma 90.000000
_cell_volume 1624.527682
_symmetry_space_group_name_H-M "P M C 21"
_symmetry_group_IT_number 26
_symmetry_cell_setting 'orthorhombic'
loop_
_space_group_symop_operation_xyz
x,y,z
-x,-y,1/2+z
-x,y,z
x,-y,1/2+z
loop_
_atom_site_type_symbol
_atom_site_label
_atom_site_fract_x
_atom_site_fract_y
_atom_site_fract_z
Si Si1 0.793470 0.076779 0.635850
Si Si2 0.790896 0.839419 0.885448
Si Si3 0.299023 0.155125 0.893223
Si Si4 0.799109 0.299752 0.485880
Si Si5 0.706980 0.292865 0.776995
Si Si6 0.699504 0.554096 0.307800
Si Si7 0.800316 0.550754 0.021587
Si Si8 0.199925 0.077006 0.143563
O O1 0.739866 0.117670 0.509969
O O2 0.733904 0.114222 0.763156
O O3 0.000000 0.076883 0.635842
O O4 0.730877 0.999221 0.634051
O O5 0.730277 0.762038 0.901724
O O6 0.729955 0.877863 0.759236
O O7 0.000000 0.837469 0.884077
O O8 0.500000 0.157659 0.917261
O O9 0.238157 0.231937 0.868521
O O10 0.217397 0.116529 0.011317
O O11 0.774115 0.279713 0.634177
O O12 0.728206 0.376031 0.476624
O O13 0.000000 0.304114 0.457975
O O14 0.500000 0.292790 0.770437
O O15 0.763412 0.368243 0.815995
O O16 0.500000 0.555133 0.335842
O O17 0.779244 0.504098 0.410941
O O18 0.723380 0.532567 0.159768
O O19 0.000000 0.560126 0.047046
O O20 0.000000 0.068534 0.171663
#
# Coordination Sequence:
#
# PCOD9338187 Si02
#       8
#     4   4   4   4   4   4   4   4
#     4  10  19  35  60  81 101 138 186 227 265 319
#     4   9  17  32  54  79 105 135 179 224 265 311
#     4  11  22  36  54  80 113 143 177 222 270 319
#     4   9  17  32  56  80 106 140 180 224 268 318
#     4   9  19  35  55  78 107 143 185 222 257 316
#     4  10  20  37  59  81 110 149 188 221 268 333
#     4  10  20  35  56  84 114 141 181 233 278 319
#     4  10  21  36  54  79 110 143 180 223 267 317
#
# _framework density 19.698032999999999
#
# number of rings (size 3 to 8) (size 9 to 14) (size 15 to 20)
#    0.000    2.250    1.250    1.875    0.000    4.000 
#    2.250    1.250    0.000    0.000    0.000    0.000 
#    0.000    0.000    0.000    0.000    0.000    0.000 
#
# Total GULP energy -178567.359643 kJ/mol
# GULP energy per Si atom -5580.229989 kJ/mol
# Density = 1.965320 g / cm^3
# Si number density = 19.698033 Si / 1000 Ang^3
#
#
#
# Elastic Constant Matrix: (Units=GPa)
#
#
# Indices 1 2 3 4 5 6 
#
# 1 16.2969 -7.3831 -15.4214 0.0000 0.0000 0.0000
# 2 -7.3831 120.3471 51.8019 0.0000 0.0000 0.0000
# 3 -15.4214 51.8019 87.6504 0.0000 0.0000 0.0000
# 4 0.0000 0.0000 0.0000 31.1497 0.0000 0.0000
# 5 0.0000 0.0000 0.0000 0.0000 -31.5578 0.0000
# 6 0.0000 0.0000 0.0000 0.0000 0.0000 8.0475
#
#
#
# Elastic Compliance Matrix: (Units=1/GPa)
#
#
# Indices 1 2 3 4 5 6 
#
# 1 0.073799 -0.001424 0.013826 0.000000 0.000000 0.000000
# 2 -0.001424 0.011172 -0.006853 0.000000 0.000000 0.000000
# 3 0.013826 -0.006853 0.017892 0.000000 0.000000 0.000000
# 4 0.000000 0.000000 0.000000 0.032103 0.000000 0.000000
# 5 0.000000 0.000000 0.000000 0.000000 -0.031688 0.000000
# 6 0.000000 0.000000 0.000000 0.000000 0.000000 0.124263
#
#
# Mechanical properties :
#
#
# Convention : Reuss Voigt Hill
#
# Bulk Modulus (GPa) = 8.77495 31.36546 20.07021
# Shear Modulus (GPa) = 19.65180 14.54766 17.09973
#
# Velocity S-wave (km/s) = 3.16199 2.72055 2.94954
# Velocity P-wave (km/s) = 4.21845 5.08195 4.67020
#
# Compressibility (1/GPa) = 0.11396079
#
# Stress axis : x y z
#
# Youngs Moduli (GPa) = 13.55027 89.51129 55.89191
#
# Poissons Ratio (x) = 0.12743 -0.77275
# Poissons Ratio (y) = 0.01929 0.38303
# Poissons Ratio (z) = -0.18734 0.61343
#
# Static dielectric constant tensor:
#      x y z
#    x 1.746730 0.000000 0.000000 
#    y 0.000000 1.725030 0.000000 
#    z 0.000000 0.000000 1.637630 
# 
# From -- ./inp_files/1590.got.cif
#   From: 2010.05.17/outbox.cif.g08.bks.cpg/sg26_1_cif.got.tgz:1590.got - 2010.06.04 01:07:29.
