data_PCOD9338975
_publ_section_title
;
Structure prediction by ZEFSAII (Michael W. Deem and Ramdas Pophale) SiO2 
 PCOD9338975
Probable space group: P C C 2
;
_chemical_formula_sum "Si O2"
_cell_formula_units_Z 32
_cell_length_a 11.600270
_cell_length_b 14.976850
_cell_length_c 8.937814
_cell_angle_alpha 90.000000
_cell_angle_beta 90.000000
_cell_angle_gamma 90.000000
_cell_volume 1552.815618
_symmetry_space_group_name_H-M "P C C 2"
_symmetry_group_IT_number 27
_symmetry_cell_setting 'orthorhombic'
loop_
_space_group_symop_operation_xyz
x,y,z
-x,-y,z
-x,y,1/2+z
x,-y,1/2+z
loop_
_atom_site_type_symbol
_atom_site_label
_atom_site_fract_x
_atom_site_fract_y
_atom_site_fract_z
Si Si1 0.258266 0.111780 0.887060
Si Si2 0.799716 0.624657 0.093321
Si Si3 0.867285 0.530043 0.401747
Si Si4 0.610662 0.941923 0.353078
Si Si5 0.372255 0.779716 0.640033
Si Si6 0.376965 0.188609 0.607294
Si Si7 0.061649 0.235590 0.892821
Si Si8 0.850367 0.286582 0.059467
O O1 0.300375 0.131082 0.720022
O O2 0.127249 0.141516 0.911957
O O3 0.294020 0.010582 0.912888
O O4 0.333578 0.183476 0.978742
O O5 0.842933 0.570662 0.238210
O O6 0.695420 0.686791 0.151534
O O7 0.787402 0.551109 0.960805
O O8 0.886620 0.695674 0.015935
O O9 0.857006 0.609985 0.520210
O O10 0.000000 0.500000 0.403598
O O11 0.657502 0.867520 0.239347
O O12 0.571641 0.881389 0.490357
O O13 0.500000 0.000000 0.299290
O O14 0.508004 0.765411 0.668426
O O15 0.282232 0.256491 0.545652
O O16 0.098258 0.267501 0.725957
O O17 0.927609 0.235780 0.934290
#
# Coordination Sequence:
#
# PCOD9338975 Si02
#       8
#     4   4   4   4   4   4   4   4
#     4  10  22  36  62  93 132 166 220 273 322 392
#     4  11  24  40  65 100 134 169 220 280 338 389
#     4  12  23  39  66 101 124 172 230 279 322 405
#     4  12  21  36  65  99 129 171 229 272 318 390
#     4  11  22  40  63  98 139 171 217 280 338 391
#     4  11  22  39  62  97 130 174 216 275 335 398
#     4  10  22  41  60  95 130 172 210 274 338 391
#     4  11  23  40  66  92 133 170 221 272 343 396
#
# _framework density 20.607727000000001
#
# number of rings (size 3 to 8) (size 9 to 14) (size 15 to 20)
#    0.000    1.000    3.750    3.375    0.000    1.000 
#    0.000    1.250    0.000    4.500    0.000    0.000 
#    0.000    0.000    0.000    0.000    0.000    0.000 
#
# Total GULP energy -178448.945719 kJ/mol
# GULP energy per Si atom -5576.529554 kJ/mol
# Density = 2.056082 g / cm^3
# Si number density = 20.607727 Si / 1000 Ang^3
#
#
#
# Elastic Constant Matrix: (Units=GPa)
#
#
# Indices 1 2 3 4 5 6 
#
# 1 80.3909 55.5351 -5.5162 0.0000 0.0000 0.0000
# 2 55.5351 116.8472 25.7922 0.0000 0.0000 0.0000
# 3 -5.5162 25.7922 57.9357 0.0000 0.0000 0.0000
# 4 0.0000 0.0000 0.0000 25.4285 0.0000 0.0000
# 5 0.0000 0.0000 0.0000 0.0000 19.8158 0.0000
# 6 0.0000 0.0000 0.0000 0.0000 0.0000 42.9938
#
#
#
# Elastic Compliance Matrix: (Units=1/GPa)
#
#
# Indices 1 2 3 4 5 6 
#
# 1 0.020856 -0.011479 0.007096 0.000000 0.000000 0.000000
# 2 -0.011479 0.015808 -0.008131 0.000000 0.000000 0.000000
# 3 0.007096 -0.008131 0.021556 0.000000 0.000000 0.000000
# 4 0.000000 0.000000 0.000000 0.039326 0.000000 0.000000
# 5 0.000000 0.000000 0.000000 0.000000 0.050465 0.000000
# 6 0.000000 0.000000 0.000000 0.000000 0.000000 0.023259
#
#
# Mechanical properties :
#
#
# Convention : Reuss Voigt Hill
#
# Bulk Modulus (GPa) = 30.12670 45.19956 37.66313
# Shear Modulus (GPa) = 24.11256 29.60514 26.85885
#
# Velocity S-wave (km/s) = 3.42435 3.79437 3.61410
# Velocity P-wave (km/s) = 5.50325 6.41695 5.97758
#
# Compressibility (1/GPa) = 0.03319315
#
# Stress axis : x y z
#
# Youngs Moduli (GPa) = 47.94854 63.25737 46.39135
#
# Poissons Ratio (x) = 0.72611 -0.32918
# Poissons Ratio (y) = 0.55038 0.37719
# Poissons Ratio (z) = -0.34023 0.51432
#
# Static dielectric constant tensor:
#      x y z
#    x 1.801460 0.000000 0.000000 
#    y 0.000000 1.759730 0.000000 
#    z 0.000000 0.000000 1.816490 
# 
# From -- ./inp_files/1473.got.cif
#   From: 2010.05.17/outbox.cif.g08.bks.cpg/sg27_1_cif.got.tgz:1473.got - 2010.06.04 01:11:05.
