data_PCOD9338318
_publ_section_title
;
Structure prediction by ZEFSAII (Michael W. Deem and Ramdas Pophale) SiO2 
 PCOD9338318
Probable space group: P M C 21
;
_chemical_formula_sum "Si O2"
_cell_formula_units_Z 32
_cell_length_a 8.814546
_cell_length_b 14.753350
_cell_length_c 12.857871
_cell_angle_alpha 90.000000
_cell_angle_beta 90.000000
_cell_angle_gamma 90.000000
_cell_volume 1672.090034
_symmetry_space_group_name_H-M "P M C 21"
_symmetry_group_IT_number 26
_symmetry_cell_setting 'orthorhombic'
loop_
_space_group_symop_operation_xyz
x,y,z
-x,-y,1/2+z
-x,y,z
x,-y,1/2+z
loop_
_atom_site_type_symbol
_atom_site_label
_atom_site_fract_x
_atom_site_fract_y
_atom_site_fract_z
Si Si1 0.818877 0.649020 0.909390
Si Si2 0.817650 0.168421 0.858422
Si Si3 0.815056 0.149362 0.094553
Si Si4 0.325847 0.193372 0.531156
Si Si5 0.673750 0.676535 0.235297
Si Si6 0.183392 0.044176 0.666655
Si Si7 0.182718 0.652987 0.669648
Si Si8 0.682171 0.476269 0.586586
O O1 0.779131 0.633455 0.789626
O O2 0.000000 0.646096 0.921164
O O3 0.760701 0.748010 0.945221
O O4 0.745265 0.575309 0.985831
O O5 0.764817 0.267777 0.821080
O O6 0.766215 0.095168 0.772078
O O7 0.000000 0.167600 0.858158
O O8 0.765644 0.145593 0.974287
O O9 0.767992 0.245233 0.141947
O O10 0.000000 0.148648 0.095488
O O11 0.766286 0.059559 0.155813
O O12 0.500000 0.177210 0.501690
O O13 0.326117 0.258500 0.633291
O O14 0.244497 0.102549 0.569552
O O15 0.500000 0.664846 0.269887
O O16 0.733245 0.582027 0.188638
O O17 0.000000 0.047158 0.664464
O O18 0.258419 0.577470 0.597876
O O19 0.000000 0.647987 0.658131
O O20 0.500000 0.472433 0.584435
#
# Coordination Sequence:
#
# PCOD9338318 Si02
#       8
#     4   4   4   4   4   4   4   4
#     4  10  20  35  57  82 108 141 181 224 271 324
#     4   9  17  30  52  78 102 134 172 213 261 311
#     4   9  19  35  52  75 108 139 174 221 268 317
#     4   9  17  31  52  78 107 136 171 218 268 316
#     4   8  16  31  50  73 101 131 165 210 259 308
#     4   9  17  31  53  78 103 137 181 222 263 317
#     4  10  22  38  55  78 109 144 182 226 273 323
#     4  10  21  37  57  80 108 142 180 224 273 326
#
# _framework density 19.137727000000002
#
# number of rings (size 3 to 8) (size 9 to 14) (size 15 to 20)
#    0.000    2.750    0.000    1.875    0.000    6.500 
#    0.000    9.375    0.000    3.000    0.000    0.000 
#    0.000    0.000    0.000    0.000    0.000    0.000 
#
# Total GULP energy -178454.283806 kJ/mol
# GULP energy per Si atom -5576.696369 kJ/mol
# Density = 1.909417 g / cm^3
# Si number density = 19.137727 Si / 1000 Ang^3
#
#
#
# Elastic Constant Matrix: (Units=GPa)
#
#
# Indices 1 2 3 4 5 6 
#
# 1 21.8559 25.1038 27.3674 0.0000 0.0000 0.0000
# 2 25.1038 145.3611 47.3875 0.0000 0.0000 0.0000
# 3 27.3674 47.3875 82.1508 0.0000 0.0000 0.0000
# 4 0.0000 0.0000 0.0000 21.4964 0.0000 0.0000
# 5 0.0000 0.0000 0.0000 0.0000 1.5571 0.0000
# 6 0.0000 0.0000 0.0000 0.0000 0.0000 10.1476
#
#
#
# Elastic Compliance Matrix: (Units=1/GPa)
#
#
# Indices 1 2 3 4 5 6 
#
# 1 0.083310 -0.006577 -0.023960 0.000000 0.000000 0.000000
# 2 -0.006577 0.008992 -0.002996 0.000000 0.000000 0.000000
# 3 -0.023960 -0.002996 0.021883 0.000000 0.000000 0.000000
# 4 0.000000 0.000000 0.000000 0.046520 0.000000 0.000000
# 5 0.000000 0.000000 0.000000 0.000000 0.642209 0.000000
# 6 0.000000 0.000000 0.000000 0.000000 0.000000 0.098545
#
#
# Mechanical properties :
#
#
# Convention : Reuss Voigt Hill
#
# Bulk Modulus (GPa) = 21.22251 49.89838 35.56044
# Shear Modulus (GPa) = 5.08011 16.60750 10.84380
#
# Velocity S-wave (km/s) = 1.63103 2.94902 2.38296
# Velocity P-wave (km/s) = 3.82890 6.14211 5.11791
#
# Compressibility (1/GPa) = 0.04711978
#
# Stress axis : x y z
#
# Youngs Moduli (GPa) = 12.00330 111.21156 45.69791
#
# Poissons Ratio (x) = 0.73141 1.09492
# Poissons Ratio (y) = 0.07894 0.13691
# Poissons Ratio (z) = 0.28760 0.33318
#
# Static dielectric constant tensor:
#      x y z
#    x 1.646640 0.000000 0.000000 
#    y 0.000000 1.673460 0.000000 
#    z 0.000000 0.000000 1.671840 
# 
# From -- ./inp_files/2979.got.cif
#   From: 2010.05.17/outbox.cif.g08.bks.cpg/sg26_2_cif.got.tgz:2979.got - 2010.06.04 01:07:29.
