data_PCOD9338479
_publ_section_title
;
Structure prediction by ZEFSAII (Michael W. Deem and Ramdas Pophale) SiO2 
 PCOD9338479
Probable space group: P M C 21
;
_chemical_formula_sum "Si O2"
_cell_formula_units_Z 18
_cell_length_a 10.522242
_cell_length_b 14.776659
_cell_length_c 5.067430
_cell_angle_alpha 90.000000
_cell_angle_beta 90.000000
_cell_angle_gamma 90.000000
_cell_volume 787.902168
_symmetry_space_group_name_H-M "P M C 21"
_symmetry_group_IT_number 26
_symmetry_cell_setting 'orthorhombic'
loop_
_space_group_symop_operation_xyz
x,y,z
-x,-y,1/2+z
-x,y,z
x,-y,1/2+z
loop_
_atom_site_type_symbol
_atom_site_label
_atom_site_fract_x
_atom_site_fract_y
_atom_site_fract_z
Si Si1 0.766396 0.796287 0.646040
Si Si2 0.000000 0.934167 0.678536
Si Si3 0.755644 0.675208 0.147575
Si Si4 0.500000 0.561101 0.250194
Si Si5 0.352601 0.957249 0.382476
Si Si6 0.000000 0.440772 0.478365
O O1 0.882040 0.865217 0.685422
O O2 0.795591 0.722119 0.421904
O O3 0.660368 0.859894 0.512334
O O4 0.730377 0.748969 0.918749
O O5 0.000000 0.993277 0.412831
O O6 0.627765 0.618187 0.197527
O O7 0.872947 0.615332 0.043142
O O8 0.500000 0.522765 0.546487
O O9 0.500000 0.977741 0.337746
O O10 0.295118 0.972140 0.094021
O O11 0.000000 0.474178 0.177908
#
# Coordination Sequence:
#
# PCOD9338479 Si02
#       6
#     4   2   4   2   4   2
#     4  12  24  41  64  96 135 165 223 270 333 379
#     4  12  24  42  68  96 136 186 228 276 330 392
#     4  12  26  42  70  99 134 170 216 280 334 392
#     4  12  26  48  70 100 134 176 224 268 340 426
#     4  10  21  37  58  84 121 169 213 252 301 363
#     4  12  24  46  70  94 126 168 212 264 334 404
#
# _framework density 22.845476999999999
#
# number of rings (size 3 to 8) (size 9 to 14) (size 15 to 20)
#    0.000    0.444    0.000    9.333    3.111    0.000 
#    0.000    0.000    0.000    0.000    0.000    0.000 
#    0.000    0.000    0.000    0.000    0.000    0.000 
#
# Total GULP energy -100783.704310 kJ/mol
# GULP energy per Si atom -5599.094684 kJ/mol
# Density = 2.279348 g / cm^3
# Si number density = 22.845477 Si / 1000 Ang^3
#
#
#
# Elastic Constant Matrix: (Units=GPa)
#
#
# Indices 1 2 3 4 5 6 
#
# 1 88.3990 26.8907 3.6234 0.0000 0.0000 0.0000
# 2 26.8907 77.3855 4.4530 0.0000 0.0000 0.0000
# 3 3.6234 4.4530 79.3717 0.0000 0.0000 0.0000
# 4 0.0000 0.0000 0.0000 30.1144 0.0000 0.0000
# 5 0.0000 0.0000 0.0000 0.0000 21.3183 0.0000
# 6 0.0000 0.0000 0.0000 0.0000 0.0000 44.7021
#
#
#
# Elastic Compliance Matrix: (Units=1/GPa)
#
#
# Indices 1 2 3 4 5 6 
#
# 1 0.012658 -0.004379 -0.000332 0.000000 0.000000 0.000000
# 2 -0.004379 0.014479 -0.000612 0.000000 0.000000 0.000000
# 3 -0.000332 -0.000612 0.012648 0.000000 0.000000 0.000000
# 4 0.000000 0.000000 0.000000 0.033207 0.000000 0.000000
# 5 0.000000 0.000000 0.000000 0.000000 0.046908 0.000000
# 6 0.000000 0.000000 0.000000 0.000000 0.000000 0.022370
#
#
# Mechanical properties :
#
#
# Convention : Reuss Voigt Hill
#
# Bulk Modulus (GPa) = 34.31951 35.01004 34.66478
# Shear Modulus (GPa) = 30.74429 33.23957 31.99193
#
# Velocity S-wave (km/s) = 3.67243 3.81855 3.74620
# Velocity P-wave (km/s) = 5.74781 5.89913 5.82396
#
# Compressibility (1/GPa) = 0.02913794
#
# Stress axis : x y z
#
# Youngs Moduli (GPa) = 79.00027 69.06376 79.06096
#
# Poissons Ratio (x) = 0.30246 0.02626
# Poissons Ratio (y) = 0.34598 0.04842
# Poissons Ratio (z) = 0.02624 0.04229
#
# Static dielectric constant tensor:
#      x y z
#    x 1.865130 0.000000 0.000000 
#    y 0.000000 1.852410 0.000000 
#    z 0.000000 0.000000 1.827050 
# 
# From -- ./inp_files/311.got.cif
#   From: 2010.05.17/outbox.cif.g08.bks.cpg/sg26_1_cif.got.tgz:311.got - 2010.06.04 01:07:29.
