data_PCOD9338509
_publ_section_title
;
Structure prediction by ZEFSAII (Michael W. Deem and Ramdas Pophale) SiO2 
 PCOD9338509
Probable space group: P M C 21
;
_chemical_formula_sum "Si O2"
_cell_formula_units_Z 24
_cell_length_a 11.589755
_cell_length_b 7.395155
_cell_length_c 10.861974
_cell_angle_alpha 90.000000
_cell_angle_beta 90.000000
_cell_angle_gamma 90.000000
_cell_volume 930.958444
_symmetry_space_group_name_H-M "P M C 21"
_symmetry_group_IT_number 26
_symmetry_cell_setting 'orthorhombic'
loop_
_space_group_symop_operation_xyz
x,y,z
-x,-y,1/2+z
-x,y,z
x,-y,1/2+z
loop_
_atom_site_type_symbol
_atom_site_label
_atom_site_fract_x
_atom_site_fract_y
_atom_site_fract_z
Si Si1 0.874462 0.040079 0.537500
Si Si2 0.784614 0.681647 0.231479
Si Si3 0.372437 0.540281 0.038317
Si Si4 0.374726 0.068293 0.862569
Si Si5 0.863469 0.626847 0.889817
Si Si6 0.335030 0.137874 0.118338
O O1 0.862678 0.199055 0.640748
O O2 0.850810 0.156635 0.412271
O O3 0.000000 0.965011 0.521145
O O4 0.800340 0.883298 0.599527
O O5 0.664528 0.648420 0.159806
O O6 0.736792 0.804178 0.342921
O O7 0.845163 0.494726 0.267866
O O8 0.500000 0.589170 0.989010
O O9 0.377015 0.333122 0.082142
O O10 0.255979 0.562518 0.957799
O O11 0.500000 0.160516 0.850698
O O12 0.369817 0.923441 0.753209
O O13 0.371579 0.004828 0.004855
O O14 0.000000 0.592675 0.926281
#
# Coordination Sequence:
#
# PCOD9338509 Si02
#       6
#     4   4   4   4   4   4
#     4   9  21  41  60  89 130 170 221 276 333 403
#     4  10  21  38  66  91 127 171 225 275 340 392
#     4  11  23  40  64  97 132 172 223 275 334 407
#     4  11  22  41  63  92 134 176 219 273 334 400
#     4  10  21  40  67  94 127 170 224 281 339 401
#     4  11  24  40  64  97 133 177 221 272 335 403
#
# _framework density 25.779883999999999
#
# number of rings (size 3 to 8) (size 9 to 14) (size 15 to 20)
#    0.000    1.667    1.667    2.500    2.333    2.000 
#    0.000    2.500    0.000    0.000    0.000    0.000 
#    0.000    0.000    0.000    0.000    0.000    0.000 
#
# Total GULP energy -133690.633313 kJ/mol
# GULP energy per Si atom -5570.443055 kJ/mol
# Density = 2.572121 g / cm^3
# Si number density = 25.779884 Si / 1000 Ang^3
#
#
#
# Elastic Constant Matrix: (Units=GPa)
#
#
# Indices 1 2 3 4 5 6 
#
# 1 155.3063 32.5294 13.4317 0.0000 0.0000 0.0000
# 2 32.5294 58.4583 6.4274 0.0000 0.0000 0.0000
# 3 13.4317 6.4274 99.5171 0.0000 0.0000 0.0000
# 4 0.0000 0.0000 0.0000 39.3247 0.0000 0.0000
# 5 0.0000 0.0000 0.0000 0.0000 19.1177 0.0000
# 6 0.0000 0.0000 0.0000 0.0000 0.0000 21.4245
#
#
#
# Elastic Compliance Matrix: (Units=1/GPa)
#
#
# Indices 1 2 3 4 5 6 
#
# 1 0.007341 -0.004004 -0.000732 0.000000 0.000000 0.000000
# 2 -0.004004 0.019413 -0.000713 0.000000 0.000000 0.000000
# 3 -0.000732 -0.000713 0.010193 0.000000 0.000000 0.000000
# 4 0.000000 0.000000 0.000000 0.025429 0.000000 0.000000
# 5 0.000000 0.000000 0.000000 0.000000 0.052307 0.000000
# 6 0.000000 0.000000 0.000000 0.000000 0.000000 0.046676
#
#
# Mechanical properties :
#
#
# Convention : Reuss Voigt Hill
#
# Bulk Modulus (GPa) = 38.39145 46.45096 42.42121
# Shear Modulus (GPa) = 27.63319 33.36627 30.49973
#
# Velocity S-wave (km/s) = 3.27752 3.60151 3.44333
# Velocity P-wave (km/s) = 5.40807 5.94575 5.68327
#
# Compressibility (1/GPa) = 0.02604746
#
# Stress axis : x y z
#
# Youngs Moduli (GPa) = 136.22219 51.51212 98.10252
#
# Poissons Ratio (x) = 0.20628 0.07183
# Poissons Ratio (y) = 0.54549 0.06998
# Poissons Ratio (z) = 0.09974 0.03674
#
# Static dielectric constant tensor:
#      x y z
#    x 2.269200 0.000000 0.000000 
#    y 0.000000 2.091790 0.000000 
#    z 0.000000 0.000000 2.191340 
# 
# From -- ./inp_files/3233.got.cif
#   From: 2010.05.17/outbox.cif.g08.bks.cpg/sg26_2_cif.got.tgz:3233.got - 2010.06.04 01:07:29.
