data_PCOD9338667
_publ_section_title
;
Structure prediction by ZEFSAII (Michael W. Deem and Ramdas Pophale) SiO2 
 PCOD9338667
Probable space group: P M C 21
;
_chemical_formula_sum "Si O2"
_cell_formula_units_Z 14
_cell_length_a 9.784452
_cell_length_b 4.837373
_cell_length_c 11.304351
_cell_angle_alpha 90.000000
_cell_angle_beta 90.000000
_cell_angle_gamma 90.000000
_cell_volume 535.046734
_symmetry_space_group_name_H-M "P M C 21"
_symmetry_group_IT_number 26
_symmetry_cell_setting 'orthorhombic'
loop_
_space_group_symop_operation_xyz
x,y,z
-x,-y,1/2+z
-x,y,z
x,-y,1/2+z
loop_
_atom_site_type_symbol
_atom_site_label
_atom_site_fract_x
_atom_site_fract_y
_atom_site_fract_z
Si Si1 0.203992 0.449182 0.658280
Si Si2 0.500000 0.896668 0.910960
Si Si3 0.000000 0.735055 0.479345
Si Si4 0.500000 0.600305 0.569339
Si Si5 0.797004 0.944004 0.809232
O O1 0.118195 0.551490 0.548131
O O2 0.362724 0.514748 0.636291
O O3 0.178204 0.134406 0.693742
O O4 0.162074 0.635656 0.771697
O O5 0.637887 0.957832 0.841263
O O6 0.500000 0.577627 0.948741
O O7 0.500000 0.081442 0.030196
O O8 0.117434 0.926556 0.413944
#
# Coordination Sequence:
#
# PCOD9338667 Si02
#       5
#     4   2   2   2   4
#     4  12  27  48  75 110 149 197 251 310 379 448
#     4  12  24  48  78 109 145 198 250 316 378 441
#     4  12  28  48  76 108 158 198 250 308 378 468
#     4  12  24  48  78 109 145 198 250 316 378 441
#     4  12  27  48  75 110 149 197 251 310 379 448
#
# _framework density 26.165941
#
# number of rings (size 3 to 8) (size 9 to 14) (size 15 to 20)
#    0.000    0.000    2.857    6.857    0.000    2.286 
#    0.000    0.000    0.000    0.000    0.000    0.000 
#    0.000    0.000    0.000    0.000    0.000    0.000 
#
# Total GULP energy -78170.822888 kJ/mol
# GULP energy per Si atom -5583.630206 kJ/mol
# Density = 2.610639 g / cm^3
# Si number density = 26.165941 Si / 1000 Ang^3
#
#
#
# Elastic Constant Matrix: (Units=GPa)
#
#
# Indices 1 2 3 4 5 6 
#
# 1 204.6698 10.5301 26.5313 0.0000 0.0000 0.0000
# 2 10.5301 90.2191 20.5676 0.0000 0.0000 0.0000
# 3 26.5313 20.5676 84.0116 0.0000 0.0000 0.0000
# 4 0.0000 0.0000 0.0000 66.5536 0.0000 0.0000
# 5 0.0000 0.0000 0.0000 0.0000 85.2577 0.0000
# 6 0.0000 0.0000 0.0000 0.0000 0.0000 -8.3809
#
#
#
# Elastic Compliance Matrix: (Units=1/GPa)
#
#
# Indices 1 2 3 4 5 6 
#
# 1 0.005099 -0.000242 -0.001551 0.000000 0.000000 0.000000
# 2 -0.000242 0.011751 -0.002801 0.000000 0.000000 0.000000
# 3 -0.001551 -0.002801 0.013079 0.000000 0.000000 0.000000
# 4 0.000000 0.000000 0.000000 0.015025 0.000000 0.000000
# 5 0.000000 0.000000 0.000000 0.000000 0.011729 0.000000
# 6 0.000000 0.000000 0.000000 0.000000 0.000000 -0.119318
#
#
# Mechanical properties :
#
#
# Convention : Reuss Voigt Hill
#
# Bulk Modulus (GPa) = 48.21106 54.90650 51.55878
# Shear Modulus (GPa) = -107.44826 50.10417 -28.67204
#
# Velocity S-wave (km/s) = -6.41508 4.38066 -3.31384
# Velocity P-wave (km/s) = 6.03374 6.82762 2.25948
#
# Compressibility (1/GPa) = 0.02074213
#
# Stress axis : x y z
#
# Youngs Moduli (GPa) = 196.09995 85.10082 76.46050
#
# Poissons Ratio (x) = 0.02055 0.11861
# Poissons Ratio (y) = 0.04737 0.21413
# Poissons Ratio (z) = 0.30421 0.23833
#
# Static dielectric constant tensor:
#      x y z
#    x 1.936530 0.000000 0.000000 
#    y 0.000000 1.971400 0.000000 
#    z 0.000000 0.000000 2.104550 
# 
# From -- ./inp_files/3784.got.cif
#   From: 2010.05.17/outbox.cif.g08.bks.cpg/sg26_2_cif.got.tgz:3784.got - 2010.06.04 01:07:29.
