data_PCOD9338681
_publ_section_title
;
Structure prediction by ZEFSAII (Michael W. Deem and Ramdas Pophale) SiO2 
 PCOD9338681
Probable space group: P M C 21
;
_chemical_formula_sum "Si O2"
_cell_formula_units_Z 32
_cell_length_a 9.000000
_cell_length_b 12.000000
_cell_length_c 18.000000
_cell_angle_alpha 90.000000
_cell_angle_beta 90.000000
_cell_angle_gamma 90.000000
_cell_volume 1944.000000
_symmetry_space_group_name_H-M "P M C 21"
_symmetry_group_IT_number 26
_symmetry_cell_setting 'orthorhombic'
loop_
_space_group_symop_operation_xyz
x,y,z
-x,-y,1/2+z
-x,y,z
x,-y,1/2+z
loop_
_atom_site_type_symbol
_atom_site_label
_atom_site_fract_x
_atom_site_fract_y
_atom_site_fract_z
Si Si1 0.176861 0.265900 0.430660
Si Si2 0.324936 0.273457 0.580775
Si Si3 0.321286 0.626841 0.243848
Si Si4 0.671978 0.948791 0.869015
Si Si5 0.176938 0.844109 0.303920
Si Si6 0.329476 0.178468 0.209305
Si Si7 0.177876 0.387110 0.276460
Si Si8 0.677730 0.949167 0.159131
O O1 0.234621 0.311308 0.509099
O O2 0.247788 0.143780 0.418582
O O3 0.217814 0.342234 0.359399
O O4 0.000000 0.255978 0.430762
O O5 0.500000 0.290175 0.567324
O O6 0.287847 0.334596 0.658635
O O7 0.300945 0.140629 0.594288
O O8 0.500000 0.628278 0.251979
O O9 0.249828 0.721512 0.297308
O O10 0.256255 0.504489 0.259452
O O11 0.500000 0.962877 0.890176
O O12 0.674810 0.890281 0.787189
O O13 0.752303 0.068270 0.862317
O O14 0.000000 0.837117 0.312199
O O15 0.222233 0.901166 0.225529
O O16 0.500000 0.213223 0.196425
O O17 0.230619 0.287695 0.221193
O O18 0.289068 0.080567 0.150618
O O19 0.000000 0.399532 0.272414
O O20 0.500000 0.941693 0.179394
#
# Coordination Sequence:
#
# PCOD9338681 Si02
#       8
#     4   4   4   4   4   4   4   4
#     4  10  20  32  48  73 102 129 160 203 254 304
#     4   9  18  32  50  72  97 126 162 205 250 300
#     4  10  20  34  51  71  96 130 173 211 245 293
#     4   9  16  28  46  67  93 124 156 189 230 283
#     4  10  17  26  44  70  97 121 149 191 241 285
#     4   8  14  26  45  67  91 120 152 189 232 276
#     4  10  20  32  47  71 100 129 166 209 250 293
#     4   8  15  28  45  67  94 123 156 191 230 282
#
# _framework density 16.460905
#
# number of rings (size 3 to 8) (size 9 to 14) (size 15 to 20)
#    0.000    2.750    0.000    4.125    0.000    7.000 
#    0.000    0.000    0.000    1.500    0.000    5.250 
#    0.000    0.000    0.000    0.000    0.000    0.000 
#
# Total GULP energy -178162.326488 kJ/mol
# GULP energy per Si atom -5567.572703 kJ/mol
# Density = 1.642344 g / cm^3
# Si number density = 16.460905 Si / 1000 Ang^3
#
#
#
# Elastic Constant Matrix: (Units=GPa)
#
#
# Indices 1 2 3 4 5 6 
#
# 1 82.5518 63.9495 31.8724 0.0000 0.0000 0.0000
# 2 63.9495 144.6363 35.7775 0.0000 0.0000 0.0000
# 3 31.8724 35.7775 52.4848 0.0000 0.0000 0.0000
# 4 0.0000 0.0000 0.0000 14.1041 0.0000 0.0000
# 5 0.0000 0.0000 0.0000 0.0000 20.1508 0.0000
# 6 0.0000 0.0000 0.0000 0.0000 0.0000 30.5672
#
#
#
# Elastic Compliance Matrix: (Units=1/GPa)
#
#
# Indices 1 2 3 4 5 6 
#
# 1 0.020674 -0.007259 -0.007606 0.000000 0.000000 0.000000
# 2 -0.007259 0.010865 -0.002998 0.000000 0.000000 0.000000
# 3 -0.007606 -0.002998 0.025716 0.000000 0.000000 0.000000
# 4 0.000000 0.000000 0.000000 0.070901 0.000000 0.000000
# 5 0.000000 0.000000 0.000000 0.000000 0.049626 0.000000
# 6 0.000000 0.000000 0.000000 0.000000 0.000000 0.032715
#
#
# Mechanical properties :
#
#
# Convention : Reuss Voigt Hill
#
# Bulk Modulus (GPa) = 46.45172 60.31908 53.38540
# Shear Modulus (GPa) = 19.73172 22.83599 21.28386
#
# Velocity S-wave (km/s) = 3.46598 3.72867 3.59972
# Velocity P-wave (km/s) = 6.65568 7.43375 7.05545
#
# Compressibility (1/GPa) = 0.02152773
#
# Stress axis : x y z
#
# Youngs Moduli (GPa) = 48.37082 92.03778 38.88656
#
# Poissons Ratio (x) = 0.66812 0.29577
# Poissons Ratio (y) = 0.35113 0.11659
# Poissons Ratio (z) = 0.36791 0.27595
#
# Static dielectric constant tensor:
#      x y z
#    x 1.550510 0.000000 0.000000 
#    y 0.000000 1.561630 0.000000 
#    z 0.000000 0.000000 1.584570 
# 
# From -- ./inp_files/5074.got.cif
#   From: 2010.05.17/outbox.ucp.g08.bks.cvg/sg26_3_cif.got.tgz:5074.got - 2010.06.11 15:23:25.
