data_PCOD9338491
_publ_section_title
;
Structure prediction by ZEFSAII (Michael W. Deem and Ramdas Pophale) SiO2 
 PCOD9338491
Probable space group: P M C 21
;
_chemical_formula_sum "Si O2"
_cell_formula_units_Z 32
_cell_length_a 15.393324
_cell_length_b 10.981078
_cell_length_c 10.132023
_cell_angle_alpha 90.000000
_cell_angle_beta 90.000000
_cell_angle_gamma 90.000000
_cell_volume 1712.669462
_symmetry_space_group_name_H-M "P M C 21"
_symmetry_group_IT_number 26
_symmetry_cell_setting 'orthorhombic'
loop_
_space_group_symop_operation_xyz
x,y,z
-x,-y,1/2+z
-x,y,z
x,-y,1/2+z
loop_
_atom_site_type_symbol
_atom_site_label
_atom_site_fract_x
_atom_site_fract_y
_atom_site_fract_z
Si Si1 0.404889 0.138447 0.480900
Si Si2 0.101432 0.099079 0.617038
Si Si3 0.240944 0.722783 0.041647
Si Si4 0.092531 0.647857 0.701982
Si Si5 0.856979 0.501215 0.453021
Si Si6 0.781166 0.856253 0.607200
Si Si7 0.597117 0.942826 0.700856
Si Si8 0.808315 0.757532 0.325384
O O1 0.500000 0.197657 0.474430
O O2 0.324568 0.227776 0.469005
O O3 0.399913 0.044922 0.358622
O O4 0.397797 0.065571 0.616826
O O5 0.155761 0.190293 0.520093
O O6 0.111829 0.169876 0.757155
O O7 0.000000 0.081831 0.584185
O O8 0.158763 0.976273 0.626364
O O9 0.220038 0.585574 0.003530
O O10 0.253824 0.738588 0.199513
O O11 0.096606 0.545876 0.586477
O O12 0.169758 0.742505 0.674859
O O13 0.000000 0.713639 0.689422
O O14 0.097521 0.581282 0.842305
O O15 0.832695 0.625334 0.379146
O O16 0.683924 0.871455 0.660664
O O17 0.775695 0.832105 0.450360
O O18 0.500000 0.890185 0.670933
#
# Coordination Sequence:
#
# PCOD9338491 Si02
#       8
#     4   4   4   4   4   4   4   4
#     4  10  21  37  61  94 127 161 203 252 309 370
#     4  10  22  38  55  86 127 164 198 248 311 370
#     4  10  21  39  64  85 121 162 203 253 311 359
#     4  11  23  37  59  88 120 163 212 258 306 363
#     4  11  21  41  61  85 116 164 215 263 297 359
#     4  11  22  38  62  89 126 162 201 255 311 378
#     4  10  21  37  61  91 124 162 202 249 304 372
#     4   9  23  39  59  90 123 158 206 260 307 355
#
# _framework density 18.684283000000001
#
# number of rings (size 3 to 8) (size 9 to 14) (size 15 to 20)
#    0.750    1.000    2.500    1.500    3.500    6.000 
#    0.000    0.000    0.000    3.750    0.000    0.000 
#    0.000    0.000    0.000    0.000    0.000    0.000 
#
# Total GULP energy -178160.670742 kJ/mol
# GULP energy per Si atom -5567.520961 kJ/mol
# Density = 1.864176 g / cm^3
# Si number density = 18.684283 Si / 1000 Ang^3
#
#
#
# Elastic Constant Matrix: (Units=GPa)
#
#
# Indices 1 2 3 4 5 6 
#
# 1 137.5889 46.2782 27.3167 0.0000 0.0000 0.0000
# 2 46.2782 87.5995 28.7662 0.0000 0.0000 0.0000
# 3 27.3167 28.7662 68.6371 0.0000 0.0000 0.0000
# 4 0.0000 0.0000 0.0000 27.4829 0.0000 0.0000
# 5 0.0000 0.0000 0.0000 0.0000 136.3849 0.0000
# 6 0.0000 0.0000 0.0000 0.0000 0.0000 15.6958
#
#
#
# Elastic Compliance Matrix: (Units=1/GPa)
#
#
# Indices 1 2 3 4 5 6 
#
# 1 0.009037 -0.004166 -0.001850 0.000000 0.000000 0.000000
# 2 -0.004166 0.015158 -0.004695 0.000000 0.000000 0.000000
# 3 -0.001850 -0.004695 0.017273 0.000000 0.000000 0.000000
# 4 0.000000 0.000000 0.000000 0.036386 0.000000 0.000000
# 5 0.000000 0.000000 0.000000 0.000000 0.007332 0.000000
# 6 0.000000 0.000000 0.000000 0.000000 0.000000 0.063711
#
#
# Mechanical properties :
#
#
# Convention : Reuss Voigt Hill
#
# Bulk Modulus (GPa) = 49.88666 55.39419 52.64043
# Shear Modulus (GPa) = 28.24804 48.67700 38.46252
#
# Velocity S-wave (km/s) = 3.89248 5.10969 4.54205
# Velocity P-wave (km/s) = 6.85271 8.03267 7.46604
#
# Compressibility (1/GPa) = 0.02004544
#
# Stress axis : x y z
#
# Youngs Moduli (GPa) = 110.65892 65.97009 57.89246
#
# Poissons Ratio (x) = 0.27486 0.10712
# Poissons Ratio (y) = 0.46105 0.27179
# Poissons Ratio (z) = 0.20476 0.30972
#
# Static dielectric constant tensor:
#      x y z
#    x 1.665260 0.000000 0.000000 
#    y 0.000000 1.631260 0.000000 
#    z 0.000000 0.000000 1.694850 
# 
# From -- ./inp_files/2236.got.cif
#   From: 2010.05.17/outbox.cif.g08.bks.cpg/sg26_2_cif.got.tgz:2236.got - 2010.06.04 01:07:29.
