data_PCOD9338376
_publ_section_title
;
Structure prediction by ZEFSAII (Michael W. Deem and Ramdas Pophale) SiO2 
 PCOD9338376
Probable space group: P M C 21
;
_chemical_formula_sum "Si O2"
_cell_formula_units_Z 32
_cell_length_a 7.495999
_cell_length_b 12.910483
_cell_length_c 14.176022
_cell_angle_alpha 90.000000
_cell_angle_beta 90.000000
_cell_angle_gamma 90.000000
_cell_volume 1371.912423
_symmetry_space_group_name_H-M "P M C 21"
_symmetry_group_IT_number 26
_symmetry_cell_setting 'orthorhombic'
loop_
_space_group_symop_operation_xyz
x,y,z
-x,-y,1/2+z
-x,y,z
x,-y,1/2+z
loop_
_atom_site_type_symbol
_atom_site_label
_atom_site_fract_x
_atom_site_fract_y
_atom_site_fract_z
Si Si1 0.790345 0.147775 0.974100
Si Si2 0.703129 0.159303 0.759148
Si Si3 0.704032 0.577154 0.806250
Si Si4 0.797641 0.731787 0.646302
Si Si5 0.286942 0.917237 0.977940
Si Si6 0.281095 0.618984 0.197031
Si Si7 0.282107 0.315114 0.496783
Si Si8 0.283472 0.064624 0.255345
O O1 0.700387 0.152378 0.872494
O O2 0.000000 0.166571 0.960481
O O3 0.772953 0.030246 0.013217
O O4 0.720287 0.235416 0.045213
O O5 0.500000 0.160228 0.722648
O O6 0.781965 0.268447 0.730784
O O7 0.781322 0.049782 0.727109
O O8 0.500000 0.553506 0.833290
O O9 0.702843 0.653463 0.716349
O O10 0.784893 0.471390 0.765633
O O11 0.780942 0.636418 0.897447
O O12 0.798620 0.841628 0.699358
O O13 0.000000 0.694110 0.634100
O O14 0.500000 0.918366 0.989469
O O15 0.222702 0.804551 0.012575
O O16 0.245562 0.919040 0.866018
O O17 0.500000 0.615796 0.201039
O O18 0.233788 0.614461 0.086459
O O19 0.500000 0.309394 0.492548
O O20 0.500000 0.068372 0.244693
#
# Coordination Sequence:
#
# PCOD9338376 Si02
#       8
#     4   4   4   4   4   4   4   4
#     4  10  22  36  51  78 116 154 188 227 277 334
#     4   9  19  36  56  83 113 142 182 230 282 334
#     4  10  20  37  59  83 113 147 188 232 276 330
#     4  11  23  36  52  78 113 151 189 228 273 328
#     4   9  17  32  55  80 109 144 184 230 278 329
#     4   9  19  34  58  88 113 142 184 235 283 329
#     4   9  17  32  54  83 113 141 178 228 280 326
#     4   9  17  31  53  81 110 141 179 224 277 332
#
# _framework density 23.325106000000002
#
# number of rings (size 3 to 8) (size 9 to 14) (size 15 to 20)
#    0.000    2.500    1.250    1.500    1.750    5.000 
#    0.000    3.125    0.000    2.250    0.000    0.000 
#    0.000    0.000    0.000    0.000    0.000    0.000 
#
# Total GULP energy -178630.581765 kJ/mol
# GULP energy per Si atom -5582.205680 kJ/mol
# Density = 2.327202 g / cm^3
# Si number density = 23.325106 Si / 1000 Ang^3
#
#
#
# Elastic Constant Matrix: (Units=GPa)
#
#
# Indices 1 2 3 4 5 6 
#
# 1 55.7435 0.1816 -6.3335 0.0000 0.0000 0.0000
# 2 0.1816 112.4189 25.5723 0.0000 0.0000 0.0000
# 3 -6.3335 25.5723 70.9509 0.0000 0.0000 0.0000
# 4 0.0000 0.0000 0.0000 31.4337 0.0000 0.0000
# 5 0.0000 0.0000 0.0000 0.0000 4.5097 0.0000
# 6 0.0000 0.0000 0.0000 0.0000 0.0000 -50.7638
#
#
#
# Elastic Compliance Matrix: (Units=1/GPa)
#
#
# Indices 1 2 3 4 5 6 
#
# 1 0.018142 -0.000433 0.001776 0.000000 0.000000 0.000000
# 2 -0.000433 0.009700 -0.003535 0.000000 0.000000 0.000000
# 3 0.001776 -0.003535 0.015527 0.000000 0.000000 0.000000
# 4 0.000000 0.000000 0.000000 0.031813 0.000000 0.000000
# 5 0.000000 0.000000 0.000000 0.000000 0.221744 0.000000
# 6 0.000000 0.000000 0.000000 0.000000 0.000000 -0.019699
#
#
# Mechanical properties :
#
#
# Convention : Reuss Voigt Hill
#
# Bulk Modulus (GPa) = 25.65119 30.88382 28.26750
# Shear Modulus (GPa) = 16.97175 11.68210 14.32692
#
# Velocity S-wave (km/s) = 2.70036 2.24037 2.48105
# Velocity P-wave (km/s) = 4.55453 4.46785 4.51140
#
# Compressibility (1/GPa) = 0.03898454
#
# Stress axis : x y z
#
# Youngs Moduli (GPa) = 55.11931 103.09199 64.40485
#
# Poissons Ratio (x) = 0.04466 -0.11436
# Poissons Ratio (y) = 0.02388 0.22766
# Poissons Ratio (z) = -0.09787 0.36441
#
# Static dielectric constant tensor:
#      x y z
#    x 1.889110 0.000000 0.000000 
#    y 0.000000 1.867540 0.000000 
#    z 0.000000 0.000000 1.888400 
# 
# From -- ./inp_files/4192.got.cif
#   From: 2010.05.17/outbox.cif.g08.bks.cpg/sg26_3_cif.got.tgz:4192.got - 2010.06.04 01:07:29.
