data_PCOD9338110
_publ_section_title
;
Structure prediction by ZEFSAII (Michael W. Deem and Ramdas Pophale) SiO2 
 PCOD9338110
Probable space group: P M C 21
;
_chemical_formula_sum "Si O2"
_cell_formula_units_Z 32
_cell_length_a 8.960971
_cell_length_b 11.775718
_cell_length_c 16.389332
_cell_angle_alpha 90.000000
_cell_angle_beta 90.000000
_cell_angle_gamma 90.000000
_cell_volume 1729.432920
_symmetry_space_group_name_H-M "P M C 21"
_symmetry_group_IT_number 26
_symmetry_cell_setting 'orthorhombic'
loop_
_space_group_symop_operation_xyz
x,y,z
-x,-y,1/2+z
-x,y,z
x,-y,1/2+z
loop_
_atom_site_type_symbol
_atom_site_label
_atom_site_fract_x
_atom_site_fract_y
_atom_site_fract_z
Si Si1 0.679052 0.057799 0.050390
Si Si2 0.819746 0.424577 0.285963
Si Si3 0.821791 0.688500 0.262140
Si Si4 0.168489 0.767199 0.666341
Si Si5 0.831015 0.923913 0.825090
Si Si6 0.321342 0.726422 0.924567
Si Si7 0.677461 0.133547 0.869507
Si Si8 0.320108 0.804200 0.102857
O O1 0.500000 0.052295 0.051154
O O2 0.733483 0.164993 0.102333
O O3 0.730699 0.934549 0.083949
O O4 0.724458 0.085499 0.957640
O O5 0.785251 0.555363 0.269545
O O6 0.773241 0.348414 0.207738
O O7 0.746565 0.372880 0.367952
O O8 0.000000 0.410676 0.293437
O O9 0.755855 0.752532 0.340723
O O10 0.753460 0.747528 0.181750
O O11 0.000000 0.700702 0.259950
O O12 0.159332 0.851247 0.743359
O O13 0.000000 0.748469 0.634561
O O14 0.748502 0.842288 0.888917
O O15 0.000000 0.952560 0.850932
O O16 0.734026 0.035042 0.809422
O O17 0.500000 0.728962 0.914573
O O18 0.288647 0.729973 0.021122
O O19 0.500000 0.145747 0.867123
O O20 0.500000 0.806847 0.113924
#
# Coordination Sequence:
#
# PCOD9338110 Si02
#       8
#     4   4   4   4   4   4   4   4
#     4  10  21  37  56  84 119 150 184 231 291 353
#     4   9  21  42  60  80 116 154 197 246 291 348
#     4  11  24  41  60  85 116 157 203 246 299 352
#     4   9  19  35  56  82 110 144 186 234 282 337
#     4  10  19  33  56  86 117 149 189 233 288 350
#     4  10  19  35  61  89 116 151 195 241 290 346
#     4  11  22  38  57  81 119 156 191 240 295 349
#     4  10  21  39  60  87 121 153 191 239 296 359
#
# _framework density 18.503174999999999
#
# number of rings (size 3 to 8) (size 9 to 14) (size 15 to 20)
#    0.000    2.000    1.250    3.000    0.000    8.000 
#    2.250    0.000    0.000    0.000    0.000    0.000 
#    0.000    0.000    0.000    0.000    0.000    0.000 
#
# Total GULP energy -178488.107630 kJ/mol
# GULP energy per Si atom -5577.753363 kJ/mol
# Density = 1.846106 g / cm^3
# Si number density = 18.503175 Si / 1000 Ang^3
#
#
#
# Elastic Constant Matrix: (Units=GPa)
#
#
# Indices 1 2 3 4 5 6 
#
# 1 36.9777 41.2304 36.1630 0.0000 0.0000 0.0000
# 2 41.2304 147.5111 60.8051 0.0000 0.0000 0.0000
# 3 36.1630 60.8051 79.0273 0.0000 0.0000 0.0000
# 4 0.0000 0.0000 0.0000 24.1981 0.0000 0.0000
# 5 0.0000 0.0000 0.0000 0.0000 57.7296 0.0000
# 6 0.0000 0.0000 0.0000 0.0000 0.0000 24.9537
#
#
#
# Elastic Compliance Matrix: (Units=1/GPa)
#
#
# Indices 1 2 3 4 5 6 
#
# 1 0.053633 -0.007138 -0.019050 0.000000 0.000000 0.000000
# 2 -0.007138 0.010878 -0.005103 0.000000 0.000000 0.000000
# 3 -0.019050 -0.005103 0.025298 0.000000 0.000000 0.000000
# 4 0.000000 0.000000 0.000000 0.041326 0.000000 0.000000
# 5 0.000000 0.000000 0.000000 0.000000 0.017322 0.000000
# 6 0.000000 0.000000 0.000000 0.000000 0.000000 0.040074
#
#
# Mechanical properties :
#
#
# Convention : Reuss Voigt Hill
#
# Bulk Modulus (GPa) = 36.73053 59.99035 48.36044
# Shear Modulus (GPa) = 19.21682 29.73080 24.47381
#
# Velocity S-wave (km/s) = 3.22618 4.01283 3.64081
# Velocity P-wave (km/s) = 5.81134 7.34592 6.62322
#
# Compressibility (1/GPa) = 0.02722531
#
# Stress axis : x y z
#
# Youngs Moduli (GPa) = 18.64530 91.92956 39.52909
#
# Poissons Ratio (x) = 0.65620 0.75304
# Poissons Ratio (y) = 0.13309 0.20173
# Poissons Ratio (z) = 0.35520 0.46914
#
# Static dielectric constant tensor:
#      x y z
#    x 1.634220 0.000000 0.000000 
#    y 0.000000 1.652220 0.000000 
#    z 0.000000 0.000000 1.665170 
# 
# From -- ./inp_files/4202.got.cif
#   From: 2010.05.17/outbox.cif.g08.bks.cpg/sg26_3_cif.got.tgz:4202.got - 2010.06.04 01:07:29.
