data_PCOD9338098
_publ_section_title
;
Structure prediction by ZEFSAII (Michael W. Deem and Ramdas Pophale) SiO2 
 PCOD9338098
Probable space group: P M C 21
;
_chemical_formula_sum "Si O2"
_cell_formula_units_Z 24
_cell_length_a 7.983414
_cell_length_b 14.647722
_cell_length_c 8.351000
_cell_angle_alpha 90.000000
_cell_angle_beta 90.000000
_cell_angle_gamma 90.000000
_cell_volume 976.556160
_symmetry_space_group_name_H-M "P M C 21"
_symmetry_group_IT_number 26
_symmetry_cell_setting 'orthorhombic'
loop_
_space_group_symop_operation_xyz
x,y,z
-x,-y,1/2+z
-x,y,z
x,-y,1/2+z
loop_
_atom_site_type_symbol
_atom_site_label
_atom_site_fract_x
_atom_site_fract_y
_atom_site_fract_z
Si Si1 0.703496 0.965376 0.621040
Si Si2 0.299145 0.134890 0.437711
Si Si3 0.192003 0.305830 0.607509
Si Si4 0.197713 0.534433 0.318626
Si Si5 0.297097 0.794564 0.426570
Si Si6 0.307418 0.630812 0.637660
O O1 0.500000 0.969154 0.636289
O O2 0.766687 0.912594 0.776926
O O3 0.738909 0.898308 0.471981
O O4 0.760250 0.067138 0.579752
O O5 0.500000 0.128815 0.433078
O O6 0.262680 0.240371 0.470838
O O7 0.260722 0.402902 0.669360
O O8 0.212599 0.245233 0.769267
O O9 0.000000 0.321688 0.568394
O O10 0.290633 0.571059 0.474474
O O11 0.000000 0.552822 0.343211
O O12 0.218503 0.429137 0.272503
O O13 0.500000 0.785873 0.406156
O O14 0.247966 0.729526 0.576426
O O15 0.500000 0.639643 0.684887
#
# Coordination Sequence:
#
# PCOD9338098 Si02
#       6
#     4   4   4   4   4   4
#     4   9  18  33  55  81 105 134 174 215 263 320
#     4  10  19  33  55  79 104 137 175 217 262 312
#     4  10  21  36  53  76 106 141 179 216 259 312
#     4  10  21  37  55  76 108 147 180 216 270 330
#     4   9  18  35  57  80 106 136 172 216 265 316
#     4  10  20  34  55  82 109 139 180 228 269 312
#
# _framework density 24.576160000000002
#
# number of rings (size 3 to 8) (size 9 to 14) (size 15 to 20)
#    0.000    2.333    0.000    2.500    0.000    6.667 
#    0.000    5.833    0.000    0.000    0.000    0.000 
#    0.000    0.000    0.000    0.000    0.000    0.000 
#
# Total GULP energy -134119.509878 kJ/mol
# GULP energy per Si atom -5588.312912 kJ/mol
# Density = 2.452022 g / cm^3
# Si number density = 24.576160 Si / 1000 Ang^3
#
#
#
# Elastic Constant Matrix: (Units=GPa)
#
#
# Indices 1 2 3 4 5 6 
#
# 1 14.9364 4.2446 1.1346 0.0000 0.0000 0.0000
# 2 4.2446 127.0381 8.4302 0.0000 0.0000 0.0000
# 3 1.1346 8.4302 59.6562 0.0000 0.0000 0.0000
# 4 0.0000 0.0000 0.0000 38.8552 0.0000 0.0000
# 5 0.0000 0.0000 0.0000 0.0000 204.8701 0.0000
# 6 0.0000 0.0000 0.0000 0.0000 0.0000 -9.2459
#
#
#
# Elastic Compliance Matrix: (Units=1/GPa)
#
#
# Indices 1 2 3 4 5 6 
#
# 1 0.067649 -0.002195 -0.000976 0.000000 0.000000 0.000000
# 2 -0.002195 0.008017 -0.001091 0.000000 0.000000 0.000000
# 3 -0.000976 -0.001091 0.016936 0.000000 0.000000 0.000000
# 4 0.000000 0.000000 0.000000 0.025737 0.000000 0.000000
# 5 0.000000 0.000000 0.000000 0.000000 0.004881 0.000000
# 6 0.000000 0.000000 0.000000 0.000000 0.000000 -0.108156
#
#
# Mechanical properties :
#
#
# Convention : Reuss Voigt Hill
#
# Bulk Modulus (GPa) = 11.89408 25.47217 18.68313
# Shear Modulus (GPa) = 96.87141 59.41729 78.14435
#
# Velocity S-wave (km/s) = 6.28509 4.92233 5.64498
# Velocity P-wave (km/s) = 7.58420 6.53397 7.07859
#
# Compressibility (1/GPa) = 0.08407541
#
# Stress axis : x y z
#
# Youngs Moduli (GPa) = 14.78228 124.72837 59.04756
#
# Poissons Ratio (x) = 0.27384 0.05765
# Poissons Ratio (y) = 0.03245 0.06443
# Poissons Ratio (z) = 0.01443 0.13611
#
# Static dielectric constant tensor:
#      x y z
#    x 1.841060 0.000000 0.000000 
#    y 0.000000 1.934980 0.000000 
#    z 0.000000 0.000000 2.025710 
# 
# From -- ./inp_files/1407.got.cif
#   From: 2010.05.17/outbox.cif.g08.bks.cpg/sg26_1_cif.got.tgz:1407.got - 2010.06.04 01:07:29.
