data_PCOD9338329
_publ_section_title
;
Structure prediction by ZEFSAII (Michael W. Deem and Ramdas Pophale) SiO2 
 PCOD9338329
Probable space group: P M C 21
;
_chemical_formula_sum "Si O2"
_cell_formula_units_Z 32
_cell_length_a 7.780721
_cell_length_b 7.384384
_cell_length_c 25.587017
_cell_angle_alpha 90.000000
_cell_angle_beta 90.000000
_cell_angle_gamma 90.000000
_cell_volume 1470.123341
_symmetry_space_group_name_H-M "P M C 21"
_symmetry_group_IT_number 26
_symmetry_cell_setting 'orthorhombic'
loop_
_space_group_symop_operation_xyz
x,y,z
-x,-y,1/2+z
-x,y,z
x,-y,1/2+z
loop_
_atom_site_type_symbol
_atom_site_label
_atom_site_fract_x
_atom_site_fract_y
_atom_site_fract_z
Si Si1 0.707861 0.360487 0.963800
Si Si2 0.795924 0.037185 0.153994
Si Si3 0.295453 0.328290 0.849610
Si Si4 0.801989 0.742126 0.834742
Si Si5 0.789200 0.344672 0.224429
Si Si6 0.300223 0.942706 0.537011
Si Si7 0.792490 0.755868 0.239492
Si Si8 0.204260 0.221003 0.448184
O O1 0.500000 0.360851 0.966209
O O2 0.755844 0.269904 0.907919
O O3 0.765336 0.568102 0.961945
O O4 0.775915 0.240083 0.011370
O O5 0.726428 0.889534 0.194814
O O6 0.000000 0.037583 0.162087
O O7 0.734503 0.233808 0.173630
O O8 0.769280 0.002683 0.093242
O O9 0.500000 0.361394 0.849827
O O10 0.203949 0.522277 0.840909
O O11 0.254447 0.204830 0.799845
O O12 0.729706 0.763230 0.776517
O O13 0.724044 0.811488 0.889245
O O14 0.000000 0.802983 0.833201
O O15 0.730711 0.551528 0.227361
O O16 0.000000 0.350199 0.226699
O O17 0.500000 0.909486 0.545852
O O18 0.280085 0.095237 0.492882
O O19 0.000000 0.755267 0.237667
O O20 0.000000 0.190978 0.446601
#
# Coordination Sequence:
#
# PCOD9338329 Si02
#       8
#     4   4   4   4   4   4   4   4
#     4   9  20  38  57  79 111 150 184 220 273 328
#     4  10  21  36  53  74 100 136 184 228 264 310
#     4   9  16  29  52  80 107 135 172 214 259 321
#     4   8  15  30  52  79 108 136 169 212 268 326
#     4   8  15  31  53  75 102 132 163 208 263 315
#     4  11  24  40  55  75 109 149 187 227 272 325
#     4   9  18  33  53  77 106 137 167 210 272 325
#     4  10  20  35  59  87 111 139 180 229 275 324
#
# _framework density 21.766881999999999
#
# number of rings (size 3 to 8) (size 9 to 14) (size 15 to 20)
#    0.000    2.750    0.000    1.875    0.000    4.500 
#    0.000    5.000    0.000    0.000    0.000    0.000 
#    0.000    0.000    0.000    0.000    0.000    0.000 
#
# Total GULP energy -178486.877227 kJ/mol
# GULP energy per Si atom -5577.714913 kJ/mol
# Density = 2.171734 g / cm^3
# Si number density = 21.766882 Si / 1000 Ang^3
#
#
#
# Elastic Constant Matrix: (Units=GPa)
#
#
# Indices 1 2 3 4 5 6 
#
# 1 30.3714 -0.5311 0.5348 0.0000 0.0000 0.0000
# 2 -0.5311 35.9940 9.7561 0.0000 0.0000 0.0000
# 3 0.5348 9.7561 100.7534 0.0000 0.0000 0.0000
# 4 0.0000 0.0000 0.0000 31.9616 0.0000 0.0000
# 5 0.0000 0.0000 0.0000 0.0000 60.2810 0.0000
# 6 0.0000 0.0000 0.0000 0.0000 0.0000 12.7508
#
#
#
# Elastic Compliance Matrix: (Units=1/GPa)
#
#
# Indices 1 2 3 4 5 6 
#
# 1 0.032939 0.000548 -0.000228 0.000000 0.000000 0.000000
# 2 0.000548 0.028540 -0.002767 0.000000 0.000000 0.000000
# 3 -0.000228 -0.002767 0.010194 0.000000 0.000000 0.000000
# 4 0.000000 0.000000 0.000000 0.031288 0.000000 0.000000
# 5 0.000000 0.000000 0.000000 0.000000 0.016589 0.000000
# 6 0.000000 0.000000 0.000000 0.000000 0.000000 0.078426
#
#
# Mechanical properties :
#
#
# Convention : Reuss Voigt Hill
#
# Bulk Modulus (GPa) = 14.97437 20.73760 17.85599
# Shear Modulus (GPa) = 22.20936 31.48927 26.84932
#
# Velocity S-wave (km/s) = 3.19772 3.80762 3.51592
# Velocity P-wave (km/s) = 4.53081 5.37387 4.97025
#
# Compressibility (1/GPa) = 0.06678076
#
# Stress axis : x y z
#
# Youngs Moduli (GPa) = 30.35884 35.03811 98.09380
#
# Poissons Ratio (x) = -0.01919 0.02235
# Poissons Ratio (y) = -0.01663 0.27138
# Poissons Ratio (z) = 0.00692 0.09693
#
# Static dielectric constant tensor:
#      x y z
#    x 1.766520 0.000000 0.000000 
#    y 0.000000 1.805680 0.000000 
#    z 0.000000 0.000000 1.823440 
# 
# From -- ./inp_files/5577.got.cif
#   From: 2010.05.17/outbox.cif.g08.bks.cpg/sg26_3_cif.got.tgz:5577.got - 2010.06.04 01:07:29.
