data_PCOD9338181
_publ_section_title
;
Structure prediction by ZEFSAII (Michael W. Deem and Ramdas Pophale) SiO2 
 PCOD9338181
Probable space group: P M C 21
;
_chemical_formula_sum "Si O2"
_cell_formula_units_Z 32
_cell_length_a 7.439891
_cell_length_b 19.661235
_cell_length_c 8.270629
_cell_angle_alpha 90.000000
_cell_angle_beta 90.000000
_cell_angle_gamma 90.000000
_cell_volume 1209.806481
_symmetry_space_group_name_H-M "P M C 21"
_symmetry_group_IT_number 26
_symmetry_cell_setting 'orthorhombic'
loop_
_space_group_symop_operation_xyz
x,y,z
-x,-y,1/2+z
-x,y,z
x,-y,1/2+z
loop_
_atom_site_type_symbol
_atom_site_label
_atom_site_fract_x
_atom_site_fract_y
_atom_site_fract_z
Si Si1 0.292800 0.474990 0.128680
Si Si2 0.207489 0.774091 0.596668
Si Si3 0.786301 0.346853 0.300069
Si Si4 0.283954 0.104406 0.311157
Si Si5 0.279163 0.601394 0.315556
Si Si6 0.703805 0.859117 0.285908
Si Si7 0.280912 0.980884 0.492598
Si Si8 0.285210 0.270595 0.633856
O O1 0.500000 0.487018 0.087479
O O2 0.285881 0.422773 0.279443
O O3 0.218364 0.547671 0.178749
O O4 0.213702 0.432194 0.981239
O O5 0.283730 0.702235 0.656078
O O6 0.212903 0.823045 0.755160
O O7 0.303244 0.812996 0.450786
O O8 0.000000 0.767154 0.549862
O O9 0.745444 0.308936 0.466430
O O10 0.000000 0.350366 0.284598
O O11 0.500000 0.112493 0.319542
O O12 0.224498 0.058528 0.462643
O O13 0.237351 0.054804 0.160426
O O14 0.500000 0.602777 0.316594
O O15 0.219326 0.676789 0.270605
O O16 0.500000 0.875931 0.233086
O O17 0.784786 0.928962 0.352882
O O18 0.785783 0.805777 0.158881
O O19 0.500000 0.980624 0.483174
O O20 0.500000 0.263528 0.651406
#
# Coordination Sequence:
#
# PCOD9338181 Si02
#       8
#     4   4   4   4   4   4   4   4
#     4  10  19  35  59  82 107 138 172 212 258 308
#     4  10  21  36  52  72 103 141 178 216 260 309
#     4  11  24  38  51  74 108 142 177 217 260 306
#     4   9  17  31  51  73 100 133 170 213 260 309
#     4   9  18  33  57  87 111 133 168 216 263 305
#     4   9  18  34  57  82 104 131 173 218 262 316
#     4   8  15  28  48  75 102 127 160 208 259 302
#     4  10  20  35  57  83 107 135 174 216 260 313
#
# _framework density 26.450510000000001
#
# number of rings (size 3 to 8) (size 9 to 14) (size 15 to 20)
#    0.000    2.500    0.000    3.000    0.000    6.500 
#    0.000    8.125    0.000    0.000    0.000    0.000 
#    0.000    0.000    0.000    0.000    0.000    0.000 
#
# Total GULP energy -178991.877278 kJ/mol
# GULP energy per Si atom -5593.496165 kJ/mol
# Density = 2.639031 g / cm^3
# Si number density = 26.450510 Si / 1000 Ang^3
#
#
#
# Elastic Constant Matrix: (Units=GPa)
#
#
# Indices 1 2 3 4 5 6 
#
# 1 94.3615 2.8000 -2.2116 0.0000 0.0000 0.0000
# 2 2.8000 152.0957 7.8898 0.0000 0.0000 0.0000
# 3 -2.2116 7.8898 72.5585 0.0000 0.0000 0.0000
# 4 0.0000 0.0000 0.0000 54.7289 0.0000 0.0000
# 5 0.0000 0.0000 0.0000 0.0000 -50.9711 0.0000
# 6 0.0000 0.0000 0.0000 0.0000 0.0000 57.9319
#
#
#
# Elastic Compliance Matrix: (Units=1/GPa)
#
#
# Indices 1 2 3 4 5 6 
#
# 1 0.010612 -0.000213 0.000347 0.000000 0.000000 0.000000
# 2 -0.000213 0.006616 -0.000726 0.000000 0.000000 0.000000
# 3 0.000347 -0.000726 0.013871 0.000000 0.000000 0.000000
# 4 0.000000 0.000000 0.000000 0.018272 0.000000 0.000000
# 5 0.000000 0.000000 0.000000 0.000000 -0.019619 0.000000
# 6 0.000000 0.000000 0.000000 0.000000 0.000000 0.017262
#
#
# Mechanical properties :
#
#
# Convention : Reuss Voigt Hill
#
# Bulk Modulus (GPa) = 33.42852 37.33026 35.37939
# Shear Modulus (GPa) = 85.95314 33.04045 59.49680
#
# Velocity S-wave (km/s) = 5.70670 3.53816 4.74789
# Velocity P-wave (km/s) = 7.48915 5.55295 6.59252
#
# Compressibility (1/GPa) = 0.02991458
#
# Stress axis : x y z
#
# Youngs Moduli (GPa) = 94.23299 151.13980 72.09037
#
# Poissons Ratio (x) = 0.03225 -0.02499
# Poissons Ratio (y) = 0.02010 0.05233
# Poissons Ratio (z) = -0.03267 0.10972
#
# Static dielectric constant tensor:
#      x y z
#    x 2.095680 0.000000 0.000000 
#    y 0.000000 2.039900 0.000000 
#    z 0.000000 0.000000 2.155390 
# 
# From -- ./inp_files/1594.got.cif
#   From: 2010.05.17/outbox.cif.g08.bks.cpg/sg26_1_cif.got.tgz:1594.got - 2010.06.04 01:07:29.
