data_PCOD9338292
_publ_section_title
;
Structure prediction by ZEFSAII (Michael W. Deem and Ramdas Pophale) SiO2 
 PCOD9338292
Probable space group: P M C 21
;
_chemical_formula_sum "Si O2"
_cell_formula_units_Z 32
_cell_length_a 8.771122
_cell_length_b 14.772919
_cell_length_c 12.647542
_cell_angle_alpha 90.000000
_cell_angle_beta 90.000000
_cell_angle_gamma 90.000000
_cell_volume 1638.806201
_symmetry_space_group_name_H-M "P M C 21"
_symmetry_group_IT_number 26
_symmetry_cell_setting 'orthorhombic'
loop_
_space_group_symop_operation_xyz
x,y,z
-x,-y,1/2+z
-x,y,z
x,-y,1/2+z
loop_
_atom_site_type_symbol
_atom_site_label
_atom_site_fract_x
_atom_site_fract_y
_atom_site_fract_z
Si Si1 0.318118 0.862105 0.536610
Si Si2 0.174048 0.662545 0.872293
Si Si3 0.818532 0.633005 0.244011
Si Si4 0.682857 0.447735 0.181406
Si Si5 0.684804 0.334637 0.970437
Si Si6 0.827591 0.857789 0.760869
Si Si7 0.684374 0.941485 0.962575
Si Si8 0.317295 0.753966 0.073878
O O1 0.500000 0.862713 0.523985
O O2 0.263309 0.770051 0.481307
O O3 0.275887 0.853980 0.658587
O O4 0.261909 0.959887 0.498883
O O5 0.260016 0.597723 0.790493
O O6 0.167449 0.758583 0.812168
O O7 0.000000 0.631392 0.891540
O O8 0.258399 0.686478 0.981439
O O9 0.755907 0.546644 0.179953
O O10 0.755214 0.627002 0.363182
O O11 0.755051 0.721175 0.183325
O O12 0.000000 0.633321 0.244459
O O13 0.500000 0.453882 0.182964
O O14 0.726555 0.388755 0.077806
O O15 0.500000 0.337432 0.962821
O O16 0.754962 0.921365 0.848971
O O17 0.000000 0.884874 0.733608
O O18 0.500000 0.941001 0.956013
O O19 0.725516 0.856460 0.038485
O O20 0.500000 0.749035 0.080098
#
# Coordination Sequence:
#
# PCOD9338292 Si02
#       8
#     4   4   4   4   4   4   4   4
#     4  10  20  38  63  90 120 158 206 257 305 360
#     4  10  20  36  60  89 120 154 197 252 308 363
#     4  12  27  43  62  89 128 169 205 256 314 373
#     4  11  23  41  66  92 119 158 206 255 305 367
#     4  10  23  43  66  92 123 160 207 257 308 370
#     4  10  20  34  55  85 121 157 196 248 306 365
#     4   9  20  37  61  89 119 161 210 256 303 360
#     4  10  21  40  63  88 122 163 209 255 303 364
#
# _framework density 19.526408
#
# number of rings (size 3 to 8) (size 9 to 14) (size 15 to 20)
#    0.000    1.750    1.250    2.625    1.750    4.500 
#    0.000    5.000    0.000    0.000    0.000    0.000 
#    0.000    0.000    0.000    0.000    0.000    0.000 
#
# Total GULP energy -178687.608356 kJ/mol
# GULP energy per Si atom -5583.987761 kJ/mol
# Density = 1.948197 g / cm^3
# Si number density = 19.526408 Si / 1000 Ang^3
#
#
#
# Elastic Constant Matrix: (Units=GPa)
#
#
# Indices 1 2 3 4 5 6 
#
# 1 37.7223 37.3462 17.8570 0.0000 0.0000 0.0000
# 2 37.3462 97.7806 43.6805 0.0000 0.0000 0.0000
# 3 17.8570 43.6805 68.2066 0.0000 0.0000 0.0000
# 4 0.0000 0.0000 0.0000 15.3631 0.0000 0.0000
# 5 0.0000 0.0000 0.0000 0.0000 -99.7250 0.0000
# 6 0.0000 0.0000 0.0000 0.0000 0.0000 14.8513
#
#
#
# Elastic Compliance Matrix: (Units=1/GPa)
#
#
# Indices 1 2 3 4 5 6 
#
# 1 0.042680 -0.015842 -0.001029 0.000000 0.000000 0.000000
# 2 -0.015842 0.020205 -0.008792 0.000000 0.000000 0.000000
# 3 -0.001029 -0.008792 0.020561 0.000000 0.000000 0.000000
# 4 0.000000 0.000000 0.000000 0.065091 0.000000 0.000000
# 5 0.000000 0.000000 0.000000 0.000000 -0.010028 0.000000
# 6 0.000000 0.000000 0.000000 0.000000 0.000000 0.067334
#
#
# Mechanical properties :
#
#
# Convention : Reuss Voigt Hill
#
# Bulk Modulus (GPa) = 31.13186 44.60855 37.87020
# Shear Modulus (GPa) = 18.66531 -6.91372 5.87580
#
# Velocity S-wave (km/s) = 3.09512 -1.88372 1.73657
# Velocity P-wave (km/s) = 5.36200 4.26188 4.84328
#
# Compressibility (1/GPa) = 0.03212144
#
# Stress axis : x y z
#
# Youngs Moduli (GPa) = 23.43003 49.49234 48.63495
#
# Poissons Ratio (x) = 0.78404 0.05004
# Poissons Ratio (y) = 0.37117 0.42761
# Poissons Ratio (z) = 0.02411 0.43515
#
# Static dielectric constant tensor:
#      x y z
#    x 1.662520 0.000000 0.000000 
#    y 0.000000 1.717790 0.000000 
#    z 0.000000 0.000000 1.657690 
# 
# From -- ./inp_files/2962.got.cif
#   From: 2010.05.17/outbox.cif.g08.bks.cpg/sg26_2_cif.got.tgz:2962.got - 2010.06.04 01:07:29.
