data_PCOD9338601
_publ_section_title
;
Structure prediction by ZEFSAII (Michael W. Deem and Ramdas Pophale) SiO2 
 PCOD9338601
Probable space group: P M C 21
;
_chemical_formula_sum "Si O2"
_cell_formula_units_Z 24
_cell_length_a 8.815337
_cell_length_b 13.823094
_cell_length_c 10.282267
_cell_angle_alpha 90.000000
_cell_angle_beta 90.000000
_cell_angle_gamma 90.000000
_cell_volume 1252.948031
_symmetry_space_group_name_H-M "P M C 21"
_symmetry_group_IT_number 26
_symmetry_cell_setting 'orthorhombic'
loop_
_space_group_symop_operation_xyz
x,y,z
-x,-y,1/2+z
-x,y,z
x,-y,1/2+z
loop_
_atom_site_type_symbol
_atom_site_label
_atom_site_fract_x
_atom_site_fract_y
_atom_site_fract_z
Si Si1 0.181705 0.432057 0.254720
Si Si2 0.681866 0.927214 0.611433
Si Si3 0.317702 0.215090 0.879018
Si Si4 0.181449 0.141388 0.614248
Si Si5 0.318052 0.569775 0.474132
Si Si6 0.817878 0.211167 0.328383
O O1 0.256979 0.500100 0.362061
O O2 0.219648 0.320220 0.286196
O O3 0.000000 0.442716 0.258468
O O4 0.243980 0.455604 0.111968
O O5 0.500000 0.935120 0.613625
O O6 0.727206 0.868097 0.481665
O O7 0.736751 0.864761 0.734221
O O8 0.753763 0.032925 0.613814
O O9 0.500000 0.211700 0.866032
O O10 0.244773 0.196532 0.739582
O O11 0.277083 0.319645 0.937147
O O12 0.223824 0.191892 0.478126
O O13 0.000000 0.137924 0.621831
O O14 0.500000 0.563512 0.483608
O O15 0.000000 0.198668 0.315906
#
# Coordination Sequence:
#
# PCOD9338601 Si02
#       6
#     4   4   4   4   4   4
#     4  11  24  43  67  96 128 166 211 261 317 378
#     4  11  22  40  64  90 123 163 210 257 309 368
#     4  10  23  42  63  91 125 163 208 255 310 371
#     4  11  24  39  60  92 127 164 209 255 307 369
#     4  11  24  44  67  96 128 165 211 261 317 378
#     4  10  23  42  63  91 125 163 207 255 310 370
#
# _framework density 19.154826
#
# number of rings (size 3 to 8) (size 9 to 14) (size 15 to 20)
#    0.000    1.333    1.667    3.000    2.333    7.333 
#    0.000    0.000    0.000    0.000    0.000    0.000 
#    0.000    0.000    0.000    0.000    0.000    0.000 
#
# Total GULP energy -134252.771114 kJ/mol
# GULP energy per Si atom -5593.865463 kJ/mol
# Density = 1.911123 g / cm^3
# Si number density = 19.154826 Si / 1000 Ang^3
#
#
#
# Elastic Constant Matrix: (Units=GPa)
#
#
# Indices 1 2 3 4 5 6 
#
# 1 25.7856 19.6730 32.9096 0.0000 0.0000 0.0000
# 2 19.6730 61.9200 33.5834 0.0000 0.0000 0.0000
# 3 32.9096 33.5834 159.0531 0.0000 0.0000 0.0000
# 4 0.0000 0.0000 0.0000 41.0238 0.0000 0.0000
# 5 0.0000 0.0000 0.0000 0.0000 35.8783 0.0000
# 6 0.0000 0.0000 0.0000 0.0000 0.0000 26.4498
#
#
#
# Elastic Compliance Matrix: (Units=1/GPa)
#
#
# Indices 1 2 3 4 5 6 
#
# 1 0.062409 -0.014483 -0.009855 0.000000 0.000000 0.000000
# 2 -0.014483 0.021600 -0.001564 0.000000 0.000000 0.000000
# 3 -0.009855 -0.001564 0.008657 0.000000 0.000000 0.000000
# 4 0.000000 0.000000 0.000000 0.024376 0.000000 0.000000
# 5 0.000000 0.000000 0.000000 0.000000 0.027872 0.000000
# 6 0.000000 0.000000 0.000000 0.000000 0.000000 0.037807
#
#
# Mechanical properties :
#
#
# Convention : Reuss Voigt Hill
#
# Bulk Modulus (GPa) = 24.47341 46.56565 35.51953
# Shear Modulus (GPa) = 20.14949 31.37657 25.76303
#
# Velocity S-wave (km/s) = 3.24686 4.05167 3.67139
# Velocity P-wave (km/s) = 5.18271 6.80081 6.04614
#
# Compressibility (1/GPa) = 0.04086068
#
# Stress axis : x y z
#
# Youngs Moduli (GPa) = 16.02336 46.29689 115.52005
#
# Poissons Ratio (x) = 0.67054 1.13844
# Poissons Ratio (y) = 0.23207 0.18067
# Poissons Ratio (z) = 0.15791 0.07241
#
# Static dielectric constant tensor:
#      x y z
#    x 1.642380 0.000000 0.000000 
#    y 0.000000 1.639060 0.000000 
#    z 0.000000 0.000000 1.638590 
# 
# From -- ./inp_files/1451.got.cif
#   From: 2010.05.17/outbox.cif.g08.bks.cpg/sg26_1_cif.got.tgz:1451.got - 2010.06.04 01:07:29.
