data_PCOD9338861
_publ_section_title
;
Structure prediction by ZEFSAII (Michael W. Deem and Ramdas Pophale) SiO2 
 PCOD9338861
Probable space group: P C C 2
;
_chemical_formula_sum "Si O2"
_cell_formula_units_Z 22
_cell_length_a 13.080616
_cell_length_b 9.147101
_cell_length_c 8.895518
_cell_angle_alpha 90.000000
_cell_angle_beta 90.000000
_cell_angle_gamma 90.000000
_cell_volume 1064.346200
_symmetry_space_group_name_H-M "P C C 2"
_symmetry_group_IT_number 27
_symmetry_cell_setting 'orthorhombic'
loop_
_space_group_symop_operation_xyz
x,y,z
-x,-y,z
-x,y,1/2+z
x,-y,1/2+z
loop_
_atom_site_type_symbol
_atom_site_label
_atom_site_fract_x
_atom_site_fract_y
_atom_site_fract_z
Si Si1 0.399401 0.575754 0.432190
Si Si2 0.664534 0.796373 0.719854
Si Si3 0.618714 0.946211 0.403153
Si Si4 0.706207 0.333976 0.734308
Si Si5 0.144656 0.421457 0.687341
Si Si6 0.000000 0.500000 0.433384
O O1 0.500000 0.500000 0.488773
O O2 0.418667 0.687526 0.295090
O O3 0.347012 0.649102 0.573133
O O4 0.332527 0.447750 0.360785
O O5 0.628978 0.883631 0.572374
O O6 0.760954 0.691150 0.687020
O O7 0.683354 0.911920 0.853365
O O8 0.669332 0.820388 0.299244
O O9 0.500000 0.000000 0.378960
O O10 0.816582 0.408769 0.701484
O O11 0.070261 0.399598 0.828010
O O12 0.077012 0.411088 0.539045
#
# Coordination Sequence:
#
# PCOD9338861 Si02
#       6
#     4   4   4   4   4   2
#     4  11  22  37  58  87 120 163 210 260 299 354
#     4  11  24  41  61  86 125 165 212 253 310 364
#     4  12  25  41  60  89 130 178 214 249 291 360
#     4  11  22  39  63  90 127 161 210 254 309 367
#     4  10  21  40  66  96 117 156 196 263 324 376
#     4  10  20  38  70  96 120 140 202 262 330 394
#
# _framework density 20.669965000000001
#
# number of rings (size 3 to 8) (size 9 to 14) (size 15 to 20)
#    0.000    1.091    0.000    8.727    0.000    4.364 
#    0.000    1.818    0.000   18.545    0.000    0.000 
#    0.000    0.000    0.000    0.000    0.000    0.000 
#
# Total GULP energy -122707.702194 kJ/mol
# GULP energy per Si atom -5577.622827 kJ/mol
# Density = 2.062292 g / cm^3
# Si number density = 20.669965 Si / 1000 Ang^3
#
#
#
# Elastic Constant Matrix: (Units=GPa)
#
#
# Indices 1 2 3 4 5 6 
#
# 1 79.2832 35.5345 40.2262 0.0000 0.0000 0.0000
# 2 35.5345 117.4950 45.8757 0.0000 0.0000 0.0000
# 3 40.2262 45.8757 131.4784 0.0000 0.0000 0.0000
# 4 0.0000 0.0000 0.0000 28.3548 0.0000 0.0000
# 5 0.0000 0.0000 0.0000 0.0000 43.4768 0.0000
# 6 0.0000 0.0000 0.0000 0.0000 0.0000 18.0373
#
#
#
# Elastic Compliance Matrix: (Units=1/GPa)
#
#
# Indices 1 2 3 4 5 6 
#
# 1 0.016020 -0.003394 -0.003717 0.000000 0.000000 0.000000
# 2 -0.003394 0.010572 -0.002651 0.000000 0.000000 0.000000
# 3 -0.003717 -0.002651 0.009668 0.000000 0.000000 0.000000
# 4 0.000000 0.000000 0.000000 0.035267 0.000000 0.000000
# 5 0.000000 0.000000 0.000000 0.000000 0.023001 0.000000
# 6 0.000000 0.000000 0.000000 0.000000 0.000000 0.055441
#
#
# Mechanical properties :
#
#
# Convention : Reuss Voigt Hill
#
# Bulk Modulus (GPa) = 59.74676 63.50328 61.62502
# Shear Modulus (GPa) = 28.55980 31.74847 30.15413
#
# Velocity S-wave (km/s) = 3.72116 3.92340 3.82362
# Velocity P-wave (km/s) = 6.88699 7.16333 7.02652
#
# Compressibility (1/GPa) = 0.01673731
#
# Stress axis : x y z
#
# Youngs Moduli (GPa) = 62.42171 94.58710 103.43420
#
# Poissons Ratio (x) = 0.32099 0.38449
# Poissons Ratio (y) = 0.21183 0.27416
# Poissons Ratio (z) = 0.23204 0.25071
#
# Static dielectric constant tensor:
#      x y z
#    x 1.621240 0.000000 0.000000 
#    y 0.000000 1.825700 0.000000 
#    z 0.000000 0.000000 1.772410 
# 
# From -- ./inp_files/1109.got.cif
#   From: 2010.05.17/outbox.cif.g08.bks.cpg/sg27_1_cif.got.tgz:1109.got - 2010.06.04 01:11:05.
