data_PCOD9338121
_publ_section_title
;
Structure prediction by ZEFSAII (Michael W. Deem and Ramdas Pophale) SiO2 
 PCOD9338121
Probable space group: P M C 21
;
_chemical_formula_sum "Si O2"
_cell_formula_units_Z 20
_cell_length_a 27.929280
_cell_length_b 5.246080
_cell_length_c 5.020993
_cell_angle_alpha 90.000000
_cell_angle_beta 90.000000
_cell_angle_gamma 90.000000
_cell_volume 735.672064
_symmetry_space_group_name_H-M "P M C 21"
_symmetry_group_IT_number 26
_symmetry_cell_setting 'orthorhombic'
loop_
_space_group_symop_operation_xyz
x,y,z
-x,-y,1/2+z
-x,y,z
x,-y,1/2+z
loop_
_atom_site_type_symbol
_atom_site_label
_atom_site_fract_x
_atom_site_fract_y
_atom_site_fract_z
Si Si1 0.000000 0.183986 0.566710
Si Si2 0.500000 0.181326 0.491318
Si Si3 0.699973 0.622938 0.017131
Si Si4 0.198334 0.160922 0.341903
Si Si5 0.900261 0.188190 0.461402
Si Si6 0.598201 0.838835 0.842025
O O1 0.049374 0.330310 0.499773
O O2 0.000000 0.942349 0.359233
O O3 0.449507 0.314582 0.427963
O O4 0.500000 0.944051 0.280893
O O5 0.700194 0.635380 0.336393
O O6 0.749720 0.734209 0.911625
O O7 0.649822 0.730380 0.913168
O O8 0.151538 0.319850 0.436945
O O9 0.195276 0.088472 0.032919
O O10 0.901021 0.010934 0.202772
O O11 0.595521 0.086252 0.034847
#
# Coordination Sequence:
#
# PCOD9338121 Si02
#       6
#     2   2   4   4   4   4
#     4   8  12  20  34  60  92 114 136 188 248 282
#     4   8  16  30  54  80  98 122 164 204 236 280
#     4  12  24  36  50  75 105 133 164 206 252 290
#     4  10  19  34  53  72  94 130 171 204 239 292
#     4   8  14  23  40  64  90 116 150 193 240 284
#     4  10  19  36  58  78 100 132 168 202 239 292
#
# _framework density 27.186029999999999
#
# number of rings (size 3 to 8) (size 9 to 14) (size 15 to 20)
#    0.000    2.400    0.000    3.600    0.000    0.000 
#    0.000    1.000    0.000    0.000    0.000    1.400 
#    0.000    0.000    0.000    0.000    0.000    0.000 
#
# Total GULP energy -111666.519403 kJ/mol
# GULP energy per Si atom -5583.325970 kJ/mol
# Density = 2.712415 g / cm^3
# Si number density = 27.186030 Si / 1000 Ang^3
#
#
#
# Elastic Constant Matrix: (Units=GPa)
#
#
# Indices 1 2 3 4 5 6 
#
# 1 277.3602 15.5450 -6.6968 0.0000 0.0000 0.0000
# 2 15.5450 31.6532 22.3770 0.0000 0.0000 0.0000
# 3 -6.6968 22.3770 172.2308 0.0000 0.0000 0.0000
# 4 0.0000 0.0000 0.0000 46.8767 0.0000 0.0000
# 5 0.0000 0.0000 0.0000 0.0000 41.0882 0.0000
# 6 0.0000 0.0000 0.0000 0.0000 0.0000 -119.4483
#
#
#
# Elastic Compliance Matrix: (Units=1/GPa)
#
#
# Indices 1 2 3 4 5 6 
#
# 1 0.003735 -0.002133 0.000422 0.000000 0.000000 0.000000
# 2 -0.002133 0.036006 -0.004761 0.000000 0.000000 0.000000
# 3 0.000422 -0.004761 0.006441 0.000000 0.000000 0.000000
# 4 0.000000 0.000000 0.000000 0.021333 0.000000 0.000000
# 5 0.000000 0.000000 0.000000 0.000000 0.024338 0.000000
# 6 0.000000 0.000000 0.000000 0.000000 0.000000 -0.008372
#
#
# Mechanical properties :
#
#
# Convention : Reuss Voigt Hill
#
# Bulk Modulus (GPa) = 30.08526 60.41051 45.24789
# Shear Modulus (GPa) = 46.51024 23.70457 35.10741
#
# Velocity S-wave (km/s) = 4.14069 2.95607 3.59747
# Velocity P-wave (km/s) = 5.82673 5.82413 5.82543
#
# Compressibility (1/GPa) = 0.03323887
#
# Stress axis : x y z
#
# Youngs Moduli (GPa) = 267.72618 27.77345 155.25178
#
# Poissons Ratio (x) = 0.05924 -0.06557
# Poissons Ratio (y) = 0.57104 0.73915
# Poissons Ratio (z) = -0.11307 0.13223
#
# Static dielectric constant tensor:
#      x y z
#    x 2.278390 0.000000 0.000000 
#    y 0.000000 2.158480 0.000000 
#    z 0.000000 0.000000 2.065230 
# 
# From -- ./inp_files/995.got.cif
#   From: 2010.05.17/outbox.cif.g08.bks.cpg/sg26_1_cif.got.tgz:995.got - 2010.06.04 01:07:29.
