data_PCOD9338443
_publ_section_title
;
Structure prediction by ZEFSAII (Michael W. Deem and Ramdas Pophale) SiO2 
 PCOD9338443
Probable space group: P M C 21
;
_chemical_formula_sum "Si O2"
_cell_formula_units_Z 20
_cell_length_a 14.655687
_cell_length_b 4.965477
_cell_length_c 9.605562
_cell_angle_alpha 90.000000
_cell_angle_beta 90.000000
_cell_angle_gamma 90.000000
_cell_volume 699.020537
_symmetry_space_group_name_H-M "P M C 21"
_symmetry_group_IT_number 26
_symmetry_cell_setting 'orthorhombic'
loop_
_space_group_symop_operation_xyz
x,y,z
-x,-y,1/2+z
-x,y,z
x,-y,1/2+z
loop_
_atom_site_type_symbol
_atom_site_label
_atom_site_fract_x
_atom_site_fract_y
_atom_site_fract_z
Si Si1 0.000000 0.182100 0.198570
Si Si2 0.346970 0.290101 0.048412
Si Si3 0.500000 0.948549 0.898549
Si Si4 0.806017 0.312981 0.854767
Si Si5 0.809818 0.946548 0.093627
Si Si6 0.500000 0.562369 0.220638
Si Si7 0.000000 0.546747 0.956697
O O1 0.000000 0.180944 0.365823
O O2 0.908900 0.043905 0.143643
O O3 0.000000 0.474972 0.120209
O O4 0.411338 0.484749 0.133506
O O5 0.274731 0.129584 0.142172
O O6 0.283428 0.429698 0.930631
O O7 0.411554 0.065162 0.976758
O O8 0.500000 0.636746 0.855272
O O9 0.500000 0.126152 0.757799
O O10 0.798528 0.315376 0.688807
O O11 0.902688 0.431949 0.903093
O O12 0.806257 0.012982 0.929101
#
# Coordination Sequence:
#
# PCOD9338443 Si02
#       7
#     2   4   2   4   4   2   2
#     4  10  21  36  52  84 130 166 219 272 332 402
#     4   9  22  39  64  96 128 165 224 285 332 412
#     4  11  24  45  70  98 137 176 224 281 348 407
#     4   9  19  37  60  89 124 164 221 269 331 402
#     4   9  19  37  60  89 124 164 221 269 331 402
#     4  11  24  45  70  98 137 176 224 281 348 407
#     4  10  21  36  52  84 130 166 219 272 332 402
#
# _framework density 28.611464999999999
#
# number of rings (size 3 to 8) (size 9 to 14) (size 15 to 20)
#    1.200    1.200    0.000    1.800    0.000    6.400 
#    0.000    4.000    0.000    0.000    0.000    0.000 
#    0.000    0.000    0.000    0.000    0.000    0.000 
#
# Total GULP energy -111855.026354 kJ/mol
# GULP energy per Si atom -5592.751318 kJ/mol
# Density = 2.854634 g / cm^3
# Si number density = 28.611465 Si / 1000 Ang^3
#
#
#
# Elastic Constant Matrix: (Units=GPa)
#
#
# Indices 1 2 3 4 5 6 
#
# 1 221.3966 30.0272 41.3633 0.0000 0.0000 0.0000
# 2 30.0272 54.5901 20.6787 0.0000 0.0000 0.0000
# 3 41.3633 20.6787 123.8848 0.0000 0.0000 0.0000
# 4 0.0000 0.0000 0.0000 51.3386 0.0000 0.0000
# 5 0.0000 0.0000 0.0000 0.0000 35.8259 0.0000
# 6 0.0000 0.0000 0.0000 0.0000 0.0000 21.6507
#
#
#
# Elastic Compliance Matrix: (Units=1/GPa)
#
#
# Indices 1 2 3 4 5 6 
#
# 1 0.005073 -0.002294 -0.001311 0.000000 0.000000 0.000000
# 2 -0.002294 0.020592 -0.002671 0.000000 0.000000 0.000000
# 3 -0.001311 -0.002671 0.008956 0.000000 0.000000 0.000000
# 4 0.000000 0.000000 0.000000 0.019479 0.000000 0.000000
# 5 0.000000 0.000000 0.000000 0.000000 0.027913 0.000000
# 6 0.000000 0.000000 0.000000 0.000000 0.000000 0.046188
#
#
# Mechanical properties :
#
#
# Convention : Reuss Voigt Hill
#
# Bulk Modulus (GPa) = 45.31357 64.88999 55.10178
# Shear Modulus (GPa) = 33.75927 42.28319 38.02123
#
# Velocity S-wave (km/s) = 3.43872 3.84844 3.64934
# Velocity P-wave (km/s) = 5.62480 6.51738 6.08747
#
# Compressibility (1/GPa) = 0.02206844
#
# Stress axis : x y z
#
# Youngs Moduli (GPa) = 197.13072 48.56275 111.66213
#
# Poissons Ratio (x) = 0.11139 0.14637
# Poissons Ratio (y) = 0.45216 0.29829
# Poissons Ratio (z) = 0.25841 0.12973
#
# Static dielectric constant tensor:
#      x y z
#    x 2.118340 0.000000 0.000000 
#    y 0.000000 2.308530 0.000000 
#    z 0.000000 0.000000 2.245190 
# 
# From -- ./inp_files/3520.got.cif
#   From: 2010.05.17/outbox.cif.g08.bks.cpg/sg26_2_cif.got.tgz:3520.got - 2010.06.04 01:07:29.
