data_PCOD9338466
_publ_section_title
;
Structure prediction by ZEFSAII (Michael W. Deem and Ramdas Pophale) SiO2 
 PCOD9338466
Probable space group: P M C 21
;
_chemical_formula_sum "Si O2"
_cell_formula_units_Z 24
_cell_length_a 8.428035
_cell_length_b 12.284074
_cell_length_c 12.299409
_cell_angle_alpha 90.000000
_cell_angle_beta 90.000000
_cell_angle_gamma 90.000000
_cell_volume 1273.365262
_symmetry_space_group_name_H-M "P M C 21"
_symmetry_group_IT_number 26
_symmetry_cell_setting 'orthorhombic'
loop_
_space_group_symop_operation_xyz
x,y,z
-x,-y,1/2+z
-x,y,z
x,-y,1/2+z
loop_
_atom_site_type_symbol
_atom_site_label
_atom_site_fract_x
_atom_site_fract_y
_atom_site_fract_z
Si Si1 0.189644 0.165217 0.049140
Si Si2 0.692120 0.416300 0.671492
Si Si3 0.308134 0.339007 0.223287
Si Si4 0.809687 0.786721 0.303808
Si Si5 0.693091 0.721100 0.964560
Si Si6 0.309828 0.926042 0.104412
O O1 0.255602 0.252730 0.133749
O O2 0.000000 0.171567 0.050003
O O3 0.240956 0.044314 0.082730
O O4 0.245143 0.190982 0.926446
O O5 0.500000 0.413777 0.675112
O O6 0.745402 0.538952 0.693650
O O7 0.754193 0.330551 0.759950
O O8 0.740917 0.369333 0.553572
O O9 0.500000 0.340534 0.225848
O O10 0.251298 0.304434 0.343439
O O11 0.742224 0.875284 0.219430
O O12 0.000000 0.791735 0.300418
O O13 0.500000 0.721325 0.962537
O O14 0.742487 0.837852 0.013240
O O15 0.500000 0.931787 0.102099
#
# Coordination Sequence:
#
# PCOD9338466 Si02
#       6
#     4   4   4   4   4   4
#     4  11  25  40  56  85 122 155 193 238 290 350
#     4   9  19  36  61  88 116 151 193 242 287 339
#     4  10  21  36  60  89 117 151 194 242 287 338
#     4  10  22  40  60  84 119 157 192 235 290 352
#     4   8  17  35  56  86 116 143 186 237 289 336
#     4  10  21  39  63  86 114 151 196 244 289 343
#
# _framework density 18.847695000000002
#
# number of rings (size 3 to 8) (size 9 to 14) (size 15 to 20)
#    0.000    2.333    0.000    2.500    4.667    3.333 
#    0.000    3.333    0.000    0.000    0.000    0.000 
#    0.000    0.000    0.000    0.000    0.000    0.000 
#
# Total GULP energy -134001.934966 kJ/mol
# GULP energy per Si atom -5583.413957 kJ/mol
# Density = 1.880480 g / cm^3
# Si number density = 18.847695 Si / 1000 Ang^3
#
#
#
# Elastic Constant Matrix: (Units=GPa)
#
#
# Indices 1 2 3 4 5 6 
#
# 1 10.1783 10.7475 13.1370 0.0000 0.0000 0.0000
# 2 10.7475 179.3772 113.7673 0.0000 0.0000 0.0000
# 3 13.1370 113.7673 174.9325 0.0000 0.0000 0.0000
# 4 0.0000 0.0000 0.0000 13.0980 0.0000 0.0000
# 5 0.0000 0.0000 0.0000 0.0000 25.2029 0.0000
# 6 0.0000 0.0000 0.0000 0.0000 0.0000 -4.6868
#
#
#
# Elastic Compliance Matrix: (Units=1/GPa)
#
#
# Indices 1 2 3 4 5 6 
#
# 1 0.109342 -0.002287 -0.006724 0.000000 0.000000 0.000000
# 2 -0.002287 0.009537 -0.006030 0.000000 0.000000 0.000000
# 3 -0.006724 -0.006030 0.010143 0.000000 0.000000 0.000000
# 4 0.000000 0.000000 0.000000 0.076347 0.000000 0.000000
# 5 0.000000 0.000000 0.000000 0.000000 0.039678 0.000000
# 6 0.000000 0.000000 0.000000 0.000000 0.000000 -0.213367
#
#
# Mechanical properties :
#
#
# Convention : Reuss Voigt Hill
#
# Bulk Modulus (GPa) = 10.10721 71.08795 40.59758
# Shear Modulus (GPa) = 52.77515 21.84524 37.31020
#
# Velocity S-wave (km/s) = 5.29732 3.40816 4.45405
# Velocity P-wave (km/s) = 6.54139 7.29975 6.93095
#
# Compressibility (1/GPa) = 0.09893928
#
# Stress axis : x y z
#
# Youngs Moduli (GPa) = 9.14564 104.86020 98.58725
#
# Poissons Ratio (x) = 0.23977 0.66292
# Poissons Ratio (y) = 0.02091 0.59452
# Poissons Ratio (z) = 0.06150 0.63234
#
# Static dielectric constant tensor:
#      x y z
#    x 1.647150 0.000000 0.000000 
#    y 0.000000 1.621050 0.000000 
#    z 0.000000 0.000000 1.642800 
# 
# From -- ./inp_files/2803.got.cif
#   From: 2010.05.17/outbox.cif.g08.bks.cpg/sg26_2_cif.got.tgz:2803.got - 2010.06.04 01:07:29.
