data_PCOD9338840
_publ_section_title
;
Structure prediction by ZEFSAII (Michael W. Deem and Ramdas Pophale) SiO2 
 PCOD9338840
Probable space group: P C C 2
;
_chemical_formula_sum "Si O2"
_cell_formula_units_Z 32
_cell_length_a 9.815835
_cell_length_b 13.785453
_cell_length_c 10.568404
_cell_angle_alpha 90.000000
_cell_angle_beta 90.000000
_cell_angle_gamma 90.000000
_cell_volume 1430.071324
_symmetry_space_group_name_H-M "P C C 2"
_symmetry_group_IT_number 27
_symmetry_cell_setting 'orthorhombic'
loop_
_space_group_symop_operation_xyz
x,y,z
-x,-y,z
-x,y,1/2+z
x,-y,1/2+z
loop_
_atom_site_type_symbol
_atom_site_label
_atom_site_fract_x
_atom_site_fract_y
_atom_site_fract_z
Si Si1 0.181124 0.816833 0.129310
Si Si2 0.595351 0.678170 0.680877
Si Si3 0.129227 0.201750 0.356119
Si Si4 0.133717 0.433138 0.331374
Si Si5 0.595484 0.289511 0.464806
Si Si6 0.290488 0.489648 0.076121
Si Si7 0.815877 0.130573 0.388076
Si Si8 0.904970 0.088275 0.637266
O O1 0.248872 0.717788 0.178607
O O2 0.229374 0.889086 0.242875
O O3 0.017490 0.825560 0.119619
O O4 0.214050 0.822973 0.981951
O O5 0.511493 0.736612 0.574710
O O6 0.538632 0.690556 0.822733
O O7 0.605970 0.568653 0.633663
O O8 0.121664 0.316471 0.332913
O O9 0.188201 0.135834 0.242878
O O10 0.970782 0.168279 0.369535
O O11 0.199667 0.462024 0.197347
O O12 0.219490 0.458368 0.456942
O O13 0.000000 0.500000 0.342824
O O14 0.656971 0.389868 0.516107
O O15 0.713467 0.210266 0.445029
O O16 0.836464 0.057517 0.505215
O O17 0.000000 0.000000 0.680760
#
# Coordination Sequence:
#
# PCOD9338840 Si02
#       8
#     4   4   4   4   4   4   4   4
#     4   9  20  37  58  84 122 151 195 245 304 368
#     4  11  24  40  59  82 114 161 211 265 307 355
#     4  10  20  36  60  86 126 159 194 245 307 374
#     4  12  25  36  59  88 128 170 206 252 312 370
#     4  11  24  40  59  82 114 163 214 264 309 358
#     4  12  24  39  56  84 122 160 219 256 302 365
#     4   9  20  37  58  84 120 154 196 243 305 369
#     4  10  21  37  64  97 126 153 191 244 313 385
#
# _framework density 22.376507
#
# number of rings (size 3 to 8) (size 9 to 14) (size 15 to 20)
#    0.000    1.500    2.500    2.250    5.250    8.500 
#    0.000    0.000    0.000    0.750    0.000    5.250 
#    0.000    0.000    0.000    0.000    0.000    0.000 
#
# Total GULP energy -178162.140092 kJ/mol
# GULP energy per Si atom -5567.566878 kJ/mol
# Density = 2.232558 g / cm^3
# Si number density = 22.376507 Si / 1000 Ang^3
#
#
#
# Elastic Constant Matrix: (Units=GPa)
#
#
# Indices 1 2 3 4 5 6 
#
# 1 29.9142 9.9909 15.2535 0.0000 0.0000 0.0000
# 2 9.9909 79.3983 26.4186 0.0000 0.0000 0.0000
# 3 15.2535 26.4186 172.2723 0.0000 0.0000 0.0000
# 4 0.0000 0.0000 0.0000 14.5037 0.0000 0.0000
# 5 0.0000 0.0000 0.0000 0.0000 21.5313 0.0000
# 6 0.0000 0.0000 0.0000 0.0000 0.0000 21.7191
#
#
#
# Elastic Compliance Matrix: (Units=1/GPa)
#
#
# Indices 1 2 3 4 5 6 
#
# 1 0.035989 -0.003655 -0.002626 0.000000 0.000000 0.000000
# 2 -0.003655 0.013643 -0.001769 0.000000 0.000000 0.000000
# 3 -0.002626 -0.001769 0.006309 0.000000 0.000000 0.000000
# 4 0.000000 0.000000 0.000000 0.068948 0.000000 0.000000
# 5 0.000000 0.000000 0.000000 0.000000 0.046444 0.000000
# 6 0.000000 0.000000 0.000000 0.000000 0.000000 0.046042
#
#
# Mechanical properties :
#
#
# Convention : Reuss Voigt Hill
#
# Bulk Modulus (GPa) = 25.09957 42.76787 33.93372
# Shear Modulus (GPa) = 20.26308 26.87893 23.57100
#
# Velocity S-wave (km/s) = 3.01250 3.46961 3.24911
# Velocity P-wave (km/s) = 4.83131 5.93340 5.41049
#
# Compressibility (1/GPa) = 0.03984132
#
# Stress axis : x y z
#
# Youngs Moduli (GPa) = 27.78656 73.29711 158.51618
#
# Poissons Ratio (x) = 0.26789 0.41627
# Poissons Ratio (y) = 0.10155 0.28035
# Poissons Ratio (z) = 0.07297 0.12963
#
# Static dielectric constant tensor:
#      x y z
#    x 1.886180 0.000000 0.000000 
#    y 0.000000 1.840040 0.000000 
#    z 0.000000 0.000000 2.057490 
# 
# From -- ./inp_files/1471.got.cif
#   From: 2010.05.17/outbox.cif.g08.bks.cpg/sg27_1_cif.got.tgz:1471.got - 2010.06.04 01:11:05.
