data_PCOD9338309
_publ_section_title
;
Structure prediction by ZEFSAII (Michael W. Deem and Ramdas Pophale) SiO2 
 PCOD9338309
Probable space group: P M C 21
;
_chemical_formula_sum "Si O2"
_cell_formula_units_Z 32
_cell_length_a 9.342392
_cell_length_b 11.538066
_cell_length_c 16.085570
_cell_angle_alpha 90.000000
_cell_angle_beta 90.000000
_cell_angle_gamma 90.000000
_cell_volume 1733.914027
_symmetry_space_group_name_H-M "P M C 21"
_symmetry_group_IT_number 26
_symmetry_cell_setting 'orthorhombic'
loop_
_space_group_symop_operation_xyz
x,y,z
-x,-y,1/2+z
-x,y,z
x,-y,1/2+z
loop_
_atom_site_type_symbol
_atom_site_label
_atom_site_fract_x
_atom_site_fract_y
_atom_site_fract_z
Si Si1 0.669941 0.031449 0.118240
Si Si2 0.164926 0.445916 0.248343
Si Si3 0.671377 0.901098 0.944191
Si Si4 0.663947 0.439542 0.982563
Si Si5 0.828448 0.726771 0.603642
Si Si6 0.662765 0.658820 0.295330
Si Si7 0.167228 0.342609 0.434530
Si Si8 0.326816 0.078189 0.797270
O O1 0.500000 0.059428 0.120878
O O2 0.761118 0.146977 0.108153
O O3 0.707418 0.972070 0.206212
O O4 0.692202 0.952982 0.036514
O O5 0.212029 0.346510 0.185434
O O6 0.251919 0.564674 0.242421
O O7 0.172668 0.392441 0.340574
O O8 0.000000 0.472662 0.230278
O O9 0.500000 0.880102 0.933225
O O10 0.758491 0.782295 0.936281
O O11 0.717971 0.993933 0.873056
O O12 0.500000 0.445459 0.013023
O O13 0.658471 0.395796 0.887435
O O14 0.742440 0.563427 0.986688
O O15 0.757678 0.345280 0.029848
O O16 0.000000 0.732070 0.596607
O O17 0.500000 0.667688 0.263791
O O18 0.724337 0.788681 0.301751
O O19 0.000000 0.337579 0.459364
O O20 0.500000 0.083300 0.804351
#
# Coordination Sequence:
#
# PCOD9338309 Si02
#       8
#     4   4   4   4   4   4   4   4
#     4  10  21  36  55  79 106 140 183 226 269 323
#     4   9  20  36  53  77 109 141 173 217 269 325
#     4  10  20  35  55  79 109 143 181 225 269 320
#     4  10  20  35  56  80 106 139 180 224 270 321
#     4  11  22  36  54  78 109 141 177 222 272 323
#     4   9  18  34  56  80 105 137 179 223 268 321
#     4  10  20  36  56  79 109 142 178 219 270 328
#     4   9  18  34  55  78 107 141 177 222 271 317
#
# _framework density 18.455354
#
# number of rings (size 3 to 8) (size 9 to 14) (size 15 to 20)
#    0.000    2.250    0.000    2.625    0.000    5.500 
#    0.000    2.500    0.000    0.000    0.000    0.000 
#    0.000    0.000    0.000    0.000    0.000    0.000 
#
# Total GULP energy -178502.537542 kJ/mol
# GULP energy per Si atom -5578.204298 kJ/mol
# Density = 1.841335 g / cm^3
# Si number density = 18.455354 Si / 1000 Ang^3
#
#
#
# Elastic Constant Matrix: (Units=GPa)
#
#
# Indices 1 2 3 4 5 6 
#
# 1 61.3830 73.5583 26.0249 0.0000 0.0000 0.0000
# 2 73.5583 161.4362 22.4358 0.0000 0.0000 0.0000
# 3 26.0249 22.4358 45.6864 0.0000 0.0000 0.0000
# 4 0.0000 0.0000 0.0000 20.7007 0.0000 0.0000
# 5 0.0000 0.0000 0.0000 0.0000 13.0414 0.0000
# 6 0.0000 0.0000 0.0000 0.0000 0.0000 6.7043
#
#
#
# Elastic Compliance Matrix: (Units=1/GPa)
#
#
# Indices 1 2 3 4 5 6 
#
# 1 0.045454 -0.018366 -0.016873 0.000000 0.000000 0.000000
# 2 -0.018366 0.014069 0.003553 0.000000 0.000000 0.000000
# 3 -0.016873 0.003553 0.029755 0.000000 0.000000 0.000000
# 4 0.000000 0.000000 0.000000 0.048308 0.000000 0.000000
# 5 0.000000 0.000000 0.000000 0.000000 0.076679 0.000000
# 6 0.000000 0.000000 0.000000 0.000000 0.000000 0.149159
#
#
# Mechanical properties :
#
#
# Convention : Reuss Voigt Hill
#
# Bulk Modulus (GPa) = 38.60160 56.94930 47.77545
# Shear Modulus (GPa) = 11.48285 17.85504 14.66894
#
# Velocity S-wave (km/s) = 2.49709 3.11380 2.82234
# Velocity P-wave (km/s) = 5.41069 6.62212 6.04682
#
# Compressibility (1/GPa) = 0.02590566
#
# Stress axis : x y z
#
# Youngs Moduli (GPa) = 22.00024 71.07764 33.60751
#
# Poissons Ratio (x) = 1.30542 0.56707
# Poissons Ratio (y) = 0.40406 -0.11941
# Poissons Ratio (z) = 0.37122 -0.25254
#
# Static dielectric constant tensor:
#      x y z
#    x 1.625490 0.000000 0.000000 
#    y 0.000000 1.609940 0.000000 
#    z 0.000000 0.000000 1.650860 
# 
# From -- ./inp_files/4226.got.cif
#   From: 2010.05.17/outbox.cif.g08.bks.cpg/sg26_3_cif.got.tgz:4226.got - 2010.06.04 01:07:29.
