data_PCOD9338072
_publ_section_title
;
Structure prediction by ZEFSAII (Michael W. Deem and Ramdas Pophale) SiO2 
 PCOD9338072
Probable space group: P M C 21
;
_chemical_formula_sum "Si O2"
_cell_formula_units_Z 20
_cell_length_a 8.125441
_cell_length_b 13.618106
_cell_length_c 8.083478
_cell_angle_alpha 90.000000
_cell_angle_beta 90.000000
_cell_angle_gamma 90.000000
_cell_volume 894.462036
_symmetry_space_group_name_H-M "P M C 21"
_symmetry_group_IT_number 26
_symmetry_cell_setting 'orthorhombic'
loop_
_space_group_symop_operation_xyz
x,y,z
-x,-y,1/2+z
-x,y,z
x,-y,1/2+z
loop_
_atom_site_type_symbol
_atom_site_label
_atom_site_fract_x
_atom_site_fract_y
_atom_site_fract_z
Si Si1 0.690367 0.226156 0.281580
Si Si2 0.500000 0.546410 0.209977
Si Si3 0.811287 0.136949 0.729445
Si Si4 0.500000 0.345124 0.061310
Si Si5 0.810491 0.341266 0.589421
Si Si6 0.689907 0.026011 0.417529
O O1 0.500000 0.222168 0.349026
O O2 0.657479 0.276469 0.104644
O O3 0.792337 0.292858 0.407511
O O4 0.747063 0.113771 0.293797
O O5 0.500000 0.428944 0.203891
O O6 0.500000 0.598216 0.389283
O O7 0.332658 0.580336 0.118359
O O8 0.769842 0.251102 0.714751
O O9 0.708926 0.076754 0.594342
O O10 0.000000 0.131500 0.675841
O O11 0.787363 0.074503 0.893944
O O12 0.000000 0.373839 0.614262
O O13 0.500000 0.002233 0.388756
#
# Coordination Sequence:
#
# PCOD9338072 Si02
#       6
#     4   2   4   2   4   4
#     4   8  17  38  60  85 113 150 198 235 295 344
#     4  12  22  40  65  86 121 152 189 246 294 360
#     4  10  21  35  52  81 118 155 193 239 285 333
#     4  10  22  40  65  88 115 156 189 240 308 348
#     4  10  21  38  62  89 118 157 199 242 294 348
#     4  10  19  32  55  80 113 151 194 233 277 346
#
# _framework density 22.35981
#
# number of rings (size 3 to 8) (size 9 to 14) (size 15 to 20)
#    0.600    1.600    1.000    2.400    2.800    2.400 
#    0.000    5.000    0.000    0.000    0.000    0.000 
#    0.000    0.000    0.000    0.000    0.000    0.000 
#
# Total GULP energy -111523.638715 kJ/mol
# GULP energy per Si atom -5576.181936 kJ/mol
# Density = 2.230892 g / cm^3
# Si number density = 22.359810 Si / 1000 Ang^3
#
#
#
# Elastic Constant Matrix: (Units=GPa)
#
#
# Indices 1 2 3 4 5 6 
#
# 1 57.3005 31.2131 6.8956 0.0000 0.0000 0.0000
# 2 31.2131 66.6155 -6.5241 0.0000 0.0000 0.0000
# 3 6.8956 -6.5241 55.5986 0.0000 0.0000 0.0000
# 4 0.0000 0.0000 0.0000 35.9052 0.0000 0.0000
# 5 0.0000 0.0000 0.0000 0.0000 18.0882 0.0000
# 6 0.0000 0.0000 0.0000 0.0000 0.0000 13.2989
#
#
#
# Elastic Compliance Matrix: (Units=1/GPa)
#
#
# Indices 1 2 3 4 5 6 
#
# 1 0.024466 -0.011898 -0.004430 0.000000 0.000000 0.000000
# 2 -0.011898 0.020972 0.003936 0.000000 0.000000 0.000000
# 3 -0.004430 0.003936 0.018997 0.000000 0.000000 0.000000
# 4 0.000000 0.000000 0.000000 0.027851 0.000000 0.000000
# 5 0.000000 0.000000 0.000000 0.000000 0.055285 0.000000
# 6 0.000000 0.000000 0.000000 0.000000 0.000000 0.075194
#
#
# Mechanical properties :
#
#
# Convention : Reuss Voigt Hill
#
# Bulk Modulus (GPa) = 25.21939 26.96485 26.09212
# Shear Modulus (GPa) = 19.17429 23.32044 21.24736
#
# Velocity S-wave (km/s) = 2.93154 3.23300 3.08595
# Velocity P-wave (km/s) = 4.77095 5.10118 4.93883
#
# Compressibility (1/GPa) = 0.03965203
#
# Stress axis : x y z
#
# Youngs Moduli (GPa) = 40.87317 47.68327 52.63856
#
# Poissons Ratio (x) = 0.56731 0.23321
# Poissons Ratio (y) = 0.48629 -0.20721
# Poissons Ratio (z) = 0.18109 -0.18770
#
# Static dielectric constant tensor:
#      x y z
#    x 1.770880 0.000000 0.000000 
#    y 0.000000 1.837380 0.000000 
#    z 0.000000 0.000000 1.923850 
# 
# From -- ./inp_files/1372.got.cif
#   From: 2010.05.17/outbox.cif.g08.bks.cpg/sg26_1_cif.got.tgz:1372.got - 2010.06.04 01:07:29.
