data_PCOD9338050
_publ_section_title
;
Structure prediction by ZEFSAII (Michael W. Deem and Ramdas Pophale) SiO2 
 PCOD9338050
Probable space group: P M C 21
;
_chemical_formula_sum "Si O2"
_cell_formula_units_Z 30
_cell_length_a 14.256892
_cell_length_b 20.574779
_cell_length_c 5.122169
_cell_angle_alpha 90.000000
_cell_angle_beta 90.000000
_cell_angle_gamma 90.000000
_cell_volume 1502.498137
_symmetry_space_group_name_H-M "P M C 21"
_symmetry_group_IT_number 26
_symmetry_cell_setting 'orthorhombic'
loop_
_space_group_symop_operation_xyz
x,y,z
-x,-y,1/2+z
-x,y,z
x,-y,1/2+z
loop_
_atom_site_type_symbol
_atom_site_label
_atom_site_fract_x
_atom_site_fract_y
_atom_site_fract_z
Si Si1 0.835769 0.661394 0.354790
Si Si2 0.386868 0.542566 0.914497
Si Si3 0.280959 0.676881 0.857494
Si Si4 0.788144 0.044906 0.346040
Si Si5 0.890285 0.527415 0.597029
Si Si6 0.104412 0.200858 0.952936
Si Si7 0.000000 0.960841 0.937798
Si Si8 0.229922 0.182743 0.455705
O O1 0.748758 0.673754 0.553959
O O2 0.880356 0.595935 0.458605
O O3 0.901090 0.722957 0.390962
O O4 0.803897 0.660533 0.056409
O O5 0.500000 0.545091 0.914726
O O6 0.357177 0.499168 0.666414
O O7 0.351673 0.617123 0.905416
O O8 0.297041 0.753414 0.933482
O O9 0.730966 0.111422 0.384943
O O10 0.898264 0.067041 0.367805
O O11 0.774128 0.992233 0.574683
O O12 0.848048 0.521754 0.884213
O O13 0.000000 0.513365 0.642654
O O14 0.179139 0.176397 0.737251
O O15 0.000000 0.171964 0.935228
O O16 0.150323 0.196667 0.237498
O O17 0.000000 0.023637 0.744788
#
# Coordination Sequence:
#
# PCOD9338050 Si02
#       8
#     4   4   4   4   4   4   2   4
#     4  10  20  33  47  66  91 122 160 198 242 286
#     4  10  21  37  58  84 110 135 160 191 239 300
#     4  10  21  35  52  74 101 127 159 200 239 291
#     4  10  19  32  46  65  93 126 164 211 256 302
#     4  10  20  31  43  60  83 114 154 201 243 280
#     4  10  20  32  47  63  87 126 167 211 255 292
#     4   8  16  26  38  58  82 114 152 194 246 284
#     4  10  21  34  48  70  95 128 170 213 255 298
#
# _framework density 19.966749
#
# number of rings (size 3 to 8) (size 9 to 14) (size 15 to 20)
#    0.000    2.133    0.000    3.200    1.867    3.200 
#    2.400    4.000    0.000    0.000    0.000    0.000 
#    0.000    1.067    0.000    0.000    0.000    3.200 
#
# Total GULP energy -167206.169223 kJ/mol
# GULP energy per Si atom -5573.538974 kJ/mol
# Density = 1.992130 g / cm^3
# Si number density = 19.966749 Si / 1000 Ang^3
#
#
#
# Elastic Constant Matrix: (Units=GPa)
#
#
# Indices 1 2 3 4 5 6 
#
# 1 30.0691 19.2749 4.3015 0.0000 0.0000 0.0000
# 2 19.2749 122.1180 5.0659 0.0000 0.0000 0.0000
# 3 4.3015 5.0659 64.6820 0.0000 0.0000 0.0000
# 4 0.0000 0.0000 0.0000 25.7001 0.0000 0.0000
# 5 0.0000 0.0000 0.0000 0.0000 8.9465 0.0000
# 6 0.0000 0.0000 0.0000 0.0000 0.0000 15.8169
#
#
#
# Elastic Compliance Matrix: (Units=1/GPa)
#
#
# Indices 1 2 3 4 5 6 
#
# 1 0.037263 -0.005797 -0.002024 0.000000 0.000000 0.000000
# 2 -0.005797 0.009117 -0.000329 0.000000 0.000000 0.000000
# 3 -0.002024 -0.000329 0.015621 0.000000 0.000000 0.000000
# 4 0.000000 0.000000 0.000000 0.038910 0.000000 0.000000
# 5 0.000000 0.000000 0.000000 0.000000 0.111776 0.000000
# 6 0.000000 0.000000 0.000000 0.000000 0.000000 0.063224
#
#
# Mechanical properties :
#
#
# Convention : Reuss Voigt Hill
#
# Bulk Modulus (GPa) = 21.88151 30.46150 26.17151
# Shear Modulus (GPa) = 16.26313 22.64115 19.45214
#
# Velocity S-wave (km/s) = 2.85706 3.37106 3.12465
# Velocity P-wave (km/s) = 4.67616 5.51736 5.11409
#
# Compressibility (1/GPa) = 0.04570068
#
# Stress axis : x y z
#
# Youngs Moduli (GPa) = 26.83655 109.67922 64.01812
#
# Poissons Ratio (x) = 0.63587 0.12957
# Poissons Ratio (y) = 0.15558 0.02103
# Poissons Ratio (z) = 0.05432 0.03603
#
# Static dielectric constant tensor:
#      x y z
#    x 1.685030 0.000000 0.000000 
#    y 0.000000 1.770190 0.000000 
#    z 0.000000 0.000000 1.734770 
# 
# From -- ./inp_files/639.got.cif
#   From: 2010.05.17/outbox.cif.g08.bks.cpg/sg26_1_cif.got.tgz:639.got - 2010.06.04 01:07:29.
