data_PCOD9338375
_publ_section_title
;
Structure prediction by ZEFSAII (Michael W. Deem and Ramdas Pophale) SiO2 
 PCOD9338375
Probable space group: P M C 21
;
_chemical_formula_sum "Si O2"
_cell_formula_units_Z 24
_cell_length_a 8.460560
_cell_length_b 14.762348
_cell_length_c 8.293577
_cell_angle_alpha 90.000000
_cell_angle_beta 90.000000
_cell_angle_gamma 90.000000
_cell_volume 1035.848949
_symmetry_space_group_name_H-M "P M C 21"
_symmetry_group_IT_number 26
_symmetry_cell_setting 'orthorhombic'
loop_
_space_group_symop_operation_xyz
x,y,z
-x,-y,1/2+z
-x,y,z
x,-y,1/2+z
loop_
_atom_site_type_symbol
_atom_site_label
_atom_site_fract_x
_atom_site_fract_y
_atom_site_fract_z
Si Si1 0.810988 0.790871 0.304860
Si Si2 0.311062 0.037147 0.967218
Si Si3 0.684401 0.628917 0.126178
Si Si4 0.811445 0.302007 0.136435
Si Si5 0.188025 0.474056 0.318470
Si Si6 0.687870 0.135943 0.307881
O O1 0.761121 0.893969 0.336496
O O2 0.737119 0.731562 0.162410
O O3 0.753014 0.740862 0.470004
O O4 0.000000 0.784992 0.294611
O O5 0.500000 0.036161 0.941178
O O6 0.255625 0.933870 0.944094
O O7 0.282774 0.078905 0.142752
O O8 0.500000 0.626860 0.089438
O O9 0.724152 0.567393 0.282895
O O10 0.777491 0.578051 0.984078
O O11 0.756687 0.401640 0.183223
O O12 0.769045 0.231526 0.277760
O O13 0.000000 0.307369 0.123924
O O14 0.000000 0.490707 0.306808
O O15 0.500000 0.151849 0.323753
#
# Coordination Sequence:
#
# PCOD9338375 Si02
#       6
#     4   4   4   4   4   4
#     4  10  20  37  59  83 112 150 190 233 284 338
#     4   9  18  33  51  76 108 145 186 230 278 331
#     4  12  25  40  60  88 117 148 188 236 284 338
#     4   9  20  37  58  82 110 145 188 232 278 333
#     4  11  23  41  62  85 115 152 190 233 284 341
#     4   9  18  32  52  76 108 146 184 228 280 331
#
# _framework density 23.1694
#
# number of rings (size 3 to 8) (size 9 to 14) (size 15 to 20)
#    0.000    2.000    0.000    3.500    0.000    5.333 
#    0.000    1.667    0.000    0.000    0.000    0.000 
#    0.000    0.000    0.000    0.000    0.000    0.000 
#
# Total GULP energy -134191.390828 kJ/mol
# GULP energy per Si atom -5591.307951 kJ/mol
# Density = 2.311667 g / cm^3
# Si number density = 23.169400 Si / 1000 Ang^3
#
#
#
# Elastic Constant Matrix: (Units=GPa)
#
#
# Indices 1 2 3 4 5 6 
#
# 1 15.1308 0.9017 -1.9388 0.0000 0.0000 0.0000
# 2 0.9017 91.0892 -12.2902 0.0000 0.0000 0.0000
# 3 -1.9388 -12.2902 48.7274 0.0000 0.0000 0.0000
# 4 0.0000 0.0000 0.0000 38.5595 0.0000 0.0000
# 5 0.0000 0.0000 0.0000 0.0000 19.3723 0.0000
# 6 0.0000 0.0000 0.0000 0.0000 0.0000 19.8951
#
#
#
# Elastic Compliance Matrix: (Units=1/GPa)
#
#
# Indices 1 2 3 4 5 6 
#
# 1 0.066438 -0.000312 0.002565 0.000000 0.000000 0.000000
# 2 -0.000312 0.011366 0.002854 0.000000 0.000000 0.000000
# 3 0.002565 0.002854 0.021344 0.000000 0.000000 0.000000
# 4 0.000000 0.000000 0.000000 0.025934 0.000000 0.000000
# 5 0.000000 0.000000 0.000000 0.000000 0.051620 0.000000
# 6 0.000000 0.000000 0.000000 0.000000 0.000000 0.050264
#
#
# Mechanical properties :
#
#
# Convention : Reuss Voigt Hill
#
# Bulk Modulus (GPa) = 9.14379 14.25477 11.69928
# Shear Modulus (GPa) = 19.74681 26.78368 23.26524
#
# Velocity S-wave (km/s) = 2.92255 3.40368 3.17225
# Velocity P-wave (km/s) = 3.91707 4.64892 4.29860
#
# Compressibility (1/GPa) = 0.10936390
#
# Stress axis : x y z
#
# Youngs Moduli (GPa) = 15.05171 87.97804 46.85078
#
# Poissons Ratio (x) = 0.02742 -0.12017
# Poissons Ratio (y) = 0.00469 -0.13373
# Poissons Ratio (z) = -0.03861 -0.25113
#
# Static dielectric constant tensor:
#      x y z
#    x 1.778370 0.000000 0.000000 
#    y 0.000000 1.863680 0.000000 
#    z 0.000000 0.000000 1.979210 
# 
# From -- ./inp_files/1405.got.cif
#   From: 2010.05.17/outbox.cif.g08.bks.cpg/sg26_1_cif.got.tgz:1405.got - 2010.06.04 01:07:29.
