data_PCOD9338717
_publ_section_title
;
Structure prediction by ZEFSAII (Michael W. Deem and Ramdas Pophale) SiO2 
 PCOD9338717
Probable space group: P C C 2
;
_chemical_formula_sum "Si O2"
_cell_formula_units_Z 32
_cell_length_a 12.566029
_cell_length_b 27.935251
_cell_length_c 5.371877
_cell_angle_alpha 90.000000
_cell_angle_beta 90.000000
_cell_angle_gamma 90.000000
_cell_volume 1885.717778
_symmetry_space_group_name_H-M "P C C 2"
_symmetry_group_IT_number 27
_symmetry_cell_setting 'orthorhombic'
loop_
_space_group_symop_operation_xyz
x,y,z
-x,-y,z
-x,y,1/2+z
x,-y,1/2+z
loop_
_atom_site_type_symbol
_atom_site_label
_atom_site_fract_x
_atom_site_fract_y
_atom_site_fract_z
Si Si1 0.783621 0.177717 0.125000
Si Si2 0.555009 0.905008 0.117134
Si Si3 0.119861 0.018864 0.012140
Si Si4 0.201405 0.117000 0.126729
Si Si5 0.123329 0.519731 0.043362
Si Si6 0.070115 0.730094 0.074639
Si Si7 0.932649 0.374293 0.152018
Si Si8 0.535004 0.797153 0.612238
O O1 0.804607 0.151874 0.388623
O O2 0.658305 0.189398 0.110576
O O3 0.810829 0.144247 0.888042
O O4 0.849417 0.226376 0.104468
O O5 0.498225 0.924138 0.365045
O O6 0.681772 0.907861 0.123419
O O7 0.530508 0.847531 0.114970
O O8 0.119572 0.073985 0.088996
O O9 0.171272 0.989792 0.241732
O O10 0.000000 0.000000 0.978533
O O11 0.171240 0.491486 0.275568
O O12 0.125333 0.575746 0.104645
O O13 0.000000 0.500000 0.023287
O O14 0.014018 0.733167 0.804009
O O15 0.121134 0.677154 0.105297
O O16 0.976507 0.374986 0.434823
O O17 0.499080 0.771237 0.363020
#
# Coordination Sequence:
#
# PCOD9338717 Si02
#       8
#     4   4   4   4   4   4   4   4
#     4  12  21  35  55  85  99 129 168 197 239 283
#     4  10  16  30  51  84 106 120 140 186 242 292
#     4  10  23  45  59  75  97 125 161 196 238 284
#     4  12  21  35  63  79  97 126 156 202 238 283
#     4  10  14  20  36  63  74  98 161 220 239 288
#     4  10  23  38  44  64 107 139 173 203 230 294
#     4  10  16  27  42  53  85 128 152 203 256 271
#     4  10  16  30  51  80 110 120 145 197 243 290
#
# _framework density 16.969663000000001
#
# number of rings (size 3 to 8) (size 9 to 14) (size 15 to 20)
#    0.000    1.500    7.500    1.500    0.000    0.000 
#   13.500    0.000    0.000    2.250    0.000    0.000 
#    0.000    0.000    0.000    0.000    0.000    3.750 
#
# Total GULP energy -178297.920099 kJ/mol
# GULP energy per Si atom -5571.810003 kJ/mol
# Density = 1.693104 g / cm^3
# Si number density = 16.969663 Si / 1000 Ang^3
#
#
#
# Elastic Constant Matrix: (Units=GPa)
#
#
# Indices 1 2 3 4 5 6 
#
# 1 29.5222 20.0252 -9.9076 0.0000 0.0000 0.0000
# 2 20.0252 52.6171 -10.6725 0.0000 0.0000 0.0000
# 3 -9.9076 -10.6725 111.1236 0.0000 0.0000 0.0000
# 4 0.0000 0.0000 0.0000 18.5545 0.0000 0.0000
# 5 0.0000 0.0000 0.0000 0.0000 10.2130 0.0000
# 6 0.0000 0.0000 0.0000 0.0000 0.0000 -2.9235
#
#
#
# Elastic Compliance Matrix: (Units=1/GPa)
#
#
# Indices 1 2 3 4 5 6 
#
# 1 0.046323 -0.017126 0.002485 0.000000 0.000000 0.000000
# 2 -0.017126 0.025714 0.000943 0.000000 0.000000 0.000000
# 3 0.002485 0.000943 0.009311 0.000000 0.000000 0.000000
# 4 0.000000 0.000000 0.000000 0.053895 0.000000 0.000000
# 5 0.000000 0.000000 0.000000 0.000000 0.097914 0.000000
# 6 0.000000 0.000000 0.000000 0.000000 0.000000 -0.342056
#
#
# Mechanical properties :
#
#
# Convention : Reuss Voigt Hill
#
# Bulk Modulus (GPa) = 18.53457 21.35036 19.94247
# Shear Modulus (GPa) = -78.71816 18.08999 -30.31408
#
# Velocity S-wave (km/s) = -6.81823 3.26854 -4.23113
# Velocity P-wave (km/s) = 7.14412 5.18201 3.47744
#
# Compressibility (1/GPa) = 0.05395323
#
# Stress axis : x y z
#
# Youngs Moduli (GPa) = 21.58733 38.88891 107.39850
#
# Poissons Ratio (x) = 0.66601 -0.26692
# Poissons Ratio (y) = 0.36970 -0.10125
# Poissons Ratio (z) = -0.05365 -0.03666
#
# Static dielectric constant tensor:
#      x y z
#    x 1.586430 0.000000 0.000000 
#    y 0.000000 1.576400 0.000000 
#    z 0.000000 0.000000 1.691320 
# 
# From -- ./inp_files/399.got.cif
#   From: 2010.05.17/outbox.cif.g08.bks.cpg/sg27_1_cif.got.tgz:399.got - 2010.06.04 01:11:05.
