data_PCOD9338959
_publ_section_title
;
Structure prediction by ZEFSAII (Michael W. Deem and Ramdas Pophale) SiO2 
 PCOD9338959
Probable space group: P C C 2
;
_chemical_formula_sum "Si O2"
_cell_formula_units_Z 28
_cell_length_a 6.605943
_cell_length_b 19.328374
_cell_length_c 10.182254
_cell_angle_alpha 90.000000
_cell_angle_beta 90.000000
_cell_angle_gamma 90.000000
_cell_volume 1300.091949
_symmetry_space_group_name_H-M "P C C 2"
_symmetry_group_IT_number 27
_symmetry_cell_setting 'orthorhombic'
loop_
_space_group_symop_operation_xyz
x,y,z
-x,-y,z
-x,y,1/2+z
x,-y,1/2+z
loop_
_atom_site_type_symbol
_atom_site_label
_atom_site_fract_x
_atom_site_fract_y
_atom_site_fract_z
Si Si1 0.219595 0.735070 0.972470
Si Si2 0.592549 0.360015 0.523754
Si Si3 0.867234 0.558199 0.831320
Si Si4 0.192585 0.886076 0.044266
Si Si5 0.929588 0.316275 0.703547
Si Si6 0.121399 0.069259 0.823353
Si Si7 0.500000 0.500000 0.670641
Si Si8 0.500000 0.000000 0.950816
O O1 0.282987 0.814143 0.993453
O O2 0.090975 0.724257 0.840084
O O3 0.410680 0.684027 0.965383
O O4 0.087451 0.714015 0.099395
O O5 0.757836 0.384959 0.419509
O O6 0.710305 0.317918 0.635377
O O7 0.515121 0.431617 0.584044
O O8 0.694882 0.514325 0.759292
O O9 0.000000 0.500000 0.904605
O O10 0.003213 0.604676 0.734502
O O11 0.353600 0.948466 0.030757
O O12 0.002486 0.902178 0.948503
O O13 0.127165 0.882447 0.195941
O O14 0.345854 0.046438 0.865813
O O15 0.000000 0.000000 0.781746
#
# Coordination Sequence:
#
# PCOD9338959 Si02
#       8
#     4   4   4   4   4   4   2   2
#     4  12  28  47  70 102 146 194 234 293 360 433
#     4  12  27  43  70 101 138 178 240 295 354 429
#     4  12  26  43  69 100 131 181 234 295 362 418
#     4  11  24  44  71 103 141 189 234 285 354 417
#     4  12  26  48  68 100 144 183 238 291 352 435
#     4  10  21  41  71 105 141 180 233 293 341 413
#     4  12  24  42  68 100 132 178 236 300 348 420
#     4  10  22  40  72 108 142 176 240 296 342 408
#
# _framework density 21.536939
#
# number of rings (size 3 to 8) (size 9 to 14) (size 15 to 20)
#    0.000    0.571    4.286    3.857    4.000    3.429 
#    0.000    0.000    0.000    0.000    0.000    0.000 
#    0.000    0.000    0.000    0.000    0.000    0.000 
#
# Total GULP energy -156612.170702 kJ/mol
# GULP energy per Si atom -5593.291811 kJ/mol
# Density = 2.148792 g / cm^3
# Si number density = 21.536939 Si / 1000 Ang^3
#
#
#
# Elastic Constant Matrix: (Units=GPa)
#
#
# Indices 1 2 3 4 5 6 
#
# 1 77.5222 11.9423 42.2557 0.0000 0.0000 0.0000
# 2 11.9423 73.2340 20.6610 0.0000 0.0000 0.0000
# 3 42.2557 20.6610 104.4226 0.0000 0.0000 0.0000
# 4 0.0000 0.0000 0.0000 19.4670 0.0000 0.0000
# 5 0.0000 0.0000 0.0000 0.0000 34.8225 0.0000
# 6 0.0000 0.0000 0.0000 0.0000 0.0000 24.2420
#
#
#
# Elastic Compliance Matrix: (Units=1/GPa)
#
#
# Indices 1 2 3 4 5 6 
#
# 1 0.016601 -0.000860 -0.006548 0.000000 0.000000 0.000000
# 2 -0.000860 0.014507 -0.002522 0.000000 0.000000 0.000000
# 3 -0.006548 -0.002522 0.012725 0.000000 0.000000 0.000000
# 4 0.000000 0.000000 0.000000 0.051369 0.000000 0.000000
# 5 0.000000 0.000000 0.000000 0.000000 0.028717 0.000000
# 6 0.000000 0.000000 0.000000 0.000000 0.000000 0.041251
#
#
# Mechanical properties :
#
#
# Convention : Reuss Voigt Hill
#
# Bulk Modulus (GPa) = 41.71343 44.98853 43.35098
# Shear Modulus (GPa) = 25.90401 27.72761 26.81581
#
# Velocity S-wave (km/s) = 3.47186 3.59199 3.53244
# Velocity P-wave (km/s) = 5.95669 6.17556 6.06711
#
# Compressibility (1/GPa) = 0.02397310
#
# Stress axis : x y z
#
# Youngs Moduli (GPa) = 60.23745 68.93368 78.58479
#
# Poissons Ratio (x) = 0.05928 0.51454
# Poissons Ratio (y) = 0.05180 0.19822
# Poissons Ratio (z) = 0.39441 0.17387
#
# Static dielectric constant tensor:
#      x y z
#    x 1.706120 0.000000 0.000000 
#    y 0.000000 1.743130 0.000000 
#    z 0.000000 0.000000 1.817290 
# 
# From -- ./inp_files/2089.got.cif
#   From: 2010.05.17/outbox.cif.g08.bks.cpg/sg27_2_cif.got.tgz:2089.got - 2010.06.04 01:11:05.
