data_PCOD9338019
_publ_section_title
;
Structure prediction by ZEFSAII (Michael W. Deem and Ramdas Pophale) SiO2 
 PCOD9338019
Probable space group: P M C 21
;
_chemical_formula_sum "Si O2"
_cell_formula_units_Z 32
_cell_length_a 15.233735
_cell_length_b 5.324914
_cell_length_c 20.205990
_cell_angle_alpha 90.000000
_cell_angle_beta 90.000000
_cell_angle_gamma 90.000000
_cell_volume 1639.076140
_symmetry_space_group_name_H-M "P M C 21"
_symmetry_group_IT_number 26
_symmetry_cell_setting 'orthorhombic'
loop_
_space_group_symop_operation_xyz
x,y,z
-x,-y,1/2+z
-x,y,z
x,-y,1/2+z
loop_
_atom_site_type_symbol
_atom_site_label
_atom_site_fract_x
_atom_site_fract_y
_atom_site_fract_z
Si Si1 0.225931 0.564792 0.510240
Si Si2 0.404100 0.241160 0.974625
Si Si3 0.596749 0.258194 0.384807
Si Si4 0.893351 0.412103 0.772232
Si Si5 0.216742 0.304055 0.373579
Si Si6 0.097404 0.951410 0.440906
Si Si7 0.104992 0.909267 0.694845
Si Si8 0.098095 0.241541 0.575131
O O1 0.318426 0.705343 0.519046
O O2 0.240321 0.367495 0.450076
O O3 0.155142 0.745717 0.476772
O O4 0.177732 0.436614 0.571898
O O5 0.500000 0.242709 0.008250
O O6 0.405794 0.471526 0.921911
O O7 0.396010 0.977833 0.935615
O O8 0.500000 0.229880 0.352385
O O9 0.687332 0.253132 0.343245
O O10 0.838090 0.479512 0.837524
O O11 0.869120 0.146421 0.740223
O O12 0.000000 0.420773 0.782116
O O13 0.866801 0.640623 0.722499
O O14 0.149311 0.074971 0.380585
O O15 0.000000 0.865512 0.422234
O O16 0.087581 0.157185 0.499294
O O17 0.123198 0.004722 0.620516
O O18 0.000000 0.897215 0.698294
O O19 0.000000 0.334684 0.597155
#
# Coordination Sequence:
#
# PCOD9338019 Si02
#       8
#     4   4   4   4   4   4   4   4
#     4  10  19  30  48  73 100 131 163 200 251 301
#     4   9  17  30  47  69  99 129 159 196 240 292
#     4   9  17  30  48  69  96 129 161 197 237 287
#     4  10  21  34  50  70  96 132 168 203 244 290
#     4  10  20  32  46  72 104 130 162 198 247 307
#     4  10  19  29  45  70 102 135 161 195 245 296
#     4   9  20  36  51  68  92 129 174 212 240 275
#     4   9  19  33  48  69  97 131 171 211 243 284
#
# _framework density 19.523192999999999
#
# number of rings (size 3 to 8) (size 9 to 14) (size 15 to 20)
#    0.000    2.500    1.250    0.750    3.500    1.500 
#    0.000    0.000    0.000    0.000    0.000    1.750 
#    0.000    0.000    0.000    0.000    0.000    0.000 
#
# Total GULP energy -178158.954622 kJ/mol
# GULP energy per Si atom -5567.467332 kJ/mol
# Density = 1.947876 g / cm^3
# Si number density = 19.523193 Si / 1000 Ang^3
#
#
#
# Elastic Constant Matrix: (Units=GPa)
#
#
# Indices 1 2 3 4 5 6 
#
# 1 142.9120 13.7732 6.5736 0.0000 0.0000 0.0000
# 2 13.7732 79.1545 13.9060 0.0000 0.0000 0.0000
# 3 6.5736 13.9060 47.7942 0.0000 0.0000 0.0000
# 4 0.0000 0.0000 0.0000 28.5033 0.0000 0.0000
# 5 0.0000 0.0000 0.0000 0.0000 7.4672 0.0000
# 6 0.0000 0.0000 0.0000 0.0000 0.0000 15.6359
#
#
#
# Elastic Compliance Matrix: (Units=1/GPa)
#
#
# Indices 1 2 3 4 5 6 
#
# 1 0.007136 -0.001127 -0.000654 0.000000 0.000000 0.000000
# 2 -0.001127 0.013492 -0.003771 0.000000 0.000000 0.000000
# 3 -0.000654 -0.003771 0.022110 0.000000 0.000000 0.000000
# 4 0.000000 0.000000 0.000000 0.035084 0.000000 0.000000
# 5 0.000000 0.000000 0.000000 0.000000 0.133919 0.000000
# 6 0.000000 0.000000 0.000000 0.000000 0.000000 0.063956
#
#
# Mechanical properties :
#
#
# Convention : Reuss Voigt Hill
#
# Bulk Modulus (GPa) = 31.60968 37.59625 34.60297
# Shear Modulus (GPa) = 16.81555 26.02847 21.42201
#
# Velocity S-wave (km/s) = 2.93799 3.65527 3.31608
# Velocity P-wave (km/s) = 5.26641 6.09210 5.69424
#
# Compressibility (1/GPa) = 0.03163588
#
# Stress axis : x y z
#
# Youngs Moduli (GPa) = 140.13493 74.11783 45.22836
#
# Poissons Ratio (x) = 0.08352 0.02956
# Poissons Ratio (y) = 0.15791 0.17054
# Poissons Ratio (z) = 0.09159 0.27947
#
# Static dielectric constant tensor:
#      x y z
#    x 1.786340 0.000000 0.000000 
#    y 0.000000 1.760470 0.000000 
#    z 0.000000 0.000000 1.727490 
# 
# From -- ./inp_files/5235.got.cif
#   From: 2010.05.17/outbox.cif.g08.bks.cpg/sg26_3_cif.got.tgz:5235.got - 2010.06.04 01:07:29.
