data_PCOD9338109
_publ_section_title
;
Structure prediction by ZEFSAII (Michael W. Deem and Ramdas Pophale) SiO2 
 PCOD9338109
Probable space group: P M C 21
;
_chemical_formula_sum "Si O2"
_cell_formula_units_Z 32
_cell_length_a 9.306869
_cell_length_b 14.309588
_cell_length_c 12.591748
_cell_angle_alpha 90.000000
_cell_angle_beta 90.000000
_cell_angle_gamma 90.000000
_cell_volume 1676.937028
_symmetry_space_group_name_H-M "P M C 21"
_symmetry_group_IT_number 26
_symmetry_cell_setting 'orthorhombic'
loop_
_space_group_symop_operation_xyz
x,y,z
-x,-y,1/2+z
-x,y,z
x,-y,1/2+z
loop_
_atom_site_type_symbol
_atom_site_label
_atom_site_fract_x
_atom_site_fract_y
_atom_site_fract_z
Si Si1 0.329135 0.554505 0.174840
Si Si2 0.840122 0.365020 0.861113
Si Si3 0.671763 0.250801 0.558691
Si Si4 0.668640 0.644202 0.574584
Si Si5 0.830840 0.938700 0.462768
Si Si6 0.162578 0.835279 0.247925
Si Si7 0.168899 0.144819 0.382654
Si Si8 0.329551 0.847368 0.662814
O O1 0.500000 0.557667 0.192318
O O2 0.249821 0.567682 0.285859
O O3 0.295308 0.643519 0.099096
O O4 0.292024 0.454434 0.126553
O O5 0.848501 0.267571 0.798498
O O6 0.000000 0.400927 0.879516
O O7 0.761290 0.344601 0.969875
O O8 0.500000 0.241712 0.548785
O O9 0.732668 0.179762 0.648731
O O10 0.750635 0.224705 0.449666
O O11 0.500000 0.639851 0.546010
O O12 0.687548 0.735629 0.646357
O O13 0.787573 0.898432 0.346646
O O14 0.739148 0.897531 0.559612
O O15 0.000000 0.913130 0.477229
O O16 0.820135 0.049805 0.451268
O O17 0.000000 0.865179 0.215241
O O18 0.245531 0.127647 0.270026
O O19 0.000000 0.165313 0.367629
O O20 0.500000 0.867980 0.670056
#
# Coordination Sequence:
#
# PCOD9338109 Si02
#       8
#     4   4   4   4   4   4   4   4
#     4   9  20  38  59  83 116 160 203 241 293 362
#     4  10  19  33  56  85 114 146 191 250 297 340
#     4  10  21  38  60  87 119 155 200 251 298 344
#     4  10  21  38  60  85 117 158 197 239 297 361
#     4  10  22  41  63  86 115 157 200 238 293 363
#     4   9  18  35  59  84 112 148 192 243 295 352
#     4  11  25  42  62  86 122 167 202 239 297 368
#     4  11  24  41  63  92 123 153 197 253 302 350
#
# _framework density 19.082411
#
# number of rings (size 3 to 8) (size 9 to 14) (size 15 to 20)
#    0.000    2.000    1.250    1.500    1.750    4.500 
#    0.000    5.000    0.000    0.000    0.000    0.000 
#    0.000    0.000    0.000    0.000    0.000    0.000 
#
# Total GULP energy -178606.548533 kJ/mol
# GULP energy per Si atom -5581.454642 kJ/mol
# Density = 1.903898 g / cm^3
# Si number density = 19.082411 Si / 1000 Ang^3
#
#
#
# Elastic Constant Matrix: (Units=GPa)
#
#
# Indices 1 2 3 4 5 6 
#
# 1 69.6248 40.6993 54.5889 0.0000 0.0000 0.0000
# 2 40.6993 53.0318 27.4478 0.0000 0.0000 0.0000
# 3 54.5889 27.4478 82.3042 0.0000 0.0000 0.0000
# 4 0.0000 0.0000 0.0000 17.2521 0.0000 0.0000
# 5 0.0000 0.0000 0.0000 0.0000 657.0015 0.0000
# 6 0.0000 0.0000 0.0000 0.0000 0.0000 8.3150
#
#
#
# Elastic Compliance Matrix: (Units=1/GPa)
#
#
# Indices 1 2 3 4 5 6 
#
# 1 0.045690 -0.023423 -0.022493 0.000000 0.000000 0.000000
# 2 -0.023423 0.034798 0.003931 0.000000 0.000000 0.000000
# 3 -0.022493 0.003931 0.025758 0.000000 0.000000 0.000000
# 4 0.000000 0.000000 0.000000 0.057964 0.000000 0.000000
# 5 0.000000 0.000000 0.000000 0.000000 0.001522 0.000000
# 6 0.000000 0.000000 0.000000 0.000000 0.000000 0.120265
#
#
# Mechanical properties :
#
#
# Convention : Reuss Voigt Hill
#
# Bulk Modulus (GPa) = 44.89257 50.04807 47.47032
# Shear Modulus (GPa) = 13.24875 141.99536 77.62206
#
# Velocity S-wave (km/s) = 2.63780 8.63558 6.38479
# Velocity P-wave (km/s) = 5.73184 11.21228 8.90419
#
# Compressibility (1/GPa) = 0.02227540
#
# Stress axis : x y z
#
# Youngs Moduli (GPa) = 21.88649 28.73696 38.82315
#
# Poissons Ratio (x) = 0.67311 0.87325
# Poissons Ratio (y) = 0.51265 -0.15260
# Poissons Ratio (z) = 0.49229 -0.11296
#
# Static dielectric constant tensor:
#      x y z
#    x 1.651880 0.000000 0.000000 
#    y 0.000000 1.682350 0.000000 
#    z 0.000000 0.000000 1.648670 
# 
# From -- ./inp_files/3083.got.cif
#   From: 2010.05.17/outbox.cif.g08.bks.cpg/sg26_2_cif.got.tgz:3083.got - 2010.06.04 01:07:29.
