data_PCOD9338983
_publ_section_title
;
Structure prediction by ZEFSAII (Michael W. Deem and Ramdas Pophale) SiO2 
 PCOD9338983
Probable space group: P C C 2
;
_chemical_formula_sum "Si O2"
_cell_formula_units_Z 26
_cell_length_a 5.457698
_cell_length_b 8.576446
_cell_length_c 28.365239
_cell_angle_alpha 90.000000
_cell_angle_beta 90.000000
_cell_angle_gamma 90.000000
_cell_volume 1327.710241
_symmetry_space_group_name_H-M "P C C 2"
_symmetry_group_IT_number 27
_symmetry_cell_setting 'orthorhombic'
loop_
_space_group_symop_operation_xyz
x,y,z
-x,-y,z
-x,y,1/2+z
x,-y,1/2+z
loop_
_atom_site_type_symbol
_atom_site_label
_atom_site_fract_x
_atom_site_fract_y
_atom_site_fract_z
Si Si1 0.034757 0.182823 0.166820
Si Si2 0.102789 0.670959 0.567319
Si Si3 0.493748 0.189985 0.818025
Si Si4 0.534188 0.314790 0.212223
Si Si5 0.004255 0.813447 0.869260
Si Si6 0.888841 0.325074 0.969282
Si Si7 0.500000 0.500000 0.010618
O O1 0.074757 0.219565 0.111632
O O2 0.286605 0.239615 0.190914
O O3 0.786996 0.265720 0.186069
O O4 0.000000 0.000000 0.175329
O O5 0.360560 0.614928 0.546665
O O6 0.000000 0.500000 0.581319
O O7 0.967962 0.736629 0.520633
O O8 0.455106 0.257233 0.766086
O O9 0.754753 0.241004 0.840334
O O10 0.257229 0.240082 0.848768
O O11 0.500000 0.000000 0.815839
O O12 0.500000 0.500000 0.209600
O O13 0.037943 0.766811 0.923563
O O14 0.000000 0.000000 0.865855
O O15 0.000000 0.500000 0.967771
O O16 0.608221 0.370596 0.975078
#
# Coordination Sequence:
#
# PCOD9338983 Si02
#       7
#     4   4   4   4   4   4   2
#     4  12  26  43  68  99 133 171 213 266 331 386
#     4   9  20  37  61  89 124 167 213 262 311 377
#     4  10  22  41  62  89 125 164 209 263 320 374
#     4  12  26  45  69  98 128 169 221 270 321 386
#     4  10  22  38  62  89 123 167 206 252 319 375
#     4   9  20  35  59  88 124 161 208 258 309 371
#     4   8  18  36  60  90 118 170 210 258 318 354
#
# _framework density 19.582585000000002
#
# number of rings (size 3 to 8) (size 9 to 14) (size 15 to 20)
#    0.000    2.154    0.000    3.692    9.692    3.077 
#    0.000    0.000    0.000    0.000    0.000    0.000 
#    0.000    0.000    0.000    0.000    0.000    0.000 
#
# Total GULP energy -144807.391177 kJ/mol
# GULP energy per Si atom -5569.515045 kJ/mol
# Density = 1.953801 g / cm^3
# Si number density = 19.582585 Si / 1000 Ang^3
#
#
#
# Elastic Constant Matrix: (Units=GPa)
#
#
# Indices 1 2 3 4 5 6 
#
# 1 129.1183 33.2998 66.8984 0.0000 0.0000 0.0000
# 2 33.2998 45.8413 25.7298 0.0000 0.0000 0.0000
# 3 66.8984 25.7298 130.0690 0.0000 0.0000 0.0000
# 4 0.0000 0.0000 0.0000 65.8637 0.0000 0.0000
# 5 0.0000 0.0000 0.0000 0.0000 -99.3917 0.0000
# 6 0.0000 0.0000 0.0000 0.0000 0.0000 9.8447
#
#
#
# Elastic Compliance Matrix: (Units=1/GPa)
#
#
# Indices 1 2 3 4 5 6 
#
# 1 0.011788 -0.005805 -0.004915 0.000000 0.000000 0.000000
# 2 -0.005805 0.027397 -0.002434 0.000000 0.000000 0.000000
# 3 -0.004915 -0.002434 0.010698 0.000000 0.000000 0.000000
# 4 0.000000 0.000000 0.000000 0.015183 0.000000 0.000000
# 5 0.000000 0.000000 0.000000 0.000000 -0.010061 0.000000
# 6 0.000000 0.000000 0.000000 0.000000 0.000000 0.101578
#
#
# Mechanical properties :
#
#
# Convention : Reuss Voigt Hill
#
# Bulk Modulus (GPa) = 42.41614 61.87606 52.14610
# Shear Modulus (GPa) = 26.21253 7.20337 16.70795
#
# Velocity S-wave (km/s) = 3.66261 1.92001 2.92414
# Velocity P-wave (km/s) = 6.29233 6.04825 6.17150
#
# Compressibility (1/GPa) = 0.02357593
#
# Stress axis : x y z
#
# Youngs Moduli (GPa) = 84.82976 36.50010 93.47911
#
# Poissons Ratio (x) = 0.21187 0.45943
# Poissons Ratio (y) = 0.49240 0.22754
# Poissons Ratio (z) = 0.41692 0.08885
#
# Static dielectric constant tensor:
#      x y z
#    x 1.319070 0.000000 0.000000 
#    y 0.000000 1.645770 0.000000 
#    z 0.000000 0.000000 1.665090 
# 
# From -- ./inp_files/5205.got.cif
#   From: 2010.05.17/outbox.cif.g08.bks.cpg/sg27_3_cif.got.tgz:5205.got - 2010.06.04 01:11:05.
