data_PCOD9338770
_publ_section_title
;
Structure prediction by ZEFSAII (Michael W. Deem and Ramdas Pophale) SiO2 
 PCOD9338770
Probable space group: P C C 2
;
_chemical_formula_sum "Si O2"
_cell_formula_units_Z 32
_cell_length_a 6.730531
_cell_length_b 18.802532
_cell_length_c 9.077013
_cell_angle_alpha 90.000000
_cell_angle_beta 90.000000
_cell_angle_gamma 90.000000
_cell_volume 1148.705295
_symmetry_space_group_name_H-M "P C C 2"
_symmetry_group_IT_number 27
_symmetry_cell_setting 'orthorhombic'
loop_
_space_group_symop_operation_xyz
x,y,z
-x,-y,z
-x,y,1/2+z
x,-y,1/2+z
loop_
_atom_site_type_symbol
_atom_site_label
_atom_site_fract_x
_atom_site_fract_y
_atom_site_fract_z
Si Si1 0.664355 0.600015 0.892270
Si Si2 0.169420 0.900473 0.655079
Si Si3 0.911925 0.253983 0.660072
Si Si4 0.767507 0.480649 0.104653
Si Si5 0.622824 0.847194 0.663907
Si Si6 0.267384 0.976874 0.353050
Si Si7 0.110083 0.346755 0.437404
Si Si8 0.454620 0.248930 0.935576
O O1 0.663099 0.552855 0.746138
O O2 0.888587 0.629325 0.892885
O O3 0.664826 0.549875 0.035539
O O4 0.517750 0.667706 0.897679
O O5 0.035170 0.829473 0.663805
O O6 0.393762 0.872494 0.667657
O O7 0.175823 0.941099 0.498840
O O8 0.157331 0.953748 0.791547
O O9 0.080466 0.302779 0.588159
O O10 0.719900 0.256217 0.555869
O O11 0.845995 0.289183 0.811547
O O12 0.000000 0.500000 0.140912
O O13 0.783192 0.420567 0.976981
O O14 0.727264 0.920293 0.716890
O O15 0.618915 0.803688 0.509251
O O16 0.637481 0.790625 0.795843
O O17 0.500000 0.000000 0.384961
#
# Coordination Sequence:
#
# PCOD9338770 Si02
#       8
#     4   4   4   4   4   4   4   4
#     4  10  21  35  56  93 120 152 195 251 301 359
#     4  10  21  34  58  91 120 148 196 251 307 360
#     4  10  20  38  55  93 120 158 196 254 299 366
#     4  10  19  34  60  90 119 151 198 258 301 342
#     4  10  18  38  58  85 118 155 193 261 290 359
#     4  10  18  33  58  89 117 147 196 257 304 344
#     4  10  19  35  61  86 123 151 201 251 299 350
#     4  10  22  37  58  89 125 151 204 248 308 358
#
# _framework density 27.857453
#
# number of rings (size 3 to 8) (size 9 to 14) (size 15 to 20)
#    0.000    2.000    3.750    2.250    5.250    0.000 
#    4.500    1.250    0.000    4.500    0.000    0.000 
#    0.000    0.000    0.000    0.000    0.000    0.000 
#
# Total GULP energy -179271.175551 kJ/mol
# GULP energy per Si atom -5602.224236 kJ/mol
# Density = 2.779405 g / cm^3
# Si number density = 27.857453 Si / 1000 Ang^3
#
#
#
# Elastic Constant Matrix: (Units=GPa)
#
#
# Indices 1 2 3 4 5 6 
#
# 1 35.2887 31.1925 11.3243 0.0000 0.0000 0.0000
# 2 31.1925 215.4335 89.2471 0.0000 0.0000 0.0000
# 3 11.3243 89.2471 167.2866 0.0000 0.0000 0.0000
# 4 0.0000 0.0000 0.0000 77.7771 0.0000 0.0000
# 5 0.0000 0.0000 0.0000 0.0000 11.2057 0.0000
# 6 0.0000 0.0000 0.0000 0.0000 0.0000 75.3139
#
#
#
# Elastic Compliance Matrix: (Units=1/GPa)
#
#
# Indices 1 2 3 4 5 6 
#
# 1 0.032517 -0.004873 0.000399 0.000000 0.000000 0.000000
# 2 -0.004873 0.006689 -0.003239 0.000000 0.000000 0.000000
# 3 0.000399 -0.003239 0.007679 0.000000 0.000000 0.000000
# 4 0.000000 0.000000 0.000000 0.012857 0.000000 0.000000
# 5 0.000000 0.000000 0.000000 0.000000 0.089240 0.000000
# 6 0.000000 0.000000 0.000000 0.000000 0.000000 0.013278
#
#
# Mechanical properties :
#
#
# Convention : Reuss Voigt Hill
#
# Bulk Modulus (GPa) = 31.78799 75.72628 53.75713
# Shear Modulus (GPa) = 26.57127 51.94233 39.25680
#
# Velocity S-wave (km/s) = 3.09176 4.32276 3.75801
# Velocity P-wave (km/s) = 4.91742 7.22201 6.17813
#
# Compressibility (1/GPa) = 0.03145842
#
# Stress axis : x y z
#
# Youngs Moduli (GPa) = 30.75271 149.49650 130.23149
#
# Poissons Ratio (x) = 0.72855 -0.05192
# Poissons Ratio (y) = 0.14987 0.42179
# Poissons Ratio (z) = -0.01226 0.48418
#
# Static dielectric constant tensor:
#      x y z
#    x 2.318490 0.000000 0.000000 
#    y 0.000000 2.336230 0.000000 
#    z 0.000000 0.000000 2.097630 
# 
# From -- ./inp_files/1474.got.cif
#   From: 2010.05.17/outbox.cif.g08.bks.cpg/sg27_1_cif.got.tgz:1474.got - 2010.06.04 01:11:05.
