data_PCOD9338847
_publ_section_title
;
Structure prediction by ZEFSAII (Michael W. Deem and Ramdas Pophale) SiO2 
 PCOD9338847
Probable space group: P C C 2
;
_chemical_formula_sum "Si O2"
_cell_formula_units_Z 32
_cell_length_a 14.705674
_cell_length_b 10.729771
_cell_length_c 10.479814
_cell_angle_alpha 90.000000
_cell_angle_beta 90.000000
_cell_angle_gamma 90.000000
_cell_volume 1653.594282
_symmetry_space_group_name_H-M "P C C 2"
_symmetry_group_IT_number 27
_symmetry_cell_setting 'orthorhombic'
loop_
_space_group_symop_operation_xyz
x,y,z
-x,-y,z
-x,y,1/2+z
x,-y,1/2+z
loop_
_atom_site_type_symbol
_atom_site_label
_atom_site_fract_x
_atom_site_fract_y
_atom_site_fract_z
Si Si1 0.200386 0.035159 0.630750
Si Si2 0.223476 0.784480 0.716018
Si Si3 0.601285 0.450572 0.984573
Si Si4 0.938931 0.694632 0.063641
Si Si5 0.291631 0.507210 0.738213
Si Si6 0.133605 0.419248 0.586464
Si Si7 0.907760 0.065958 0.393973
Si Si8 0.719790 0.238841 0.980601
O O1 0.154843 0.062535 0.767691
O O2 0.267170 0.147491 0.597589
O O3 0.249272 0.900327 0.628559
O O4 0.127677 0.014919 0.516307
O O5 0.118933 0.752631 0.681254
O O6 0.274238 0.653356 0.710249
O O7 0.247510 0.831474 0.855836
O O8 0.500000 0.500000 0.973098
O O9 0.662974 0.514481 0.874726
O O10 0.639611 0.469387 0.126338
O O11 0.622731 0.303811 0.963626
O O12 0.895496 0.557143 0.039070
O O13 0.043463 0.664322 0.097409
O O14 0.926074 0.794597 0.950155
O O15 0.194544 0.441039 0.713202
O O16 0.204395 0.348582 0.495125
O O17 0.000000 0.000000 0.352328
#
# Coordination Sequence:
#
# PCOD9338847 Si02
#       8
#     4   4   4   4   4   4   4   4
#     4  11  21  38  57  80 115 166 209 256 302 349
#     4   9  19  37  55  80 117 164 203 254 294 346
#     4  10  20  38  65  95 123 149 191 250 318 391
#     4   9  19  35  54  82 114 164 214 259 298 344
#     4   9  19  37  62  88 124 156 194 244 315 376
#     4   9  18  37  52  83 118 159 206 254 305 358
#     4  11  22  36  57  79 117 164 225 262 297 338
#     4  10  20  38  57  83 121 158 196 250 313 368
#
# _framework density 19.351783999999999
#
# number of rings (size 3 to 8) (size 9 to 14) (size 15 to 20)
#    0.000    2.250    1.250    1.500    0.000    1.000 
#   24.750    5.000    0.000    0.750    0.000    3.500 
#    0.000    0.000    0.000    0.000    0.000    0.000 
#
# Total GULP energy -178165.833422 kJ/mol
# GULP energy per Si atom -5567.682294 kJ/mol
# Density = 1.930774 g / cm^3
# Si number density = 19.351784 Si / 1000 Ang^3
#
#
#
# Elastic Constant Matrix: (Units=GPa)
#
#
# Indices 1 2 3 4 5 6 
#
# 1 77.7408 34.0948 11.7944 0.0000 0.0000 0.0000
# 2 34.0948 72.2771 4.8849 0.0000 0.0000 0.0000
# 3 11.7944 4.8849 64.9511 0.0000 0.0000 0.0000
# 4 0.0000 0.0000 0.0000 29.5449 0.0000 0.0000
# 5 0.0000 0.0000 0.0000 0.0000 9.3407 0.0000
# 6 0.0000 0.0000 0.0000 0.0000 0.0000 15.4349
#
#
#
# Elastic Compliance Matrix: (Units=1/GPa)
#
#
# Indices 1 2 3 4 5 6 
#
# 1 0.016594 -0.007663 -0.002437 0.000000 0.000000 0.000000
# 2 -0.007663 0.017445 0.000079 0.000000 0.000000 0.000000
# 3 -0.002437 0.000079 0.015833 0.000000 0.000000 0.000000
# 4 0.000000 0.000000 0.000000 0.033847 0.000000 0.000000
# 5 0.000000 0.000000 0.000000 0.000000 0.107059 0.000000
# 6 0.000000 0.000000 0.000000 0.000000 0.000000 0.064788
#
#
# Mechanical properties :
#
#
# Convention : Reuss Voigt Hill
#
# Bulk Modulus (GPa) = 33.52245 35.16858 34.34552
# Shear Modulus (GPa) = 17.51009 21.81042 19.66026
#
# Velocity S-wave (km/s) = 3.01130 3.36080 3.19084
# Velocity P-wave (km/s) = 5.42687 5.76825 5.60016
#
# Compressibility (1/GPa) = 0.02983075
#
# Stress axis : x y z
#
# Youngs Moduli (GPa) = 60.26377 57.32279 63.16031
#
# Poissons Ratio (x) = 0.43926 0.15392
# Poissons Ratio (y) = 0.46180 -0.00502
# Poissons Ratio (z) = 0.14686 -0.00456
#
# Static dielectric constant tensor:
#      x y z
#    x 1.672550 0.000000 0.000000 
#    y 0.000000 1.728990 0.000000 
#    z 0.000000 0.000000 1.728590 
# 
# From -- ./inp_files/1620.got.cif
#   From: 2010.05.17/outbox.cif.g08.bks.cpg/sg27_1_cif.got.tgz:1620.got - 2010.06.04 01:11:05.
