data_PCOD9338881
_publ_section_title
;
Structure prediction by ZEFSAII (Michael W. Deem and Ramdas Pophale) SiO2 
 PCOD9338881
Probable space group: P C C 2
;
_chemical_formula_sum "Si O2"
_cell_formula_units_Z 20
_cell_length_a 5.623497
_cell_length_b 7.666391
_cell_length_c 18.834889
_cell_angle_alpha 90.000000
_cell_angle_beta 90.000000
_cell_angle_gamma 90.000000
_cell_volume 812.008356
_symmetry_space_group_name_H-M "P C C 2"
_symmetry_group_IT_number 27
_symmetry_cell_setting 'orthorhombic'
loop_
_space_group_symop_operation_xyz
x,y,z
-x,-y,z
-x,y,1/2+z
x,-y,1/2+z
loop_
_atom_site_type_symbol
_atom_site_label
_atom_site_fract_x
_atom_site_fract_y
_atom_site_fract_z
Si Si1 0.500000 0.500000 0.192490
Si Si2 0.823724 0.214194 0.013256
Si Si3 0.690163 0.846599 0.744613
Si Si4 0.000000 0.000000 0.620273
Si Si5 0.000000 0.500000 0.609857
Si Si6 0.090953 0.318536 0.875396
Si Si7 0.500000 0.500000 0.968509
O O1 0.468528 0.674324 0.236823
O O2 0.246664 0.491131 0.152277
O O3 0.800249 0.035599 0.056796
O O4 0.007970 0.328308 0.060153
O O5 0.601591 0.342870 0.014887
O O6 0.914695 0.226307 0.932317
O O7 0.831527 0.818556 0.817050
O O8 0.500000 0.000000 0.744773
O O9 0.875295 0.873619 0.679645
O O10 0.305515 0.402796 0.920599
O O11 0.000000 0.500000 0.839718
#
# Coordination Sequence:
#
# PCOD9338881 Si02
#       7
#     2   4   4   2   2   4   2
#     4  12  28  48  84 110 167 215 270 328 418 478
#     4  11  23  42  74 110 145 200 264 337 393 484
#     4  12  29  48  72 114 157 212 266 335 406 496
#     4  12  28  44  68 108 160 198 268 328 410 472
#     4  12  22  46  80 114 144 212 260 336 386 488
#     4  10  24  44  74 106 148 203 264 324 406 480
#     4  10  20  42  72 108 141 201 270 318 404 482
#
# _framework density 24.630286000000002
#
# number of rings (size 3 to 8) (size 9 to 14) (size 15 to 20)
#    0.000    0.800    5.000    2.400    1.400    7.200 
#    0.000    0.000    0.000    0.000    0.000    0.000 
#    0.000    0.000    0.000    0.000    0.000    0.000 
#
# Total GULP energy -111427.795232 kJ/mol
# GULP energy per Si atom -5571.389762 kJ/mol
# Density = 2.457423 g / cm^3
# Si number density = 24.630286 Si / 1000 Ang^3
#
#
#
# Elastic Constant Matrix: (Units=GPa)
#
#
# Indices 1 2 3 4 5 6 
#
# 1 91.4613 37.9806 30.7178 0.0000 0.0000 0.0000
# 2 37.9806 136.4870 42.7635 0.0000 0.0000 0.0000
# 3 30.7178 42.7635 111.6153 0.0000 0.0000 0.0000
# 4 0.0000 0.0000 0.0000 1.1993 0.0000 0.0000
# 5 0.0000 0.0000 0.0000 0.0000 29.9230 0.0000
# 6 0.0000 0.0000 0.0000 0.0000 0.0000 35.8119
#
#
#
# Elastic Compliance Matrix: (Units=1/GPa)
#
#
# Indices 1 2 3 4 5 6 
#
# 1 0.012939 -0.002824 -0.002479 0.000000 0.000000 0.000000
# 2 -0.002824 0.008942 -0.002649 0.000000 0.000000 0.000000
# 3 -0.002479 -0.002649 0.010657 0.000000 0.000000 0.000000
# 4 0.000000 0.000000 0.000000 0.833842 0.000000 0.000000
# 5 0.000000 0.000000 0.000000 0.000000 0.033419 0.000000
# 6 0.000000 0.000000 0.000000 0.000000 0.000000 0.027924
#
#
# Mechanical properties :
#
#
# Convention : Reuss Voigt Hill
#
# Bulk Modulus (GPa) = 60.11736 62.49862 61.30799
# Shear Modulus (GPa) = 5.26776 28.59362 16.93069
#
# Velocity S-wave (km/s) = 1.46403 3.41091 2.62466
# Velocity P-wave (km/s) = 5.22673 6.39861 5.84213
#
# Compressibility (1/GPa) = 0.01663413
#
# Stress axis : x y z
#
# Youngs Moduli (GPa) = 77.28693 111.82594 93.83923
#
# Poissons Ratio (x) = 0.31577 0.23263
# Poissons Ratio (y) = 0.21824 0.24858
# Poissons Ratio (z) = 0.19160 0.29623
#
# Static dielectric constant tensor:
#      x y z
#    x 1.994930 0.000000 0.000000 
#    y 0.000000 1.975550 0.000000 
#    z 0.000000 0.000000 1.972710 
# 
# From -- ./inp_files/3947.got.cif
#   From: 2010.05.17/outbox.cif.g08.bks.cpg/sg27_2_cif.got.tgz:3947.got - 2010.06.04 01:11:05.
