data_PCOD9338277
_publ_section_title
;
Structure prediction by ZEFSAII (Michael W. Deem and Ramdas Pophale) SiO2 
 PCOD9338277
Probable space group: P M C 21
;
_chemical_formula_sum "Si O2"
_cell_formula_units_Z 32
_cell_length_a 7.684000
_cell_length_b 16.858548
_cell_length_c 10.825940
_cell_angle_alpha 90.000000
_cell_angle_beta 90.000000
_cell_angle_gamma 90.000000
_cell_volume 1402.403990
_symmetry_space_group_name_H-M "P M C 21"
_symmetry_group_IT_number 26
_symmetry_cell_setting 'orthorhombic'
loop_
_space_group_symop_operation_xyz
x,y,z
-x,-y,1/2+z
-x,y,z
x,-y,1/2+z
loop_
_atom_site_type_symbol
_atom_site_label
_atom_site_fract_x
_atom_site_fract_y
_atom_site_fract_z
Si Si1 0.199399 0.743754 0.205580
Si Si2 0.214668 0.751715 0.931588
Si Si3 0.211525 0.328417 0.957939
Si Si4 0.800561 0.088374 0.314353
Si Si5 0.212368 0.485805 0.099073
Si Si6 0.798775 0.838623 0.545308
Si Si7 0.311417 0.092474 0.801366
Si Si8 0.212235 0.418082 0.360813
O O1 0.275988 0.694807 0.320804
O O2 0.199455 0.837476 0.239930
O O3 0.000000 0.716431 0.195541
O O4 0.275074 0.734610 0.070534
O O5 0.277001 0.839830 0.894952
O O6 0.261584 0.674959 0.849476
O O7 0.000000 0.755548 0.927867
O O8 0.000000 0.334184 0.950410
O O9 0.268654 0.407213 0.024579
O O10 0.253676 0.252590 0.041344
O O11 0.793855 0.125054 0.178577
O O12 0.000000 0.077758 0.356517
O O13 0.730886 0.999913 0.299768
O O14 0.268416 0.472237 0.242674
O O15 0.000000 0.489991 0.105079
O O16 0.265108 0.552836 0.998836
O O17 0.691081 0.885889 0.445541
O O18 0.000000 0.842148 0.502084
O O19 0.500000 0.104244 0.744773
O O20 0.000000 0.421221 0.359222
#
# Coordination Sequence:
#
# PCOD9338277 Si02
#       8
#     4   4   4   4   4   4   4   4
#     4   9  18  33  53  75 102 140 183 218 258 318
#     4   9  18  31  49  72 101 139 184 223 258 313
#     4   8  14  26  45  66  92 131 174 211 252 305
#     4  10  20  34  54  74  98 136 180 221 263 314
#     4   9  16  24  39  65 103 144 177 213 266 323
#     4   9  18  34  54  72  95 132 179 218 255 313
#     4  11  23  36  51  76 107 133 167 218 277 330
#     4   9  17  26  39  66 104 143 180 216 265 322
#
# _framework density 22.817962000000001
#
# number of rings (size 3 to 8) (size 9 to 14) (size 15 to 20)
#    0.000    2.750    0.000    2.625    3.500    3.500 
#    0.000    0.000    0.000    0.000    0.000    0.000 
#    0.000    8.000    0.500    0.000    1.000    0.500 
#
# Total GULP energy -178316.026829 kJ/mol
# GULP energy per Si atom -5572.375838 kJ/mol
# Density = 2.276603 g / cm^3
# Si number density = 22.817962 Si / 1000 Ang^3
#
#
#
# Elastic Constant Matrix: (Units=GPa)
#
#
# Indices 1 2 3 4 5 6 
#
# 1 29.8778 -5.0882 3.9883 0.0000 0.0000 0.0000
# 2 -5.0882 52.2772 29.4293 0.0000 0.0000 0.0000
# 3 3.9883 29.4293 90.3760 0.0000 0.0000 0.0000
# 4 0.0000 0.0000 0.0000 4.8455 0.0000 0.0000
# 5 0.0000 0.0000 0.0000 0.0000 79.1682 0.0000
# 6 0.0000 0.0000 0.0000 0.0000 0.0000 46.9866
#
#
#
# Elastic Compliance Matrix: (Units=1/GPa)
#
#
# Indices 1 2 3 4 5 6 
#
# 1 0.034787 0.005204 -0.003230 0.000000 0.000000 0.000000
# 2 0.005204 0.024201 -0.008110 0.000000 0.000000 0.000000
# 3 -0.003230 -0.008110 0.013848 0.000000 0.000000 0.000000
# 4 0.000000 0.000000 0.000000 0.206379 0.000000 0.000000
# 5 0.000000 0.000000 0.000000 0.000000 0.012631 0.000000
# 6 0.000000 0.000000 0.000000 0.000000 0.000000 0.021283
#
#
# Mechanical properties :
#
#
# Convention : Reuss Voigt Hill
#
# Bulk Modulus (GPa) = 16.51134 25.46552 20.98843
# Shear Modulus (GPa) = 14.46804 35.81350 25.14077
#
# Velocity S-wave (km/s) = 2.52079 3.96603 3.32293
# Velocity P-wave (km/s) = 3.96540 5.67072 4.89292
#
# Compressibility (1/GPa) = 0.06056444
#
# Stress axis : x y z
#
# Youngs Moduli (GPa) = 28.74636 41.32070 72.21063
#
# Poissons Ratio (x) = -0.21504 0.23322
# Poissons Ratio (y) = -0.14960 0.58565
# Poissons Ratio (z) = 0.09284 0.33512
#
# Static dielectric constant tensor:
#      x y z
#    x 1.778050 0.000000 0.000000 
#    y 0.000000 1.918220 0.000000 
#    z 0.000000 0.000000 1.843280 
# 
# From -- ./inp_files/3069.got.cif
#   From: 2010.05.17/outbox.cif.g08.bks.cpg/sg26_2_cif.got.tgz:3069.got - 2010.06.04 01:07:29.
