data_PCOD9338091
_publ_section_title
;
Structure prediction by ZEFSAII (Michael W. Deem and Ramdas Pophale) SiO2 
 PCOD9338091
Probable space group: P M C 21
;
_chemical_formula_sum "Si O2"
_cell_formula_units_Z 32
_cell_length_a 9.550466
_cell_length_b 11.460166
_cell_length_c 16.259570
_cell_angle_alpha 90.000000
_cell_angle_beta 90.000000
_cell_angle_gamma 90.000000
_cell_volume 1779.608729
_symmetry_space_group_name_H-M "P M C 21"
_symmetry_group_IT_number 26
_symmetry_cell_setting 'orthorhombic'
loop_
_space_group_symop_operation_xyz
x,y,z
-x,-y,1/2+z
-x,y,z
x,-y,1/2+z
loop_
_atom_site_type_symbol
_atom_site_label
_atom_site_fract_x
_atom_site_fract_y
_atom_site_fract_z
Si Si1 0.669548 0.020909 0.125000
Si Si2 0.158989 0.441599 0.269588
Si Si3 0.670045 0.906873 0.950617
Si Si4 0.658205 0.464957 0.000596
Si Si5 0.662494 0.712699 0.650917
Si Si6 0.664600 0.651837 0.321819
Si Si7 0.159529 0.332197 0.451793
Si Si8 0.329901 0.079548 0.800587
O O1 0.500000 0.015189 0.125907
O O2 0.707179 0.157024 0.127934
O O3 0.718271 0.961594 0.210121
O O4 0.710713 0.962870 0.038753
O O5 0.240617 0.344650 0.218655
O O6 0.244149 0.562645 0.268410
O O7 0.155907 0.394179 0.362737
O O8 0.000000 0.457106 0.240972
O O9 0.500000 0.893369 0.948364
O O10 0.746997 0.783236 0.944848
O O11 0.710595 0.991877 0.874510
O O12 0.500000 0.514008 0.999827
O O13 0.676241 0.394984 0.915186
O O14 0.766209 0.570695 0.008291
O O15 0.668951 0.371648 0.072694
O O16 0.500000 0.717665 0.679331
O O17 0.500000 0.644659 0.298421
O O18 0.710533 0.786201 0.316368
O O19 0.000000 0.306025 0.476545
O O20 0.500000 0.077766 0.800312
#
# Coordination Sequence:
#
# PCOD9338091 Si02
#       8
#     4   4   4   4   4   4   4   4
#     4   9  18  31  50  79 107 130 166 213 256 306
#     4  10  21  35  51  74 104 137 172 213 260 310
#     4  10  19  33  55  79 105 138 173 213 261 310
#     4   9  18  32  52  76  99 128 170 217 259 304
#     4  10  19  33  54  78 103 132 170 215 262 311
#     4   9  17  32  53  75 100 133 174 215 259 310
#     4  10  21  36  52  73 104 139 174 211 256 311
#     4   9  17  30  51  78 106 135 167 209 259 306
#
# _framework density 17.981480000000001
#
# number of rings (size 3 to 8) (size 9 to 14) (size 15 to 20)
#    0.000    2.500    0.000    2.250    0.000    7.000 
#    0.000    3.750    0.000    3.000    0.000    0.000 
#    0.000    0.000    0.000    0.000    0.000    0.000 
#
# Total GULP energy -178419.062833 kJ/mol
# GULP energy per Si atom -5575.595714 kJ/mol
# Density = 1.794055 g / cm^3
# Si number density = 17.981480 Si / 1000 Ang^3
#
#
#
# Elastic Constant Matrix: (Units=GPa)
#
#
# Indices 1 2 3 4 5 6 
#
# 1 61.0174 50.2519 23.7824 0.0000 0.0000 0.0000
# 2 50.2519 134.1338 25.9058 0.0000 0.0000 0.0000
# 3 23.7824 25.9058 57.6760 0.0000 0.0000 0.0000
# 4 0.0000 0.0000 0.0000 17.1324 0.0000 0.0000
# 5 0.0000 0.0000 0.0000 0.0000 13.5610 0.0000
# 6 0.0000 0.0000 0.0000 0.0000 0.0000 1.4187
#
#
#
# Elastic Compliance Matrix: (Units=1/GPa)
#
#
# Indices 1 2 3 4 5 6 
#
# 1 0.026022 -0.008406 -0.006955 0.000000 0.000000 0.000000
# 2 -0.008406 0.010879 -0.001420 0.000000 0.000000 0.000000
# 3 -0.006955 -0.001420 0.020844 0.000000 0.000000 0.000000
# 4 0.000000 0.000000 0.000000 0.058369 0.000000 0.000000
# 5 0.000000 0.000000 0.000000 0.000000 0.073741 0.000000
# 6 0.000000 0.000000 0.000000 0.000000 0.000000 0.704884
#
#
# Mechanical properties :
#
#
# Convention : Reuss Voigt Hill
#
# Bulk Modulus (GPa) = 41.35040 50.30084 45.82562
# Shear Modulus (GPa) = 5.33982 16.61488 10.97735
#
# Velocity S-wave (km/s) = 1.72513 3.04303 2.47347
# Velocity P-wave (km/s) = 5.19751 6.35462 5.80497
#
# Compressibility (1/GPa) = 0.02418356
#
# Stress axis : x y z
#
# Youngs Moduli (GPa) = 38.42886 91.92293 47.97595
#
# Poissons Ratio (x) = 0.77268 0.33365
# Poissons Ratio (y) = 0.32302 0.06814
# Poissons Ratio (z) = 0.26725 0.13055
#
# Static dielectric constant tensor:
#      x y z
#    x 1.608610 0.000000 0.000000 
#    y 0.000000 1.588560 0.000000 
#    z 0.000000 0.000000 1.627190 
# 
# From -- ./inp_files/4140.got.cif
#   From: 2010.05.17/outbox.cif.g08.bks.cpg/sg26_3_cif.got.tgz:4140.got - 2010.06.04 01:07:29.
