data_PCOD9338168
_publ_section_title
;
Structure prediction by ZEFSAII (Michael W. Deem and Ramdas Pophale) SiO2 
 PCOD9338168
Probable space group: P M C 21
;
_chemical_formula_sum "Si O2"
_cell_formula_units_Z 22
_cell_length_a 9.810977
_cell_length_b 13.923123
_cell_length_c 7.486025
_cell_angle_alpha 90.000000
_cell_angle_beta 90.000000
_cell_angle_gamma 90.000000
_cell_volume 1022.586819
_symmetry_space_group_name_H-M "P M C 21"
_symmetry_group_IT_number 26
_symmetry_cell_setting 'orthorhombic'
loop_
_space_group_symop_operation_xyz
x,y,z
-x,-y,1/2+z
-x,y,z
x,-y,1/2+z
loop_
_atom_site_type_symbol
_atom_site_label
_atom_site_fract_x
_atom_site_fract_y
_atom_site_fract_z
Si Si1 0.000000 0.413183 0.745220
Si Si2 0.843834 0.872850 0.228870
Si Si3 0.288413 0.723211 0.731331
Si Si4 0.157372 0.908966 0.807683
Si Si5 0.500000 0.340086 0.541634
Si Si6 0.000000 0.366478 0.329038
Si Si7 0.717930 0.677054 0.343151
O O1 0.000000 0.374252 0.543382
O O2 0.137122 0.376009 0.837339
O O3 0.000000 0.527471 0.748083
O O4 0.747467 0.788020 0.291938
O O5 0.000000 0.852489 0.286721
O O6 0.806500 0.978981 0.295713
O O7 0.843434 0.878103 0.014421
O O8 0.264423 0.838139 0.714623
O O9 0.335925 0.677928 0.544853
O O10 0.135534 0.687003 0.769184
O O11 0.382213 0.692379 0.894919
O O12 0.000000 0.901210 0.739012
O O13 0.381694 0.363594 0.693507
#
# Coordination Sequence:
#
# PCOD9338168 Si02
#       7
#     2   4   4   4   2   2   4
#     4  12  24  46  77 109 136 168 229 295 340 398
#     4  10  19  34  61  98 133 172 226 290 340 387
#     4  12  24  44  71 101 137 183 227 284 342 402
#     4  10  19  34  61  98 133 172 226 290 340 387
#     4  12  26  46  68  94 148 188 226 264 344 416
#     4  12  24  46  77 109 136 168 229 295 340 398
#     4  12  24  44  71 101 137 183 227 284 342 402
#
# _framework density 21.514066
#
# number of rings (size 3 to 8) (size 9 to 14) (size 15 to 20)
#    0.000    0.727    5.455    3.273    0.000    1.455 
#    0.000    1.818    0.000    0.000    0.000    0.000 
#    0.000    0.000    0.000    0.000    0.000    0.000 
#
# Total GULP energy -122568.983999 kJ/mol
# GULP energy per Si atom -5571.317455 kJ/mol
# Density = 2.146510 g / cm^3
# Si number density = 21.514066 Si / 1000 Ang^3
#
#
#
# Elastic Constant Matrix: (Units=GPa)
#
#
# Indices 1 2 3 4 5 6 
#
# 1 118.1467 13.0830 14.3838 0.0000 0.0000 0.0000
# 2 13.0830 53.5936 -12.4784 0.0000 0.0000 0.0000
# 3 14.3838 -12.4784 64.4605 0.0000 0.0000 0.0000
# 4 0.0000 0.0000 0.0000 20.2733 0.0000 0.0000
# 5 0.0000 0.0000 0.0000 0.0000 -5.9634 0.0000
# 6 0.0000 0.0000 0.0000 0.0000 0.0000 -0.8646
#
#
#
# Elastic Compliance Matrix: (Units=1/GPa)
#
#
# Indices 1 2 3 4 5 6 
#
# 1 0.009089 -0.002818 -0.002574 0.000000 0.000000 0.000000
# 2 -0.002818 0.020413 0.004581 0.000000 0.000000 0.000000
# 3 -0.002574 0.004581 0.016974 0.000000 0.000000 0.000000
# 4 0.000000 0.000000 0.000000 0.049326 0.000000 0.000000
# 5 0.000000 0.000000 0.000000 0.000000 -0.167690 0.000000
# 6 0.000000 0.000000 0.000000 0.000000 0.000000 -1.156649
#
#
# Mechanical properties :
#
#
# Convention : Reuss Voigt Hill
#
# Bulk Modulus (GPa) = 22.29430 29.57527 25.93479
# Shear Modulus (GPa) = -4.12555 17.43657 6.65551
#
# Velocity S-wave (km/s) = -1.38628 2.84997 1.76076
# Velocity P-wave (km/s) = 2.79693 4.96050 4.02675
#
# Compressibility (1/GPa) = 0.04485451
#
# Stress axis : x y z
#
# Youngs Moduli (GPa) = 110.01752 48.98740 58.91223
#
# Poissons Ratio (x) = 0.13805 0.15163
# Poissons Ratio (y) = 0.31004 -0.26985
# Poissons Ratio (z) = 0.28316 -0.22439
#
# Static dielectric constant tensor:
#      x y z
#    x 1.739250 0.000000 0.000000 
#    y 0.000000 1.821250 0.000000 
#    z 0.000000 0.000000 1.809870 
# 
# From -- ./inp_files/1465.got.cif
#   From: 2010.05.17/outbox.cif.g08.bks.cpg/sg26_1_cif.got.tgz:1465.got - 2010.06.04 01:07:29.
