data_PCOD9338920
_publ_section_title
;
Structure prediction by ZEFSAII (Michael W. Deem and Ramdas Pophale) SiO2 
 PCOD9338920
Probable space group: P C C 2
;
_chemical_formula_sum "Si O2"
_cell_formula_units_Z 24
_cell_length_a 6.030444
_cell_length_b 14.829653
_cell_length_c 11.880495
_cell_angle_alpha 90.000000
_cell_angle_beta 90.000000
_cell_angle_gamma 90.000000
_cell_volume 1062.465444
_symmetry_space_group_name_H-M "P C C 2"
_symmetry_group_IT_number 27
_symmetry_cell_setting 'orthorhombic'
loop_
_space_group_symop_operation_xyz
x,y,z
-x,-y,z
-x,y,1/2+z
x,-y,1/2+z
loop_
_atom_site_type_symbol
_atom_site_label
_atom_site_fract_x
_atom_site_fract_y
_atom_site_fract_z
Si Si1 0.022442 0.334434 0.367410
Si Si2 0.258607 0.836452 0.863662
Si Si3 0.635362 0.257826 0.212482
Si Si4 0.000000 0.500000 0.033530
Si Si5 0.500000 0.000000 0.859284
Si Si6 0.360574 0.423038 0.193472
Si Si7 0.879547 0.915680 0.700618
O O1 0.800010 0.304072 0.303334
O O2 0.003031 0.411477 0.458135
O O3 0.136259 0.246523 0.421461
O O4 0.182605 0.374884 0.272160
O O5 0.442908 0.792072 0.782794
O O6 0.069577 0.879213 0.784426
O O7 0.383047 0.918588 0.926015
O O8 0.515474 0.340958 0.148626
O O9 0.771145 0.176611 0.152358
O O10 0.219991 0.482810 0.106584
O O11 0.313367 0.041506 0.777706
O O12 0.500000 0.500000 0.258167
O O13 0.000000 0.000000 0.636023
#
# Coordination Sequence:
#
# PCOD9338920 Si02
#       7
#     4   4   4   2   2   4   4
#     4  10  21  38  55  77 112 149 187 239 294 347
#     4   8  15  26  47  75 109 141 176 224 280 337
#     4   9  17  32  52  74 109 145 178 231 290 338
#     4  12  24  36  54  78 108 148 200 242 284 350
#     4   8  12  22  42  74 112 140 172 222 274 340
#     4  11  23  38  55  77 108 148 191 237 290 342
#     4   8  13  23  43  75 111 139 173 222 276 341
#
# _framework density 22.588968999999999
#
# number of rings (size 3 to 8) (size 9 to 14) (size 15 to 20)
#    0.000    2.667    0.000    2.500    0.000    3.333 
#    0.000    0.000    0.000    0.000    0.000    0.000 
#    0.000 1380.000    0.000    0.000    0.000   26.333 
#
# Total GULP energy -133690.788728 kJ/mol
# GULP energy per Si atom -5570.449530 kJ/mol
# Density = 2.253756 g / cm^3
# Si number density = 22.588969 Si / 1000 Ang^3
#
#
#
# Elastic Constant Matrix: (Units=GPa)
#
#
# Indices 1 2 3 4 5 6 
#
# 1 138.1951 73.6361 24.3651 0.0000 0.0000 0.0000
# 2 73.6361 161.0154 26.4495 0.0000 0.0000 0.0000
# 3 24.3651 26.4495 36.6187 0.0000 0.0000 0.0000
# 4 0.0000 0.0000 0.0000 87.7630 0.0000 0.0000
# 5 0.0000 0.0000 0.0000 0.0000 4.1429 0.0000
# 6 0.0000 0.0000 0.0000 0.0000 0.0000 83.4866
#
#
#
# Elastic Compliance Matrix: (Units=1/GPa)
#
#
# Indices 1 2 3 4 5 6 
#
# 1 0.010014 -0.003954 -0.003807 0.000000 0.000000 0.000000
# 2 -0.003954 0.008608 -0.003586 0.000000 0.000000 0.000000
# 3 -0.003807 -0.003586 0.032432 0.000000 0.000000 0.000000
# 4 0.000000 0.000000 0.000000 0.011394 0.000000 0.000000
# 5 0.000000 0.000000 0.000000 0.000000 0.241377 0.000000
# 6 0.000000 0.000000 0.000000 0.000000 0.000000 0.011978
#
#
# Mechanical properties :
#
#
# Convention : Reuss Voigt Hill
#
# Bulk Modulus (GPa) = 35.26254 64.97006 50.11630
# Shear Modulus (GPa) = 14.36976 49.17041 31.77008
#
# Velocity S-wave (km/s) = 2.52492 4.67062 3.75433
# Velocity P-wave (km/s) = 4.91372 7.60990 6.40528
#
# Compressibility (1/GPa) = 0.02835871
#
# Stress axis : x y z
#
# Youngs Moduli (GPa) = 99.85542 116.16838 30.83376
#
# Poissons Ratio (x) = 0.45939 0.11739
# Poissons Ratio (y) = 0.39488 0.11058
# Poissons Ratio (z) = 0.38015 0.41663
#
# Static dielectric constant tensor:
#      x y z
#    x 1.851040 0.000000 0.000000 
#    y 0.000000 1.875760 0.000000 
#    z 0.000000 0.000000 1.772180 
# 
# From -- ./inp_files/3058.got.cif
#   From: 2010.05.17/outbox.cif.g08.bks.cpg/sg27_2_cif.got.tgz:3058.got - 2010.06.04 01:11:05.
