data_PCOD9338079
_publ_section_title
;
Structure prediction by ZEFSAII (Michael W. Deem and Ramdas Pophale) SiO2 
 PCOD9338079
Probable space group: P M C 21
;
_chemical_formula_sum "Si O2"
_cell_formula_units_Z 20
_cell_length_a 28.034645
_cell_length_b 5.333402
_cell_length_c 5.020383
_cell_angle_alpha 90.000000
_cell_angle_beta 90.000000
_cell_angle_gamma 90.000000
_cell_volume 750.647825
_symmetry_space_group_name_H-M "P M C 21"
_symmetry_group_IT_number 26
_symmetry_cell_setting 'orthorhombic'
loop_
_space_group_symop_operation_xyz
x,y,z
-x,-y,1/2+z
-x,y,z
x,-y,1/2+z
loop_
_atom_site_type_symbol
_atom_site_label
_atom_site_fract_x
_atom_site_fract_y
_atom_site_fract_z
Si Si1 0.097473 0.156548 0.548420
Si Si2 0.397199 0.659831 0.910794
Si Si3 0.500000 0.874764 0.867893
Si Si4 0.299868 0.320590 0.559802
Si Si5 0.797685 0.656303 0.909256
Si Si6 0.000000 0.820819 0.897642
O O1 0.149886 0.250269 0.478890
O O2 0.050444 0.310072 0.459357
O O3 0.094333 0.911257 0.357496
O O4 0.394159 0.580930 0.604815
O O5 0.449637 0.764764 0.960737
O O6 0.350001 0.813478 0.996914
O O7 0.500000 0.873001 0.547886
O O8 0.299992 0.447037 0.847986
O O9 0.249335 0.190391 0.498586
O O10 0.794514 0.589099 0.600022
O O11 0.000000 0.053019 0.109483
#
# Coordination Sequence:
#
# PCOD9338079 Si02
#       6
#     4   4   2   4   4   2
#     4  10  19  33  51  72  96 130 169 203 239 292
#     4  10  19  36  58  75  93 133 180 202 223 292
#     4  12  24  36  50  78 112 132 152 206 268 290
#     4   8  16  30  51  73  95 125 165 202 236 282
#     4  10  19  33  51  75 103 129 157 203 255 292
#     4   8  16  30  48  66  92 128 166 200 236 284
#
# _framework density 26.643650999999998
#
# number of rings (size 3 to 8) (size 9 to 14) (size 15 to 20)
#    0.000    2.400    0.000    3.000    0.000    0.000 
#    0.000    3.000    0.000    0.000    0.000    0.000 
#    0.000    0.000    0.000    0.000    0.000    0.000 
#
# Total GULP energy -111663.738470 kJ/mol
# GULP energy per Si atom -5583.186924 kJ/mol
# Density = 2.658301 g / cm^3
# Si number density = 26.643651 Si / 1000 Ang^3
#
#
#
# Elastic Constant Matrix: (Units=GPa)
#
#
# Indices 1 2 3 4 5 6 
#
# 1 315.8481 22.2930 19.6276 0.0000 0.0000 0.0000
# 2 22.2930 30.1079 19.8617 0.0000 0.0000 0.0000
# 3 19.6276 19.8617 124.5810 0.0000 0.0000 0.0000
# 4 0.0000 0.0000 0.0000 34.0280 0.0000 0.0000
# 5 0.0000 0.0000 0.0000 0.0000 51.1513 0.0000
# 6 0.0000 0.0000 0.0000 0.0000 0.0000 18.2505
#
#
#
# Elastic Compliance Matrix: (Units=1/GPa)
#
#
# Indices 1 2 3 4 5 6 
#
# 1 0.003343 -0.002378 -0.000148 0.000000 0.000000 0.000000
# 2 -0.002378 0.038809 -0.005813 0.000000 0.000000 0.000000
# 3 -0.000148 -0.005813 0.008977 0.000000 0.000000 0.000000
# 4 0.000000 0.000000 0.000000 0.029388 0.000000 0.000000
# 5 0.000000 0.000000 0.000000 0.000000 0.019550 0.000000
# 6 0.000000 0.000000 0.000000 0.000000 0.000000 0.054793
#
#
# Mechanical properties :
#
#
# Convention : Reuss Voigt Hill
#
# Bulk Modulus (GPa) = 29.02529 66.01131 47.51830
# Shear Modulus (GPa) = 27.31939 47.93627 37.62783
#
# Velocity S-wave (km/s) = 3.20560 4.24626 3.76209
# Velocity P-wave (km/s) = 4.96172 6.99073 6.06173
#
# Compressibility (1/GPa) = 0.03445271
#
# Stress axis : x y z
#
# Youngs Moduli (GPa) = 299.12429 25.76710 111.39761
#
# Poissons Ratio (x) = 0.06127 0.01644
# Poissons Ratio (y) = 0.71132 0.64751
# Poissons Ratio (z) = 0.04415 0.14977
#
# Static dielectric constant tensor:
#      x y z
#    x 2.241360 0.000000 0.000000 
#    y 0.000000 2.208090 0.000000 
#    z 0.000000 0.000000 1.977430 
# 
# From -- ./inp_files/996.got.cif
#   From: 2010.05.17/outbox.cif.g08.bks.cpg/sg26_1_cif.got.tgz:996.got - 2010.06.04 01:07:29.
