data_PCOD9338970
_publ_section_title
;
Structure prediction by ZEFSAII (Michael W. Deem and Ramdas Pophale) SiO2 
 PCOD9338970
Probable space group: P C C 2
;
_chemical_formula_sum "Si O2"
_cell_formula_units_Z 16
_cell_length_a 17.644000
_cell_length_b 7.288332
_cell_length_c 5.309735
_cell_angle_alpha 90.000000
_cell_angle_beta 90.000000
_cell_angle_gamma 90.000000
_cell_volume 682.807124
_symmetry_space_group_name_H-M "P C C 2"
_symmetry_group_IT_number 27
_symmetry_cell_setting 'orthorhombic'
loop_
_space_group_symop_operation_xyz
x,y,z
-x,-y,z
-x,y,1/2+z
x,-y,1/2+z
loop_
_atom_site_type_symbol
_atom_site_label
_atom_site_fract_x
_atom_site_fract_y
_atom_site_fract_z
Si Si1 0.585300 0.070257 0.785130
Si Si2 0.030432 0.709190 0.562968
Si Si3 0.330005 0.387003 0.123226
Si Si4 0.813494 0.876355 0.183909
O O1 0.593307 0.273083 0.676870
O O2 0.500000 0.000000 0.824220
O O3 0.620652 0.945877 0.562871
O O4 0.115876 0.736315 0.653400
O O5 0.000000 0.500000 0.532051
O O6 0.020279 0.792790 0.286121
O O7 0.325084 0.537111 0.342534
O O8 0.262581 0.242656 0.167304
O O9 0.817150 0.016403 0.948339
#
# Coordination Sequence:
#
# PCOD9338970 Si02
#       4
#     4   4   4   4
#     4  10  21  43  70  97 137 183 215 276 337 397
#     4  10  23  40  66  93 134 177 222 281 351 389
#     4  12  26  43  71 102 140 178 232 279 340 405
#     4  12  26  44  70 100 134 183 231 280 344 408
#
# _framework density 23.432676000000001
#
# number of rings (size 3 to 8) (size 9 to 14) (size 15 to 20)
#    0.000    1.000    0.000    6.000    7.000    3.000 
#    0.000   15.000    0.000    0.000    0.000    0.000 
#    0.000    0.000    0.000    0.000    0.000    0.000 
#
# Total GULP energy -89422.949543 kJ/mol
# GULP energy per Si atom -5588.934346 kJ/mol
# Density = 2.337934 g / cm^3
# Si number density = 23.432676 Si / 1000 Ang^3
#
#
#
# Elastic Constant Matrix: (Units=GPa)
#
#
# Indices 1 2 3 4 5 6 
#
# 1 93.3525 30.9897 -14.4293 0.0000 0.0000 0.0000
# 2 30.9897 85.8343 7.7165 0.0000 0.0000 0.0000
# 3 -14.4293 7.7165 154.2374 0.0000 0.0000 0.0000
# 4 0.0000 0.0000 0.0000 41.9549 0.0000 0.0000
# 5 0.0000 0.0000 0.0000 0.0000 22.1035 0.0000
# 6 0.0000 0.0000 0.0000 0.0000 0.0000 57.5219
#
#
#
# Elastic Compliance Matrix: (Units=1/GPa)
#
#
# Indices 1 2 3 4 5 6 
#
# 1 0.012464 -0.004625 0.001397 0.000000 0.000000 0.000000
# 2 -0.004625 0.013420 -0.001104 0.000000 0.000000 0.000000
# 3 0.001397 -0.001104 0.006669 0.000000 0.000000 0.000000
# 4 0.000000 0.000000 0.000000 0.023835 0.000000 0.000000
# 5 0.000000 0.000000 0.000000 0.000000 0.045242 0.000000
# 6 0.000000 0.000000 0.000000 0.000000 0.000000 0.017385
#
#
# Mechanical properties :
#
#
# Convention : Reuss Voigt Hill
#
# Bulk Modulus (GPa) = 41.86151 42.44200 42.15176
# Shear Modulus (GPa) = 36.86195 44.92589 40.89392
#
# Velocity S-wave (km/s) = 3.97054 4.38337 4.18205
# Velocity P-wave (km/s) = 6.23888 6.61591 6.43016
#
# Compressibility (1/GPa) = 0.02388829
#
# Stress axis : x y z
#
# Youngs Moduli (GPa) = 80.23385 74.51786 149.93675
#
# Poissons Ratio (x) = 0.34468 -0.20952
# Poissons Ratio (y) = 0.37112 0.16555
# Poissons Ratio (z) = -0.11212 0.08228
#
# Static dielectric constant tensor:
#      x y z
#    x 1.982200 0.000000 0.000000 
#    y 0.000000 1.750140 0.000000 
#    z 0.000000 0.000000 1.945870 
# 
# From -- ./inp_files/601.got.cif
#   From: 2010.05.17/outbox.cif.g08.bks.cpg/sg27_1_cif.got.tgz:601.got - 2010.06.04 01:11:05.
