data_PCOD9338646
_publ_section_title
;
Structure prediction by ZEFSAII (Michael W. Deem and Ramdas Pophale) SiO2 
 PCOD9338646
Probable space group: P M C 21
;
_chemical_formula_sum "Si O2"
_cell_formula_units_Z 16
_cell_length_a 12.604622
_cell_length_b 5.446678
_cell_length_c 9.071412
_cell_angle_alpha 90.000000
_cell_angle_beta 90.000000
_cell_angle_gamma 90.000000
_cell_volume 622.782527
_symmetry_space_group_name_H-M "P M C 21"
_symmetry_group_IT_number 26
_symmetry_cell_setting 'orthorhombic'
loop_
_space_group_symop_operation_xyz
x,y,z
-x,-y,1/2+z
-x,y,z
x,-y,1/2+z
loop_
_atom_site_type_symbol
_atom_site_label
_atom_site_fract_x
_atom_site_fract_y
_atom_site_fract_z
Si Si1 0.000000 0.288113 0.838430
Si Si2 0.680344 0.817963 0.780012
Si Si3 0.000000 0.210150 0.383526
Si Si4 0.500000 0.001804 0.581510
Si Si5 0.500000 0.502732 0.893418
Si Si6 0.180073 0.065576 0.015783
O O1 0.000000 0.556579 0.780482
O O2 0.000000 0.019614 0.770767
O O3 0.108619 0.268614 0.933251
O O4 0.597671 0.982624 0.692017
O O5 0.611877 0.568259 0.808979
O O6 0.719812 0.963644 0.923394
O O7 0.780095 0.820835 0.668558
O O8 0.899905 0.167055 0.492070
O O9 0.500000 0.756639 0.477533
O O10 0.500000 0.262160 0.502766
#
# Coordination Sequence:
#
# PCOD9338646 Si02
#       6
#     2   4   2   2   2   4
#     4   8  20  42  64 100 145 177 234 290 356 417
#     4  11  22  47  72 106 140 189 244 289 366 432
#     4   8  20  42  64 100 145 177 234 290 356 417
#     4  11  26  48  67 103 142 184 230 301 353 422
#     4  11  26  48  67 103 142 184 230 301 353 422
#     4   9  22  41  72 102 140 189 236 293 356 430
#
# _framework density 25.691153
#
# number of rings (size 3 to 8) (size 9 to 14) (size 15 to 20)
#    1.500    0.500    2.500    0.000    0.000   10.000 
#    9.000    2.500    0.000    0.000    0.000    0.000 
#    0.000    0.000    0.000    0.000    0.000    0.000 
#
# Total GULP energy -89085.824042 kJ/mol
# GULP energy per Si atom -5567.864003 kJ/mol
# Density = 2.563268 g / cm^3
# Si number density = 25.691153 Si / 1000 Ang^3
#
#
#
# Elastic Constant Matrix: (Units=GPa)
#
#
# Indices 1 2 3 4 5 6 
#
# 1 146.2067 26.3097 39.8604 0.0000 0.0000 0.0000
# 2 26.3097 187.6670 33.8621 0.0000 0.0000 0.0000
# 3 39.8604 33.8621 85.0490 0.0000 0.0000 0.0000
# 4 0.0000 0.0000 0.0000 28.5000 0.0000 0.0000
# 5 0.0000 0.0000 0.0000 0.0000 41.1929 0.0000
# 6 0.0000 0.0000 0.0000 0.0000 0.0000 -26.3502
#
#
#
# Elastic Compliance Matrix: (Units=1/GPa)
#
#
# Indices 1 2 3 4 5 6 
#
# 1 0.007880 -0.000472 -0.003505 0.000000 0.000000 0.000000
# 2 -0.000472 0.005769 -0.002076 0.000000 0.000000 0.000000
# 3 -0.003505 -0.002076 0.014227 0.000000 0.000000 0.000000
# 4 0.000000 0.000000 0.000000 0.035088 0.000000 0.000000
# 5 0.000000 0.000000 0.000000 0.000000 0.024276 0.000000
# 6 0.000000 0.000000 0.000000 0.000000 0.000000 -0.037950
#
#
# Mechanical properties :
#
#
# Convention : Reuss Voigt Hill
#
# Bulk Modulus (GPa) = 63.41026 68.77634 66.09330
# Shear Modulus (GPa) = 75.01494 29.92790 52.47142
#
# Velocity S-wave (km/s) = 5.40945 3.41678 4.52419
# Velocity P-wave (km/s) = 7.98445 6.51110 7.28512
#
# Compressibility (1/GPa) = 0.01577032
#
# Stress axis : x y z
#
# Youngs Moduli (GPa) = 126.89942 173.33024 70.28791
#
# Poissons Ratio (x) = 0.08186 0.24638
# Poissons Ratio (y) = 0.05993 0.14590
# Poissons Ratio (z) = 0.44481 0.35978
#
# Static dielectric constant tensor:
#      x y z
#    x 2.148700 0.000000 0.000000 
#    y 0.000000 1.982370 0.000000 
#    z 0.000000 0.000000 2.092460 
# 
# From -- ./inp_files/3407.got.cif
#   From: 2010.05.17/outbox.cif.g08.bks.cpg/sg26_2_cif.got.tgz:3407.got - 2010.06.04 01:07:29.
