data_PCOD9338518
_publ_section_title
;
Structure prediction by ZEFSAII (Michael W. Deem and Ramdas Pophale) SiO2 
 PCOD9338518
Probable space group: P M C 21
;
_chemical_formula_sum "Si O2"
_cell_formula_units_Z 32
_cell_length_a 22.291736
_cell_length_b 5.257088
_cell_length_c 12.507397
_cell_angle_alpha 90.000000
_cell_angle_beta 90.000000
_cell_angle_gamma 90.000000
_cell_volume 1465.737074
_symmetry_space_group_name_H-M "P M C 21"
_symmetry_group_IT_number 26
_symmetry_cell_setting 'orthorhombic'
loop_
_space_group_symop_operation_xyz
x,y,z
-x,-y,1/2+z
-x,y,z
x,-y,1/2+z
loop_
_atom_site_type_symbol
_atom_site_label
_atom_site_fract_x
_atom_site_fract_y
_atom_site_fract_z
Si Si1 0.849588 0.709705 0.300590
Si Si2 0.349649 0.790056 0.417172
Si Si3 0.429052 0.044599 0.731544
Si Si4 0.236044 0.958490 0.949523
Si Si5 0.264029 0.541766 0.768116
Si Si6 0.125156 0.951782 0.092267
Si Si7 0.070950 0.454815 0.986211
Si Si8 0.374910 0.547587 0.625418
O O1 0.802552 0.539843 0.234348
O O2 0.876416 0.913061 0.219305
O O3 0.898773 0.562257 0.368881
O O4 0.805567 0.838295 0.387123
O O5 0.398766 0.937833 0.348845
O O6 0.305644 0.661162 0.330691
O O7 0.376564 0.586807 0.498413
O O8 0.302598 0.959850 0.483423
O O9 0.500000 0.077784 0.737823
O O10 0.400500 0.276946 0.663299
O O11 0.412731 0.774920 0.679350
O O12 0.250066 0.750400 0.858720
O O13 0.193127 0.904283 0.049269
O O14 0.306911 0.595136 0.668245
O O15 0.087296 0.724283 0.038563
O O16 0.099510 0.222265 0.054310
O O17 0.000000 0.421691 0.979925
#
# Coordination Sequence:
#
# PCOD9338518 Si02
#       8
#     4   4   4   4   4   4   4   4
#     4  10  24  40  65  95 131 170 211 262 330 381
#     4  10  24  40  65  95 131 170 211 262 330 381
#     4  11  25  45  63  92 129 169 226 273 309 379
#     4  10  21  39  62  98 131 162 205 265 320 391
#     4  10  21  39  62  98 131 162 205 265 320 391
#     4  11  25  41  68  96 129 171 215 264 329 386
#     4  11  25  45  63  92 129 169 226 273 309 379
#     4  11  25  41  68  96 129 171 215 264 329 386
#
# _framework density 21.832021000000001
#
# number of rings (size 3 to 8) (size 9 to 14) (size 15 to 20)
#    0.000    1.500    2.500    0.750    7.000    2.000 
#    0.000    0.000    0.000    0.000    0.000    0.000 
#    0.000    0.000    0.000    0.000    0.000    0.000 
#
# Total GULP energy -178677.632938 kJ/mol
# GULP energy per Si atom -5583.676029 kJ/mol
# Density = 2.178233 g / cm^3
# Si number density = 21.832021 Si / 1000 Ang^3
#
#
#
# Elastic Constant Matrix: (Units=GPa)
#
#
# Indices 1 2 3 4 5 6 
#
# 1 104.4781 5.1301 14.2729 0.0000 0.0000 0.0000
# 2 5.1301 54.8549 -11.2328 0.0000 0.0000 0.0000
# 3 14.2729 -11.2328 65.4571 0.0000 0.0000 0.0000
# 4 0.0000 0.0000 0.0000 30.3906 0.0000 0.0000
# 5 0.0000 0.0000 0.0000 0.0000 8.8724 0.0000
# 6 0.0000 0.0000 0.0000 0.0000 0.0000 29.4601
#
#
#
# Elastic Compliance Matrix: (Units=1/GPa)
#
#
# Indices 1 2 3 4 5 6 
#
# 1 0.009972 -0.001428 -0.002419 0.000000 0.000000 0.000000
# 2 -0.001428 0.019098 0.003589 0.000000 0.000000 0.000000
# 3 -0.002419 0.003589 0.016421 0.000000 0.000000 0.000000
# 4 0.000000 0.000000 0.000000 0.032905 0.000000 0.000000
# 5 0.000000 0.000000 0.000000 0.000000 0.112709 0.000000
# 6 0.000000 0.000000 0.000000 0.000000 0.000000 0.033944
#
#
# Mechanical properties :
#
#
# Convention : Reuss Voigt Hill
#
# Bulk Modulus (GPa) = 22.23529 26.79226 24.51378
# Shear Modulus (GPa) = 20.78504 28.18594 24.48549
#
# Velocity S-wave (km/s) = 3.08887 3.59700 3.35257
# Velocity P-wave (km/s) = 4.78835 5.43598 5.12241
#
# Compressibility (1/GPa) = 0.04497355
#
# Stress axis : x y z
#
# Youngs Moduli (GPa) = 100.28057 52.36056 60.89912
#
# Poissons Ratio (x) = 0.07477 0.14734
# Poissons Ratio (y) = 0.14320 -0.21855
# Poissons Ratio (z) = 0.24262 -0.18791
#
# Static dielectric constant tensor:
#      x y z
#    x 1.783110 0.000000 0.000000 
#    y 0.000000 1.666950 0.000000 
#    z 0.000000 0.000000 1.869810 
# 
# From -- ./inp_files/3727.got.cif
#   From: 2010.05.17/outbox.cif.g08.bks.cpg/sg26_2_cif.got.tgz:3727.got - 2010.06.04 01:07:29.
