data_PCOD9338890
_publ_section_title
;
Structure prediction by ZEFSAII (Michael W. Deem and Ramdas Pophale) SiO2 
 PCOD9338890
Probable space group: P C C 2
;
_chemical_formula_sum "Si O2"
_cell_formula_units_Z 32
_cell_length_a 11.106098
_cell_length_b 15.967151
_cell_length_c 8.844415
_cell_angle_alpha 90.000000
_cell_angle_beta 90.000000
_cell_angle_gamma 90.000000
_cell_volume 1568.404379
_symmetry_space_group_name_H-M "P C C 2"
_symmetry_group_IT_number 27
_symmetry_cell_setting 'orthorhombic'
loop_
_space_group_symop_operation_xyz
x,y,z
-x,-y,z
-x,y,1/2+z
x,-y,1/2+z
loop_
_atom_site_type_symbol
_atom_site_label
_atom_site_fract_x
_atom_site_fract_y
_atom_site_fract_z
Si Si1 0.759886 0.195774 0.609610
Si Si2 0.690965 0.504449 0.755113
Si Si3 0.561918 0.389738 0.001473
Si Si4 0.729099 0.619534 0.007228
Si Si5 0.123221 0.951142 0.480366
Si Si6 0.325318 0.790229 0.944963
Si Si7 0.746872 0.082379 0.176897
Si Si8 0.446458 0.910046 0.434748
O O1 0.768151 0.285128 0.527199
O O2 0.870450 0.134704 0.573142
O O3 0.745216 0.211249 0.787259
O O4 0.645157 0.143081 0.542185
O O5 0.608464 0.562314 0.649012
O O6 0.765875 0.568777 0.858003
O O7 0.761504 0.439717 0.648610
O O8 0.611820 0.446399 0.865408
O O9 0.418235 0.379389 0.003298
O O10 0.623478 0.299879 0.987495
O O11 0.154162 0.930037 0.307362
O O12 0.225893 0.011553 0.552269
O O13 0.000000 0.000000 0.492155
O O14 0.438580 0.850938 0.915502
O O15 0.254255 0.831510 0.084390
O O16 0.624617 0.077293 0.275914
O O17 0.500000 0.000000 0.484089
#
# Coordination Sequence:
#
# PCOD9338890 Si02
#       8
#     4   4   4   4   4   4   4   4
#     4  11  23  36  58  88 119 162 216 260 315 384
#     4  10  21  32  50  76 119 180 229 257 299 351
#     4  11  20  32  50  77 123 177 222 261 286 354
#     4  11  19  33  50  81 119 171 223 256 301 358
#     4  11  24  46  68  87 114 153 205 281 338 379
#     4  12  23  35  55  89 130 168 209 256 297 371
#     4  11  25  40  62  90 115 161 209 252 316 391
#     4  11  23  38  55  81 124 171 207 246 307 371
#
# _framework density 20.402901
#
# number of rings (size 3 to 8) (size 9 to 14) (size 15 to 20)
#    0.000    1.000    2.500    7.125    3.500    2.000 
#    0.000    0.625    0.000    0.000    0.000    0.000 
#    0.000    6.000    0.000    0.125    0.000    0.000 
#
# Total GULP energy -178841.091011 kJ/mol
# GULP energy per Si atom -5588.784094 kJ/mol
# Density = 2.035646 g / cm^3
# Si number density = 20.402901 Si / 1000 Ang^3
#
#
#
# Elastic Constant Matrix: (Units=GPa)
#
#
# Indices 1 2 3 4 5 6 
#
# 1 41.2351 36.2779 15.0911 0.0000 0.0000 0.0000
# 2 36.2779 198.8315 56.2591 0.0000 0.0000 0.0000
# 3 15.0911 56.2591 113.9117 0.0000 0.0000 0.0000
# 4 0.0000 0.0000 0.0000 26.5637 0.0000 0.0000
# 5 0.0000 0.0000 0.0000 0.0000 8.6064 0.0000
# 6 0.0000 0.0000 0.0000 0.0000 0.0000 27.3665
#
#
#
# Elastic Compliance Matrix: (Units=1/GPa)
#
#
# Indices 1 2 3 4 5 6 
#
# 1 0.029088 -0.004902 -0.001433 0.000000 0.000000 0.000000
# 2 -0.004902 0.006672 -0.002646 0.000000 0.000000 0.000000
# 3 -0.001433 -0.002646 0.010275 0.000000 0.000000 0.000000
# 4 0.000000 0.000000 0.000000 0.037645 0.000000 0.000000
# 5 0.000000 0.000000 0.000000 0.000000 0.116193 0.000000
# 6 0.000000 0.000000 0.000000 0.000000 0.000000 0.036541
#
#
# Mechanical properties :
#
#
# Convention : Reuss Voigt Hill
#
# Bulk Modulus (GPa) = 35.61915 63.24829 49.43372
# Shear Modulus (GPa) = 18.95846 28.93068 23.94457
#
# Velocity S-wave (km/s) = 3.05159 3.76968 3.42948
# Velocity P-wave (km/s) = 5.46919 7.07208 6.32164
#
# Compressibility (1/GPa) = 0.02807478
#
# Stress axis : x y z
#
# Youngs Moduli (GPa) = 34.37830 149.86997 97.32036
#
# Poissons Ratio (x) = 0.73465 0.13942
# Poissons Ratio (y) = 0.16852 0.25751
# Poissons Ratio (z) = 0.04925 0.39656
#
# Static dielectric constant tensor:
#      x y z
#    x 1.744110 0.000000 0.000000 
#    y 0.000000 1.726960 0.000000 
#    z 0.000000 0.000000 1.779310 
# 
# From -- ./inp_files/1472.got.cif
#   From: 2010.05.17/outbox.cif.g08.bks.cpg/sg27_1_cif.got.tgz:1472.got - 2010.06.04 01:11:05.
