data_PCOD9338344
_publ_section_title
;
Structure prediction by ZEFSAII (Michael W. Deem and Ramdas Pophale) SiO2 
 PCOD9338344
Probable space group: P M C 21
;
_chemical_formula_sum "Si O2"
_cell_formula_units_Z 32
_cell_length_a 7.803002
_cell_length_b 12.801677
_cell_length_c 14.571201
_cell_angle_alpha 90.000000
_cell_angle_beta 90.000000
_cell_angle_gamma 90.000000
_cell_volume 1455.539288
_symmetry_space_group_name_H-M "P M C 21"
_symmetry_group_IT_number 26
_symmetry_cell_setting 'orthorhombic'
loop_
_space_group_symop_operation_xyz
x,y,z
-x,-y,1/2+z
-x,y,z
x,-y,1/2+z
loop_
_atom_site_type_symbol
_atom_site_label
_atom_site_fract_x
_atom_site_fract_y
_atom_site_fract_z
Si Si1 0.210913 0.578828 0.417740
Si Si2 0.301058 0.065314 0.957131
Si Si3 0.298028 0.129594 0.232770
Si Si4 0.797592 0.618545 0.025753
Si Si5 0.697866 0.096525 0.736592
Si Si6 0.202650 0.334700 0.722359
Si Si7 0.807806 0.258229 0.066034
Si Si8 0.707589 0.165089 0.437611
O O1 0.266279 0.463910 0.450153
O O2 0.272086 0.620479 0.318835
O O3 0.270169 0.654606 0.500088
O O4 0.000000 0.584696 0.415041
O O5 0.500000 0.077867 0.986991
O O6 0.297744 0.081127 0.847278
O O7 0.245025 0.947637 0.978175
O O8 0.192985 0.154250 0.004282
O O9 0.500000 0.110156 0.245742
O O10 0.276796 0.220368 0.159405
O O11 0.230279 0.163013 0.332086
O O12 0.228817 0.015188 0.202131
O O13 0.724573 0.614243 0.129174
O O14 0.000000 0.597084 0.033330
O O15 0.774027 0.735660 0.990637
O O16 0.500000 0.105856 0.705675
O O17 0.778255 0.208924 0.716647
O O18 0.000000 0.356551 0.723483
O O19 0.000000 0.291934 0.088997
O O20 0.500000 0.169299 0.438191
#
# Coordination Sequence:
#
# PCOD9338344 Si02
#       8
#     4   4   4   4   4   4   4   4
#     4   9  20  39  57  79 115 154 189 232 286 338
#     4   9  18  34  55  79 111 150 184 225 284 340
#     4   9  20  37  55  80 117 157 188 226 285 342
#     4  10  22  38  59  84 110 148 194 235 287 340
#     4   9  18  34  56  80 109 149 190 225 276 340
#     4  10  20  36  57  81 111 146 185 237 285 329
#     4  11  21  33  55  86 114 149 193 233 276 331
#     4   9  20  39  58  79 113 151 187 231 285 338
#
# _framework density 21.984978000000002
#
# number of rings (size 3 to 8) (size 9 to 14) (size 15 to 20)
#    0.000    2.500    1.250    1.875    1.750    3.000 
#    0.000    6.875    0.000    0.000    0.000    0.000 
#    0.000    0.000    0.000    0.000    0.000    0.000 
#
# Total GULP energy -178547.876403 kJ/mol
# GULP energy per Si atom -5579.621138 kJ/mol
# Density = 2.193494 g / cm^3
# Si number density = 21.984978 Si / 1000 Ang^3
#
#
#
# Elastic Constant Matrix: (Units=GPa)
#
#
# Indices 1 2 3 4 5 6 
#
# 1 22.4425 -5.5265 0.9929 0.0000 0.0000 0.0000
# 2 -5.5265 85.9239 29.7917 0.0000 0.0000 0.0000
# 3 0.9929 29.7917 81.1692 0.0000 0.0000 0.0000
# 4 0.0000 0.0000 0.0000 23.1875 0.0000 0.0000
# 5 0.0000 0.0000 0.0000 0.0000 9.0456 0.0000
# 6 0.0000 0.0000 0.0000 0.0000 0.0000 16.5290
#
#
#
# Elastic Compliance Matrix: (Units=1/GPa)
#
#
# Indices 1 2 3 4 5 6 
#
# 1 0.045522 0.003576 -0.001869 0.000000 0.000000 0.000000
# 2 0.003576 0.013616 -0.005041 0.000000 0.000000 0.000000
# 3 -0.001869 -0.005041 0.014193 0.000000 0.000000 0.000000
# 4 0.000000 0.000000 0.000000 0.043127 0.000000 0.000000
# 5 0.000000 0.000000 0.000000 0.000000 0.110550 0.000000
# 6 0.000000 0.000000 0.000000 0.000000 0.000000 0.060500
#
#
# Mechanical properties :
#
#
# Convention : Reuss Voigt Hill
#
# Bulk Modulus (GPa) = 15.00113 26.67241 20.83677
# Shear Modulus (GPa) = 15.80291 20.70427 18.25359
#
# Velocity S-wave (km/s) = 2.68396 3.07212 2.88458
# Velocity P-wave (km/s) = 4.05500 4.97417 4.53792
#
# Compressibility (1/GPa) = 0.06666166
#
# Stress axis : x y z
#
# Youngs Moduli (GPa) = 21.96758 73.44218 70.45660
#
# Poissons Ratio (x) = -0.26263 0.13171
# Poissons Ratio (y) = -0.07856 0.35519
# Poissons Ratio (z) = 0.04107 0.37024
#
# Static dielectric constant tensor:
#      x y z
#    x 1.863190 0.000000 0.000000 
#    y 0.000000 1.785250 0.000000 
#    z 0.000000 0.000000 1.833260 
# 
# From -- ./inp_files/4176.got.cif
#   From: 2010.05.17/outbox.cif.g08.bks.cpg/sg26_3_cif.got.tgz:4176.got - 2010.06.04 01:07:29.
