data_PCOD9338023
_publ_section_title
;
Structure prediction by ZEFSAII (Michael W. Deem and Ramdas Pophale) SiO2 
 PCOD9338023
Probable space group: P M C 21
;
_chemical_formula_sum "Si O2"
_cell_formula_units_Z 32
_cell_length_a 11.191209
_cell_length_b 13.004428
_cell_length_c 12.283250
_cell_angle_alpha 90.000000
_cell_angle_beta 90.000000
_cell_angle_gamma 90.000000
_cell_volume 1787.646126
_symmetry_space_group_name_H-M "P M C 21"
_symmetry_group_IT_number 26
_symmetry_cell_setting 'orthorhombic'
loop_
_space_group_symop_operation_xyz
x,y,z
-x,-y,1/2+z
-x,y,z
x,-y,1/2+z
loop_
_atom_site_type_symbol
_atom_site_label
_atom_site_fract_x
_atom_site_fract_y
_atom_site_fract_z
Si Si1 0.360893 0.221752 0.867300
Si Si2 0.637923 0.509822 0.148727
Si Si3 0.788639 0.603381 0.467484
Si Si4 0.872435 0.737115 0.661554
Si Si5 0.643956 0.896586 0.150631
Si Si6 0.639714 0.134405 0.110939
Si Si7 0.207005 0.586124 0.838579
Si Si8 0.359029 0.291693 0.514470
O O1 0.500000 0.252852 0.849184
O O2 0.276130 0.319532 0.884329
O O3 0.321003 0.149650 0.767700
O O4 0.357786 0.161050 0.982344
O O5 0.500000 0.487134 0.164003
O O6 0.707783 0.473448 0.253982
O O7 0.686687 0.445996 0.045369
O O8 0.651449 0.629015 0.115932
O O9 0.865905 0.670631 0.550459
O O10 0.849306 0.505988 0.409545
O O11 0.746687 0.798886 0.663656
O O12 0.870668 0.658904 0.762563
O O13 0.000000 0.794974 0.662527
O O14 0.500000 0.890231 0.148306
O O15 0.671030 0.015526 0.132119
O O16 0.684533 0.819119 0.055631
O O17 0.500000 0.153698 0.146759
O O18 0.283424 0.658831 0.918135
O O19 0.500000 0.287698 0.485322
#
# Coordination Sequence:
#
# PCOD9338023 Si02
#       8
#     4   4   4   4   4   4   4   4
#     4   9  16  28  48  73 104 140 172 207 253 301
#     4   9  16  26  42  71 110 143 169 202 249 303
#     4   9  18  31  48  71  99 134 174 207 241 299
#     4  10  22  38  55  75 100 133 171 208 251 306
#     4   9  17  29  48  75 104 134 171 215 258 298
#     4   9  19  35  54  76 101 132 173 216 255 298
#     4  10  19  30  48  72 100 135 169 205 251 301
#     4   9  17  27  43  73 108 137 169 210 254 300
#
# _framework density 17.900634
#
# number of rings (size 3 to 8) (size 9 to 14) (size 15 to 20)
#    0.000    2.750    0.000    1.500    0.000    7.500 
#    0.000    2.500    0.000    6.750    0.000    0.000 
#    0.000    0.000    0.000    0.000    0.000    0.000 
#
# Total GULP energy -178240.163774 kJ/mol
# GULP energy per Si atom -5570.005118 kJ/mol
# Density = 1.785989 g / cm^3
# Si number density = 17.900634 Si / 1000 Ang^3
#
#
#
# Elastic Constant Matrix: (Units=GPa)
#
#
# Indices 1 2 3 4 5 6 
#
# 1 82.4530 43.1495 25.9922 0.0000 0.0000 0.0000
# 2 43.1495 105.1896 35.1520 0.0000 0.0000 0.0000
# 3 25.9922 35.1520 68.8212 0.0000 0.0000 0.0000
# 4 0.0000 0.0000 0.0000 24.2130 0.0000 0.0000
# 5 0.0000 0.0000 0.0000 0.0000 -17.7339 0.0000
# 6 0.0000 0.0000 0.0000 0.0000 0.0000 4.2278
#
#
#
# Elastic Compliance Matrix: (Units=1/GPa)
#
#
# Indices 1 2 3 4 5 6 
#
# 1 0.016024 -0.005487 -0.003249 0.000000 0.000000 0.000000
# 2 -0.005487 0.013342 -0.004742 0.000000 0.000000 0.000000
# 3 -0.003249 -0.004742 0.018180 0.000000 0.000000 0.000000
# 4 0.000000 0.000000 0.000000 0.041300 0.000000 0.000000
# 5 0.000000 0.000000 0.000000 0.000000 -0.056389 0.000000
# 6 0.000000 0.000000 0.000000 0.000000 0.000000 0.236528
#
#
# Mechanical properties :
#
#
# Convention : Reuss Voigt Hill
#
# Bulk Modulus (GPa) = 48.57114 51.67235 50.12175
# Shear Modulus (GPa) = 16.51221 12.28607 14.39914
#
# Velocity S-wave (km/s) = 3.04046 2.62267 2.83926
# Velocity P-wave (km/s) = 6.28638 6.17252 6.22971
#
# Compressibility (1/GPa) = 0.02058836
#
# Stress axis : x y z
#
# Youngs Moduli (GPa) = 62.40623 74.94876 55.00591
#
# Poissons Ratio (x) = 0.41127 0.17872
# Poissons Ratio (y) = 0.34245 0.26087
# Poissons Ratio (z) = 0.20276 0.35544
#
# Static dielectric constant tensor:
#      x y z
#    x 1.598600 0.000000 0.000000 
#    y 0.000000 1.639010 0.000000 
#    z 0.000000 0.000000 1.621530 
# 
# From -- ./inp_files/3359.got.cif
#   From: 2010.05.17/outbox.cif.g08.bks.cpg/sg26_2_cif.got.tgz:3359.got - 2010.06.04 01:07:29.
