data_PCOD9338122
_publ_section_title
;
Structure prediction by ZEFSAII (Michael W. Deem and Ramdas Pophale) SiO2 
 PCOD9338122
Probable space group: P M C 21
;
_chemical_formula_sum "Si O2"
_cell_formula_units_Z 32
_cell_length_a 8.083331
_cell_length_b 22.391386
_cell_length_c 6.961751
_cell_angle_alpha 90.000000
_cell_angle_beta 90.000000
_cell_angle_gamma 90.000000
_cell_volume 1260.055938
_symmetry_space_group_name_H-M "P M C 21"
_symmetry_group_IT_number 26
_symmetry_cell_setting 'orthorhombic'
loop_
_space_group_symop_operation_xyz
x,y,z
-x,-y,1/2+z
-x,y,z
x,-y,1/2+z
loop_
_atom_site_type_symbol
_atom_site_label
_atom_site_fract_x
_atom_site_fract_y
_atom_site_fract_z
Si Si1 0.306434 0.794333 0.201090
Si Si2 0.190002 0.420067 0.285162
Si Si3 0.809723 0.047672 0.056074
Si Si4 0.186747 0.080349 0.608662
Si Si5 0.297732 0.668879 0.297129
Si Si6 0.311279 0.543617 0.387949
Si Si7 0.696539 0.297513 0.241902
Si Si8 0.198795 0.173342 0.134182
O O1 0.500000 0.788983 0.166995
O O2 0.249362 0.852591 0.086868
O O3 0.236203 0.727062 0.181072
O O4 0.276640 0.810104 0.426669
O O5 0.215420 0.481368 0.399760
O O6 0.238337 0.354626 0.360058
O O7 0.000000 0.417059 0.223056
O O8 0.308175 0.432073 0.104005
O O9 0.816838 0.070536 0.838829
O O10 0.743682 0.104774 0.175015
O O11 0.000000 0.037178 0.121417
O O12 0.729154 0.982051 0.046387
O O13 0.000000 0.081420 0.531986
O O14 0.500000 0.666276 0.281887
O O15 0.239702 0.600390 0.269964
O O16 0.258703 0.686176 0.519678
O O17 0.500000 0.532971 0.325274
O O18 0.500000 0.296176 0.261258
O O19 0.759307 0.229938 0.267395
O O20 0.000000 0.170469 0.113905
#
# Coordination Sequence:
#
# PCOD9338122 Si02
#       8
#     4   4   4   4   4   4   4   4
#     4   9  15  25  41  64  89 114 145 188 231 269
#     4  11  21  33  50  76 104 130 163 207 248 290
#     4   8  15  26  43  63  86 113 145 180 221 268
#     4   9  16  28  43  62  85 114 147 181 220 270
#     4   7  13  25  43  64  87 114 149 187 227 273
#     4  10  19  34  53  73  98 133 168 200 245 301
#     4   9  16  28  45  67  93 123 156 194 237 283
#     4   9  15  25  42  65  88 115 149 189 231 274
#
# _framework density 25.395696999999998
#
# number of rings (size 3 to 8) (size 9 to 14) (size 15 to 20)
#    0.000    3.000    0.000    4.875    0.000    0.000 
#    0.000    5.000    0.000    1.500    0.000    5.250 
#    0.000    0.000    0.000    0.000    0.000    0.000 
#
# Total GULP energy -178504.493859 kJ/mol
# GULP energy per Si atom -5578.265433 kJ/mol
# Density = 2.533789 g / cm^3
# Si number density = 25.395697 Si / 1000 Ang^3
#
#
#
# Elastic Constant Matrix: (Units=GPa)
#
#
# Indices 1 2 3 4 5 6 
#
# 1 45.9074 40.1744 -4.2237 0.0000 0.0000 0.0000
# 2 40.1744 322.3516 54.1531 0.0000 0.0000 0.0000
# 3 -4.2237 54.1531 63.7048 0.0000 0.0000 0.0000
# 4 0.0000 0.0000 0.0000 57.9552 0.0000 0.0000
# 5 0.0000 0.0000 0.0000 0.0000 -1.0980 0.0000
# 6 0.0000 0.0000 0.0000 0.0000 0.0000 35.9182
#
#
#
# Elastic Compliance Matrix: (Units=1/GPa)
#
#
# Indices 1 2 3 4 5 6 
#
# 1 0.025843 -0.004093 0.005193 0.000000 0.000000 0.000000
# 2 -0.004093 0.004267 -0.003899 0.000000 0.000000 0.000000
# 3 0.005193 -0.003899 0.019356 0.000000 0.000000 0.000000
# 4 0.000000 0.000000 0.000000 0.017255 0.000000 0.000000
# 5 0.000000 0.000000 0.000000 0.000000 -0.910733 0.000000
# 6 0.000000 0.000000 0.000000 0.000000 0.000000 0.027841
#
#
# Mechanical properties :
#
#
# Convention : Reuss Voigt Hill
#
# Bulk Modulus (GPa) = 22.79585 68.01905 45.40745
# Shear Modulus (GPa) = -6.28180 41.34575 17.53197
#
# Velocity S-wave (km/s) = -1.57446 4.03930 2.63031
# Velocity P-wave (km/s) = 2.38548 6.97111 5.20994
#
# Compressibility (1/GPa) = 0.04386763
#
# Stress axis : x y z
#
# Youngs Moduli (GPa) = 38.69565 234.33975 51.66363
#
# Poissons Ratio (x) = 0.95918 -0.26828
# Poissons Ratio (y) = 0.15839 0.20143
# Poissons Ratio (z) = -0.20094 0.91366
#
# Static dielectric constant tensor:
#      x y z
#    x 1.894380 0.000000 0.000000 
#    y 0.000000 2.144890 0.000000 
#    z 0.000000 0.000000 2.129070 
# 
# From -- ./inp_files/3142.got.cif
#   From: 2010.05.17/outbox.cif.g08.bks.cpg/sg26_2_cif.got.tgz:3142.got - 2010.06.04 01:07:29.
