data_PCOD9338943
_publ_section_title
;
Structure prediction by ZEFSAII (Michael W. Deem and Ramdas Pophale) SiO2 
 PCOD9338943
Probable space group: P C C 2
;
_chemical_formula_sum "Si O2"
_cell_formula_units_Z 24
_cell_length_a 8.179423
_cell_length_b 14.750683
_cell_length_c 9.170102
_cell_angle_alpha 90.000000
_cell_angle_beta 90.000000
_cell_angle_gamma 90.000000
_cell_volume 1106.391842
_symmetry_space_group_name_H-M "P C C 2"
_symmetry_group_IT_number 27
_symmetry_cell_setting 'orthorhombic'
loop_
_space_group_symop_operation_xyz
x,y,z
-x,-y,z
-x,y,1/2+z
x,-y,1/2+z
loop_
_atom_site_type_symbol
_atom_site_label
_atom_site_fract_x
_atom_site_fract_y
_atom_site_fract_z
Si Si1 0.164075 0.103673 0.412070
Si Si2 0.325050 0.738678 0.539421
Si Si3 0.140693 0.426588 0.994560
Si Si4 0.686904 0.476216 0.775503
Si Si5 0.189325 0.924758 0.560213
Si Si6 0.653738 0.712038 0.377755
O O1 0.166956 0.081986 0.236924
O O2 0.243807 0.202620 0.436784
O O3 0.982224 0.097707 0.479288
O O4 0.248804 0.022071 0.502266
O O5 0.155485 0.681982 0.516292
O O6 0.304509 0.844058 0.507518
O O7 0.478087 0.701626 0.450767
O O8 0.371102 0.732542 0.708050
O O9 0.282683 0.455964 0.107443
O O10 0.000000 0.500000 0.026344
O O11 0.196683 0.444493 0.830283
O O12 0.500000 0.500000 0.800075
O O13 0.737003 0.387053 0.869919
#
# Coordination Sequence:
#
# PCOD9338943 Si02
#       6
#     4   4   4   4   4   4
#     4  10  21  39  62  89 122 160 206 249 314 372
#     4  10  23  41  59  90 123 157 209 253 309 374
#     4  11  24  40  61  92 124 161 208 260 312 372
#     4  11  22  41  63  88 123 166 207 254 314 376
#     4  10  21  39  61  90 122 161 202 256 308 371
#     4  10  23  39  60  89 120 160 204 252 306 374
#
# _framework density 21.692132000000001
#
# number of rings (size 3 to 8) (size 9 to 14) (size 15 to 20)
#    0.000    1.667    1.667    3.000    4.667    3.333 
#    3.000    3.333    0.000    0.000    0.000    0.000 
#    0.000    0.000    0.000    0.000    0.000    0.000 
#
# Total GULP energy -133712.298445 kJ/mol
# GULP energy per Si atom -5571.345769 kJ/mol
# Density = 2.164276 g / cm^3
# Si number density = 21.692132 Si / 1000 Ang^3
#
#
#
# Elastic Constant Matrix: (Units=GPa)
#
#
# Indices 1 2 3 4 5 6 
#
# 1 40.2423 16.1182 2.8031 0.0000 0.0000 0.0000
# 2 16.1182 84.7294 23.6187 0.0000 0.0000 0.0000
# 3 2.8031 23.6187 41.4910 0.0000 0.0000 0.0000
# 4 0.0000 0.0000 0.0000 30.6486 0.0000 0.0000
# 5 0.0000 0.0000 0.0000 0.0000 17.2901 0.0000
# 6 0.0000 0.0000 0.0000 0.0000 0.0000 37.9407
#
#
#
# Elastic Compliance Matrix: (Units=1/GPa)
#
#
# Indices 1 2 3 4 5 6 
#
# 1 0.026958 -0.005492 0.001305 0.000000 0.000000 0.000000
# 2 -0.005492 0.015147 -0.008251 0.000000 0.000000 0.000000
# 3 0.001305 -0.008251 0.028711 0.000000 0.000000 0.000000
# 4 0.000000 0.000000 0.000000 0.032628 0.000000 0.000000
# 5 0.000000 0.000000 0.000000 0.000000 0.057837 0.000000
# 6 0.000000 0.000000 0.000000 0.000000 0.000000 0.026357
#
#
# Mechanical properties :
#
#
# Convention : Reuss Voigt Hill
#
# Bulk Modulus (GPa) = 21.76792 27.94916 24.85854
# Shear Modulus (GPa) = 21.94644 25.43740 23.69192
#
# Velocity S-wave (km/s) = 3.18421 3.42812 3.30841
# Velocity P-wave (km/s) = 4.85548 5.34619 5.10673
#
# Compressibility (1/GPa) = 0.04593916
#
# Stress axis : x y z
#
# Youngs Moduli (GPa) = 37.09428 66.01892 34.83038
#
# Poissons Ratio (x) = 0.36258 -0.04546
# Poissons Ratio (y) = 0.20373 0.28740
# Poissons Ratio (z) = -0.04841 0.54475
#
# Static dielectric constant tensor:
#      x y z
#    x 1.813890 0.000000 0.000000 
#    y 0.000000 1.882730 0.000000 
#    z 0.000000 0.000000 1.736420 
# 
# From -- ./inp_files/1148.got.cif
#   From: 2010.05.17/outbox.cif.g08.bks.cpg/sg27_1_cif.got.tgz:1148.got - 2010.06.04 01:11:05.
