data_PCOD9338116
_publ_section_title
;
Structure prediction by ZEFSAII (Michael W. Deem and Ramdas Pophale) SiO2 
 PCOD9338116
Probable space group: P M C 21
;
_chemical_formula_sum "Si O2"
_cell_formula_units_Z 32
_cell_length_a 8.745024
_cell_length_b 7.566695
_cell_length_c 23.228248
_cell_angle_alpha 90.000000
_cell_angle_beta 90.000000
_cell_angle_gamma 90.000000
_cell_volume 1537.034758
_symmetry_space_group_name_H-M "P M C 21"
_symmetry_group_IT_number 26
_symmetry_cell_setting 'orthorhombic'
loop_
_space_group_symop_operation_xyz
x,y,z
-x,-y,1/2+z
-x,y,z
x,-y,1/2+z
loop_
_atom_site_type_symbol
_atom_site_label
_atom_site_fract_x
_atom_site_fract_y
_atom_site_fract_z
Si Si1 0.817405 0.809339 0.687440
Si Si2 0.184148 0.617186 0.803244
Si Si3 0.680719 0.998365 0.515947
Si Si4 0.179112 0.377490 0.993312
Si Si5 0.317728 0.523868 0.606705
Si Si6 0.318705 0.896931 0.889701
Si Si7 0.318243 0.152850 0.642926
Si Si8 0.815248 0.718612 0.366033
O O1 0.761797 0.707631 0.744389
O O2 0.750743 0.700320 0.633918
O O3 0.000000 0.804455 0.685596
O O4 0.762919 0.010991 0.683206
O O5 0.233315 0.415788 0.815794
O O6 0.000000 0.614654 0.802064
O O7 0.236378 0.744277 0.854607
O O8 0.500000 0.945878 0.513612
O O9 0.783829 0.825052 0.510330
O O10 0.711489 0.110693 0.458351
O O11 0.705459 0.092311 0.576574
O O12 0.268759 0.491338 0.040217
O O13 0.000000 0.415074 0.998510
O O14 0.222761 0.381457 0.926225
O O15 0.500000 0.531262 0.609185
O O16 0.264123 0.354998 0.643639
O O17 0.500000 0.884620 0.880931
O O18 0.261067 0.089523 0.868184
O O19 0.500000 0.147178 0.653969
O O20 0.000000 0.742481 0.364741
#
# Coordination Sequence:
#
# PCOD9338116 Si02
#       8
#     4   4   4   4   4   4   4   4
#     4  11  24  42  62  85 116 155 203 250 291 344
#     4  10  23  42  62  84 116 160 201 242 295 349
#     4   9  18  35  57  84 121 158 189 234 295 351
#     4  10  19  33  57  89 120 153 194 239 289 348
#     4  11  23  38  59  86 118 156 193 239 299 354
#     4  10  21  36  59  91 121 153 195 243 292 347
#     4  10  22  39  60  86 118 158 195 237 298 355
#     4   9  20  39  60  85 120 159 194 236 293 350
#
# _framework density 20.819309000000001
#
# number of rings (size 3 to 8) (size 9 to 14) (size 15 to 20)
#    0.000    2.000    1.250    1.500    1.750    4.500 
#    0.000    3.750    0.000    0.000    0.000    0.000 
#    0.000    0.000    0.000    0.000    0.000    0.000 
#
# Total GULP energy -178738.108862 kJ/mol
# GULP energy per Si atom -5585.565902 kJ/mol
# Density = 2.077192 g / cm^3
# Si number density = 20.819309 Si / 1000 Ang^3
#
#
#
# Elastic Constant Matrix: (Units=GPa)
#
#
# Indices 1 2 3 4 5 6 
#
# 1 0.9958 -5.5652 -1.6038 0.0000 0.0000 0.0000
# 2 -5.5652 53.1466 -14.0775 0.0000 0.0000 0.0000
# 3 -1.6038 -14.0775 15.9593 0.0000 0.0000 0.0000
# 4 0.0000 0.0000 0.0000 21.1584 0.0000 0.0000
# 5 0.0000 0.0000 0.0000 0.0000 17.4656 0.0000
# 6 0.0000 0.0000 0.0000 0.0000 0.0000 26.2850
#
#
#
# Elastic Compliance Matrix: (Units=1/GPa)
#
#
# Indices 1 2 3 4 5 6 
#
# 1 -2.766126 -0.474043 -0.696120 0.000000 0.000000 0.000000
# 2 -0.474043 -0.056686 -0.097640 0.000000 0.000000 0.000000
# 3 -0.696120 -0.097640 -0.093422 0.000000 0.000000 0.000000
# 4 0.000000 0.000000 0.000000 0.047263 0.000000 0.000000
# 5 0.000000 0.000000 0.000000 0.000000 0.057255 0.000000
# 6 0.000000 0.000000 0.000000 0.000000 0.000000 0.038045
#
#
# Mechanical properties :
#
#
# Convention : Reuss Voigt Hill
#
# Bulk Modulus (GPa) = -0.18342 3.06763 1.44210
# Shear Modulus (GPa) = -2.43268 19.07166 8.31949
#
# Velocity S-wave (km/s) = -1.08213 3.02993 2.00118
# Velocity P-wave (km/s) = 1.28438 3.70368 2.45638
#
# Compressibility (1/GPa) = -5.45184037
#
# Stress axis : x y z
#
# Youngs Moduli (GPa) = -0.36152 -17.64092 -10.70415
#
# Poissons Ratio (x) = -8.36256 -7.45137
# Poissons Ratio (y) = -0.17137 -1.04515
# Poissons Ratio (z) = -0.25166 -1.72246
#
# Static dielectric constant tensor:
#      x y z
#    x 1.706860 0.000000 0.000000 
#    y 0.000000 1.744780 0.000000 
#    z 0.000000 0.000000 1.777970 
# 
# From -- ./inp_files/5574.got.cif
#   From: 2010.05.17/outbox.cif.g08.bks.cpg/sg26_3_cif.got.tgz:5574.got - 2010.06.04 01:07:29.
