data_PCOD9338504
_publ_section_title
;
Structure prediction by ZEFSAII (Michael W. Deem and Ramdas Pophale) SiO2 
 PCOD9338504
Probable space group: P M C 21
;
_chemical_formula_sum "Si O2"
_cell_formula_units_Z 18
_cell_length_a 23.807544
_cell_length_b 5.284191
_cell_length_c 4.838944
_cell_angle_alpha 90.000000
_cell_angle_beta 90.000000
_cell_angle_gamma 90.000000
_cell_volume 608.756623
_symmetry_space_group_name_H-M "P M C 21"
_symmetry_group_IT_number 26
_symmetry_cell_setting 'orthorhombic'
loop_
_space_group_symop_operation_xyz
x,y,z
-x,-y,1/2+z
-x,y,z
x,-y,1/2+z
loop_
_atom_site_type_symbol
_atom_site_label
_atom_site_fract_x
_atom_site_fract_y
_atom_site_fract_z
Si Si1 0.823319 0.182120 0.513840
Si Si2 0.939510 0.183132 0.363011
Si Si3 0.720501 0.498782 0.749607
Si Si4 0.500000 0.621369 0.171569
Si Si5 0.618974 0.166331 0.476251
O O1 0.882025 0.322270 0.443336
O O2 0.769330 0.363021 0.487141
O O3 0.823953 0.947289 0.307323
O O4 0.000000 0.309690 0.412941
O O5 0.938518 0.931885 0.557544
O O6 0.721418 0.719314 0.500216
O O7 0.670551 0.362414 0.519757
O O8 0.500000 0.355070 0.000534
O O9 0.441219 0.720446 0.056179
O O10 0.620712 0.078414 0.165558
#
# Coordination Sequence:
#
# PCOD9338504 Si02
#       5
#     4   4   4   2   4
#     4  10  21  38  63  93 128 170 213 264 332 396
#     4   8  14  27  51  85 121 158 203 256 319 393
#     4  12  26  43  63  94 132 172 221 273 316 384
#     4  12  24  46  74 104 138 170 208 270 336 396
#     4  12  26  46  71 100 134 178 223 265 321 385
#
# _framework density 29.568472
#
# number of rings (size 3 to 8) (size 9 to 14) (size 15 to 20)
#    0.000    1.333    0.000    6.000    0.000    5.333 
#    0.000    0.000    0.000    1.333    0.000    0.000 
#    0.000    1.778    0.000    0.000    0.000    0.000 
#
# Total GULP energy -100427.550285 kJ/mol
# GULP energy per Si atom -5579.308349 kJ/mol
# Density = 2.950117 g / cm^3
# Si number density = 29.568472 Si / 1000 Ang^3
#
#
#
# Elastic Constant Matrix: (Units=GPa)
#
#
# Indices 1 2 3 4 5 6 
#
# 1 325.8943 56.9071 26.6404 0.0000 0.0000 0.0000
# 2 56.9071 53.9634 7.2861 0.0000 0.0000 0.0000
# 3 26.6404 7.2861 222.6858 0.0000 0.0000 0.0000
# 4 0.0000 0.0000 0.0000 68.8561 0.0000 0.0000
# 5 0.0000 0.0000 0.0000 0.0000 42.5371 0.0000
# 6 0.0000 0.0000 0.0000 0.0000 0.0000 -352.0428
#
#
#
# Elastic Compliance Matrix: (Units=1/GPa)
#
#
# Indices 1 2 3 4 5 6 
#
# 1 0.003784 -0.003947 -0.000324 0.000000 0.000000 0.000000
# 2 -0.003947 0.022730 -0.000272 0.000000 0.000000 0.000000
# 3 -0.000324 -0.000272 0.004538 0.000000 0.000000 0.000000
# 4 0.000000 0.000000 0.000000 0.014523 0.000000 0.000000
# 5 0.000000 0.000000 0.000000 0.000000 0.023509 0.000000
# 6 0.000000 0.000000 0.000000 0.000000 0.000000 -0.002841
#
#
# Mechanical properties :
#
#
# Convention : Reuss Voigt Hill
#
# Bulk Modulus (GPa) = 45.52010 87.13453 66.32731
# Shear Modulus (GPa) = 60.49587 -14.01592 23.23997
#
# Velocity S-wave (km/s) = 4.52813 -2.17955 2.80656
# Velocity P-wave (km/s) = 6.53964 4.81651 5.74307
#
# Compressibility (1/GPa) = 0.02196832
#
# Stress axis : x y z
#
# Youngs Moduli (GPa) = 264.26209 43.99496 220.35041
#
# Poissons Ratio (x) = 0.17364 0.07130
# Poissons Ratio (y) = 1.04300 0.05983
# Poissons Ratio (z) = 0.08551 0.01195
#
# Static dielectric constant tensor:
#      x y z
#    x 2.563390 0.000000 0.000000 
#    y 0.000000 2.195830 0.000000 
#    z 0.000000 0.000000 2.732540 
# 
# From -- ./inp_files/929.got.cif
#   From: 2010.05.17/outbox.cif.g08.bks.cpg/sg26_1_cif.got.tgz:929.got - 2010.06.04 01:07:29.
