data_PCOD9338537
_publ_section_title
;
Structure prediction by ZEFSAII (Michael W. Deem and Ramdas Pophale) SiO2 
 PCOD9338537
Probable space group: P M C 21
;
_chemical_formula_sum "Si O2"
_cell_formula_units_Z 32
_cell_length_a 8.538040
_cell_length_b 12.061211
_cell_length_c 15.681815
_cell_angle_alpha 90.000000
_cell_angle_beta 90.000000
_cell_angle_gamma 90.000000
_cell_volume 1614.899226
_symmetry_space_group_name_H-M "P M C 21"
_symmetry_group_IT_number 26
_symmetry_cell_setting 'orthorhombic'
loop_
_space_group_symop_operation_xyz
x,y,z
-x,-y,1/2+z
-x,y,z
x,-y,1/2+z
loop_
_atom_site_type_symbol
_atom_site_label
_atom_site_fract_x
_atom_site_fract_y
_atom_site_fract_z
Si Si1 0.313290 0.405373 0.543000
Si Si2 0.313528 0.237699 0.693885
Si Si3 0.186572 0.253314 0.394630
Si Si4 0.810811 0.775279 0.374583
Si Si5 0.316339 0.225222 0.214238
Si Si6 0.814071 0.651581 0.549558
Si Si7 0.190052 0.993114 0.947034
Si Si8 0.813177 0.998059 0.644853
O O1 0.500000 0.423041 0.546360
O O2 0.267408 0.327630 0.622926
O O3 0.268257 0.339245 0.457661
O O4 0.227694 0.522627 0.546936
O O5 0.500000 0.222463 0.688415
O O6 0.265015 0.271140 0.789075
O O7 0.231102 0.120918 0.673995
O O8 0.225762 0.271952 0.296054
O O9 0.242205 0.128164 0.417541
O O10 0.000000 0.258598 0.408525
O O11 0.769296 0.708099 0.459774
O O12 0.000000 0.773444 0.365749
O O13 0.759634 0.903002 0.389948
O O14 0.500000 0.233806 0.229912
O O15 0.270276 0.289775 0.128497
O O16 0.267788 0.097563 0.199260
O O17 0.000000 0.668639 0.560056
O O18 0.000000 0.992354 0.944318
O O19 0.233803 0.013351 0.045468
O O20 0.000000 0.982774 0.651244
#
# Coordination Sequence:
#
# PCOD9338537 Si02
#       8
#     4   4   4   4   4   4   4   4
#     4  11  25  44  63  89 129 169 209 264 321 372
#     4  11  24  40  61  94 130 165 204 250 313 379
#     4  11  22  40  67  96 124 165 213 257 308 375
#     4  10  21  40  65  93 123 159 205 257 310 367
#     4  12  25  41  63  96 132 166 203 256 323 381
#     4  11  24  44  68  92 120 163 220 268 309 371
#     4   9  18  35  62  93 123 156 199 253 308 360
#     4  11  20  38  65  93 127 165 207 255 306 371
#
# _framework density 19.815479
#
# number of rings (size 3 to 8) (size 9 to 14) (size 15 to 20)
#    0.000    1.250    2.500    3.750    0.000    4.500 
#    0.000    3.125    0.000    0.000    0.000    0.000 
#    0.000    0.000    0.000    0.000    0.000    0.000 
#
# Total GULP energy -178989.520303 kJ/mol
# GULP energy per Si atom -5593.422509 kJ/mol
# Density = 1.977038 g / cm^3
# Si number density = 19.815479 Si / 1000 Ang^3
#
#
#
# Elastic Constant Matrix: (Units=GPa)
#
#
# Indices 1 2 3 4 5 6 
#
# 1 17.8701 -5.2583 -8.4387 0.0000 0.0000 0.0000
# 2 -5.2583 76.4899 2.4685 0.0000 0.0000 0.0000
# 3 -8.4387 2.4685 73.3927 0.0000 0.0000 0.0000
# 4 0.0000 0.0000 0.0000 1.6861 0.0000 0.0000
# 5 0.0000 0.0000 0.0000 0.0000 23.5032 0.0000
# 6 0.0000 0.0000 0.0000 0.0000 0.0000 24.6002
#
#
#
# Elastic Compliance Matrix: (Units=1/GPa)
#
#
# Indices 1 2 3 4 5 6 
#
# 1 0.060328 0.003928 0.006804 0.000000 0.000000 0.000000
# 2 0.003928 0.013344 0.000003 0.000000 0.000000 0.000000
# 3 0.006804 0.000003 0.014408 0.000000 0.000000 0.000000
# 4 0.000000 0.000000 0.000000 0.593091 0.000000 0.000000
# 5 0.000000 0.000000 0.000000 0.000000 0.042547 0.000000
# 6 0.000000 0.000000 0.000000 0.000000 0.000000 0.040650
#
#
# Mechanical properties :
#
#
# Convention : Reuss Voigt Hill
#
# Bulk Modulus (GPa) = 9.12831 16.14396 12.63613
# Shear Modulus (GPa) = 6.41507 21.88999 14.15253
#
# Velocity S-wave (km/s) = 1.80123 3.32730 2.67538
# Velocity P-wave (km/s) = 2.99041 4.78811 3.99178
#
# Compressibility (1/GPa) = 0.10954933
#
# Stress axis : x y z
#
# Youngs Moduli (GPa) = 16.57599 74.94265 69.40771
#
# Poissons Ratio (x) = -0.29435 -0.47228
# Poissons Ratio (y) = -0.06511 -0.00020
# Poissons Ratio (z) = -0.11279 -0.00021
#
# Static dielectric constant tensor:
#      x y z
#    x 1.674820 0.000000 0.000000 
#    y 0.000000 1.673410 0.000000 
#    z 0.000000 0.000000 1.692710 
# 
# From -- ./inp_files/4244.got.cif
#   From: 2010.05.17/outbox.cif.g08.bks.cpg/sg26_3_cif.got.tgz:4244.got - 2010.06.04 01:07:29.
