data_PCOD9338517
_publ_section_title
;
Structure prediction by ZEFSAII (Michael W. Deem and Ramdas Pophale) SiO2 
 PCOD9338517
Probable space group: P M C 21
;
_chemical_formula_sum "Si O2"
_cell_formula_units_Z 24
_cell_length_a 16.302623
_cell_length_b 5.904767
_cell_length_c 8.374806
_cell_angle_alpha 90.000000
_cell_angle_beta 90.000000
_cell_angle_gamma 90.000000
_cell_volume 806.185544
_symmetry_space_group_name_H-M "P M C 21"
_symmetry_group_IT_number 26
_symmetry_cell_setting 'orthorhombic'
loop_
_space_group_symop_operation_xyz
x,y,z
-x,-y,1/2+z
-x,y,z
x,-y,1/2+z
loop_
_atom_site_type_symbol
_atom_site_label
_atom_site_fract_x
_atom_site_fract_y
_atom_site_fract_z
Si Si1 0.500000 0.120489 0.549110
Si Si2 0.655078 0.612867 0.792384
Si Si3 0.162891 0.573586 0.833957
Si Si4 0.500000 0.618966 0.556672
Si Si5 0.000000 0.040817 0.585285
Si Si6 0.348713 0.105212 0.789304
Si Si7 0.000000 0.567215 0.615525
Si Si8 0.172374 0.833000 0.173970
O O1 0.500000 0.372787 0.469852
O O2 0.423165 0.114476 0.667869
O O3 0.500000 0.866575 0.472908
O O4 0.751456 0.616937 0.740338
O O5 0.581967 0.611678 0.664945
O O6 0.652055 0.357727 0.867046
O O7 0.644760 0.859822 0.874601
O O8 0.080825 0.585449 0.726643
O O9 0.166567 0.302262 0.843171
O O10 0.168829 0.704881 0.000510
O O11 0.000000 0.312638 0.539427
O O12 0.087841 0.030457 0.673712
O O13 0.000000 0.790669 0.502779
O O14 0.263907 0.079861 0.690496
#
# Coordination Sequence:
#
# PCOD9338517 Si02
#       8
#     2   4   4   2   2   4   2   4
#     4   8  14  26  49  76 108 146 190 238 292 350
#     4   9  17  32  53  81 113 151 194 243 296 354
#     4  10  21  39  62  91 124 163 206 254 306 364
#     4   8  14  26  49  76 108 146 190 238 292 350
#     4  10  21  40  62  88 118 154 196 244 296 354
#     4   9  17  32  53  81 113 151 194 243 296 354
#     4  10  21  40  62  88 118 154 196 244 296 354
#     4  10  21  39  62  91 124 163 206 254 306 364
#
# _framework density 29.769822999999999
#
# number of rings (size 3 to 8) (size 9 to 14) (size 15 to 20)
#    0.000    2.667    0.000    1.500    0.000    0.000 
#    0.000   34.167    0.000    0.000    0.000   30.333 
#    0.000    0.000    0.000    0.000    0.000    0.000 
#
# Total GULP energy -133680.742746 kJ/mol
# GULP energy per Si atom -5570.030948 kJ/mol
# Density = 2.970207 g / cm^3
# Si number density = 29.769823 Si / 1000 Ang^3
#
#
#
# Elastic Constant Matrix: (Units=GPa)
#
#
# Indices 1 2 3 4 5 6 
#
# 1 263.7453 44.8845 92.9129 0.0000 0.0000 0.0000
# 2 44.8845 295.6957 25.0514 0.0000 0.0000 0.0000
# 3 92.9129 25.0514 83.0039 0.0000 0.0000 0.0000
# 4 0.0000 0.0000 0.0000 10.5165 0.0000 0.0000
# 5 0.0000 0.0000 0.0000 0.0000 35.9451 0.0000
# 6 0.0000 0.0000 0.0000 0.0000 0.0000 10.6026
#
#
#
# Elastic Compliance Matrix: (Units=1/GPa)
#
#
# Indices 1 2 3 4 5 6 
#
# 1 0.006299 -0.000368 -0.006940 0.000000 0.000000 0.000000
# 2 -0.000368 0.003492 -0.000642 0.000000 0.000000 0.000000
# 3 -0.006940 -0.000642 0.020010 0.000000 0.000000 0.000000
# 4 0.000000 0.000000 0.000000 0.095088 0.000000 0.000000
# 5 0.000000 0.000000 0.000000 0.000000 0.027820 0.000000
# 6 0.000000 0.000000 0.000000 0.000000 0.000000 0.094316
#
#
# Mechanical properties :
#
#
# Convention : Reuss Voigt Hill
#
# Bulk Modulus (GPa) = 71.93687 107.57139 89.75413
# Shear Modulus (GPa) = 18.68747 43.38592 31.03670
#
# Velocity S-wave (km/s) = 2.50818 3.82171 3.23237
# Velocity P-wave (km/s) = 5.71006 7.46235 6.64423
#
# Compressibility (1/GPa) = 0.01390108
#
# Stress axis : x y z
#
# Youngs Moduli (GPa) = 158.75599 286.35910 49.97594
#
# Poissons Ratio (x) = 0.10544 0.34682
# Poissons Ratio (y) = 0.05845 0.03207
# Poissons Ratio (z) = 1.10174 0.18379
#
# Static dielectric constant tensor:
#      x y z
#    x 2.345270 0.000000 0.000000 
#    y 0.000000 2.491240 0.000000 
#    z 0.000000 0.000000 2.172790 
# 
# From -- ./inp_files/3662.got.cif
#   From: 2010.05.17/outbox.cif.g08.bks.cpg/sg26_2_cif.got.tgz:3662.got - 2010.06.04 01:07:29.
