data_PCOD9338236
_publ_section_title
;
Structure prediction by ZEFSAII (Michael W. Deem and Ramdas Pophale) SiO2 
 PCOD9338236
Probable space group: P M C 21
;
_chemical_formula_sum "Si O2"
_cell_formula_units_Z 32
_cell_length_a 9.048335
_cell_length_b 7.030381
_cell_length_c 21.910691
_cell_angle_alpha 90.000000
_cell_angle_beta 90.000000
_cell_angle_gamma 90.000000
_cell_volume 1393.810099
_symmetry_space_group_name_H-M "P M C 21"
_symmetry_group_IT_number 26
_symmetry_cell_setting 'orthorhombic'
loop_
_space_group_symop_operation_xyz
x,y,z
-x,-y,1/2+z
-x,y,z
x,-y,1/2+z
loop_
_atom_site_type_symbol
_atom_site_label
_atom_site_fract_x
_atom_site_fract_y
_atom_site_fract_z
Si Si1 0.831649 0.329391 0.698440
Si Si2 0.823289 0.425791 0.826734
Si Si3 0.177552 0.018010 0.364315
Si Si4 0.320902 0.088437 0.983331
Si Si5 0.665976 0.610087 0.074233
Si Si6 0.335897 0.830088 0.612583
Si Si7 0.166946 0.112607 0.234719
Si Si8 0.178096 0.497996 0.457318
O O1 0.768324 0.446657 0.756864
O O2 0.738287 0.321999 0.637021
O O3 0.839930 0.113999 0.722490
O O4 0.000000 0.391231 0.684220
O O5 0.800098 0.204809 0.846007
O O6 0.776172 0.541940 0.886979
O O7 0.000000 0.450027 0.821820
O O8 0.260953 0.041096 0.428258
O O9 0.227513 0.131149 0.303508
O O10 0.000000 0.047535 0.372119
O O11 0.500000 0.104365 0.980513
O O12 0.242082 0.291002 0.970239
O O13 0.281145 0.046692 0.054438
O O14 0.500000 0.682751 0.064844
O O15 0.655579 0.382850 0.086539
O O16 0.759088 0.627650 0.012368
O O17 0.500000 0.897275 0.628761
O O18 0.245377 0.815406 0.674355
O O19 0.000000 0.185330 0.236248
O O20 0.000000 0.500546 0.459679
#
# Coordination Sequence:
#
# PCOD9338236 Si02
#       8
#     4   4   4   4   4   4   4   4
#     4   9  17  31  49  70  94 120 149 187 232 276
#     4   7  12  24  43  65  88 111 142 184 227 268
#     4   8  14  26  43  65  90 115 146 188 231 272
#     4   9  16  26  41  65  93 119 150 190 229 272
#     4  10  20  32  45  68  98 125 155 191 226 273
#     4   9  19  32  45  65  96 126 153 186 227 272
#     4   9  18  31  49  72  95 118 153 195 232 273
#     4   9  15  26  45  66  88 118 152 191 234 270
#
# _framework density 22.958652000000001
#
# number of rings (size 3 to 8) (size 9 to 14) (size 15 to 20)
#    0.000    3.250    0.000    4.125    0.000    4.000 
#    0.000    5.625    0.000    1.500    0.000    1.750 
#    0.000    0.000    0.000    0.000    0.000    0.000 
#
# Total GULP energy -178467.193606 kJ/mol
# GULP energy per Si atom -5577.099800 kJ/mol
# Density = 2.290640 g / cm^3
# Si number density = 22.958652 Si / 1000 Ang^3
#
#
#
# Elastic Constant Matrix: (Units=GPa)
#
#
# Indices 1 2 3 4 5 6 
#
# 1 70.7840 11.5063 85.1867 0.0000 0.0000 0.0000
# 2 11.5063 61.1825 40.1653 0.0000 0.0000 0.0000
# 3 85.1867 40.1653 265.1409 0.0000 0.0000 0.0000
# 4 0.0000 0.0000 0.0000 49.1831 0.0000 0.0000
# 5 0.0000 0.0000 0.0000 0.0000 -19.3480 0.0000
# 6 0.0000 0.0000 0.0000 0.0000 0.0000 -3.3918
#
#
#
# Elastic Compliance Matrix: (Units=1/GPa)
#
#
# Indices 1 2 3 4 5 6 
#
# 1 0.023053 0.000585 -0.007495 0.000000 0.000000 0.000000
# 2 0.000585 0.018164 -0.002940 0.000000 0.000000 0.000000
# 3 -0.007495 -0.002940 0.006625 0.000000 0.000000 0.000000
# 4 0.000000 0.000000 0.000000 0.020332 0.000000 0.000000
# 5 0.000000 0.000000 0.000000 0.000000 -0.051685 0.000000
# 6 0.000000 0.000000 0.000000 0.000000 0.000000 -0.294825
#
#
# Mechanical properties :
#
#
# Convention : Reuss Voigt Hill
#
# Bulk Modulus (GPa) = 35.53347 74.53602 55.03474
# Shear Modulus (GPa) = -20.05971 22.63859 1.28944
#
# Velocity S-wave (km/s) = -2.95910 3.14356 0.75024
# Velocity P-wave (km/s) = 1.95850 6.76105 4.97732
#
# Compressibility (1/GPa) = 0.02814248
#
# Stress axis : x y z
#
# Youngs Moduli (GPa) = 43.37903 55.05295 150.94327
#
# Poissons Ratio (x) = -0.03221 1.13135
# Poissons Ratio (y) = -0.02538 0.44372
# Poissons Ratio (z) = 0.32513 0.16184
#
# Static dielectric constant tensor:
#      x y z
#    x 1.815680 0.000000 0.000000 
#    y 0.000000 2.012010 0.000000 
#    z 0.000000 0.000000 1.914360 
# 
# From -- ./inp_files/5374.got.cif
#   From: 2010.05.17/outbox.cif.g08.bks.cpg/sg26_3_cif.got.tgz:5374.got - 2010.06.04 01:07:29.
