data_PCOD9338078
_publ_section_title
;
Structure prediction by ZEFSAII (Michael W. Deem and Ramdas Pophale) SiO2 
 PCOD9338078
Probable space group: P M C 21
;
_chemical_formula_sum "Si O2"
_cell_formula_units_Z 32
_cell_length_a 15.570852
_cell_length_b 17.041377
_cell_length_c 5.622459
_cell_angle_alpha 90.000000
_cell_angle_beta 90.000000
_cell_angle_gamma 90.000000
_cell_volume 1491.912519
_symmetry_space_group_name_H-M "P M C 21"
_symmetry_group_IT_number 26
_symmetry_cell_setting 'orthorhombic'
loop_
_space_group_symop_operation_xyz
x,y,z
-x,-y,1/2+z
-x,y,z
x,-y,1/2+z
loop_
_atom_site_type_symbol
_atom_site_label
_atom_site_fract_x
_atom_site_fract_y
_atom_site_fract_z
Si Si1 0.408882 0.227040 0.103150
Si Si2 0.163737 0.595763 0.525327
Si Si3 0.312067 0.325741 0.770709
Si Si4 0.229177 0.026952 0.335081
Si Si5 0.398948 0.454844 0.496155
Si Si6 0.289516 0.813452 0.981801
Si Si7 0.100092 0.580646 0.023806
Si Si8 0.597213 0.923737 0.288470
O O1 0.500000 0.240655 0.223148
O O2 0.327448 0.235263 0.267298
O O3 0.396270 0.288641 0.891413
O O4 0.406084 0.137406 0.007575
O O5 0.257679 0.624550 0.456873
O O6 0.131996 0.623921 0.784517
O O7 0.152081 0.501450 0.539030
O O8 0.111962 0.619045 0.283554
O O9 0.338819 0.381366 0.554912
O O10 0.261745 0.248077 0.680579
O O11 0.228427 0.119135 0.388074
O O12 0.191539 0.988991 0.574921
O O13 0.326295 0.986936 0.320451
O O14 0.500000 0.433623 0.503253
O O15 0.384512 0.491342 0.234206
O O16 0.369486 0.865091 0.083640
O O17 0.000000 0.561293 0.988405
O O18 0.500000 0.953684 0.245834
#
# Coordination Sequence:
#
# PCOD9338078 Si02
#       8
#     4   4   4   4   4   4   4   4
#     4  10  20  35  51  69 100 144 190 243 299 336
#     4  10  21  33  59  87 113 146 173 214 266 320
#     4  11  25  36  55  76 111 141 192 229 286 343
#     4  10  19  33  50  71  96 129 175 231 285 331
#     4  10  24  42  58  72  93 132 187 250 297 323
#     4  10  21  35  49  71 104 141 180 236 295 345
#     4  10  20  39  63  91 118 138 172 216 265 333
#     4   9  18  31  47  71  93 125 180 241 293 337
#
# _framework density 21.448976999999999
#
# number of rings (size 3 to 8) (size 9 to 14) (size 15 to 20)
#    0.000    2.000    1.250    2.625    7.000    4.000 
#    0.000    0.000    0.000    0.000    0.000    0.000 
#    0.000    0.000    0.000    0.000    0.000  191.250 
#
# Total GULP energy -178373.756154 kJ/mol
# GULP energy per Si atom -5574.179880 kJ/mol
# Density = 2.140016 g / cm^3
# Si number density = 21.448977 Si / 1000 Ang^3
#
#
#
# Elastic Constant Matrix: (Units=GPa)
#
#
# Indices 1 2 3 4 5 6 
#
# 1 25.5117 24.8422 3.3070 0.0000 0.0000 0.0000
# 2 24.8422 61.6378 10.8945 0.0000 0.0000 0.0000
# 3 3.3070 10.8945 126.2615 0.0000 0.0000 0.0000
# 4 0.0000 0.0000 0.0000 34.2902 0.0000 0.0000
# 5 0.0000 0.0000 0.0000 0.0000 19.4943 0.0000
# 6 0.0000 0.0000 0.0000 0.0000 0.0000 1980.3514
#
#
#
# Elastic Compliance Matrix: (Units=1/GPa)
#
#
# Indices 1 2 3 4 5 6 
#
# 1 0.064558 -0.026119 0.000563 0.000000 0.000000 0.000000
# 2 -0.026119 0.027042 -0.001649 0.000000 0.000000 0.000000
# 3 0.000563 -0.001649 0.008048 0.000000 0.000000 0.000000
# 4 0.000000 0.000000 0.000000 0.029163 0.000000 0.000000
# 5 0.000000 0.000000 0.000000 0.000000 0.051297 0.000000
# 6 0.000000 0.000000 0.000000 0.000000 0.000000 0.000505
#
#
# Mechanical properties :
#
#
# Convention : Reuss Voigt Hill
#
# Bulk Modulus (GPa) = 22.10556 32.38871 27.24713
# Shear Modulus (GPa) = 19.99184 418.45167 219.22175
#
# Velocity S-wave (km/s) = 3.05629 13.98267 10.12067
# Velocity P-wave (km/s) = 4.77315 16.60783 12.21890
#
# Compressibility (1/GPa) = 0.04523749
#
# Stress axis : x y z
#
# Youngs Moduli (GPa) = 15.48994 36.97945 124.26015
#
# Poissons Ratio (x) = 0.96585 -0.06993
# Poissons Ratio (y) = 0.40458 0.20493
# Poissons Ratio (z) = -0.00872 0.06099
#
# Static dielectric constant tensor:
#      x y z
#    x 1.790250 0.000000 0.000000 
#    y 0.000000 1.783350 0.000000 
#    z 0.000000 0.000000 1.921200 
# 
# From -- ./inp_files/796.got.cif
#   From: 2010.05.17/outbox.cif.g08.bks.cpg/sg26_1_cif.got.tgz:796.got - 2010.06.04 01:07:29.
