data_PCOD9338160
_publ_section_title
;
Structure prediction by ZEFSAII (Michael W. Deem and Ramdas Pophale) SiO2 
 PCOD9338160
Probable space group: P M C 21
;
_chemical_formula_sum "Si O2"
_cell_formula_units_Z 32
_cell_length_a 8.691203
_cell_length_b 11.134168
_cell_length_c 14.445212
_cell_angle_alpha 90.000000
_cell_angle_beta 90.000000
_cell_angle_gamma 90.000000
_cell_volume 1397.853261
_symmetry_space_group_name_H-M "P M C 21"
_symmetry_group_IT_number 26
_symmetry_cell_setting 'orthorhombic'
loop_
_space_group_symop_operation_xyz
x,y,z
-x,-y,1/2+z
-x,y,z
x,-y,1/2+z
loop_
_atom_site_type_symbol
_atom_site_label
_atom_site_fract_x
_atom_site_fract_y
_atom_site_fract_z
Si Si1 0.315832 0.686703 0.196160
Si Si2 0.679394 0.812530 0.464112
Si Si3 0.684542 0.442387 0.522391
Si Si4 0.182538 0.939902 0.984411
Si Si5 0.679064 0.329661 0.148260
Si Si6 0.817145 0.822957 0.801776
Si Si7 0.316829 0.953837 0.189109
Si Si8 0.818541 0.578588 0.365892
O O1 0.500000 0.670606 0.203355
O O2 0.275325 0.668677 0.088191
O O3 0.277817 0.821226 0.227533
O O4 0.234904 0.588995 0.260467
O O5 0.500000 0.837076 0.443053
O O6 0.690948 0.778334 0.573112
O O7 0.732712 0.692488 0.412368
O O8 0.782813 0.927323 0.443337
O O9 0.500000 0.446971 0.508096
O O10 0.729556 0.555007 0.588990
O O11 0.766146 0.463853 0.425288
O O12 0.239139 0.845261 0.906880
O O13 0.000000 0.924827 0.999995
O O14 0.270046 0.944127 0.081634
O O15 0.500000 0.348325 0.169684
O O16 0.761008 0.289656 0.241646
O O17 0.000000 0.818970 0.806350
O O18 0.766076 0.940141 0.743290
O O19 0.500000 0.971864 0.196277
O O20 0.000000 0.592175 0.373097
#
# Coordination Sequence:
#
# PCOD9338160 Si02
#       8
#     4   4   4   4   4   4   4   4
#     4  10  22  42  65  88 118 159 207 253 297 353
#     4  10  19  34  58  85 114 151 197 247 288 341
#     4   9  20  41  65  87 115 153 202 256 301 348
#     4  11  23  37  55  84 121 161 195 237 301 362
#     4   9  18  34  58  84 108 141 190 244 293 341
#     4  11  23  37  56  84 120 159 193 235 296 362
#     4  11  23  39  61  89 119 157 201 249 298 350
#     4  11  22  36  60  93 123 157 199 247 304 361
#
# _framework density 22.892246
#
# number of rings (size 3 to 8) (size 9 to 14) (size 15 to 20)
#    0.000    1.750    1.250    4.125    0.000    7.500 
#    2.250    0.000    0.000    0.000    0.000    0.000 
#    0.000    0.000    0.000    0.000    0.000    0.000 
#
# Total GULP energy -178927.500326 kJ/mol
# GULP energy per Si atom -5591.484385 kJ/mol
# Density = 2.284014 g / cm^3
# Si number density = 22.892246 Si / 1000 Ang^3
#
#
#
# Elastic Constant Matrix: (Units=GPa)
#
#
# Indices 1 2 3 4 5 6 
#
# 1 18.0819 -6.2934 9.5004 0.0000 0.0000 0.0000
# 2 -6.2934 44.1371 1.0542 0.0000 0.0000 0.0000
# 3 9.5004 1.0542 111.7594 0.0000 0.0000 0.0000
# 4 0.0000 0.0000 0.0000 37.1497 0.0000 0.0000
# 5 0.0000 0.0000 0.0000 0.0000 30.8592 0.0000
# 6 0.0000 0.0000 0.0000 0.0000 0.0000 5.0830
#
#
#
# Elastic Compliance Matrix: (Units=1/GPa)
#
#
# Indices 1 2 3 4 5 6 
#
# 1 0.061159 0.008847 -0.005282 0.000000 0.000000 0.000000
# 2 0.008847 0.023941 -0.000978 0.000000 0.000000 0.000000
# 3 -0.005282 -0.000978 0.009406 0.000000 0.000000 0.000000
# 4 0.000000 0.000000 0.000000 0.026918 0.000000 0.000000
# 5 0.000000 0.000000 0.000000 0.000000 0.032405 0.000000
# 6 0.000000 0.000000 0.000000 0.000000 0.000000 0.196733
#
#
# Mechanical properties :
#
#
# Convention : Reuss Voigt Hill
#
# Bulk Modulus (GPa) = 10.03222 20.27786 15.15504
# Shear Modulus (GPa) = 13.20599 25.93286 19.56943
#
# Velocity S-wave (km/s) = 2.40443 3.36939 2.92695
# Velocity P-wave (km/s) = 3.47854 4.90044 4.24938
#
# Compressibility (1/GPa) = 0.09967887
#
# Stress axis : x y z
#
# Youngs Moduli (GPa) = 16.35096 41.76851 106.31448
#
# Poissons Ratio (x) = -0.36951 0.56159
# Poissons Ratio (y) = -0.14465 0.10396
# Poissons Ratio (z) = 0.08637 0.04084
#
# Static dielectric constant tensor:
#      x y z
#    x 1.750640 0.000000 0.000000 
#    y 0.000000 1.906750 0.000000 
#    z 0.000000 0.000000 1.907010 
# 
# From -- ./inp_files/4300.got.cif
#   From: 2010.05.17/outbox.cif.g08.bks.cpg/sg26_3_cif.got.tgz:4300.got - 2010.06.04 01:07:29.
