data_PCOD9338300
_publ_section_title
;
Structure prediction by ZEFSAII (Michael W. Deem and Ramdas Pophale) SiO2 
 PCOD9338300
Probable space group: P M C 21
;
_chemical_formula_sum "Si O2"
_cell_formula_units_Z 24
_cell_length_a 7.910620
_cell_length_b 12.289309
_cell_length_c 12.268615
_cell_angle_alpha 90.000000
_cell_angle_beta 90.000000
_cell_angle_gamma 90.000000
_cell_volume 1192.706333
_symmetry_space_group_name_H-M "P M C 21"
_symmetry_group_IT_number 26
_symmetry_cell_setting 'orthorhombic'
loop_
_space_group_symop_operation_xyz
x,y,z
-x,-y,1/2+z
-x,y,z
x,-y,1/2+z
loop_
_atom_site_type_symbol
_atom_site_label
_atom_site_fract_x
_atom_site_fract_y
_atom_site_fract_z
Si Si1 0.194036 0.325147 0.053340
Si Si2 0.293558 0.083191 0.661144
Si Si3 0.295397 0.429392 0.602346
Si Si4 0.302733 0.153517 0.224711
Si Si5 0.704320 0.714071 0.305944
Si Si6 0.293137 0.227582 0.458709
O O1 0.232929 0.449789 0.082278
O O2 0.294054 0.242244 0.129896
O O3 0.000000 0.302091 0.076169
O O4 0.230419 0.305763 0.926363
O O5 0.500000 0.081760 0.658271
O O6 0.244977 0.170020 0.754168
O O7 0.241917 0.134860 0.545463
O O8 0.230559 0.962366 0.686143
O O9 0.500000 0.432002 0.601370
O O10 0.243193 0.377684 0.718304
O O11 0.240221 0.343534 0.509292
O O12 0.500000 0.131619 0.248109
O O13 0.231359 0.200669 0.337816
O O14 0.500000 0.712341 0.310203
O O15 0.500000 0.230862 0.457951
#
# Coordination Sequence:
#
# PCOD9338300 Si02
#       6
#     4   4   4   4   4   4
#     4  12  26  38  52  81 120 154 189 228 275 338
#     4   8  16  32  59  91 114 136 178 236 286 330
#     4   9  19  38  61  83 110 144 189 239 283 328
#     4  10  20  34  59  88 114 145 184 231 280 331
#     4   9  19  38  63  87 110 142 187 237 286 333
#     4   8  16  32  56  88 114 137 177 233 288 330
#
# _framework density 20.122305999999998
#
# number of rings (size 3 to 8) (size 9 to 14) (size 15 to 20)
#    0.000    2.667    0.000    3.500    4.667    0.667 
#    0.000    0.833    0.000    2.000    0.000    0.000 
#    0.000    0.000    0.000    0.000    0.000    0.000 
#
# Total GULP energy -133932.598018 kJ/mol
# GULP energy per Si atom -5580.524917 kJ/mol
# Density = 2.007651 g / cm^3
# Si number density = 20.122306 Si / 1000 Ang^3
#
#
#
# Elastic Constant Matrix: (Units=GPa)
#
#
# Indices 1 2 3 4 5 6 
#
# 1 14.9563 -10.7021 -10.3623 0.0000 0.0000 0.0000
# 2 -10.7021 139.2918 67.4775 0.0000 0.0000 0.0000
# 3 -10.3623 67.4775 125.7212 0.0000 0.0000 0.0000
# 4 0.0000 0.0000 0.0000 15.6631 0.0000 0.0000
# 5 0.0000 0.0000 0.0000 0.0000 -20.9027 0.0000
# 6 0.0000 0.0000 0.0000 0.0000 0.0000 -33.4423
#
#
#
# Elastic Compliance Matrix: (Units=1/GPa)
#
#
# Indices 1 2 3 4 5 6 
#
# 1 0.072224 0.003602 0.004020 0.000000 0.000000 0.000000
# 2 0.003602 0.009881 -0.005007 0.000000 0.000000 0.000000
# 3 0.004020 -0.005007 0.010973 0.000000 0.000000 0.000000
# 4 0.000000 0.000000 0.000000 0.063844 0.000000 0.000000
# 5 0.000000 0.000000 0.000000 0.000000 -0.047841 0.000000
# 6 0.000000 0.000000 0.000000 0.000000 0.000000 -0.029902
#
#
# Mechanical properties :
#
#
# Convention : Reuss Voigt Hill
#
# Bulk Modulus (GPa) = 10.17217 41.42170 25.79693
# Shear Modulus (GPa) = 46.85229 7.83405 27.34317
#
# Velocity S-wave (km/s) = 4.83056 1.97526 3.69026
# Velocity P-wave (km/s) = 6.01486 5.08251 5.56823
#
# Compressibility (1/GPa) = 0.09830745
#
# Stress axis : x y z
#
# Youngs Moduli (GPa) = 13.84587 101.20135 91.13608
#
# Poissons Ratio (x) = -0.36451 -0.36634
# Poissons Ratio (y) = -0.04987 0.45629
# Poissons Ratio (z) = -0.05566 0.50668
#
# Static dielectric constant tensor:
#      x y z
#    x 1.725590 0.000000 0.000000 
#    y 0.000000 1.689640 0.000000 
#    z 0.000000 0.000000 1.687880 
# 
# From -- ./inp_files/2792.got.cif
#   From: 2010.05.17/outbox.cif.g08.bks.cpg/sg26_2_cif.got.tgz:2792.got - 2010.06.04 01:07:29.
