data_PCOD9338859
_publ_section_title
;
Structure prediction by ZEFSAII (Michael W. Deem and Ramdas Pophale) SiO2 
 PCOD9338859
Probable space group: P C C 2
;
_chemical_formula_sum "Si O2"
_cell_formula_units_Z 20
_cell_length_a 9.756729
_cell_length_b 7.327744
_cell_length_c 11.529535
_cell_angle_alpha 90.000000
_cell_angle_beta 90.000000
_cell_angle_gamma 90.000000
_cell_volume 824.301942
_symmetry_space_group_name_H-M "P C C 2"
_symmetry_group_IT_number 27
_symmetry_cell_setting 'orthorhombic'
loop_
_space_group_symop_operation_xyz
x,y,z
-x,-y,z
-x,y,1/2+z
x,-y,1/2+z
loop_
_atom_site_type_symbol
_atom_site_label
_atom_site_fract_x
_atom_site_fract_y
_atom_site_fract_z
Si Si1 0.537459 0.705699 0.981030
Si Si2 0.760776 0.211430 0.014218
Si Si3 0.241170 0.125533 0.147194
Si Si4 0.266197 0.755344 0.269156
Si Si5 0.033004 0.218804 0.321509
O O1 0.500000 0.500000 0.008811
O O2 0.620057 0.702427 0.860572
O O3 0.393290 0.809746 0.967155
O O4 0.630613 0.781739 0.085651
O O5 0.737786 0.314396 0.136395
O O6 0.817045 0.011552 0.049670
O O7 0.869456 0.285103 0.924348
O O8 0.122635 0.244697 0.204390
O O9 0.282351 0.974762 0.244935
O O10 0.118227 0.701874 0.318836
O O11 0.000000 0.000000 0.324872
#
# Coordination Sequence:
#
# PCOD9338859 Si02
#       5
#     4   4   4   4   4
#     4  12  26  45  69 101 148 191 236 288 357 423
#     4  10  24  39  69 102 135 183 237 287 356 419
#     4   9  21  39  69 101 135 178 235 293 349 414
#     4   9  24  40  70 100 140 182 238 290 351 422
#     4  10  20  38  70 103 134 176 237 306 343 416
#
# _framework density 24.262953
#
# number of rings (size 3 to 8) (size 9 to 14) (size 15 to 20)
#    1.200    0.800    0.000    3.000    8.400    0.800 
#    0.000    1.000    0.000    0.000    0.000    0.000 
#    0.000    0.000    0.000    0.000    0.000    0.000 
#
# Total GULP energy -111648.764060 kJ/mol
# GULP energy per Si atom -5582.438203 kJ/mol
# Density = 2.420773 g / cm^3
# Si number density = 24.262953 Si / 1000 Ang^3
#
#
#
# Elastic Constant Matrix: (Units=GPa)
#
#
# Indices 1 2 3 4 5 6 
#
# 1 176.5185 14.1426 127.9931 0.0000 0.0000 0.0000
# 2 14.1426 54.1226 28.3390 0.0000 0.0000 0.0000
# 3 127.9931 28.3390 144.2662 0.0000 0.0000 0.0000
# 4 0.0000 0.0000 0.0000 -3.8655 0.0000 0.0000
# 5 0.0000 0.0000 0.0000 0.0000 63.0342 0.0000
# 6 0.0000 0.0000 0.0000 0.0000 0.0000 -5.7151
#
#
#
# Elastic Compliance Matrix: (Units=1/GPa)
#
#
# Indices 1 2 3 4 5 6 
#
# 1 0.016537 0.003746 -0.015407 0.000000 0.000000 0.000000
# 2 0.003746 0.021444 -0.007536 0.000000 0.000000 0.000000
# 3 -0.015407 -0.007536 0.022081 0.000000 0.000000 0.000000
# 4 0.000000 0.000000 0.000000 -0.258700 0.000000 0.000000
# 5 0.000000 0.000000 0.000000 0.000000 0.015864 0.000000
# 6 0.000000 0.000000 0.000000 0.000000 0.000000 -0.174974
#
#
# Mechanical properties :
#
#
# Convention : Reuss Voigt Hill
#
# Bulk Modulus (GPa) = 46.15189 79.53964 62.84576
# Shear Modulus (GPa) = -16.01894 24.31955 4.15031
#
# Velocity S-wave (km/s) = -2.57227 3.16940 1.30930
# Velocity P-wave (km/s) = 3.20012 6.80051 5.31450
#
# Compressibility (1/GPa) = 0.02166759
#
# Stress axis : x y z
#
# Youngs Moduli (GPa) = 60.47093 46.63414 45.28687
#
# Poissons Ratio (x) = -0.17470 0.69775
# Poissons Ratio (y) = -0.22654 0.34128
# Poissons Ratio (z) = 0.93170 0.35143
#
# Static dielectric constant tensor:
#      x y z
#    x 1.933410 0.000000 0.000000 
#    y 0.000000 2.031050 0.000000 
#    z 0.000000 0.000000 1.943060 
# 
# From -- ./inp_files/2251.got.cif
#   From: 2010.05.17/outbox.cif.g08.bks.cpg/sg27_2_cif.got.tgz:2251.got - 2010.06.04 01:11:05.
