data_PCOD9338175
_publ_section_title
;
Structure prediction by ZEFSAII (Michael W. Deem and Ramdas Pophale) SiO2 
 PCOD9338175
Probable space group: P M C 21
;
_chemical_formula_sum "Si O2"
_cell_formula_units_Z 32
_cell_length_a 8.863692
_cell_length_b 10.966825
_cell_length_c 16.551422
_cell_angle_alpha 90.000000
_cell_angle_beta 90.000000
_cell_angle_gamma 90.000000
_cell_volume 1608.906779
_symmetry_space_group_name_H-M "P M C 21"
_symmetry_group_IT_number 26
_symmetry_cell_setting 'orthorhombic'
loop_
_space_group_symop_operation_xyz
x,y,z
-x,-y,1/2+z
-x,y,z
x,-y,1/2+z
loop_
_atom_site_type_symbol
_atom_site_label
_atom_site_fract_x
_atom_site_fract_y
_atom_site_fract_z
Si Si1 0.669112 0.827034 0.361550
Si Si2 0.322588 0.874873 0.106956
Si Si3 0.166741 0.786358 0.855267
Si Si4 0.818710 0.599171 0.285082
Si Si5 0.833212 0.014354 0.973868
Si Si6 0.669616 0.948050 0.743110
Si Si7 0.180761 0.393604 0.600988
Si Si8 0.320603 0.560023 0.931083
O O1 0.500000 0.786195 0.384103
O O2 0.744843 0.731076 0.301450
O O3 0.777614 0.858787 0.436006
O O4 0.654248 0.956248 0.316480
O O5 0.500000 0.850240 0.122121
O O6 0.236187 0.747463 0.099895
O O7 0.260589 0.965101 0.175633
O O8 0.295989 0.957225 0.028924
O O9 0.236385 0.831968 0.771223
O O10 0.275903 0.696515 0.903215
O O11 0.000000 0.729995 0.846461
O O12 0.149568 0.909409 0.906556
O O13 0.781405 0.559963 0.192315
O O14 0.753160 0.520172 0.359346
O O15 0.000000 0.605197 0.290464
O O16 0.000000 0.026415 0.012097
O O17 0.500000 0.911430 0.718437
O O18 0.254748 0.456346 0.521939
O O19 0.000000 0.397048 0.591633
O O20 0.500000 0.543757 0.932484
#
# Coordination Sequence:
#
# PCOD9338175 Si02
#       8
#     4   4   4   4   4   4   4   4
#     4  10  19  35  57  84 117 153 195 242 296 357
#     4  11  20  33  56  88 122 156 198 250 302 362
#     4  10  20  35  56  83 116 153 195 242 295 357
#     4  11  24  42  65  91 124 163 207 258 312 369
#     4  10  20  33  53  83 119 156 193 240 297 356
#     4   9  19  33  53  83 119 153 189 238 295 356
#     4  11  23  40  63  91 122 158 205 257 307 368
#     4  12  25  41  65  91 123 164 208 259 312 367
#
# _framework density 19.889279999999999
#
# number of rings (size 3 to 8) (size 9 to 14) (size 15 to 20)
#    0.000    1.500    2.500    3.375    0.000    4.000 
#    0.000    1.250    0.000    6.000    0.000    0.000 
#    0.000    0.000    0.000    0.000    0.000    0.000 
#
# Total GULP energy -178283.366403 kJ/mol
# GULP energy per Si atom -5571.355200 kJ/mol
# Density = 1.984401 g / cm^3
# Si number density = 19.889280 Si / 1000 Ang^3
#
#
#
# Elastic Constant Matrix: (Units=GPa)
#
#
# Indices 1 2 3 4 5 6 
#
# 1 93.1673 23.6587 32.6352 0.0000 0.0000 0.0000
# 2 23.6587 26.1940 28.5822 0.0000 0.0000 0.0000
# 3 32.6352 28.5822 89.7322 0.0000 0.0000 0.0000
# 4 0.0000 0.0000 0.0000 32.0394 0.0000 0.0000
# 5 0.0000 0.0000 0.0000 0.0000 25.7542 0.0000
# 6 0.0000 0.0000 0.0000 0.0000 0.0000 -11.5884
#
#
#
# Elastic Compliance Matrix: (Units=1/GPa)
#
#
# Indices 1 2 3 4 5 6 
#
# 1 0.014084 -0.010931 -0.001641 0.000000 0.000000 0.000000
# 2 -0.010931 0.066998 -0.017365 0.000000 0.000000 0.000000
# 3 -0.001641 -0.017365 0.017272 0.000000 0.000000 0.000000
# 4 0.000000 0.000000 0.000000 0.031212 0.000000 0.000000
# 5 0.000000 0.000000 0.000000 0.000000 0.038829 0.000000
# 6 0.000000 0.000000 0.000000 0.000000 0.000000 -0.086293
#
#
# Mechanical properties :
#
#
# Convention : Reuss Voigt Hill
#
# Bulk Modulus (GPa) = 25.98671 42.09398 34.04035
# Shear Modulus (GPa) = 32.29951 17.52218 24.91085
#
# Velocity S-wave (km/s) = 4.03422 2.97136 3.54287
# Velocity P-wave (km/s) = 5.89864 5.74300 5.82134
#
# Compressibility (1/GPa) = 0.03848121
#
# Stress axis : x y z
#
# Youngs Moduli (GPa) = 71.00405 14.92582 57.89631
#
# Poissons Ratio (x) = 0.16315 0.09498
# Poissons Ratio (y) = 0.77611 1.00539
# Poissons Ratio (z) = 0.11648 0.25919
#
# Static dielectric constant tensor:
#      x y z
#    x 1.729580 0.000000 0.000000 
#    y 0.000000 1.692230 0.000000 
#    z 0.000000 0.000000 1.809860 
# 
# From -- ./inp_files/4178.got.cif
#   From: 2010.05.17/outbox.cif.g08.bks.cpg/sg26_3_cif.got.tgz:4178.got - 2010.06.04 01:07:29.
