data_PCOD9338758
_publ_section_title
;
Structure prediction by ZEFSAII (Michael W. Deem and Ramdas Pophale) SiO2 
 PCOD9338758
Probable space group: P C C 2
;
_chemical_formula_sum "Si O2"
_cell_formula_units_Z 32
_cell_length_a 10.615009
_cell_length_b 16.784080
_cell_length_c 8.923828
_cell_angle_alpha 90.000000
_cell_angle_beta 90.000000
_cell_angle_gamma 90.000000
_cell_volume 1589.897398
_symmetry_space_group_name_H-M "P C C 2"
_symmetry_group_IT_number 27
_symmetry_cell_setting 'orthorhombic'
loop_
_space_group_symop_operation_xyz
x,y,z
-x,-y,z
-x,y,1/2+z
x,-y,1/2+z
loop_
_atom_site_type_symbol
_atom_site_label
_atom_site_fract_x
_atom_site_fract_y
_atom_site_fract_z
Si Si1 0.192961 0.381459 0.687420
Si Si2 0.235836 0.749119 0.403462
Si Si3 0.074872 0.080802 0.538339
Si Si4 0.583267 0.106449 0.461683
Si Si5 0.019533 0.821148 0.785158
Si Si6 0.901565 0.666684 0.179680
Si Si7 0.646772 0.946598 0.627855
Si Si8 0.143829 0.475494 0.401627
O O1 0.267973 0.306507 0.758488
O O2 0.218021 0.433531 0.537972
O O3 0.192823 0.444808 0.823413
O O4 0.051348 0.347618 0.653059
O O5 0.344100 0.809236 0.460402
O O6 0.118477 0.802517 0.348593
O O7 0.178414 0.692842 0.535307
O O8 0.000632 0.152965 0.615243
O O9 0.208773 0.075278 0.613992
O O10 0.083738 0.105121 0.366477
O O11 0.000000 0.000000 0.554506
O O12 0.438215 0.106140 0.514310
O O13 0.600310 0.070786 0.295327
O O14 0.636492 0.038657 0.575049
O O15 0.101467 0.741932 0.791773
O O16 0.860547 0.588492 0.267312
O O17 0.000000 0.500000 0.450546
#
# Coordination Sequence:
#
# PCOD9338758 Si02
#       8
#     4   4   4   4   4   4   4   4
#     4  10  19  31  51  82 125 172 210 253 317 398
#     4  11  21  37  55  84 125 165 212 267 322 383
#     4  12  25  39  59  88 121 163 210 266 338 410
#     4  11  24  44  64  89 117 169 221 287 330 384
#     4  11  22  36  53  85 122 159 200 260 326 386
#     4  10  20  30  51  78 122 171 204 253 317 384
#     4  11  25  43  65  87 118 162 225 274 337 394
#     4  10  18  30  50  82 126 182 213 243 313 405
#
# _framework density 20.127084
#
# number of rings (size 3 to 8) (size 9 to 14) (size 15 to 20)
#    0.000    1.250    2.500    6.750    3.500    1.000 
#    0.000    0.000    0.000    0.000    0.000    0.000 
#    0.000   21.000    0.500    0.000    0.000    0.000 
#
# Total GULP energy -178448.972807 kJ/mol
# GULP energy per Si atom -5576.530400 kJ/mol
# Density = 2.008127 g / cm^3
# Si number density = 20.127084 Si / 1000 Ang^3
#
#
#
# Elastic Constant Matrix: (Units=GPa)
#
#
# Indices 1 2 3 4 5 6 
#
# 1 24.1833 38.3064 30.3370 0.0000 0.0000 0.0000
# 2 38.3064 122.3308 38.2489 0.0000 0.0000 0.0000
# 3 30.3370 38.2489 87.2526 0.0000 0.0000 0.0000
# 4 0.0000 0.0000 0.0000 43.7775 0.0000 0.0000
# 5 0.0000 0.0000 0.0000 0.0000 5.3394 0.0000
# 6 0.0000 0.0000 0.0000 0.0000 0.0000 22.8131
#
#
#
# Elastic Compliance Matrix: (Units=1/GPa)
#
#
# Indices 1 2 3 4 5 6 
#
# 1 0.129681 -0.030721 -0.031622 0.000000 0.000000 0.000000
# 2 -0.030721 0.016751 0.003338 0.000000 0.000000 0.000000
# 3 -0.031622 0.003338 0.020992 0.000000 0.000000 0.000000
# 4 0.000000 0.000000 0.000000 0.022843 0.000000 0.000000
# 5 0.000000 0.000000 0.000000 0.000000 0.187288 0.000000
# 6 0.000000 0.000000 0.000000 0.000000 0.000000 0.043835
#
#
# Mechanical properties :
#
#
# Convention : Reuss Voigt Hill
#
# Bulk Modulus (GPa) = 20.23667 49.72791 34.98229
# Shear Modulus (GPa) = 8.99490 22.84428 15.91959
#
# Velocity S-wave (km/s) = 2.11631 3.37263 2.81544
# Velocity P-wave (km/s) = 4.00599 6.31877 5.29031
#
# Compressibility (1/GPa) = 0.04941523
#
# Stress axis : x y z
#
# Youngs Moduli (GPa) = 7.71120 59.69935 47.63670
#
# Poissons Ratio (x) = 1.83402 1.50637
# Poissons Ratio (y) = 0.23690 -0.15903
# Poissons Ratio (z) = 0.24384 -0.19930
#
# Static dielectric constant tensor:
#      x y z
#    x 1.720740 0.000000 0.000000 
#    y 0.000000 1.738020 0.000000 
#    z 0.000000 0.000000 1.747880 
# 
# From -- ./inp_files/1488.got.cif
#   From: 2010.05.17/outbox.cif.g08.bks.cpg/sg27_1_cif.got.tgz:1488.got - 2010.06.04 01:11:05.
