data_PCOD9338889
_publ_section_title
;
Structure prediction by ZEFSAII (Michael W. Deem and Ramdas Pophale) SiO2 
 PCOD9338889
Probable space group: P C C 2
;
_chemical_formula_sum "Si O2"
_cell_formula_units_Z 26
_cell_length_a 10.861668
_cell_length_b 12.811821
_cell_length_c 10.036993
_cell_angle_alpha 90.000000
_cell_angle_beta 90.000000
_cell_angle_gamma 90.000000
_cell_volume 1396.725324
_symmetry_space_group_name_H-M "P C C 2"
_symmetry_group_IT_number 27
_symmetry_cell_setting 'orthorhombic'
loop_
_space_group_symop_operation_xyz
x,y,z
-x,-y,z
-x,y,1/2+z
x,-y,1/2+z
loop_
_atom_site_type_symbol
_atom_site_label
_atom_site_fract_x
_atom_site_fract_y
_atom_site_fract_z
Si Si1 0.393428 0.817343 0.185320
Si Si2 0.607941 0.712410 0.292830
Si Si3 0.514006 0.378257 0.057237
Si Si4 0.857365 0.167382 0.838941
Si Si5 0.755496 0.936516 0.871328
Si Si6 0.035130 0.121569 0.070945
Si Si7 0.500000 0.000000 0.000291
O O1 0.505470 0.803220 0.289984
O O2 0.268671 0.859130 0.248806
O O3 0.446495 0.903807 0.086331
O O4 0.385017 0.701189 0.122661
O O5 0.602729 0.670578 0.139544
O O6 0.547113 0.634496 0.401187
O O7 0.739499 0.757697 0.331686
O O8 0.500000 0.500000 0.086161
O O9 0.942255 0.179829 0.709052
O O10 0.813509 0.046535 0.829477
O O11 0.933749 0.172651 0.974890
O O12 0.838857 0.885702 0.985232
O O13 0.619932 0.963079 0.922517
O O14 0.000000 0.000000 0.095273
#
# Coordination Sequence:
#
# PCOD9338889 Si02
#       7
#     4   4   4   4   4   4   2
#     4  10  21  31  55  88 121 156 193 231 308 356
#     4  10  22  37  60  88 116 147 200 242 316 359
#     4  10  22  39  59  89 123 153 196 250 311 381
#     4  11  22  37  55  83 118 163 207 247 286 358
#     4  11  20  32  53  80 124 165 194 245 285 360
#     4  10  22  36  53  77 120 169 210 238 289 347
#     4  12  20  32  50  90 130 158 188 244 294 370
#
# _framework density 18.61497
#
# number of rings (size 3 to 8) (size 9 to 14) (size 15 to 20)
#    0.923    0.615    0.000    7.846    2.154    3.692 
#    0.000    0.000    0.000    0.000    0.000    8.615 
#    0.000    0.000    0.000    0.000    0.000    0.000 
#
# Total GULP energy -144751.757696 kJ/mol
# GULP energy per Si atom -5567.375296 kJ/mol
# Density = 1.857260 g / cm^3
# Si number density = 18.614970 Si / 1000 Ang^3
#
#
#
# Elastic Constant Matrix: (Units=GPa)
#
#
# Indices 1 2 3 4 5 6 
#
# 1 70.4476 15.7776 39.5295 0.0000 0.0000 0.0000
# 2 15.7776 79.5849 28.0849 0.0000 0.0000 0.0000
# 3 39.5295 28.0849 83.4697 0.0000 0.0000 0.0000
# 4 0.0000 0.0000 0.0000 12.8176 0.0000 0.0000
# 5 0.0000 0.0000 0.0000 0.0000 35.3178 0.0000
# 6 0.0000 0.0000 0.0000 0.0000 0.0000 8.4025
#
#
#
# Elastic Compliance Matrix: (Units=1/GPa)
#
#
# Indices 1 2 3 4 5 6 
#
# 1 0.019365 -0.000684 -0.008941 0.000000 0.000000 0.000000
# 2 -0.000684 0.014282 -0.004482 0.000000 0.000000 0.000000
# 3 -0.008941 -0.004482 0.017722 0.000000 0.000000 0.000000
# 4 0.000000 0.000000 0.000000 0.078018 0.000000 0.000000
# 5 0.000000 0.000000 0.000000 0.000000 0.028314 0.000000
# 6 0.000000 0.000000 0.000000 0.000000 0.000000 0.119013
#
#
# Mechanical properties :
#
#
# Convention : Reuss Voigt Hill
#
# Bulk Modulus (GPa) = 43.18328 44.47624 43.82976
# Shear Modulus (GPa) = 15.99251 21.31491 18.65371
#
# Velocity S-wave (km/s) = 2.93426 3.38752 3.16900
# Velocity P-wave (km/s) = 5.89307 6.26458 6.08166
#
# Compressibility (1/GPa) = 0.02315711
#
# Stress axis : x y z
#
# Youngs Moduli (GPa) = 51.63976 70.01666 56.42566
#
# Poissons Ratio (x) = 0.04789 0.50448
# Poissons Ratio (y) = 0.03532 0.25288
# Poissons Ratio (z) = 0.46169 0.31379
#
# Static dielectric constant tensor:
#      x y z
#    x 1.661980 0.000000 0.000000 
#    y 0.000000 1.674190 0.000000 
#    z 0.000000 0.000000 1.774980 
# 
# From -- ./inp_files/1442.got.cif
#   From: 2010.05.17/outbox.cif.g08.bks.cpg/sg27_1_cif.got.tgz:1442.got - 2010.06.04 01:11:05.
