data_PCOD9338740
_publ_section_title
;
Structure prediction by ZEFSAII (Michael W. Deem and Ramdas Pophale) SiO2 
 PCOD9338740
Probable space group: P C C 2
;
_chemical_formula_sum "Si O2"
_cell_formula_units_Z 32
_cell_length_a 38.249590
_cell_length_b 6.880907
_cell_length_c 5.280870
_cell_angle_alpha 90.000000
_cell_angle_beta 90.000000
_cell_angle_gamma 90.000000
_cell_volume 1389.882059
_symmetry_space_group_name_H-M "P C C 2"
_symmetry_group_IT_number 27
_symmetry_cell_setting 'orthorhombic'
loop_
_space_group_symop_operation_xyz
x,y,z
-x,-y,z
-x,y,1/2+z
x,-y,1/2+z
loop_
_atom_site_type_symbol
_atom_site_label
_atom_site_fract_x
_atom_site_fract_y
_atom_site_fract_z
Si Si1 0.120159 0.726501 0.987540
Si Si2 0.013760 0.221721 0.982760
Si Si3 0.337753 0.875713 0.829229
Si Si4 0.195418 0.372666 0.326517
Si Si5 0.485810 0.282656 0.270665
Si Si6 0.730429 0.625141 0.434651
Si Si7 0.907232 0.280224 0.487415
Si Si8 0.586351 0.130037 0.918276
O O1 0.159333 0.734407 0.882588
O O2 0.095489 0.807104 0.767749
O O3 0.105998 0.503137 0.022823
O O4 0.117795 0.803516 0.271042
O O5 0.010664 0.305597 0.263904
O O6 0.000000 0.000000 0.017379
O O7 0.053386 0.250125 0.895730
O O8 0.303933 0.748430 0.883278
O O9 0.375391 0.776125 0.879323
O O10 0.337093 0.953723 0.541650
O O11 0.195046 0.544015 0.541207
O O12 0.232423 0.269468 0.380614
O O13 0.500000 0.500000 0.230658
O O14 0.510155 0.194789 0.491051
O O15 0.446420 0.268756 0.368512
O O16 0.730279 0.544907 0.721127
O O17 0.584430 0.965816 0.696456
#
# Coordination Sequence:
#
# PCOD9338740 Si02
#       8
#     4   4   4   4   4   4   4   4
#     4  10  17  30  48  80 107 130 165 210 272 311
#     4  10  21  37  52  69  92 133 177 208 258 309
#     4  10  21  40  61  86 122 167 203 246 304 359
#     4  10  16  30  51  80 117 140 171 219 271 330
#     4  10  21  37  53  80 114 148 191 242 319 353
#     4  10  21  35  58  95 123 156 200 246 299 358
#     4  10  18  30  51  75  99 131 166 211 263 310
#     4  10  21  37  59  83 110 151 205 246 286 359
#
# _framework density 23.023534999999999
#
# number of rings (size 3 to 8) (size 9 to 14) (size 15 to 20)
#    0.000    2.000    2.500    2.250    0.000    1.500 
#    4.500    7.500    0.000    0.000   19.500    0.000 
#    0.000    0.000    0.000    0.000    0.000    0.000 
#
# Total GULP energy -178521.739211 kJ/mol
# GULP energy per Si atom -5578.804350 kJ/mol
# Density = 2.297113 g / cm^3
# Si number density = 23.023535 Si / 1000 Ang^3
#
#
#
# Elastic Constant Matrix: (Units=GPa)
#
#
# Indices 1 2 3 4 5 6 
#
# 1 164.1025 1.2730 -18.7124 0.0000 0.0000 0.0000
# 2 1.2730 55.6051 -22.8120 0.0000 0.0000 0.0000
# 3 -18.7124 -22.8120 141.8477 0.0000 0.0000 0.0000
# 4 0.0000 0.0000 0.0000 -14.2094 0.0000 0.0000
# 5 0.0000 0.0000 0.0000 0.0000 38.8279 0.0000
# 6 0.0000 0.0000 0.0000 0.0000 0.0000 20.4836
#
#
#
# Elastic Compliance Matrix: (Units=1/GPa)
#
#
# Indices 1 2 3 4 5 6 
#
# 1 0.006189 0.000207 0.000850 0.000000 0.000000 0.000000
# 2 0.000207 0.019261 0.003125 0.000000 0.000000 0.000000
# 3 0.000850 0.003125 0.007664 0.000000 0.000000 0.000000
# 4 0.000000 0.000000 0.000000 -0.070376 0.000000 0.000000
# 5 0.000000 0.000000 0.000000 0.000000 0.025755 0.000000
# 6 0.000000 0.000000 0.000000 0.000000 0.000000 0.048820
#
#
# Mechanical properties :
#
#
# Convention : Reuss Voigt Hill
#
# Bulk Modulus (GPa) = 24.10932 31.22807 27.66869
# Shear Modulus (GPa) = 116.88769 35.80751 76.34760
#
# Velocity S-wave (km/s) = 7.13295 3.94795 5.76478
# Velocity P-wave (km/s) = 8.85059 5.86300 7.50692
#
# Compressibility (1/GPa) = 0.04147774
#
# Stress axis : x y z
#
# Youngs Moduli (GPa) = 161.57590 51.91781 130.47245
#
# Poissons Ratio (x) = -0.01074 -0.11087
# Poissons Ratio (y) = -0.03343 -0.40771
# Poissons Ratio (z) = -0.13730 -0.16224
#
# Static dielectric constant tensor:
#      x y z
#    x 1.880170 0.000000 0.000000 
#    y 0.000000 2.257150 0.000000 
#    z 0.000000 0.000000 1.930970 
# 
# From -- ./inp_files/747.got.cif
#   From: 2010.05.17/outbox.cif.g08.bks.cpg/sg27_1_cif.got.tgz:747.got - 2010.06.04 01:11:05.
