data_PCOD9338046
_publ_section_title
;
Structure prediction by ZEFSAII (Michael W. Deem and Ramdas Pophale) SiO2 
 PCOD9338046
Probable space group: P M C 21
;
_chemical_formula_sum "Si O2"
_cell_formula_units_Z 20
_cell_length_a 26.780202
_cell_length_b 7.766294
_cell_length_c 4.989950
_cell_angle_alpha 90.000000
_cell_angle_beta 90.000000
_cell_angle_gamma 90.000000
_cell_volume 1037.824382
_symmetry_space_group_name_H-M "P M C 21"
_symmetry_group_IT_number 26
_symmetry_cell_setting 'orthorhombic'
loop_
_space_group_symop_operation_xyz
x,y,z
-x,-y,1/2+z
-x,y,z
x,-y,1/2+z
loop_
_atom_site_type_symbol
_atom_site_label
_atom_site_fract_x
_atom_site_fract_y
_atom_site_fract_z
Si Si1 0.557051 0.615488 0.324810
Si Si2 0.247830 0.882641 0.258905
Si Si3 0.160611 0.379231 0.620498
Si Si4 0.054055 0.379012 0.737855
Si Si5 0.640564 0.884727 0.159704
O O1 0.500000 0.679115 0.290164
O O2 0.562917 0.547412 0.626155
O O3 0.597547 0.754512 0.241546
O O4 0.205690 0.746825 0.185216
O O5 0.303816 0.812052 0.211380
O O6 0.243294 0.953983 0.559209
O O7 0.162776 0.458818 0.324619
O O8 0.106592 0.290001 0.673552
O O9 0.054910 0.543249 0.536064
O O10 0.000000 0.291666 0.695828
O O11 0.636729 0.050098 0.355941
#
# Coordination Sequence:
#
# PCOD9338046 Si02
#       5
#     4   4   4   4   4
#     4  10  21  36  54  78 106 132 160 202 253 292
#     4  10  21  36  51  71 103 135 161 200 253 294
#     4  10  19  31  51  76  96 124 169 207 239 290
#     4   8  14  25  42  66  94 120 152 199 244 280
#     4  10  21  36  54  75  99 133 172 202 237 292
#
# _framework density 19.271080999999999
#
# number of rings (size 3 to 8) (size 9 to 14) (size 15 to 20)
#    0.000    2.400    0.000    2.400    0.000    2.400 
#    0.000    0.000    0.000    1.200    0.000    0.000 
#    0.000    0.000    0.000    0.000    0.000    0.000 
#
# Total GULP energy -111520.792820 kJ/mol
# GULP energy per Si atom -5576.039641 kJ/mol
# Density = 1.922722 g / cm^3
# Si number density = 19.271081 Si / 1000 Ang^3
#
#
#
# Elastic Constant Matrix: (Units=GPa)
#
#
# Indices 1 2 3 4 5 6 
#
# 1 160.2995 49.2703 -17.0273 0.0000 0.0000 0.0000
# 2 49.2703 19.1809 -11.2889 0.0000 0.0000 0.0000
# 3 -17.0273 -11.2889 61.1136 0.0000 0.0000 0.0000
# 4 0.0000 0.0000 0.0000 8.9927 0.0000 0.0000
# 5 0.0000 0.0000 0.0000 0.0000 22.1888 0.0000
# 6 0.0000 0.0000 0.0000 0.0000 0.0000 150.9788
#
#
#
# Elastic Compliance Matrix: (Units=1/GPa)
#
#
# Indices 1 2 3 4 5 6 
#
# 1 0.032147 -0.086734 -0.007065 0.000000 0.000000 0.000000
# 2 -0.086734 0.292509 0.029867 0.000000 0.000000 0.000000
# 3 -0.007065 0.029867 0.019912 0.000000 0.000000 0.000000
# 4 0.000000 0.000000 0.000000 0.111202 0.000000 0.000000
# 5 0.000000 0.000000 0.000000 0.000000 0.045068 0.000000
# 6 0.000000 0.000000 0.000000 0.000000 0.000000 0.006623
#
#
# Mechanical properties :
#
#
# Convention : Reuss Voigt Hill
#
# Bulk Modulus (GPa) = 4.61462 31.38912 18.00187
# Shear Modulus (GPa) = 7.06654 51.07472 29.07063
#
# Velocity S-wave (km/s) = 1.91700 5.15372 3.88817
# Velocity P-wave (km/s) = 2.70178 7.19291 5.43312
#
# Compressibility (1/GPa) = 0.21670271
#
# Stress axis : x y z
#
# Youngs Moduli (GPa) = 31.10722 3.41869 50.22213
#
# Poissons Ratio (x) = 0.29652 0.35481
# Poissons Ratio (y) = 2.69806 -1.49997
# Poissons Ratio (z) = 0.21977 -0.10211
#
# Static dielectric constant tensor:
#      x y z
#    x 1.717410 0.000000 0.000000 
#    y 0.000000 1.623170 0.000000 
#    z 0.000000 0.000000 1.657480 
# 
# From -- ./inp_files/993.got.cif
#   From: 2010.05.17/outbox.cif.g08.bks.cpg/sg26_1_cif.got.tgz:993.got - 2010.06.04 01:07:29.
