data_PCOD9338631
_publ_section_title
;
Structure prediction by ZEFSAII (Michael W. Deem and Ramdas Pophale) SiO2 
 PCOD9338631
Probable space group: P M C 21
;
_chemical_formula_sum "Si O2"
_cell_formula_units_Z 32
_cell_length_a 8.681305
_cell_length_b 11.684904
_cell_length_c 16.622317
_cell_angle_alpha 90.000000
_cell_angle_beta 90.000000
_cell_angle_gamma 90.000000
_cell_volume 1686.171419
_symmetry_space_group_name_H-M "P M C 21"
_symmetry_group_IT_number 26
_symmetry_cell_setting 'orthorhombic'
loop_
_space_group_symop_operation_xyz
x,y,z
-x,-y,1/2+z
-x,y,z
x,-y,1/2+z
loop_
_atom_site_type_symbol
_atom_site_label
_atom_site_fract_x
_atom_site_fract_y
_atom_site_fract_z
Si Si1 0.815535 0.196078 0.572390
Si Si2 0.814294 0.442921 0.859941
Si Si3 0.188454 0.932717 0.597836
Si Si4 0.176078 0.257854 0.980611
Si Si5 0.683244 0.309778 0.410507
Si Si6 0.322236 0.372497 0.690697
Si Si7 0.181806 0.785739 0.750598
Si Si8 0.829128 0.574276 0.631828
O O1 0.747618 0.254696 0.492422
O O2 0.756674 0.264378 0.650069
O O3 0.000000 0.201954 0.567817
O O4 0.770164 0.063404 0.582629
O O5 0.754528 0.331259 0.908577
O O6 0.751187 0.563196 0.893569
O O7 0.762908 0.419912 0.769226
O O8 0.000000 0.447247 0.866360
O O9 0.245607 0.853145 0.524038
O O10 0.235718 0.879299 0.684379
O O11 0.000000 0.922734 0.597999
O O12 0.000000 0.227393 0.956659
O O13 0.168764 0.349752 0.052495
O O14 0.500000 0.318137 0.414798
O O15 0.731556 0.230311 0.334425
O O16 0.500000 0.351543 0.707186
O O17 0.298419 0.477638 0.628985
O O18 0.193717 0.664526 0.703744
O O19 0.000000 0.805477 0.766733
O O20 0.000000 0.520945 0.639982
#
# Coordination Sequence:
#
# PCOD9338631 Si02
#       8
#     4   4   4   4   4   4   4   4
#     4  11  23  41  63  85 115 158 207 250 296 352
#     4  11  21  36  60  89 121 155 197 241 295 360
#     4   8  17  37  63  89 112 143 199 257 292 337
#     4   8  16  32  58  89 112 137 183 246 293 335
#     4  12  24  38  58  89 127 158 195 244 302 362
#     4  12  24  37  54  81 123 158 192 242 300 355
#     4   9  17  34  62  90 115 148 195 248 295 345
#     4   9  16  31  58  86 113 145 188 234 291 352
#
# _framework density 18.977905
#
# number of rings (size 3 to 8) (size 9 to 14) (size 15 to 20)
#    0.000    2.000    1.250    5.250    0.000    1.000 
#    2.250    1.875    0.000    4.500    0.000    0.000 
#    0.000    0.000    0.000    0.000    0.000    0.000 
#
# Total GULP energy -178477.519101 kJ/mol
# GULP energy per Si atom -5577.422472 kJ/mol
# Density = 1.893471 g / cm^3
# Si number density = 18.977905 Si / 1000 Ang^3
#
#
#
# Elastic Constant Matrix: (Units=GPa)
#
#
# Indices 1 2 3 4 5 6 
#
# 1 70.5368 43.5293 27.8747 0.0000 0.0000 0.0000
# 2 43.5293 142.1456 59.3591 0.0000 0.0000 0.0000
# 3 27.8747 59.3591 71.2731 0.0000 0.0000 0.0000
# 4 0.0000 0.0000 0.0000 26.5269 0.0000 0.0000
# 5 0.0000 0.0000 0.0000 0.0000 -0.8981 0.0000
# 6 0.0000 0.0000 0.0000 0.0000 0.0000 -1.5915
#
#
#
# Elastic Compliance Matrix: (Units=1/GPa)
#
#
# Indices 1 2 3 4 5 6 
#
# 1 0.018121 -0.003971 -0.003780 0.000000 0.000000 0.000000
# 2 -0.003971 0.011656 -0.008155 0.000000 0.000000 0.000000
# 3 -0.003780 -0.008155 0.022301 0.000000 0.000000 0.000000
# 4 0.000000 0.000000 0.000000 0.037698 0.000000 0.000000
# 5 0.000000 0.000000 0.000000 0.000000 -1.113436 0.000000
# 6 0.000000 0.000000 0.000000 0.000000 0.000000 -0.628353
#
#
# Mechanical properties :
#
#
# Convention : Reuss Voigt Hill
#
# Bulk Modulus (GPa) = 49.34221 60.60908 54.97564
# Shear Modulus (GPa) = -3.09896 15.02030 5.96067
#
# Velocity S-wave (km/s) = -1.27925 2.81635 1.77417
# Velocity P-wave (km/s) = 4.88613 6.52547 5.76437
#
# Compressibility (1/GPa) = 0.02026662
#
# Stress axis : x y z
#
# Youngs Moduli (GPa) = 55.18387 85.78922 44.84140
#
# Poissons Ratio (x) = 0.34064 0.16951
# Poissons Ratio (y) = 0.21912 0.36568
# Poissons Ratio (z) = 0.20861 0.69962
#
# Static dielectric constant tensor:
#      x y z
#    x 1.651490 0.000000 0.000000 
#    y 0.000000 1.667860 0.000000 
#    z 0.000000 0.000000 1.701000 
# 
# From -- ./inp_files/4188.got.cif
#   From: 2010.05.17/outbox.cif.g08.bks.cpg/sg26_3_cif.got.tgz:4188.got - 2010.06.04 01:07:29.
