data_PCOD9338278
_publ_section_title
;
Structure prediction by ZEFSAII (Michael W. Deem and Ramdas Pophale) SiO2 
 PCOD9338278
Probable space group: P M C 21
;
_chemical_formula_sum "Si O2"
_cell_formula_units_Z 32
_cell_length_a 7.617967
_cell_length_b 16.275734
_cell_length_c 11.511665
_cell_angle_alpha 90.000000
_cell_angle_beta 90.000000
_cell_angle_gamma 90.000000
_cell_volume 1427.308372
_symmetry_space_group_name_H-M "P M C 21"
_symmetry_group_IT_number 26
_symmetry_cell_setting 'orthorhombic'
loop_
_space_group_symop_operation_xyz
x,y,z
-x,-y,1/2+z
-x,y,z
x,-y,1/2+z
loop_
_atom_site_type_symbol
_atom_site_label
_atom_site_fract_x
_atom_site_fract_y
_atom_site_fract_z
Si Si1 0.698859 0.142436 0.758490
Si Si2 0.201717 0.271749 0.577609
Si Si3 0.214782 0.447887 0.655352
Si Si4 0.294889 0.987097 0.435975
Si Si5 0.209711 0.142533 0.131543
Si Si6 0.789780 0.727932 0.447710
Si Si7 0.786479 0.461349 0.916638
Si Si8 0.205532 0.162799 0.386030
O O1 0.500000 0.124330 0.719172
O O2 0.795873 0.191370 0.658397
O O3 0.776823 0.062859 0.823308
O O4 0.695739 0.211198 0.859368
O O5 0.272483 0.352313 0.641552
O O6 0.284397 0.237969 0.458916
O O7 0.000000 0.293746 0.553202
O O8 0.270658 0.490412 0.533529
O O9 0.270865 0.481704 0.783153
O O10 0.000000 0.451956 0.659045
O O11 0.500000 0.998390 0.414392
O O12 0.276495 0.928820 0.547338
O O13 0.214231 0.076007 0.451880
O O14 0.283411 0.144479 0.260304
O O15 0.000000 0.129827 0.135314
O O16 0.240490 0.230804 0.072125
O O17 0.738849 0.634001 0.435932
O O18 0.000000 0.733046 0.422508
O O19 0.000000 0.467446 0.916356
O O20 0.000000 0.182778 0.368859
#
# Coordination Sequence:
#
# PCOD9338278 Si02
#       8
#     4   4   4   4   4   4   4   4
#     4  10  20  34  54  78 102 134 178 222 261 312
#     4  10  20  35  54  77 108 144 178 218 268 324
#     4   9  17  29  48  78 111 139 176 222 272 324
#     4  10  22  37  54  77 104 137 178 224 269 317
#     4   9  19  35  53  76 105 136 175 220 269 326
#     4   9  16  31  55  78 102 136 174 214 265 319
#     4   9  16  27  48  79 109 138 174 221 272 322
#     4  10  22  36  52  77 107 140 177 221 274 326
#
# _framework density 22.419820999999999
#
# number of rings (size 3 to 8) (size 9 to 14) (size 15 to 20)
#    0.000    2.500    1.250    0.750    1.750    3.500 
#    0.000    5.000    0.000    0.750    0.000    0.000 
#    0.000    0.000    0.000    0.000    0.000    0.000 
#
# Total GULP energy -178407.778716 kJ/mol
# GULP energy per Si atom -5575.243085 kJ/mol
# Density = 2.236879 g / cm^3
# Si number density = 22.419821 Si / 1000 Ang^3
#
#
#
# Elastic Constant Matrix: (Units=GPa)
#
#
# Indices 1 2 3 4 5 6 
#
# 1 42.3968 4.0792 5.3989 0.0000 0.0000 0.0000
# 2 4.0792 58.5224 46.7443 0.0000 0.0000 0.0000
# 3 5.3989 46.7443 138.5973 0.0000 0.0000 0.0000
# 4 0.0000 0.0000 0.0000 28.2043 0.0000 0.0000
# 5 0.0000 0.0000 0.0000 0.0000 143.0857 0.0000
# 6 0.0000 0.0000 0.0000 0.0000 0.0000 -80.6556
#
#
#
# Elastic Compliance Matrix: (Units=1/GPa)
#
#
# Indices 1 2 3 4 5 6 
#
# 1 0.023771 -0.001256 -0.000503 0.000000 0.000000 0.000000
# 2 -0.001256 0.023454 -0.007861 0.000000 0.000000 0.000000
# 3 -0.000503 -0.007861 0.009886 0.000000 0.000000 0.000000
# 4 0.000000 0.000000 0.000000 0.035456 0.000000 0.000000
# 5 0.000000 0.000000 0.000000 0.000000 0.006989 0.000000
# 6 0.000000 0.000000 0.000000 0.000000 0.000000 -0.012398
#
#
# Mechanical properties :
#
#
# Convention : Reuss Voigt Hill
#
# Bulk Modulus (GPa) = 26.40416 39.10680 32.75548
# Shear Modulus (GPa) = 42.00933 30.34649 36.17791
#
# Velocity S-wave (km/s) = 4.33339 3.68306 4.02139
# Velocity P-wave (km/s) = 6.06963 5.96384 6.01697
#
# Compressibility (1/GPa) = 0.03787282
#
# Stress axis : x y z
#
# Youngs Moduli (GPa) = 42.06722 42.63616 101.15179
#
# Poissons Ratio (x) = 0.05353 0.05083
# Poissons Ratio (y) = 0.05282 0.79520
# Poissons Ratio (z) = 0.02114 0.33518
#
# Static dielectric constant tensor:
#      x y z
#    x 1.779440 0.000000 0.000000 
#    y 0.000000 1.801890 0.000000 
#    z 0.000000 0.000000 1.899930 
# 
# From -- ./inp_files/3049.got.cif
#   From: 2010.05.17/outbox.cif.g08.bks.cpg/sg26_2_cif.got.tgz:3049.got - 2010.06.04 01:07:29.
