data_PCOD9338348
_publ_section_title
;
Structure prediction by ZEFSAII (Michael W. Deem and Ramdas Pophale) SiO2 
 PCOD9338348
Probable space group: P M C 21
;
_chemical_formula_sum "Si O2"
_cell_formula_units_Z 32
_cell_length_a 13.062281
_cell_length_b 7.395218
_cell_length_c 15.618025
_cell_angle_alpha 90.000000
_cell_angle_beta 90.000000
_cell_angle_gamma 90.000000
_cell_volume 1508.676469
_symmetry_space_group_name_H-M "P M C 21"
_symmetry_group_IT_number 26
_symmetry_cell_setting 'orthorhombic'
loop_
_space_group_symop_operation_xyz
x,y,z
-x,-y,1/2+z
-x,y,z
x,-y,1/2+z
loop_
_atom_site_type_symbol
_atom_site_label
_atom_site_fract_x
_atom_site_fract_y
_atom_site_fract_z
Si Si1 0.116871 0.265384 0.891850
Si Si2 0.389002 0.070628 0.722616
Si Si3 0.116035 0.158925 0.087674
Si Si4 0.742793 0.150396 0.561324
Si Si5 0.715383 0.544978 0.834347
Si Si6 0.385293 0.525577 0.004532
Si Si7 0.324344 0.690539 0.662440
Si Si8 0.725288 0.968551 0.880860
O O1 0.185212 0.424901 0.853052
O O2 0.000000 0.277764 0.864373
O O3 0.168976 0.074784 0.867755
O O4 0.120078 0.260246 0.995736
O O5 0.500000 0.151838 0.710444
O O6 0.387403 0.857712 0.699641
O O7 0.353161 0.073029 0.820248
O O8 0.310352 0.142511 0.652883
O O9 0.207702 0.241826 0.144221
O O10 0.000000 0.173134 0.120659
O O11 0.147674 0.947307 0.072173
O O12 0.712655 0.348418 0.528924
O O13 0.697211 0.032254 0.481589
O O14 0.679403 0.538605 0.736150
O O15 0.733827 0.759860 0.851836
O O16 0.633157 0.482763 0.905233
O O17 0.500000 0.607495 0.013326
O O18 0.373928 0.368877 0.073557
#
# Coordination Sequence:
#
# PCOD9338348 Si02
#       8
#     4   4   4   4   4   4   4   4
#     4  10  20  38  63  87 117 156 198 248 307 357
#     4  10  20  36  58  84 113 156 198 239 299 355
#     4   9  18  38  63  84 115 155 194 248 305 355
#     4   9  20  36  56  84 117 151 195 247 292 359
#     4  10  22  39  61  86 122 157 201 252 298 363
#     4  11  22  38  59  87 122 160 200 249 306 358
#     4  10  21  37  59  85 122 152 199 249 297 364
#     4   9  21  38  57  85 120 153 193 250 292 359
#
# _framework density 21.210643999999998
#
# number of rings (size 3 to 8) (size 9 to 14) (size 15 to 20)
#    0.000    2.250    1.250    0.750    1.750    6.500 
#    0.000    8.125    0.000    0.000    0.000    0.000 
#    0.000    0.000    0.000    0.000    0.000    0.000 
#
# Total GULP energy -178260.138677 kJ/mol
# GULP energy per Si atom -5570.629334 kJ/mol
# Density = 2.116237 g / cm^3
# Si number density = 21.210644 Si / 1000 Ang^3
#
#
#
# Elastic Constant Matrix: (Units=GPa)
#
#
# Indices 1 2 3 4 5 6 
#
# 1 70.9857 6.1395 11.4043 0.0000 0.0000 0.0000
# 2 6.1395 50.3157 20.4955 0.0000 0.0000 0.0000
# 3 11.4043 20.4955 63.8660 0.0000 0.0000 0.0000
# 4 0.0000 0.0000 0.0000 25.0223 0.0000 0.0000
# 5 0.0000 0.0000 0.0000 0.0000 7.6075 0.0000
# 6 0.0000 0.0000 0.0000 0.0000 0.0000 11.2952
#
#
#
# Elastic Compliance Matrix: (Units=1/GPa)
#
#
# Indices 1 2 3 4 5 6 
#
# 1 0.014533 -0.000824 -0.002331 0.000000 0.000000 0.000000
# 2 -0.000824 0.022910 -0.007205 0.000000 0.000000 0.000000
# 3 -0.002331 -0.007205 0.018386 0.000000 0.000000 0.000000
# 4 0.000000 0.000000 0.000000 0.039964 0.000000 0.000000
# 5 0.000000 0.000000 0.000000 0.000000 0.131449 0.000000
# 6 0.000000 0.000000 0.000000 0.000000 0.000000 0.088533
#
#
# Mechanical properties :
#
#
# Convention : Reuss Voigt Hill
#
# Bulk Modulus (GPa) = 28.48201 29.02733 28.75467
# Shear Modulus (GPa) = 14.35962 18.59353 16.47658
#
# Velocity S-wave (km/s) = 2.60475 2.96398 2.79015
# Velocity P-wave (km/s) = 4.74379 5.04267 4.89551
#
# Compressibility (1/GPa) = 0.03510988
#
# Stress axis : x y z
#
# Youngs Moduli (GPa) = 68.80864 43.64917 54.38873
#
# Poissons Ratio (x) = 0.03596 0.12676
# Poissons Ratio (y) = 0.05669 0.39187
# Poissons Ratio (z) = 0.16037 0.31449
#
# Static dielectric constant tensor:
#      x y z
#    x 1.735840 0.000000 0.000000 
#    y 0.000000 1.825510 0.000000 
#    z 0.000000 0.000000 1.828280 
# 
# From -- ./inp_files/4584.got.cif
#   From: 2010.05.17/outbox.cif.g08.bks.cpg/sg26_3_cif.got.tgz:4584.got - 2010.06.04 01:07:29.
