data_PCOD9338117
_publ_section_title
;
Structure prediction by ZEFSAII (Michael W. Deem and Ramdas Pophale) SiO2 
 PCOD9338117
Probable space group: P M C 21
;
_chemical_formula_sum "Si O2"
_cell_formula_units_Z 32
_cell_length_a 7.959421
_cell_length_b 14.913206
_cell_length_c 12.971695
_cell_angle_alpha 90.000000
_cell_angle_beta 90.000000
_cell_angle_gamma 90.000000
_cell_volume 1539.746488
_symmetry_space_group_name_H-M "P M C 21"
_symmetry_group_IT_number 26
_symmetry_cell_setting 'orthorhombic'
loop_
_space_group_symop_operation_xyz
x,y,z
-x,-y,1/2+z
-x,y,z
x,-y,1/2+z
loop_
_atom_site_type_symbol
_atom_site_label
_atom_site_fract_x
_atom_site_fract_y
_atom_site_fract_z
Si Si1 0.803359 0.360514 0.037550
Si Si2 0.806576 0.138887 0.527263
Si Si3 0.303223 0.665363 0.309513
Si Si4 0.793584 0.942728 0.824015
Si Si5 0.797339 0.138382 0.754888
Si Si6 0.703209 0.451275 0.613626
Si Si7 0.203553 0.756245 0.720151
Si Si8 0.300511 0.680208 0.930731
O O1 0.777112 0.449873 0.104654
O O2 0.737498 0.278811 0.108799
O O3 0.000000 0.345034 0.020425
O O4 0.726973 0.372106 0.924018
O O5 0.731448 0.076710 0.439499
O O6 0.728196 0.144115 0.638762
O O7 0.799713 0.236886 0.478578
O O8 0.000000 0.110208 0.540899
O O9 0.500000 0.667418 0.290576
O O10 0.244292 0.768431 0.309285
O O11 0.234441 0.606935 0.212411
O O12 0.742682 0.857106 0.753641
O O13 0.000000 0.940822 0.823702
O O14 0.739125 0.042096 0.795014
O O15 0.000000 0.135054 0.754061
O O16 0.500000 0.458784 0.620359
O O17 0.742515 0.402839 0.504293
O O18 0.260830 0.686734 0.809581
O O19 0.000000 0.755814 0.719759
O O20 0.500000 0.695578 0.942966
#
# Coordination Sequence:
#
# PCOD9338117 Si02
#       8
#     4   4   4   4   4   4   4   4
#     4  11  25  41  62  91 121 155 197 248 298 351
#     4   9  17  31  52  80 113 150 193 245 299 345
#     4  11  24  43  62  85 123 161 196 240 296 359
#     4   8  16  32  55  83 116 154 197 243 299 356
#     4  10  19  33  58  87 114 153 202 249 294 346
#     4  10  23  41  60  84 115 157 197 237 295 356
#     4   9  20  39  59  85 119 153 192 244 301 349
#     4  10  19  34  58  83 109 147 194 240 288 348
#
# _framework density 20.782643
#
# number of rings (size 3 to 8) (size 9 to 14) (size 15 to 20)
#    0.000    2.250    1.250    1.875    1.750    4.000 
#    0.000    6.250    0.000    1.500    0.000    0.000 
#    0.000    0.000    0.000    0.000    0.000    0.000 
#
# Total GULP energy -178367.248747 kJ/mol
# GULP energy per Si atom -5573.976523 kJ/mol
# Density = 2.073534 g / cm^3
# Si number density = 20.782643 Si / 1000 Ang^3
#
#
#
# Elastic Constant Matrix: (Units=GPa)
#
#
# Indices 1 2 3 4 5 6 
#
# 1 21.1134 2.0828 1.6704 0.0000 0.0000 0.0000
# 2 2.0828 88.9446 41.7589 0.0000 0.0000 0.0000
# 3 1.6704 41.7589 72.8966 0.0000 0.0000 0.0000
# 4 0.0000 0.0000 0.0000 18.6355 0.0000 0.0000
# 5 0.0000 0.0000 0.0000 0.0000 19.8425 0.0000
# 6 0.0000 0.0000 0.0000 0.0000 0.0000 52.1653
#
#
#
# Elastic Compliance Matrix: (Units=1/GPa)
#
#
# Indices 1 2 3 4 5 6 
#
# 1 0.047493 -0.000822 -0.000617 0.000000 0.000000 0.000000
# 2 -0.000822 0.015393 -0.008799 0.000000 0.000000 0.000000
# 3 -0.000617 -0.008799 0.018773 0.000000 0.000000 0.000000
# 4 0.000000 0.000000 0.000000 0.053661 0.000000 0.000000
# 5 0.000000 0.000000 0.000000 0.000000 0.050397 0.000000
# 6 0.000000 0.000000 0.000000 0.000000 0.000000 0.019170
#
#
# Mechanical properties :
#
#
# Convention : Reuss Voigt Hill
#
# Bulk Modulus (GPa) = 16.34470 30.44209 23.39339
# Shear Modulus (GPa) = 20.34514 27.29149 23.81831
#
# Velocity S-wave (km/s) = 3.13221 3.62772 3.38903
# Velocity P-wave (km/s) = 4.57850 5.67687 5.15701
#
# Compressibility (1/GPa) = 0.06118192
#
# Stress axis : x y z
#
# Youngs Moduli (GPa) = 21.05559 64.96284 53.26835
#
# Poissons Ratio (x) = 0.05342 0.03288
# Poissons Ratio (y) = 0.01732 0.46872
# Poissons Ratio (z) = 0.01300 0.57163
#
# Static dielectric constant tensor:
#      x y z
#    x 1.767570 0.000000 0.000000 
#    y 0.000000 1.757870 0.000000 
#    z 0.000000 0.000000 1.805990 
# 
# From -- ./inp_files/3067.got.cif
#   From: 2010.05.17/outbox.cif.g08.bks.cpg/sg26_2_cif.got.tgz:3067.got - 2010.06.04 01:07:29.
