data_PCOD9338387
_publ_section_title
;
Structure prediction by ZEFSAII (Michael W. Deem and Ramdas Pophale) SiO2 
 PCOD9338387
Probable space group: P M C 21
;
_chemical_formula_sum "Si O2"
_cell_formula_units_Z 32
_cell_length_a 7.932761
_cell_length_b 12.344481
_cell_length_c 15.718862
_cell_angle_alpha 90.000000
_cell_angle_beta 90.000000
_cell_angle_gamma 90.000000
_cell_volume 1539.282411
_symmetry_space_group_name_H-M "P M C 21"
_symmetry_group_IT_number 26
_symmetry_cell_setting 'orthorhombic'
loop_
_space_group_symop_operation_xyz
x,y,z
-x,-y,1/2+z
-x,y,z
x,-y,1/2+z
loop_
_atom_site_type_symbol
_atom_site_label
_atom_site_fract_x
_atom_site_fract_y
_atom_site_fract_z
Si Si1 0.797832 0.984843 0.366730
Si Si2 0.301053 0.148855 0.221412
Si Si3 0.706208 0.535249 0.046808
Si Si4 0.295865 0.448181 0.864256
Si Si5 0.802243 0.233642 0.776477
Si Si6 0.693106 0.232428 0.591811
Si Si7 0.705980 0.395994 0.209975
Si Si8 0.804344 0.993118 0.559214
O O1 0.739481 0.877792 0.317301
O O2 0.731211 0.982536 0.463550
O O3 0.000000 0.978291 0.373691
O O4 0.761862 0.086754 0.305804
O O5 0.500000 0.158100 0.232289
O O6 0.233947 0.271493 0.211001
O O7 0.270552 0.077129 0.136508
O O8 0.500000 0.539992 0.050705
O O9 0.764177 0.659879 0.048546
O O10 0.762105 0.464703 0.127666
O O11 0.754850 0.481663 0.958510
O O12 0.500000 0.439942 0.861703
O O13 0.220220 0.333148 0.839475
O O14 0.245919 0.537912 0.794448
O O15 0.700082 0.258876 0.691645
O O16 0.000000 0.221284 0.754429
O O17 0.500000 0.215075 0.564232
O O18 0.788398 0.120295 0.579664
O O19 0.500000 0.393797 0.207130
O O20 0.000000 0.962110 0.556773
#
# Coordination Sequence:
#
# PCOD9338387 Si02
#       8
#     4   4   4   4   4   4   4   4
#     4  10  24  43  61  82 120 166 199 241 305 362
#     4  11  23  38  62  91 120 154 201 255 298 352
#     4   9  19  35  59  88 117 150 190 240 298 346
#     4  10  20  37  62  86 116 156 193 241 297 347
#     4  11  22  39  61  86 119 157 199 247 294 354
#     4  11  21  38  65  91 115 152 202 252 300 354
#     4   9  19  36  55  85 121 150 188 239 293 346
#     4  11  24  42  61  85 122 163 200 245 305 363
#
# _framework density 20.788906999999998
#
# number of rings (size 3 to 8) (size 9 to 14) (size 15 to 20)
#    0.000    1.750    2.500    1.500    3.500    1.500 
#    0.000    2.500    0.000    0.000    0.000    0.000 
#    0.000    0.000    0.000    0.000    0.000    0.000 
#
# Total GULP energy -178718.085472 kJ/mol
# GULP energy per Si atom -5584.940171 kJ/mol
# Density = 2.074159 g / cm^3
# Si number density = 20.788907 Si / 1000 Ang^3
#
#
#
# Elastic Constant Matrix: (Units=GPa)
#
#
# Indices 1 2 3 4 5 6 
#
# 1 16.9565 -5.8435 -4.6096 0.0000 0.0000 0.0000
# 2 -5.8435 96.7481 0.2814 0.0000 0.0000 0.0000
# 3 -4.6096 0.2814 74.5666 0.0000 0.0000 0.0000
# 4 0.0000 0.0000 0.0000 31.7111 0.0000 0.0000
# 5 0.0000 0.0000 0.0000 0.0000 3.6085 0.0000
# 6 0.0000 0.0000 0.0000 0.0000 0.0000 52.2132
#
#
#
# Elastic Compliance Matrix: (Units=1/GPa)
#
#
# Indices 1 2 3 4 5 6 
#
# 1 0.061272 0.003690 0.003774 0.000000 0.000000 0.000000
# 2 0.003690 0.010558 0.000188 0.000000 0.000000 0.000000
# 3 0.003774 0.000188 0.013643 0.000000 0.000000 0.000000
# 4 0.000000 0.000000 0.000000 0.031535 0.000000 0.000000
# 5 0.000000 0.000000 0.000000 0.000000 0.277121 0.000000
# 6 0.000000 0.000000 0.000000 0.000000 0.000000 0.019152
#
#
# Mechanical properties :
#
#
# Convention : Reuss Voigt Hill
#
# Bulk Modulus (GPa) = 9.92284 18.65864 14.29074
# Shear Modulus (GPa) = 11.58560 30.73610 21.16085
#
# Velocity S-wave (km/s) = 2.36328 3.84928 3.19390
# Velocity P-wave (km/s) = 3.49718 5.36197 4.52664
#
# Compressibility (1/GPa) = 0.10077757
#
# Stress axis : x y z
#
# Youngs Moduli (GPa) = 16.32067 94.71105 73.29543
#
# Poissons Ratio (x) = -0.34946 -0.27661
# Poissons Ratio (y) = -0.06022 -0.01380
# Poissons Ratio (z) = -0.06159 -0.01783
#
# Static dielectric constant tensor:
#      x y z
#    x 1.748890 0.000000 0.000000 
#    y 0.000000 1.758120 0.000000 
#    z 0.000000 0.000000 1.743670 
# 
# From -- ./inp_files/4271.got.cif
#   From: 2010.05.17/outbox.cif.g08.bks.cpg/sg26_3_cif.got.tgz:4271.got - 2010.06.04 01:07:29.
