data_PCOD9338400
_publ_section_title
;
Structure prediction by ZEFSAII (Michael W. Deem and Ramdas Pophale) SiO2 
 PCOD9338400
Probable space group: P M C 21
;
_chemical_formula_sum "Si O2"
_cell_formula_units_Z 24
_cell_length_a 7.615986
_cell_length_b 14.183012
_cell_length_c 10.347647
_cell_angle_alpha 90.000000
_cell_angle_beta 90.000000
_cell_angle_gamma 90.000000
_cell_volume 1117.728210
_symmetry_space_group_name_H-M "P M C 21"
_symmetry_group_IT_number 26
_symmetry_cell_setting 'orthorhombic'
loop_
_space_group_symop_operation_xyz
x,y,z
-x,-y,1/2+z
-x,y,z
x,-y,1/2+z
loop_
_atom_site_type_symbol
_atom_site_label
_atom_site_fract_x
_atom_site_fract_y
_atom_site_fract_z
Si Si1 0.288399 0.635382 0.370570
Si Si2 0.295287 0.577116 0.883121
Si Si3 0.784087 0.083332 0.231063
Si Si4 0.286975 0.278188 0.600264
Si Si5 0.208094 0.707782 0.652106
Si Si6 0.792193 0.065477 0.520527
O O1 0.500000 0.630996 0.359883
O O2 0.219731 0.527992 0.379175
O O3 0.226361 0.687327 0.241001
O O4 0.244868 0.688601 0.502525
O O5 0.500000 0.565609 0.917304
O O6 0.284530 0.626973 0.744199
O O7 0.222111 0.648939 0.990344
O O8 0.728041 0.189354 0.196068
O O9 0.722780 0.057355 0.374836
O O10 0.000000 0.083130 0.231892
O O11 0.722381 0.009026 0.124160
O O12 0.500000 0.278663 0.598082
O O13 0.231754 0.172348 0.567747
O O14 0.000000 0.705457 0.672687
O O15 0.000000 0.047069 0.512149
#
# Coordination Sequence:
#
# PCOD9338400 Si02
#       6
#     4   4   4   4   4   4
#     4  10  22  39  59  84 115 157 198 229 276 345
#     4  10  20  39  63  82 111 156 196 231 282 344
#     4   9  20  36  58  84 110 147 188 229 282 346
#     4  10  21  37  58  86 115 146 193 242 283 330
#     4  11  22  37  58  89 120 146 189 241 288 333
#     4  10  20  38  60  81 111 150 190 230 283 346
#
# _framework density 21.472124999999998
#
# number of rings (size 3 to 8) (size 9 to 14) (size 15 to 20)
#    0.000    2.000    1.667    1.500    2.333    4.000 
#    0.000    4.167    0.000    0.000    0.000    0.000 
#    0.000    0.000    0.000    0.000    0.000    0.000 
#
# Total GULP energy -134135.288880 kJ/mol
# GULP energy per Si atom -5588.970370 kJ/mol
# Density = 2.142325 g / cm^3
# Si number density = 21.472125 Si / 1000 Ang^3
#
#
#
# Elastic Constant Matrix: (Units=GPa)
#
#
# Indices 1 2 3 4 5 6 
#
# 1 38.6117 -1.6100 -8.5345 0.0000 0.0000 0.0000
# 2 -1.6100 116.1081 71.6518 0.0000 0.0000 0.0000
# 3 -8.5345 71.6518 171.5434 0.0000 0.0000 0.0000
# 4 0.0000 0.0000 0.0000 92.3390 0.0000 0.0000
# 5 0.0000 0.0000 0.0000 0.0000 13.5482 0.0000
# 6 0.0000 0.0000 0.0000 0.0000 0.0000 20.5037
#
#
#
# Elastic Compliance Matrix: (Units=1/GPa)
#
#
# Indices 1 2 3 4 5 6 
#
# 1 0.026217 -0.000595 0.001553 0.000000 0.000000 0.000000
# 2 -0.000595 0.011617 -0.004882 0.000000 0.000000 0.000000
# 3 0.001553 -0.004882 0.007946 0.000000 0.000000 0.000000
# 4 0.000000 0.000000 0.000000 0.010830 0.000000 0.000000
# 5 0.000000 0.000000 0.000000 0.000000 0.073811 0.000000
# 6 0.000000 0.000000 0.000000 0.000000 0.000000 0.048772
#
#
# Mechanical properties :
#
#
# Convention : Reuss Voigt Hill
#
# Bulk Modulus (GPa) = 26.36261 49.91973 38.14117
# Shear Modulus (GPa) = 25.03957 42.92859 33.98408
#
# Velocity S-wave (km/s) = 3.41859 4.47617 3.98264
# Velocity P-wave (km/s) = 5.28078 7.07205 6.24101
#
# Compressibility (1/GPa) = 0.03793250
#
# Stress axis : x y z
#
# Youngs Moduli (GPa) = 38.14275 86.07993 125.85256
#
# Poissons Ratio (x) = 0.05119 -0.19542
# Poissons Ratio (y) = 0.02268 0.61440
# Poissons Ratio (z) = -0.05923 0.42024
#
# Static dielectric constant tensor:
#      x y z
#    x 1.830580 0.000000 0.000000 
#    y 0.000000 1.734100 0.000000 
#    z 0.000000 0.000000 1.747950 
# 
# From -- ./inp_files/1421.got.cif
#   From: 2010.05.17/outbox.cif.g08.bks.cpg/sg26_1_cif.got.tgz:1421.got - 2010.06.04 01:07:29.
