data_PCOD9338731
_publ_section_title
;
Structure prediction by ZEFSAII (Michael W. Deem and Ramdas Pophale) SiO2 
 PCOD9338731
Probable space group: P C C 2
;
_chemical_formula_sum "Si O2"
_cell_formula_units_Z 28
_cell_length_a 15.532726
_cell_length_b 21.580499
_cell_length_c 5.539909
_cell_angle_alpha 90.000000
_cell_angle_beta 90.000000
_cell_angle_gamma 90.000000
_cell_volume 1856.999534
_symmetry_space_group_name_H-M "P C C 2"
_symmetry_group_IT_number 27
_symmetry_cell_setting 'orthorhombic'
loop_
_space_group_symop_operation_xyz
x,y,z
-x,-y,z
-x,y,1/2+z
x,-y,1/2+z
loop_
_atom_site_type_symbol
_atom_site_label
_atom_site_fract_x
_atom_site_fract_y
_atom_site_fract_z
Si Si1 0.901029 0.974677 0.559040
Si Si2 0.820817 0.668180 0.059040
Si Si3 0.734766 0.538055 0.059040
Si Si4 0.535097 0.429019 0.559040
Si Si5 0.167508 0.710781 0.059040
Si Si6 0.946039 0.831928 0.559040
Si Si7 0.994723 0.380894 0.059040
O O1 0.906140 0.900676 0.559040
O O2 0.862118 0.000000 0.309040
O O3 0.000000 0.000000 0.559040
O O4 0.798291 0.595979 0.059040
O O5 0.786760 0.699033 0.814032
O O6 0.926029 0.668830 0.059040
O O7 0.786760 0.699033 0.304049
O O8 0.745423 0.500000 0.809040
O O9 0.637668 0.565048 0.059040
O O10 0.500000 0.500000 0.559040
O O11 0.500000 0.400755 0.809040
O O12 0.093307 0.657610 0.059040
O O13 0.123207 0.777308 0.059040
O O14 1.000000 0.826223 0.309040
O O15 0.000000 0.416760 0.809040
#
# Coordination Sequence:
#
# PCOD9338731 Si02
#       7
#     4   4   4   4   4   4   4
#     4  10  16  27  33  54  87 105 117 168 220 266
#     4  10  20  32  43  61  85  96 131 178 205 249
#     4  12  21  32  50  68  85 110 125 150 218 261
#     4  10  16  30  48  69  91 101 121 155 172 246
#     4  10  19  31  44  59  73 107 143 182 210 233
#     4  12  18  25  44  60  75 104 145 168 217 273
#     4   8  14  27  42  51  68  93 123 166 207 214
#
# _framework density 15.078086000000001
#
# number of rings (size 3 to 8) (size 9 to 14) (size 15 to 20)
#    0.000    1.714    5.714    4.286    0.000    0.000 
#    0.000    0.000    0.000   23.143    0.000    0.000 
#    0.000    0.000    0.000    0.000    0.000    0.000 
#
# Total GULP energy -155880.078600 kJ/mol
# GULP energy per Si atom -5567.145664 kJ/mol
# Density = 1.504377 g / cm^3
# Si number density = 15.078086 Si / 1000 Ang^3
#
#
#
# Elastic Constant Matrix: (Units=GPa)
#
#
# Indices 1 2 3 4 5 6 
#
# 1 12.0327 6.2387 1.5344 0.0000 0.0000 0.0000
# 2 6.2387 73.0265 48.2437 0.0000 0.0000 0.0000
# 3 1.5344 48.2437 207.4417 0.0000 0.0000 0.0000
# 4 0.0000 0.0000 0.0000 14.5615 0.0000 0.0000
# 5 0.0000 0.0000 0.0000 0.0000 7.8991 0.0000
# 6 0.0000 0.0000 0.0000 0.0000 0.0000 -5.6351
#
#
#
# Elastic Compliance Matrix: (Units=1/GPa)
#
#
# Indices 1 2 3 4 5 6 
#
# 1 0.087247 -0.008303 0.001286 0.000000 0.000000 0.000000
# 2 -0.008303 0.016970 -0.003885 0.000000 0.000000 0.000000
# 3 0.001286 -0.003885 0.005715 0.000000 0.000000 0.000000
# 4 0.000000 0.000000 0.000000 0.068674 0.000000 0.000000
# 5 0.000000 0.000000 0.000000 0.000000 0.126597 0.000000
# 6 0.000000 0.000000 0.000000 0.000000 0.000000 -0.177458
#
#
# Mechanical properties :
#
#
# Convention : Reuss Voigt Hill
#
# Bulk Modulus (GPa) = 11.34728 44.94828 28.14778
# Shear Modulus (GPa) = 27.94463 19.13070 23.53766
#
# Velocity S-wave (km/s) = 4.30970 3.56585 3.95530
# Velocity P-wave (km/s) = 5.68390 6.84316 6.29029
#
# Compressibility (1/GPa) = 0.08812688
#
# Stress axis : x y z
#
# Youngs Moduli (GPa) = 11.46165 58.92884 174.98836
#
# Poissons Ratio (x) = 0.48928 -0.22497
# Poissons Ratio (y) = 0.09517 0.67985
# Poissons Ratio (z) = -0.01474 0.22895
#
# Static dielectric constant tensor:
#      x y z
#    x 1.520890 0.000000 0.000000 
#    y 0.000000 1.462620 0.000000 
#    z 0.000000 0.000000 1.670410 
# 
# From -- ./inp_files/589.got.cif
#   From: 2010.05.17/outbox.cif.g08.bks.cpg/sg27_1_cif.got.tgz:589.got - 2010.06.04 01:11:05.
