data_PCOD9338428
_publ_section_title
;
Structure prediction by ZEFSAII (Michael W. Deem and Ramdas Pophale) SiO2 
 PCOD9338428
Probable space group: P M C 21
;
_chemical_formula_sum "Si O2"
_cell_formula_units_Z 32
_cell_length_a 9.368380
_cell_length_b 11.821310
_cell_length_c 14.888959
_cell_angle_alpha 90.000000
_cell_angle_beta 90.000000
_cell_angle_gamma 90.000000
_cell_volume 1648.900458
_symmetry_space_group_name_H-M "P M C 21"
_symmetry_group_IT_number 26
_symmetry_cell_setting 'orthorhombic'
loop_
_space_group_symop_operation_xyz
x,y,z
-x,-y,1/2+z
-x,y,z
x,-y,1/2+z
loop_
_atom_site_type_symbol
_atom_site_label
_atom_site_fract_x
_atom_site_fract_y
_atom_site_fract_z
Si Si1 0.837012 0.941148 0.363340
Si Si2 0.168019 0.086419 0.186318
Si Si3 0.831146 0.487776 0.008934
Si Si4 0.330533 0.483341 0.824400
Si Si5 0.841063 0.285190 0.750833
Si Si6 0.839200 0.246365 0.543226
Si Si7 0.829603 0.353842 0.193481
Si Si8 0.668482 0.030138 0.524080
O O1 0.828532 0.817616 0.319388
O O2 0.000000 0.956753 0.396709
O O3 0.811217 0.031758 0.284285
O O4 0.725868 0.955333 0.442358
O O5 0.198982 0.220201 0.185740
O O6 0.000000 0.071138 0.163716
O O7 0.261485 0.020281 0.113949
O O8 0.812038 0.622055 0.024432
O O9 0.795491 0.418511 0.099659
O O10 0.000000 0.467435 0.990896
O O11 0.737350 0.460238 0.922188
O O12 0.500000 0.495514 0.828719
O O13 0.280453 0.376665 0.765125
O O14 0.256880 0.589982 0.775109
O O15 0.836571 0.236022 0.650961
O O16 0.000000 0.338595 0.761227
O O17 0.728831 0.156125 0.506357
O O18 0.000000 0.219678 0.511192
O O19 0.000000 0.368317 0.209008
O O20 0.500000 0.030793 0.530952
#
# Coordination Sequence:
#
# PCOD9338428 Si02
#       8
#     4   4   4   4   4   4   4   4
#     4  10  22  41  66  92 120 161 213 262 301 353
#     4  10  22  43  68  92 119 160 216 263 301 354
#     4  10  22  41  66  92 120 161 213 262 301 353
#     4  12  26  40  60  93 134 166 196 247 315 384
#     4  10  20  41  69  91 116 156 214 265 299 352
#     4  10  20  41  69  91 116 156 214 265 299 352
#     4  10  22  43  68  92 119 160 216 263 301 354
#     4  12  26  40  60  93 134 166 196 247 315 384
#
# _framework density 19.406872
#
# number of rings (size 3 to 8) (size 9 to 14) (size 15 to 20)
#    0.000    1.500    2.500    2.250    3.500    3.000 
#    0.000    0.000    0.000    0.000    0.000    0.000 
#    0.000    0.000    0.000    0.000    0.000    0.000 
#
# Total GULP energy -178836.783658 kJ/mol
# GULP energy per Si atom -5588.649489 kJ/mol
# Density = 1.936270 g / cm^3
# Si number density = 19.406872 Si / 1000 Ang^3
#
#
#
# Elastic Constant Matrix: (Units=GPa)
#
#
# Indices 1 2 3 4 5 6 
#
# 1 75.9648 24.6638 26.9688 0.0000 0.0000 0.0000
# 2 24.6638 62.4838 -9.0965 0.0000 0.0000 0.0000
# 3 26.9688 -9.0965 31.9368 0.0000 0.0000 0.0000
# 4 0.0000 0.0000 0.0000 24.4072 0.0000 0.0000
# 5 0.0000 0.0000 0.0000 0.0000 -16.7248 0.0000
# 6 0.0000 0.0000 0.0000 0.0000 0.0000 9.1652
#
#
#
# Elastic Compliance Matrix: (Units=1/GPa)
#
#
# Indices 1 2 3 4 5 6 
#
# 1 0.027993 -0.015118 -0.027945 0.000000 0.000000 0.000000
# 2 -0.015118 0.024861 0.019847 0.000000 0.000000 0.000000
# 3 -0.027945 0.019847 0.060562 0.000000 0.000000 0.000000
# 4 0.000000 0.000000 0.000000 0.040971 0.000000 0.000000
# 5 0.000000 0.000000 0.000000 0.000000 -0.059792 0.000000
# 6 0.000000 0.000000 0.000000 0.000000 0.000000 0.109108
#
#
# Mechanical properties :
#
#
# Convention : Reuss Voigt Hill
#
# Bulk Modulus (GPa) = 14.92847 28.38419 21.65633
# Shear Modulus (GPa) = 18.35108 11.89282 15.12195
#
# Velocity S-wave (km/s) = 3.07839 2.47820 2.79445
# Velocity P-wave (km/s) = 4.51048 4.77977 4.64707
#
# Compressibility (1/GPa) = 0.06698612
#
# Stress axis : x y z
#
# Youngs Moduli (GPa) = 35.72304 40.22386 16.51187
#
# Poissons Ratio (x) = 0.60809 0.46142
# Poissons Ratio (y) = 0.54005 -0.32771
# Poissons Ratio (z) = 0.99827 -0.79833
#
# Static dielectric constant tensor:
#      x y z
#    x 1.651390 0.000000 0.000000 
#    y 0.000000 1.689540 0.000000 
#    z 0.000000 0.000000 1.675090 
# 
# From -- ./inp_files/4323.got.cif
#   From: 2010.05.17/outbox.cif.g08.bks.cpg/sg26_3_cif.got.tgz:4323.got - 2010.06.04 01:07:29.
