data_PCOD9338705
_publ_section_title
;
Structure prediction by ZEFSAII (Michael W. Deem and Ramdas Pophale) SiO2 
 PCOD9338705
Probable space group: P M C 21
;
_chemical_formula_sum "Si O2"
_cell_formula_units_Z 32
_cell_length_a 9.000000
_cell_length_b 12.000000
_cell_length_c 15.000000
_cell_angle_alpha 90.000000
_cell_angle_beta 90.000000
_cell_angle_gamma 90.000000
_cell_volume 1620.000000
_symmetry_space_group_name_H-M "P M C 21"
_symmetry_group_IT_number 26
_symmetry_cell_setting 'orthorhombic'
loop_
_space_group_symop_operation_xyz
x,y,z
-x,-y,1/2+z
-x,y,z
x,-y,1/2+z
loop_
_atom_site_type_symbol
_atom_site_label
_atom_site_fract_x
_atom_site_fract_y
_atom_site_fract_z
Si Si1 0.177615 0.898704 0.989570
Si Si2 0.820780 0.018038 0.804225
Si Si3 0.169000 0.260197 0.827265
Si Si4 0.323232 0.503164 0.309498
Si Si5 0.674951 0.534210 0.604559
Si Si6 0.324910 0.055365 0.132047
Si Si7 0.167084 0.746898 0.538012
Si Si8 0.322534 0.341214 0.470331
O O1 0.000000 0.899475 0.000197
O O2 0.215271 0.972071 0.902108
O O3 0.236985 0.774413 0.975157
O O4 0.252096 0.956577 0.074419
O O5 0.768905 0.145366 0.787811
O O6 0.000000 0.017488 0.796320
O O7 0.746344 0.943385 0.729504
O O8 0.255867 0.373966 0.815435
O O9 0.000000 0.276236 0.794916
O O10 0.163540 0.235512 0.932608
O O11 0.500000 0.513296 0.320889
O O12 0.294490 0.461168 0.209575
O O13 0.272454 0.418707 0.386977
O O14 0.500000 0.560701 0.589687
O O15 0.778306 0.622725 0.556235
O O16 0.699528 0.413905 0.559927
O O17 0.500000 0.041607 0.136678
O O18 0.280104 0.168857 0.083137
O O19 0.000000 0.766422 0.572516
O O20 0.500000 0.320682 0.460690
#
# Coordination Sequence:
#
# PCOD9338705 Si02
#       8
#     4   4   4   4   4   4   4   4
#     4  11  24  44  66  90 127 168 209 258 313 371
#     4  10  23  44  65  91 126 165 208 260 312 368
#     4  10  21  40  65  90 120 156 204 257 309 365
#     4  10  22  39  61  89 124 161 203 251 304 366
#     4  10  22  40  61  90 124 162 204 250 306 366
#     4  12  26  42  65  95 126 164 209 257 313 376
#     4  11  22  41  66  92 122 158 206 259 310 367
#     4  10  22  40  59  87 129 166 203 254 307 363
#
# _framework density 19.753086
#
# number of rings (size 3 to 8) (size 9 to 14) (size 15 to 20)
#    0.000    1.500    2.500    1.875    3.500    3.500 
#    0.000    0.000    0.000    0.000    0.000    0.000 
#    0.000    0.000    0.000    0.000    0.000    0.000 
#
# Total GULP energy -178754.412319 kJ/mol
# GULP energy per Si atom -5586.075385 kJ/mol
# Density = 1.970813 g / cm^3
# Si number density = 19.753086 Si / 1000 Ang^3
#
#
#
# Elastic Constant Matrix: (Units=GPa)
#
#
# Indices 1 2 3 4 5 6 
#
# 1 15.3763 13.1834 23.0686 0.0000 0.0000 0.0000
# 2 13.1834 65.4897 -14.1806 0.0000 0.0000 0.0000
# 3 23.0686 -14.1806 42.7563 0.0000 0.0000 0.0000
# 4 0.0000 0.0000 0.0000 13.9914 0.0000 0.0000
# 5 0.0000 0.0000 0.0000 0.0000 12.9596 0.0000
# 6 0.0000 0.0000 0.0000 0.0000 0.0000 44.3848
#
#
#
# Elastic Compliance Matrix: (Units=1/GPa)
#
#
# Indices 1 2 3 4 5 6 
#
# 1 -0.237476 0.081394 0.155122 0.000000 0.000000 0.000000
# 2 0.081394 -0.011446 -0.047711 0.000000 0.000000 0.000000
# 3 0.155122 -0.047711 -0.076130 0.000000 0.000000 0.000000
# 4 0.000000 0.000000 0.000000 0.071473 0.000000 0.000000
# 5 0.000000 0.000000 0.000000 0.000000 0.077163 0.000000
# 6 0.000000 0.000000 0.000000 0.000000 0.000000 0.022530
#
#
# Mechanical properties :
#
#
# Convention : Reuss Voigt Hill
#
# Bulk Modulus (GPa) = 19.02681 18.64056 18.83368
# Shear Modulus (GPa) = -9.72805 21.03722 5.65458
#
# Velocity S-wave (km/s) = -2.22160 3.26699 1.69377
# Velocity P-wave (km/s) = 1.75287 4.86705 3.65792
#
# Compressibility (1/GPa) = 0.05255741
#
# Stress axis : x y z
#
# Youngs Moduli (GPa) = -4.21095 -87.36374 -13.13544
#
# Poissons Ratio (x) = 7.11088 2.03760
# Poissons Ratio (y) = 0.34275 -0.62671
# Poissons Ratio (z) = 0.65321 -4.16824
#
# Static dielectric constant tensor:
#      x y z
#    x 1.668420 0.000000 0.000000 
#    y 0.000000 1.675230 0.000000 
#    z 0.000000 0.000000 1.687010 
# 
# From -- ./inp_files/4081.got.cif
#   From: 2010.05.17/outbox.ucp.g08.bks.cvg/sg26_3_cif.got.tgz:4081.got - 2010.06.11 15:23:25.
