data_PCOD9338029
_publ_section_title
;
Structure prediction by ZEFSAII (Michael W. Deem and Ramdas Pophale) SiO2 
 PCOD9338029
Probable space group: P M C 21
;
_chemical_formula_sum "Si O2"
_cell_formula_units_Z 32
_cell_length_a 7.497133
_cell_length_b 5.231217
_cell_length_c 36.151327
_cell_angle_alpha 90.000000
_cell_angle_beta 90.000000
_cell_angle_gamma 90.000000
_cell_volume 1417.823579
_symmetry_space_group_name_H-M "P M C 21"
_symmetry_group_IT_number 26
_symmetry_cell_setting 'orthorhombic'
loop_
_space_group_symop_operation_xyz
x,y,z
-x,-y,1/2+z
-x,y,z
x,-y,1/2+z
loop_
_atom_site_type_symbol
_atom_site_label
_atom_site_fract_x
_atom_site_fract_y
_atom_site_fract_z
Si Si1 0.781470 0.039829 0.424850
Si Si2 0.782468 0.945782 0.009521
Si Si3 0.795038 0.395904 0.633424
Si Si4 0.281206 0.079796 0.757205
Si Si5 0.781976 0.443191 0.052757
Si Si6 0.287698 0.580431 0.797347
Si Si7 0.785974 0.458707 0.882317
Si Si8 0.704472 0.103955 0.177378
O O1 0.725441 0.011942 0.467348
O O2 0.720713 0.807055 0.399157
O O3 0.000000 0.040032 0.424908
O O4 0.721913 0.305314 0.407049
O O5 0.722904 0.172230 0.036610
O O6 0.000000 0.949617 0.009413
O O7 0.729722 0.671174 0.025310
O O8 0.720499 0.488117 0.593986
O O9 0.789629 0.643126 0.659989
O O10 0.000000 0.320098 0.627269
O O11 0.709486 0.142762 0.650691
O O12 0.500000 0.090615 0.756490
O O13 0.218675 0.356809 0.770530
O O14 0.223124 0.860927 0.785998
O O15 0.221576 0.992499 0.716616
O O16 0.000000 0.434418 0.053914
O O17 0.500000 0.589273 0.792061
O O18 0.255479 0.505391 0.839578
O O19 0.000000 0.454394 0.885364
O O20 0.500000 0.180221 0.183890
#
# Coordination Sequence:
#
# PCOD9338029 Si02
#       8
#     4   4   4   4   4   4   4   4
#     4   9  17  28  45  69 100 131 164 206 252 299
#     4   9  15  26  44  69  98 133 172 208 248 303
#     4  11  22  37  56  85 120 147 176 230 290 331
#     4   9  19  35  55  75  98 129 174 222 256 295
#     4   9  17  28  46  72 104 135 168 212 262 309
#     4  10  19  34  54  74  95 128 170 212 254 304
#     4  10  19  31  46  71 103 130 156 202 260 308
#     4  11  22  39  61  83 108 147 192 230 270 331
#
# _framework density 22.569804000000001
#
# number of rings (size 3 to 8) (size 9 to 14) (size 15 to 20)
#    0.000    2.250    0.000    3.750    0.000    7.000 
#    0.000    3.750    0.000    0.000    0.000   17.500 
#    0.000    0.000    0.000    0.000    0.000    0.000 
#
# Total GULP energy -178900.670414 kJ/mol
# GULP energy per Si atom -5590.645950 kJ/mol
# Density = 2.251843 g / cm^3
# Si number density = 22.569804 Si / 1000 Ang^3
#
#
#
# Elastic Constant Matrix: (Units=GPa)
#
#
# Indices 1 2 3 4 5 6 
#
# 1 59.6175 -4.9440 -9.7883 0.0000 0.0000 0.0000
# 2 -4.9440 67.1342 -34.3210 0.0000 0.0000 0.0000
# 3 -9.7883 -34.3210 50.4283 0.0000 0.0000 0.0000
# 4 0.0000 0.0000 0.0000 43.4641 0.0000 0.0000
# 5 0.0000 0.0000 0.0000 0.0000 23.6820 0.0000
# 6 0.0000 0.0000 0.0000 0.0000 0.0000 -2.4454
#
#
#
# Elastic Compliance Matrix: (Units=1/GPa)
#
#
# Indices 1 2 3 4 5 6 
#
# 1 0.018301 0.004852 0.006855 0.000000 0.000000 0.000000
# 2 0.004852 0.024130 0.017364 0.000000 0.000000 0.000000
# 3 0.006855 0.017364 0.032979 0.000000 0.000000 0.000000
# 4 0.000000 0.000000 0.000000 0.023007 0.000000 0.000000
# 5 0.000000 0.000000 0.000000 0.000000 0.042226 0.000000
# 6 0.000000 0.000000 0.000000 0.000000 0.000000 -0.408931
#
#
# Mechanical properties :
#
#
# Convention : Reuss Voigt Hill
#
# Bulk Modulus (GPa) = 7.48769 8.78595 8.13682
# Shear Modulus (GPa) = -17.73605 28.02236 5.14316
#
# Velocity S-wave (km/s) = -2.80631 3.52744 1.51120
# Velocity P-wave (km/s) = 2.67875 4.52677 2.58031
#
# Compressibility (1/GPa) = 0.13355248
#
# Stress axis : x y z
#
# Youngs Moduli (GPa) = 54.64069 41.44203 30.32259
#
# Poissons Ratio (x) = -0.20108 -0.20785
# Poissons Ratio (y) = -0.26512 -0.52654
# Poissons Ratio (z) = -0.37454 -0.71962
#
# Static dielectric constant tensor:
#      x y z
#    x 1.857720 0.000000 0.000000 
#    y 0.000000 1.782050 0.000000 
#    z 0.000000 0.000000 1.797990 
# 
# From -- ./inp_files/5687.got.cif
#   From: 2010.05.17/outbox.cif.g08.bks.cpg/sg26_3_cif.got.tgz:5687.got - 2010.06.04 01:07:29.
