data_PCOD9338812
_publ_section_title
;
Structure prediction by ZEFSAII (Michael W. Deem and Ramdas Pophale) SiO2 
 PCOD9338812
Probable space group: P C C 2
;
_chemical_formula_sum "Si O2"
_cell_formula_units_Z 32
_cell_length_a 5.627690
_cell_length_b 16.105833
_cell_length_c 14.642367
_cell_angle_alpha 90.000000
_cell_angle_beta 90.000000
_cell_angle_gamma 90.000000
_cell_volume 1327.164163
_symmetry_space_group_name_H-M "P C C 2"
_symmetry_group_IT_number 27
_symmetry_cell_setting 'orthorhombic'
loop_
_space_group_symop_operation_xyz
x,y,z
-x,-y,z
-x,y,1/2+z
x,-y,1/2+z
loop_
_atom_site_type_symbol
_atom_site_label
_atom_site_fract_x
_atom_site_fract_y
_atom_site_fract_z
Si Si1 0.201002 0.816719 0.363860
Si Si2 0.554006 0.222758 0.027852
Si Si3 0.753974 0.002277 0.295352
Si Si4 0.076321 0.330975 0.437040
Si Si5 0.647303 0.581780 0.294058
Si Si6 0.251515 0.951257 0.991909
Si Si7 0.350787 0.289986 0.707984
Si Si8 0.058858 0.404637 0.114058
O O1 0.363471 0.800831 0.452508
O O2 0.208672 0.914389 0.353345
O O3 0.257592 0.789650 0.260604
O O4 0.989756 0.753308 0.385576
O O5 0.725394 0.141100 0.035216
O O6 0.481110 0.252799 0.128806
O O7 0.688750 0.303610 0.990197
O O8 0.500000 0.000000 0.246673
O O9 0.736980 0.937971 0.380480
O O10 0.000000 0.000000 0.239858
O O11 0.140314 0.400974 0.363719
O O12 0.899109 0.360608 0.516658
O O13 0.500000 0.500000 0.314688
O O14 0.472864 0.660144 0.290683
O O15 0.738947 0.583515 0.189949
O O16 0.500000 0.000000 0.014816
O O17 0.000000 0.000000 0.012518
O O18 0.148743 0.350806 0.665457
O O19 0.000000 0.500000 0.091004
#
# Coordination Sequence:
#
# PCOD9338812 Si02
#       8
#     4   4   4   4   4   4   4   4
#     4  12  22  42  71  94 139 179 226 297 344 431
#     4  11  23  42  66  97 135 182 230 294 346 430
#     4  10  20  36  66  99 133 186 230 283 365 423
#     4  11  25  41  70 102 130 183 241 281 365 442
#     4  12  24  45  72  98 141 184 231 306 367 435
#     4  10  19  37  64  94 133 183 229 285 366 420
#     4  11  25  43  65 102 131 178 237 279 362 418
#     4  11  24  46  67  96 139 178 228 299 355 428
#
# _framework density 24.111561999999999
#
# number of rings (size 3 to 8) (size 9 to 14) (size 15 to 20)
#    0.000    1.000    6.250    2.250    0.000    1.500 
#    4.500    1.250    0.000    0.000    0.000    0.875 
#    0.000    0.000    0.000    0.000    0.000    0.000 
#
# Total GULP energy -178336.893673 kJ/mol
# GULP energy per Si atom -5573.027927 kJ/mol
# Density = 2.405668 g / cm^3
# Si number density = 24.111562 Si / 1000 Ang^3
#
#
#
# Elastic Constant Matrix: (Units=GPa)
#
#
# Indices 1 2 3 4 5 6 
#
# 1 103.3482 12.5039 12.3227 0.0000 0.0000 0.0000
# 2 12.5039 79.3083 18.3823 0.0000 0.0000 0.0000
# 3 12.3227 18.3823 97.5078 0.0000 0.0000 0.0000
# 4 0.0000 0.0000 0.0000 1.6211 0.0000 0.0000
# 5 0.0000 0.0000 0.0000 0.0000 21.6943 0.0000
# 6 0.0000 0.0000 0.0000 0.0000 0.0000 31.3722
#
#
#
# Elastic Compliance Matrix: (Units=1/GPa)
#
#
# Indices 1 2 3 4 5 6 
#
# 1 0.009958 -0.001337 -0.001006 0.000000 0.000000 0.000000
# 2 -0.001337 0.013365 -0.002351 0.000000 0.000000 0.000000
# 3 -0.001006 -0.002351 0.010826 0.000000 0.000000 0.000000
# 4 0.000000 0.000000 0.000000 0.616861 0.000000 0.000000
# 5 0.000000 0.000000 0.000000 0.000000 0.046095 0.000000
# 6 0.000000 0.000000 0.000000 0.000000 0.000000 0.031875
#
#
# Mechanical properties :
#
#
# Convention : Reuss Voigt Hill
#
# Bulk Modulus (GPa) = 40.38634 40.73135 40.55885
# Shear Modulus (GPa) = 6.69684 26.73456 16.71570
#
# Velocity S-wave (km/s) = 1.66837 3.33346 2.63585
# Velocity P-wave (km/s) = 4.52741 5.63431 5.11091
#
# Compressibility (1/GPa) = 0.02476085
#
# Stress axis : x y z
#
# Youngs Moduli (GPa) = 100.42427 74.82463 92.37089
#
# Poissons Ratio (x) = 0.10002 0.09297
# Poissons Ratio (y) = 0.13423 0.21713
# Poissons Ratio (z) = 0.10107 0.17588
#
# Static dielectric constant tensor:
#      x y z
#    x 2.084350 0.000000 0.000000 
#    y 0.000000 1.783730 0.000000 
#    z 0.000000 0.000000 1.925990 
# 
# From -- ./inp_files/3156.got.cif
#   From: 2010.05.17/outbox.cif.g08.bks.cpg/sg27_2_cif.got.tgz:3156.got - 2010.06.04 01:11:05.
