data_PCOD9338877
_publ_section_title
;
Structure prediction by ZEFSAII (Michael W. Deem and Ramdas Pophale) SiO2 
 PCOD9338877
Probable space group: P C C 2
;
_chemical_formula_sum "Si O2"
_cell_formula_units_Z 24
_cell_length_a 12.268639
_cell_length_b 6.109246
_cell_length_c 14.959421
_cell_angle_alpha 90.000000
_cell_angle_beta 90.000000
_cell_angle_gamma 90.000000
_cell_volume 1121.240523
_symmetry_space_group_name_H-M "P C C 2"
_symmetry_group_IT_number 27
_symmetry_cell_setting 'orthorhombic'
loop_
_space_group_symop_operation_xyz
x,y,z
-x,-y,z
-x,y,1/2+z
x,-y,1/2+z
loop_
_atom_site_type_symbol
_atom_site_label
_atom_site_fract_x
_atom_site_fract_y
_atom_site_fract_z
Si Si1 0.697352 0.670059 0.257950
Si Si2 0.197352 0.829940 0.488436
Si Si3 0.172538 0.058619 0.661694
Si Si4 0.672538 0.441381 0.084692
Si Si5 0.603934 0.151467 0.935796
Si Si6 0.103933 0.348532 0.810590
O O1 0.634350 0.569860 0.172772
O O2 0.624749 0.726571 0.342813
O O3 0.790339 0.499521 0.289841
O O4 0.757375 0.887159 0.220519
O O5 0.257373 0.612840 0.525866
O O6 0.124748 0.773430 0.403573
O O7 0.134349 0.930140 0.573614
O O8 0.290339 0.000477 0.456545
O O9 0.250000 0.249999 0.623193
O O10 0.091743 0.180271 0.728645
O O11 0.591744 0.319729 0.017740
O O12 0.500000 0.000000 0.929383
O O13 0.000000 0.500000 0.817002
#
# Coordination Sequence:
#
# PCOD9338877 Si02
#       6
#     4   4   4   4   4   4
#     4  10  20  41  66  91 134 166 217 283 333 385
#     4  10  20  41  66  91 134 166 217 283 333 385
#     4   9  20  40  65  88 132 175 207 279 334 384
#     4   9  20  40  65  88 132 175 207 279 334 384
#     4  11  22  39  68  98 127 174 224 269 336 403
#     4  11  22  39  68  98 127 174 224 269 336 403
#
# _framework density 21.404865000000001
#
# number of rings (size 3 to 8) (size 9 to 14) (size 15 to 20)
#    0.000    2.000    3.333    0.000    0.000    1.333 
#    0.000   18.333    7.333    0.000    0.000    0.000 
#    0.000    0.000    0.000    0.000    0.000    0.000 
#
# Total GULP energy -134134.473513 kJ/mol
# GULP energy per Si atom -5588.936396 kJ/mol
# Density = 2.135615 g / cm^3
# Si number density = 21.404865 Si / 1000 Ang^3
#
#
#
# Elastic Constant Matrix: (Units=GPa)
#
#
# Indices 1 2 3 4 5 6 
#
# 1 72.8500 32.9194 68.1271 0.0000 0.0000 0.0000
# 2 32.9194 102.2263 70.0100 0.0000 0.0000 0.0000
# 3 68.1271 70.0100 207.4492 0.0000 0.0000 0.0000
# 4 0.0000 0.0000 0.0000 53.3701 0.0000 0.0000
# 5 0.0000 0.0000 0.0000 0.0000 -4.8486 0.0000
# 6 0.0000 0.0000 0.0000 0.0000 0.0000 44.5529
#
#
#
# Elastic Compliance Matrix: (Units=1/GPa)
#
#
# Indices 1 2 3 4 5 6 
#
# 1 0.020316 -0.002566 -0.005806 0.000000 0.000000 0.000000
# 2 -0.002566 0.013047 -0.003560 0.000000 0.000000 0.000000
# 3 -0.005806 -0.003560 0.007929 0.000000 0.000000 0.000000
# 4 0.000000 0.000000 0.000000 0.018737 0.000000 0.000000
# 5 0.000000 0.000000 0.000000 0.000000 -0.206246 0.000000
# 6 0.000000 0.000000 0.000000 0.000000 0.000000 0.022445
#
#
# Mechanical properties :
#
#
# Convention : Reuss Voigt Hill
#
# Bulk Modulus (GPa) = 57.38260 80.51541 68.94900
# Shear Modulus (GPa) = -53.13566 32.71281 -10.21142
#
# Velocity S-wave (km/s) = -4.98778 3.91357 -2.18654
# Velocity P-wave (km/s) = 2.51083 7.62355 5.08991
#
# Compressibility (1/GPa) = 0.01742689
#
# Stress axis : x y z
#
# Youngs Moduli (GPa) = 49.22284 76.64668 126.12488
#
# Poissons Ratio (x) = 0.19668 0.73225
# Poissons Ratio (y) = 0.12631 0.44905
# Poissons Ratio (z) = 0.28578 0.27289
#
# Static dielectric constant tensor:
#      x y z
#    x 1.726310 0.000000 0.000000 
#    y 0.000000 1.775360 0.000000 
#    z 0.000000 0.000000 1.761830 
# 
# From -- ./inp_files/3076.got.cif
#   From: 2010.05.17/outbox.cif.g08.bks.cpg/sg27_2_cif.got.tgz:3076.got - 2010.06.04 01:11:05.
