data_PCOD9338688
_publ_section_title
;
Structure prediction by ZEFSAII (Michael W. Deem and Ramdas Pophale) SiO2 
 PCOD9338688
Probable space group: P M C 21
;
_chemical_formula_sum "Si O2"
_cell_formula_units_Z 24
_cell_length_a 15.000000
_cell_length_b 9.000000
_cell_length_c 9.000000
_cell_angle_alpha 90.000000
_cell_angle_beta 90.000000
_cell_angle_gamma 90.000000
_cell_volume 1215.000000
_symmetry_space_group_name_H-M "P M C 21"
_symmetry_group_IT_number 26
_symmetry_cell_setting 'orthorhombic'
loop_
_space_group_symop_operation_xyz
x,y,z
-x,-y,1/2+z
-x,y,z
x,-y,1/2+z
loop_
_atom_site_type_symbol
_atom_site_label
_atom_site_fract_x
_atom_site_fract_y
_atom_site_fract_z
Si Si1 0.746043 0.897966 0.552150
Si Si2 0.749486 0.196645 0.389011
Si Si3 0.845677 0.345374 0.877703
Si Si4 0.402883 0.332876 0.018002
Si Si5 0.333844 0.481745 0.290643
Si Si6 0.096703 0.378028 0.547799
O O1 0.766794 0.871286 0.725371
O O2 0.818166 0.810979 0.450246
O O3 0.653221 0.815791 0.517403
O O4 0.734181 0.066206 0.504805
O O5 0.672354 0.318761 0.364209
O O6 0.831442 0.287432 0.455400
O O7 0.756437 0.430111 0.823287
O O8 0.898554 0.343096 0.723155
O O9 0.887077 0.449161 0.006189
O O10 0.500000 0.312168 0.083008
O O11 0.347442 0.447654 0.119122
O O12 0.406182 0.410690 0.859413
O O13 0.000000 0.336500 0.491012
#
# Coordination Sequence:
#
# PCOD9338688 Si02
#       6
#     4   4   4   4   4   4
#     4  10  21  37  57  76 105 146 181 214 262 324
#     4  10  20  37  56  76 105 144 182 215 261 324
#     4  10  19  35  57  80 108 142 177 211 261 322
#     4  10  19  33  53  81 107 133 174 224 263 303
#     4   9  18  33  55  77 104 140 173 209 260 320
#     4  11  21  35  56  84 109 135 175 225 265 305
#
# _framework density 19.753086
#
# number of rings (size 3 to 8) (size 9 to 14) (size 15 to 20)
#    0.000    2.000    0.000    7.000    0.000    1.333 
#    0.000    9.167    0.000    0.000    0.000    0.000 
#    0.000    0.000    0.000    0.000    0.000    0.000 
#
# Total GULP energy -133671.312306 kJ/mol
# GULP energy per Si atom -5569.638013 kJ/mol
# Density = 1.970813 g / cm^3
# Si number density = 19.753086 Si / 1000 Ang^3
#
#
#
# Elastic Constant Matrix: (Units=GPa)
#
#
# Indices 1 2 3 4 5 6 
#
# 1 63.7571 9.0154 14.1970 0.0000 0.0000 0.0000
# 2 9.0154 52.1077 8.3851 0.0000 0.0000 0.0000
# 3 14.1970 8.3851 31.3661 0.0000 0.0000 0.0000
# 4 0.0000 0.0000 0.0000 34.9922 0.0000 0.0000
# 5 0.0000 0.0000 0.0000 0.0000 5.8419 0.0000
# 6 0.0000 0.0000 0.0000 0.0000 0.0000 -5.9656
#
#
#
# Elastic Compliance Matrix: (Units=1/GPa)
#
#
# Indices 1 2 3 4 5 6 
#
# 1 0.017610 -0.001843 -0.007478 0.000000 0.000000 0.000000
# 2 -0.001843 0.020247 -0.004578 0.000000 0.000000 0.000000
# 3 -0.007478 -0.004578 0.036490 0.000000 0.000000 0.000000
# 4 0.000000 0.000000 0.000000 0.028578 0.000000 0.000000
# 5 0.000000 0.000000 0.000000 0.000000 0.171178 0.000000
# 6 0.000000 0.000000 0.000000 0.000000 0.000000 -0.167627
#
#
# Mechanical properties :
#
#
# Convention : Reuss Voigt Hill
#
# Bulk Modulus (GPa) = 21.48324 23.38064 22.43194
# Shear Modulus (GPa) = 33.37977 14.68258 24.03118
#
# Velocity S-wave (km/s) = 4.11524 2.72932 3.49173
# Velocity P-wave (km/s) = 5.78617 4.66845 5.25710
#
# Compressibility (1/GPa) = 0.04654791
#
# Stress axis : x y z
#
# Youngs Moduli (GPa) = 56.78479 49.39080 27.40468
#
# Poissons Ratio (x) = 0.09105 0.20493
# Poissons Ratio (y) = 0.10468 0.12546
# Poissons Ratio (z) = 0.42464 0.22612
#
# Static dielectric constant tensor:
#      x y z
#    x 1.701750 0.000000 0.000000 
#    y 0.000000 1.678730 0.000000 
#    z 0.000000 0.000000 1.714400 
# 
# From -- ./inp_files/2123.got.cif
#   From: 2010.05.17/outbox.ucp.g08.bks.cvg/sg26_2_cif.got.tgz:2123.got - 2010.06.11 15:23:25.
