data_PCOD9338939
_publ_section_title
;
Structure prediction by ZEFSAII (Michael W. Deem and Ramdas Pophale) SiO2 
 PCOD9338939
Probable space group: P C C 2
;
_chemical_formula_sum "Si O2"
_cell_formula_units_Z 26
_cell_length_a 24.085902
_cell_length_b 4.914661
_cell_length_c 8.577880
_cell_angle_alpha 90.000000
_cell_angle_beta 90.000000
_cell_angle_gamma 90.000000
_cell_volume 1015.398338
_symmetry_space_group_name_H-M "P C C 2"
_symmetry_group_IT_number 27
_symmetry_cell_setting 'orthorhombic'
loop_
_space_group_symop_operation_xyz
x,y,z
-x,-y,z
-x,y,1/2+z
x,-y,1/2+z
loop_
_atom_site_type_symbol
_atom_site_label
_atom_site_fract_x
_atom_site_fract_y
_atom_site_fract_z
Si Si1 0.441319 0.893291 0.704310
Si Si2 0.062066 0.615356 0.023506
Si Si3 0.274128 0.603276 0.028738
Si Si4 0.895945 0.129337 0.343500
Si Si5 0.233314 0.881989 0.345040
Si Si6 0.500000 0.500000 0.957123
Si Si7 0.607164 0.700200 0.452514
O O1 0.461827 0.690428 0.565042
O O2 0.500000 0.000000 0.779460
O O3 0.422464 0.148923 0.591570
O O4 0.383130 0.901209 0.808715
O O5 0.076081 0.740206 0.191321
O O6 0.000000 0.500000 0.017503
O O7 0.099974 0.358436 0.978020
O O8 0.073295 0.857699 0.900842
O O9 0.260833 0.735547 0.195599
O O10 0.339723 0.542236 0.006371
O O11 0.241078 0.331380 0.987484
O O12 0.258674 0.834122 0.901962
O O13 0.831574 0.072801 0.311015
O O14 0.447641 0.597441 0.852393
#
# Coordination Sequence:
#
# PCOD9338939 Si02
#       7
#     4   4   4   4   4   2   4
#     4  10  21  39  59  90 122 170 221 276 362 463
#     4  12  27  47  77 119 155 204 250 305 365 432
#     4  12  28  46  76 105 150 184 262 317 376 438
#     4  12  25  48  77 107 159 205 252 305 365 436
#     4  12  26  49  74 112 143 205 251 308 367 441
#     4  10  22  36  66  90 126 170 226 276 378 468
#     4  11  24  40  64  91 131 172 222 304 366 445
#
# _framework density 25.605713999999999
#
# number of rings (size 3 to 8) (size 9 to 14) (size 15 to 20)
#    0.000    0.615    0.000    8.308    4.308    2.462 
#    0.000    0.769    0.000    0.000    0.000    0.000 
#    0.000    0.000    0.000    0.000    0.000    0.000 
#
# Total GULP energy -145327.492984 kJ/mol
# GULP energy per Si atom -5589.518961 kJ/mol
# Density = 2.554743 g / cm^3
# Si number density = 25.605714 Si / 1000 Ang^3
#
#
#
# Elastic Constant Matrix: (Units=GPa)
#
#
# Indices 1 2 3 4 5 6 
#
# 1 144.4588 40.7903 18.9884 0.0000 0.0000 0.0000
# 2 40.7903 103.8564 12.1058 0.0000 0.0000 0.0000
# 3 18.9884 12.1058 92.4691 0.0000 0.0000 0.0000
# 4 0.0000 0.0000 0.0000 43.1288 0.0000 0.0000
# 5 0.0000 0.0000 0.0000 0.0000 25.8766 0.0000
# 6 0.0000 0.0000 0.0000 0.0000 0.0000 30.9029
#
#
#
# Elastic Compliance Matrix: (Units=1/GPa)
#
#
# Indices 1 2 3 4 5 6 
#
# 1 0.007923 -0.002967 -0.001239 0.000000 0.000000 0.000000
# 2 -0.002967 0.010889 -0.000816 0.000000 0.000000 0.000000
# 3 -0.001239 -0.000816 0.011176 0.000000 0.000000 0.000000
# 4 0.000000 0.000000 0.000000 0.023186 0.000000 0.000000
# 5 0.000000 0.000000 0.000000 0.000000 0.038645 0.000000
# 6 0.000000 0.000000 0.000000 0.000000 0.000000 0.032359
#
#
# Mechanical properties :
#
#
# Convention : Reuss Voigt Hill
#
# Bulk Modulus (GPa) = 50.14145 53.83927 51.99036
# Shear Modulus (GPa) = 35.49345 37.90831 36.70088
#
# Velocity S-wave (km/s) = 3.72715 3.85185 3.79001
# Velocity P-wave (km/s) = 6.17631 6.39174 6.28495
#
# Compressibility (1/GPa) = 0.01994358
#
# Stress axis : x y z
#
# Youngs Moduli (GPa) = 126.21317 91.83309 89.48064
#
# Poissons Ratio (x) = 0.27251 0.11082
# Poissons Ratio (y) = 0.37454 0.07304
# Poissons Ratio (z) = 0.15632 0.07496
#
# Static dielectric constant tensor:
#      x y z
#    x 2.359250 0.000000 0.000000 
#    y 0.000000 2.877280 0.000000 
#    z 0.000000 0.000000 2.049200 
# 
# From -- ./inp_files/1735.got.cif
#   From: 2010.05.17/outbox.cif.g08.bks.cpg/sg27_1_cif.got.tgz:1735.got - 2010.06.04 01:11:05.
