data_PCOD9338404
_publ_section_title
;
Structure prediction by ZEFSAII (Michael W. Deem and Ramdas Pophale) SiO2 
 PCOD9338404
Probable space group: P M C 21
;
_chemical_formula_sum "Si O2"
_cell_formula_units_Z 24
_cell_length_a 13.029467
_cell_length_b 10.587237
_cell_length_c 8.762845
_cell_angle_alpha 90.000000
_cell_angle_beta 90.000000
_cell_angle_gamma 90.000000
_cell_volume 1208.799899
_symmetry_space_group_name_H-M "P M C 21"
_symmetry_group_IT_number 26
_symmetry_cell_setting 'orthorhombic'
loop_
_space_group_symop_operation_xyz
x,y,z
-x,-y,1/2+z
-x,y,z
x,-y,1/2+z
loop_
_atom_site_type_symbol
_atom_site_label
_atom_site_fract_x
_atom_site_fract_y
_atom_site_fract_z
Si Si1 0.612788 0.748236 0.901700
Si Si2 0.117862 0.134761 0.845063
Si Si3 0.789835 0.094811 0.529265
Si Si4 0.608987 0.091820 0.093526
Si Si5 0.380061 0.512554 0.686629
Si Si6 0.301738 0.683069 0.416390
O O1 0.500000 0.755451 0.980334
O O2 0.607074 0.841397 0.756432
O O3 0.620479 0.610825 0.827220
O O4 0.720771 0.787561 0.975402
O O5 0.133564 0.131710 0.663229
O O6 0.191917 0.246885 0.905728
O O7 0.000000 0.154315 0.887716
O O8 0.155158 0.997386 0.907699
O O9 0.700893 0.004647 0.595284
O O10 0.500000 0.029107 0.063995
O O11 0.625713 0.200567 0.967479
O O12 0.500000 0.501513 0.639634
O O13 0.315569 0.580634 0.552605
O O14 0.335978 0.383917 0.759255
#
# Coordination Sequence:
#
# PCOD9338404 Si02
#       6
#     4   4   4   4   4   4
#     4   9  18  32  54  87 125 156 187 235 298 366
#     4  11  25  43  63  85 115 159 213 263 303 344
#     4  11  20  38  61  88 116 156 203 252 305 359
#     4   9  17  33  54  87 127 156 187 234 299 368
#     4  10  20  38  61  91 127 161 194 233 297 372
#     4  10  22  38  61  88 122 160 200 249 294 353
#
# _framework density 19.854403999999999
#
# number of rings (size 3 to 8) (size 9 to 14) (size 15 to 20)
#    0.000    2.000    1.667    3.500    2.333    0.000 
#    0.000    4.167    0.000    0.000    0.000    0.000 
#    0.000    0.000    0.000    0.000    0.000    0.000 
#
# Total GULP energy -133842.047833 kJ/mol
# GULP energy per Si atom -5576.751993 kJ/mol
# Density = 1.980921 g / cm^3
# Si number density = 19.854404 Si / 1000 Ang^3
#
#
#
# Elastic Constant Matrix: (Units=GPa)
#
#
# Indices 1 2 3 4 5 6 
#
# 1 120.9139 14.6418 38.4574 0.0000 0.0000 0.0000
# 2 14.6418 51.1063 39.0068 0.0000 0.0000 0.0000
# 3 38.4574 39.0068 57.2254 0.0000 0.0000 0.0000
# 4 0.0000 0.0000 0.0000 35.7052 0.0000 0.0000
# 5 0.0000 0.0000 0.0000 0.0000 59.1825 0.0000
# 6 0.0000 0.0000 0.0000 0.0000 0.0000 13.7318
#
#
#
# Elastic Compliance Matrix: (Units=1/GPa)
#
#
# Indices 1 2 3 4 5 6 
#
# 1 0.011160 0.005267 -0.011090 0.000000 0.000000 0.000000
# 2 0.005267 0.043273 -0.033036 0.000000 0.000000 0.000000
# 3 -0.011090 -0.033036 0.047446 0.000000 0.000000 0.000000
# 4 0.000000 0.000000 0.000000 0.028007 0.000000 0.000000
# 5 0.000000 0.000000 0.000000 0.000000 0.016897 0.000000
# 6 0.000000 0.000000 0.000000 0.000000 0.000000 0.072824
#
#
# Mechanical properties :
#
#
# Convention : Reuss Voigt Hill
#
# Bulk Modulus (GPa) = 41.38894 45.93972 43.66433
# Shear Modulus (GPa) = 16.37321 30.86654 23.61987
#
# Velocity S-wave (km/s) = 2.87481 3.94718 3.45288
# Velocity P-wave (km/s) = 5.64897 6.63039 6.15926
#
# Compressibility (1/GPa) = 0.02416104
#
# Stress axis : x y z
#
# Youngs Moduli (GPa) = 89.60736 23.10935 21.07659
#
# Poissons Ratio (x) = -0.12172 0.23374
# Poissons Ratio (y) = -0.47198 0.69628
# Poissons Ratio (z) = 0.99375 0.76344
#
# Static dielectric constant tensor:
#      x y z
#    x 1.646410 0.000000 0.000000 
#    y 0.000000 1.719600 0.000000 
#    z 0.000000 0.000000 1.765290 
# 
# From -- ./inp_files/1805.got.cif
#   From: 2010.05.17/outbox.cif.g08.bks.cpg/sg26_1_cif.got.tgz:1805.got - 2010.06.04 01:07:29.
