data_PCOD9338313
_publ_section_title
;
Structure prediction by ZEFSAII (Michael W. Deem and Ramdas Pophale) SiO2 
 PCOD9338313
Probable space group: P M C 21
;
_chemical_formula_sum "Si O2"
_cell_formula_units_Z 32
_cell_length_a 8.026027
_cell_length_b 11.873449
_cell_length_c 16.583037
_cell_angle_alpha 90.000000
_cell_angle_beta 90.000000
_cell_angle_gamma 90.000000
_cell_volume 1580.307413
_symmetry_space_group_name_H-M "P M C 21"
_symmetry_group_IT_number 26
_symmetry_cell_setting 'orthorhombic'
loop_
_space_group_symop_operation_xyz
x,y,z
-x,-y,1/2+z
-x,y,z
x,-y,1/2+z
loop_
_atom_site_type_symbol
_atom_site_label
_atom_site_fract_x
_atom_site_fract_y
_atom_site_fract_z
Si Si1 0.298617 0.930301 0.733400
Si Si2 0.692866 0.563236 0.492545
Si Si3 0.807187 0.409070 0.280472
Si Si4 0.305256 0.180826 0.706486
Si Si5 0.307587 0.212216 0.385453
Si Si6 0.190353 0.264457 0.119423
Si Si7 0.295439 0.684788 0.049647
Si Si8 0.193279 0.356082 0.821073
O O1 0.500000 0.931692 0.740446
O O2 0.234739 0.872542 0.817318
O O3 0.255428 0.851408 0.657368
O O4 0.233878 0.055820 0.717678
O O5 0.500000 0.545073 0.471134
O O6 0.708007 0.668544 0.552782
O O7 0.755814 0.445190 0.531631
O O8 0.785905 0.602171 0.412117
O O9 0.704153 0.334136 0.342453
O O10 0.806936 0.346986 0.196131
O O11 0.744931 0.535311 0.271424
O O12 0.000000 0.413309 0.309325
O O13 0.500000 0.164991 0.687765
O O14 0.238128 0.258945 0.633563
O O15 0.288692 0.247672 0.790198
O O16 0.500000 0.179592 0.396403
O O17 0.238805 0.235806 0.474729
O O18 0.000000 0.250693 0.091505
O O19 0.500000 0.682672 0.049882
O O20 0.000000 0.334951 0.803810
#
# Coordination Sequence:
#
# PCOD9338313 Si02
#       8
#     4   4   4   4   4   4   4   4
#     4   9  19  36  57  81 110 148 195 235 272 325
#     4  11  21  35  56  84 111 143 184 229 284 340
#     4   9  18  32  52  79 109 142 176 218 279 337
#     4  10  21  38  56  81 114 151 193 235 280 331
#     4   9  16  31  55  80 106 141 186 232 274 320
#     4  10  20  35  56  81 111 145 181 228 280 333
#     4   9  18  33  56  83 111 142 184 237 285 330
#     4  11  22  36  54  79 114 148 179 226 284 340
#
# _framework density 20.249224999999999
#
# number of rings (size 3 to 8) (size 9 to 14) (size 15 to 20)
#    0.000    2.250    1.250    1.875    0.000    1.500 
#    2.250    1.250    0.000    0.000    0.000    0.000 
#    0.000    0.000    0.000    0.000    0.000    0.000 
#
# Total GULP energy -178356.962132 kJ/mol
# GULP energy per Si atom -5573.655067 kJ/mol
# Density = 2.020314 g / cm^3
# Si number density = 20.249225 Si / 1000 Ang^3
#
#
#
# Elastic Constant Matrix: (Units=GPa)
#
#
# Indices 1 2 3 4 5 6 
#
# 1 16.2953 1.7745 3.4338 0.0000 0.0000 0.0000
# 2 1.7745 156.2301 54.9201 0.0000 0.0000 0.0000
# 3 3.4338 54.9201 67.9994 0.0000 0.0000 0.0000
# 4 0.0000 0.0000 0.0000 22.0468 0.0000 0.0000
# 5 0.0000 0.0000 0.0000 0.0000 10.5590 0.0000
# 6 0.0000 0.0000 0.0000 0.0000 0.0000 10.0500
#
#
#
# Elastic Compliance Matrix: (Units=1/GPa)
#
#
# Indices 1 2 3 4 5 6 
#
# 1 0.062062 0.000554 -0.003582 0.000000 0.000000 0.000000
# 2 0.000554 0.008944 -0.007251 0.000000 0.000000 0.000000
# 3 -0.003582 -0.007251 0.020743 0.000000 0.000000 0.000000
# 4 0.000000 0.000000 0.000000 0.045358 0.000000 0.000000
# 5 0.000000 0.000000 0.000000 0.000000 0.094706 0.000000
# 6 0.000000 0.000000 0.000000 0.000000 0.000000 0.099502
#
#
# Mechanical properties :
#
#
# Convention : Reuss Voigt Hill
#
# Bulk Modulus (GPa) = 14.04665 40.08685 27.06675
# Shear Modulus (GPa) = 13.31193 20.55759 16.93476
#
# Velocity S-wave (km/s) = 2.56677 3.18972 2.89505
# Velocity P-wave (km/s) = 3.96691 5.77975 4.95691
#
# Compressibility (1/GPa) = 0.07119134
#
# Stress axis : x y z
#
# Youngs Moduli (GPa) = 16.11299 111.81158 48.20794
#
# Poissons Ratio (x) = -0.06196 0.17266
# Poissons Ratio (y) = -0.00893 0.34957
# Poissons Ratio (z) = 0.05771 0.81079
#
# Static dielectric constant tensor:
#      x y z
#    x 1.733770 0.000000 0.000000 
#    y 0.000000 1.727860 0.000000 
#    z 0.000000 0.000000 1.746390 
# 
# From -- ./inp_files/4222.got.cif
#   From: 2010.05.17/outbox.cif.g08.bks.cpg/sg26_3_cif.got.tgz:4222.got - 2010.06.04 01:07:29.
