data_PCOD9338535
_publ_section_title
;
Structure prediction by ZEFSAII (Michael W. Deem and Ramdas Pophale) SiO2 
 PCOD9338535
Probable space group: P M C 21
;
_chemical_formula_sum "Si O2"
_cell_formula_units_Z 32
_cell_length_a 8.619294
_cell_length_b 12.156053
_cell_length_c 15.750185
_cell_angle_alpha 90.000000
_cell_angle_beta 90.000000
_cell_angle_gamma 90.000000
_cell_volume 1650.250750
_symmetry_space_group_name_H-M "P M C 21"
_symmetry_group_IT_number 26
_symmetry_cell_setting 'orthorhombic'
loop_
_space_group_symop_operation_xyz
x,y,z
-x,-y,1/2+z
-x,y,z
x,-y,1/2+z
loop_
_atom_site_type_symbol
_atom_site_label
_atom_site_fract_x
_atom_site_fract_y
_atom_site_fract_z
Si Si1 0.313980 0.893129 0.912780
Si Si2 0.686173 0.716043 0.244888
Si Si3 0.814145 0.501452 0.819076
Si Si4 0.685682 0.510667 0.007138
Si Si5 0.312630 0.277304 0.078609
Si Si6 0.311192 0.146658 0.910158
Si Si7 0.815737 0.254520 0.564170
Si Si8 0.185059 0.748587 0.760764
O O1 0.500000 0.890428 0.918817
O O2 0.262210 0.829796 0.828150
O O3 0.262104 0.019952 0.910250
O O4 0.245036 0.829296 0.993302
O O5 0.500000 0.708700 0.245127
O O6 0.755483 0.594374 0.257446
O O7 0.737816 0.788423 0.325711
O O8 0.742368 0.765628 0.156298
O O9 0.734246 0.485674 0.910436
O O10 0.773520 0.622969 0.785920
O O11 0.000000 0.495158 0.828201
O O12 0.500000 0.524410 0.011598
O O13 0.729983 0.405011 0.063310
O O14 0.765706 0.622854 0.035833
O O15 0.500000 0.271761 0.083840
O O16 0.241020 0.232984 0.165104
O O17 0.262239 0.209460 0.995537
O O18 0.500000 0.148303 0.909739
O O19 0.000000 0.248751 0.569088
O O20 0.000000 0.759171 0.766730
#
# Coordination Sequence:
#
# PCOD9338535 Si02
#       8
#     4   4   4   4   4   4   4   4
#     4  11  23  42  67  88 114 160 212 257 306 361
#     4  11  22  41  66  92 123 161 209 255 300 365
#     4  11  22  37  60  91 130 165 195 246 312 366
#     4  11  21  37  65  94 122 160 205 249 301 368
#     4  10  21  40  64  92 122 156 201 252 300 358
#     4   9  21  42  65  90 118 154 208 266 304 347
#     4  12  25  41  60  91 131 162 199 253 311 369
#     4  11  24  40  59  90 128 162 197 246 306 366
#
# _framework density 19.390993999999999
#
# number of rings (size 3 to 8) (size 9 to 14) (size 15 to 20)
#    0.000    1.250    2.500    3.750    0.000    5.500 
#    0.000    8.750    0.000    0.000    0.000    0.000 
#    0.000    0.000    0.000    0.000    0.000    0.000 
#
# Total GULP energy -178976.273397 kJ/mol
# GULP energy per Si atom -5593.008544 kJ/mol
# Density = 1.934686 g / cm^3
# Si number density = 19.390994 Si / 1000 Ang^3
#
#
#
# Elastic Constant Matrix: (Units=GPa)
#
#
# Indices 1 2 3 4 5 6 
#
# 1 37.6784 22.7954 3.1027 0.0000 0.0000 0.0000
# 2 22.7954 114.9876 22.8386 0.0000 0.0000 0.0000
# 3 3.1027 22.8386 89.9059 0.0000 0.0000 0.0000
# 4 0.0000 0.0000 0.0000 1.7650 0.0000 0.0000
# 5 0.0000 0.0000 0.0000 0.0000 -23.7999 0.0000
# 6 0.0000 0.0000 0.0000 0.0000 0.0000 -26.6259
#
#
#
# Elastic Compliance Matrix: (Units=1/GPa)
#
#
# Indices 1 2 3 4 5 6 
#
# 1 0.030179 -0.006083 0.000504 0.000000 0.000000 0.000000
# 2 -0.006083 0.010385 -0.002428 0.000000 0.000000 0.000000
# 3 0.000504 -0.002428 0.011722 0.000000 0.000000 0.000000
# 4 0.000000 0.000000 0.000000 0.566571 0.000000 0.000000
# 5 0.000000 0.000000 0.000000 0.000000 -0.042017 0.000000
# 6 0.000000 0.000000 0.000000 0.000000 0.000000 -0.037557
#
#
# Mechanical properties :
#
#
# Convention : Reuss Voigt Hill
#
# Bulk Modulus (GPa) = 27.56985 37.78282 32.67633
# Shear Modulus (GPa) = 8.81232 3.19021 6.00126
#
# Velocity S-wave (km/s) = 2.13411 1.28404 1.76113
# Velocity P-wave (km/s) = 4.50791 4.66105 4.58512
#
# Compressibility (1/GPa) = 0.03627150
#
# Stress axis : x y z
#
# Youngs Moduli (GPa) = 33.13566 96.29542 85.30854
#
# Poissons Ratio (x) = 0.58574 -0.04297
# Poissons Ratio (y) = 0.20156 0.20714
# Poissons Ratio (z) = -0.01669 0.23381
#
# Static dielectric constant tensor:
#      x y z
#    x 1.650150 0.000000 0.000000 
#    y 0.000000 1.658520 0.000000 
#    z 0.000000 0.000000 1.660320 
# 
# From -- ./inp_files/4275.got.cif
#   From: 2010.05.17/outbox.cif.g08.bks.cpg/sg26_3_cif.got.tgz:4275.got - 2010.06.04 01:07:29.
