data_PCOD9338422
_publ_section_title
;
Structure prediction by ZEFSAII (Michael W. Deem and Ramdas Pophale) SiO2 
 PCOD9338422
Probable space group: P M C 21
;
_chemical_formula_sum "Si O2"
_cell_formula_units_Z 22
_cell_length_a 14.955138
_cell_length_b 8.897676
_cell_length_c 8.986023
_cell_angle_alpha 90.000000
_cell_angle_beta 90.000000
_cell_angle_gamma 90.000000
_cell_volume 1195.733889
_symmetry_space_group_name_H-M "P M C 21"
_symmetry_group_IT_number 26
_symmetry_cell_setting 'orthorhombic'
loop_
_space_group_symop_operation_xyz
x,y,z
-x,-y,1/2+z
-x,y,z
x,-y,1/2+z
loop_
_atom_site_type_symbol
_atom_site_label
_atom_site_fract_x
_atom_site_fract_y
_atom_site_fract_z
Si Si1 0.000000 0.403504 0.659471
Si Si2 0.000000 0.822006 0.888053
Si Si3 0.000000 0.177900 0.929124
Si Si4 0.602546 0.348360 0.546847
Si Si5 0.665443 0.630055 0.709187
Si Si6 0.500000 0.116156 0.718894
Si Si7 0.870622 0.315857 0.160314
Si Si8 0.500000 0.801974 0.568526
O O1 0.915882 0.518047 0.672755
O O2 0.000000 0.311066 0.507823
O O3 0.000000 0.268719 0.776599
O O4 0.912696 0.786256 0.789965
O O5 0.000000 0.997275 0.930167
O O6 0.087089 0.240533 0.014585
O O7 0.500000 0.405663 0.521705
O O8 0.652821 0.457376 0.660216
O O9 0.646889 0.344014 0.384655
O O10 0.584075 0.192753 0.633039
O O11 0.765010 0.678400 0.668073
O O12 0.589517 0.713092 0.612784
O O13 0.500000 0.943497 0.679408
O O14 0.500000 0.153284 0.894022
#
# Coordination Sequence:
#
# PCOD9338422 Si02
#       8
#     2   2   2   4   4   2   4   2
#     4  10  20  40  66  88 120 164 206 272 310 382
#     4  10  21  44  65  88 126 162 204 264 331 390
#     4  10  21  44  63  90 126 162 204 264 335 380
#     4  10  21  40  58  90 121 172 209 259 313 363
#     4  12  23  38  64  91 129 160 218 267 309 374
#     4  10  23  42  65  84 120 184 208 250 327 358
#     4  10  23  39  63  95 121 162 216 258 321 386
#     4  12  21  44  61  88 134 168 208 262 305 382
#
# _framework density 18.398741999999999
#
# number of rings (size 3 to 8) (size 9 to 14) (size 15 to 20)
#    0.545    1.091    1.818    5.455    5.091    0.000 
#    6.545    0.000    0.000    0.000    0.000    0.000 
#    0.000    0.000    0.000    0.000    0.000    0.000 
#
# Total GULP energy -122609.198562 kJ/mol
# GULP energy per Si atom -5573.145389 kJ/mol
# Density = 1.835687 g / cm^3
# Si number density = 18.398742 Si / 1000 Ang^3
#
#
#
# Elastic Constant Matrix: (Units=GPa)
#
#
# Indices 1 2 3 4 5 6 
#
# 1 132.4788 16.2251 -0.8012 0.0000 0.0000 0.0000
# 2 16.2251 66.5867 -17.9912 0.0000 0.0000 0.0000
# 3 -0.8012 -17.9912 56.4569 0.0000 0.0000 0.0000
# 4 0.0000 0.0000 0.0000 28.6300 0.0000 0.0000
# 5 0.0000 0.0000 0.0000 0.0000 -8.5123 0.0000
# 6 0.0000 0.0000 0.0000 0.0000 0.0000 5.8358
#
#
#
# Elastic Compliance Matrix: (Units=1/GPa)
#
#
# Indices 1 2 3 4 5 6 
#
# 1 0.007796 -0.002046 -0.000541 0.000000 0.000000 0.000000
# 2 -0.002046 0.016970 0.005379 0.000000 0.000000 0.000000
# 3 -0.000541 0.005379 0.019419 0.000000 0.000000 0.000000
# 4 0.000000 0.000000 0.000000 0.034928 0.000000 0.000000
# 5 0.000000 0.000000 0.000000 0.000000 -0.117477 0.000000
# 6 0.000000 0.000000 0.000000 0.000000 0.000000 0.171356
#
#
# Mechanical properties :
#
#
# Convention : Reuss Voigt Hill
#
# Bulk Modulus (GPa) = 20.09332 27.82086 23.95709
# Shear Modulus (GPa) = 34.72284 22.39670 28.55977
#
# Velocity S-wave (km/s) = 4.34895 3.49276 3.94416
# Velocity P-wave (km/s) = 6.01353 5.60533 5.81302
#
# Compressibility (1/GPa) = 0.04976779
#
# Stress axis : x y z
#
# Youngs Moduli (GPa) = 128.27652 58.92814 51.49593
#
# Poissons Ratio (x) = 0.12056 0.02788
# Poissons Ratio (y) = 0.26243 -0.27699
# Poissons Ratio (z) = 0.06944 -0.31696
#
# Static dielectric constant tensor:
#      x y z
#    x 1.608390 0.000000 0.000000 
#    y 0.000000 1.631190 0.000000 
#    z 0.000000 0.000000 1.662970 
# 
# From -- ./inp_files/2103.got.cif
#   From: 2010.05.17/outbox.cif.g08.bks.cpg/sg26_2_cif.got.tgz:2103.got - 2010.06.04 01:07:29.
