data_PCOD9338892
_publ_section_title
;
Structure prediction by ZEFSAII (Michael W. Deem and Ramdas Pophale) SiO2 
 PCOD9338892
Probable space group: P C C 2
;
_chemical_formula_sum "Si O2"
_cell_formula_units_Z 32
_cell_length_a 15.444525
_cell_length_b 11.743525
_cell_length_c 9.252028
_cell_angle_alpha 90.000000
_cell_angle_beta 90.000000
_cell_angle_gamma 90.000000
_cell_volume 1678.069605
_symmetry_space_group_name_H-M "P C C 2"
_symmetry_group_IT_number 27
_symmetry_cell_setting 'orthorhombic'
loop_
_space_group_symop_operation_xyz
x,y,z
-x,-y,z
-x,y,1/2+z
x,-y,1/2+z
loop_
_atom_site_type_symbol
_atom_site_label
_atom_site_fract_x
_atom_site_fract_y
_atom_site_fract_z
Si Si1 0.947329 0.741016 0.282480
Si Si2 0.050854 0.113526 0.014647
Si Si3 0.225124 0.036156 0.870553
Si Si4 0.561641 0.862697 0.620425
Si Si5 0.747547 0.844990 0.582331
Si Si6 0.406357 0.102046 0.955907
Si Si7 0.895880 0.480358 0.924553
Si Si8 0.131551 0.645900 0.197522
O O1 0.914400 0.823423 0.156994
O O2 0.887417 0.638710 0.337226
O O3 0.984740 0.811230 0.418872
O O4 0.032351 0.685305 0.209110
O O5 0.131342 0.081388 0.913591
O O6 0.000000 0.000000 0.060590
O O7 0.302810 0.112067 0.941211
O O8 0.233296 0.907494 0.931181
O O9 0.241779 0.053282 0.700741
O O10 0.650291 0.795198 0.591299
O O11 0.469734 0.822508 0.556452
O O12 0.582967 0.977690 0.529223
O O13 0.558845 0.888809 0.791212
O O14 0.812044 0.749085 0.639357
O O15 0.850817 0.588333 0.851597
O O16 0.000000 0.500000 0.428714
O O17 0.863745 0.455819 0.083557
#
# Coordination Sequence:
#
# PCOD9338892 Si02
#       8
#     4   4   4   4   4   4   4   4
#     4  11  22  37  54  74 106 146 189 232 274 328
#     4  12  24  35  52  77 114 158 191 218 267 336
#     4  10  22  34  50  76 113 154 186 219 265 335
#     4   9  16  28  49  72 105 143 177 216 266 315
#     4  10  21  35  52  80 114 147 181 227 274 344
#     4   9  16  29  47  71 102 143 182 215 258 318
#     4  10  22  36  58  75  96 141 187 246 292 317
#     4  11  21  38  54  78 105 135 188 242 289 318
#
# _framework density 19.069531999999999
#
# number of rings (size 3 to 8) (size 9 to 14) (size 15 to 20)
#    0.000    1.750    2.500    3.750    3.500    1.000 
#    0.000    0.000    0.000    0.000    0.000    0.000 
#    0.000   21.000    0.000    0.000    0.000    0.000 
#
# Total GULP energy -178379.301200 kJ/mol
# GULP energy per Si atom -5574.353162 kJ/mol
# Density = 1.902613 g / cm^3
# Si number density = 19.069532 Si / 1000 Ang^3
#
#
#
# Elastic Constant Matrix: (Units=GPa)
#
#
# Indices 1 2 3 4 5 6 
#
# 1 50.0741 -0.3302 -5.2677 0.0000 0.0000 0.0000
# 2 -0.3302 40.5769 16.5489 0.0000 0.0000 0.0000
# 3 -5.2677 16.5489 81.3125 0.0000 0.0000 0.0000
# 4 0.0000 0.0000 0.0000 23.6279 0.0000 0.0000
# 5 0.0000 0.0000 0.0000 0.0000 20.4509 0.0000
# 6 0.0000 0.0000 0.0000 0.0000 0.0000 10.1128
#
#
#
# Elastic Compliance Matrix: (Units=1/GPa)
#
#
# Indices 1 2 3 4 5 6 
#
# 1 0.020113 -0.000401 0.001385 0.000000 0.000000 0.000000
# 2 -0.000401 0.026883 -0.005497 0.000000 0.000000 0.000000
# 3 0.001385 -0.005497 0.013507 0.000000 0.000000 0.000000
# 4 0.000000 0.000000 0.000000 0.042323 0.000000 0.000000
# 5 0.000000 0.000000 0.000000 0.000000 0.048898 0.000000
# 6 0.000000 0.000000 0.000000 0.000000 0.000000 0.098885
#
#
# Mechanical properties :
#
#
# Convention : Reuss Voigt Hill
#
# Bulk Modulus (GPa) = 19.42651 21.54061 20.48356
# Shear Modulus (GPa) = 18.06391 21.57247 19.81819
#
# Velocity S-wave (km/s) = 3.08111 3.36706 3.22725
# Velocity P-wave (km/s) = 4.78194 5.14164 4.96505
#
# Compressibility (1/GPa) = 0.05147606
#
# Stress axis : x y z
#
# Youngs Moduli (GPa) = 49.71802 37.19779 74.03695
#
# Poissons Ratio (x) = 0.01492 -0.10251
# Poissons Ratio (y) = 0.01994 0.40701
# Poissons Ratio (z) = -0.06884 0.20449
#
# Static dielectric constant tensor:
#      x y z
#    x 1.754170 0.000000 0.000000 
#    y 0.000000 1.712010 0.000000 
#    z 0.000000 0.000000 1.720620 
# 
# From -- ./inp_files/1717.got.cif
#   From: 2010.05.17/outbox.cif.g08.bks.cpg/sg27_1_cif.got.tgz:1717.got - 2010.06.04 01:11:05.
