data_PCOD9338127
_publ_section_title
;
Structure prediction by ZEFSAII (Michael W. Deem and Ramdas Pophale) SiO2 
 PCOD9338127
Probable space group: P M C 21
;
_chemical_formula_sum "Si O2"
_cell_formula_units_Z 32
_cell_length_a 7.632074
_cell_length_b 13.392552
_cell_length_c 13.530727
_cell_angle_alpha 90.000000
_cell_angle_beta 90.000000
_cell_angle_gamma 90.000000
_cell_volume 1383.015494
_symmetry_space_group_name_H-M "P M C 21"
_symmetry_group_IT_number 26
_symmetry_cell_setting 'orthorhombic'
loop_
_space_group_symop_operation_xyz
x,y,z
-x,-y,1/2+z
-x,y,z
x,-y,1/2+z
loop_
_atom_site_type_symbol
_atom_site_label
_atom_site_fract_x
_atom_site_fract_y
_atom_site_fract_z
Si Si1 0.299439 0.238187 0.487980
Si Si2 0.707291 0.091530 0.864929
Si Si3 0.299510 0.159854 0.071750
Si Si4 0.285258 0.123013 0.292597
Si Si5 0.213782 0.486156 0.698861
Si Si6 0.796709 0.260727 0.708833
Si Si7 0.210422 0.442515 0.397832
Si Si8 0.209723 0.621709 0.517305
O O1 0.500000 0.205193 0.497531
O O2 0.225040 0.186208 0.388668
O O3 0.218130 0.220797 0.595980
O O4 0.290703 0.356056 0.463450
O O5 0.500000 0.078738 0.878832
O O6 0.727862 0.185615 0.791958
O O7 0.769402 0.990904 0.812504
O O8 0.782334 0.105464 0.975826
O O9 0.500000 0.123407 0.081729
O O10 0.223396 0.153570 0.182566
O O11 0.299373 0.274542 0.037062
O O12 0.500000 0.131715 0.292241
O O13 0.280319 0.373032 0.707080
O O14 0.264592 0.563623 0.784507
O O15 0.260425 0.540098 0.598490
O O16 0.000000 0.480668 0.701167
O O17 0.000000 0.271375 0.733376
O O18 0.250273 0.558607 0.420176
O O19 0.000000 0.431982 0.410266
O O20 0.000000 0.639446 0.521152
#
# Coordination Sequence:
#
# PCOD9338127 Si02
#       8
#     4   4   4   4   4   4   4   4
#     4  11  22  37  60  91 123 159 201 246 294 352
#     4  10  22  40  64  89 114 153 201 247 301 362
#     4  10  21  38  60  88 119 151 197 252 297 349
#     4   9  21  40  63  88 117 157 199 244 303 363
#     4   9  18  33  55  80 110 155 199 232 285 351
#     4  11  22  40  62  88 123 159 199 249 297 352
#     4  10  19  34  56  81 114 156 197 239 288 348
#     4  10  19  34  54  79 114 156 193 227 285 353
#
# _framework density 23.137846
#
# number of rings (size 3 to 8) (size 9 to 14) (size 15 to 20)
#    0.000    2.000    1.250    2.250    1.750    2.000 
#    0.000    3.750    0.000    0.000    0.000    0.000 
#    0.000    0.000    0.000    0.000    0.000    0.000 
#
# Total GULP energy -178576.248445 kJ/mol
# GULP energy per Si atom -5580.507764 kJ/mol
# Density = 2.308518 g / cm^3
# Si number density = 23.137846 Si / 1000 Ang^3
#
#
#
# Elastic Constant Matrix: (Units=GPa)
#
#
# Indices 1 2 3 4 5 6 
#
# 1 38.6651 -5.8956 -3.6983 0.0000 0.0000 0.0000
# 2 -5.8956 52.0888 17.9548 0.0000 0.0000 0.0000
# 3 -3.6983 17.9548 128.4665 0.0000 0.0000 0.0000
# 4 0.0000 0.0000 0.0000 24.0493 0.0000 0.0000
# 5 0.0000 0.0000 0.0000 0.0000 11.3652 0.0000
# 6 0.0000 0.0000 0.0000 0.0000 0.0000 19.3444
#
#
#
# Elastic Compliance Matrix: (Units=1/GPa)
#
#
# Indices 1 2 3 4 5 6 
#
# 1 0.026333 0.002857 0.000359 0.000000 0.000000 0.000000
# 2 0.002857 0.020480 -0.002780 0.000000 0.000000 0.000000
# 3 0.000359 -0.002780 0.008183 0.000000 0.000000 0.000000
# 4 0.000000 0.000000 0.000000 0.041581 0.000000 0.000000
# 5 0.000000 0.000000 0.000000 0.000000 0.087988 0.000000
# 6 0.000000 0.000000 0.000000 0.000000 0.000000 0.051695
#
#
# Mechanical properties :
#
#
# Convention : Reuss Voigt Hill
#
# Bulk Modulus (GPa) = 17.89974 26.21581 22.05777
# Shear Modulus (GPa) = 19.68422 25.00907 22.34664
#
# Velocity S-wave (km/s) = 2.91990 3.29123 3.11111
# Velocity P-wave (km/s) = 4.37272 5.07915 4.73912
#
# Compressibility (1/GPa) = 0.05586675
#
# Stress axis : x y z
#
# Youngs Moduli (GPa) = 37.97509 48.82911 122.20447
#
# Poissons Ratio (x) = -0.13949 -0.04385
# Poissons Ratio (y) = -0.10849 0.33973
# Poissons Ratio (z) = -0.01363 0.13575
#
# Static dielectric constant tensor:
#      x y z
#    x 1.882700 0.000000 0.000000 
#    y 0.000000 1.856580 0.000000 
#    z 0.000000 0.000000 1.873070 
# 
# From -- ./inp_files/4123.got.cif
#   From: 2010.05.17/outbox.cif.g08.bks.cpg/sg26_3_cif.got.tgz:4123.got - 2010.06.04 01:07:29.
