data_PCOD9338994
_publ_section_title
;
Structure prediction by ZEFSAII (Michael W. Deem and Ramdas Pophale) SiO2 
 PCOD9338994
Probable space group: P C C 2
;
_chemical_formula_sum "Si O2"
_cell_formula_units_Z 32
_cell_length_a 13.355341
_cell_length_b 11.912182
_cell_length_c 9.269355
_cell_angle_alpha 90.000000
_cell_angle_beta 90.000000
_cell_angle_gamma 90.000000
_cell_volume 1474.673298
_symmetry_space_group_name_H-M "P C C 2"
_symmetry_group_IT_number 27
_symmetry_cell_setting 'orthorhombic'
loop_
_space_group_symop_operation_xyz
x,y,z
-x,-y,z
-x,y,1/2+z
x,-y,1/2+z
loop_
_atom_site_type_symbol
_atom_site_label
_atom_site_fract_x
_atom_site_fract_y
_atom_site_fract_z
Si Si1 0.542694 0.218269 0.939390
Si Si2 0.228620 0.507593 0.731468
Si Si3 0.274484 0.087562 0.296048
Si Si4 0.955198 0.379606 0.142449
Si Si5 0.699006 0.376236 0.462498
Si Si6 0.682156 0.869540 0.961050
Si Si7 0.875624 0.281737 0.848616
Si Si8 0.490772 0.367765 0.168965
O O1 0.633604 0.144206 0.883164
O O2 0.438623 0.147470 0.941958
O O3 0.529028 0.318593 0.824886
O O4 0.566087 0.281308 0.089917
O O5 0.135399 0.422889 0.743658
O O6 0.238553 0.540123 0.564335
O O7 0.208579 0.624962 0.809916
O O8 0.317001 0.441749 0.813172
O O9 0.175770 0.161399 0.328730
O O10 0.273835 0.961166 0.353074
O O11 0.298031 0.095315 0.126233
O O12 0.000000 0.500000 0.089526
O O13 0.036822 0.312056 0.234701
O O14 0.915571 0.308525 0.008035
O O15 0.735520 0.250700 0.435125
O O16 0.605774 0.352119 0.566140
O O17 0.500000 0.500000 0.164265
#
# Coordination Sequence:
#
# PCOD9338994 Si02
#       8
#     4   4   4   4   4   4   4   4
#     4  11  23  46  66  98 137 191 237 291 351 415
#     4  11  21  39  70 100 143 174 229 286 371 423
#     4  12  26  48  70  99 138 191 246 306 340 420
#     4  10  22  39  69 110 139 184 225 294 365 442
#     4  11  24  42  63 105 144 184 227 299 349 435
#     4  11  27  45  69  98 139 186 249 296 345 415
#     4  11  23  42  69 105 140 180 236 292 361 432
#     4  11  25  37  62  99 149 185 225 282 365 437
#
# _framework density 21.699722000000001
#
# number of rings (size 3 to 8) (size 9 to 14) (size 15 to 20)
#    0.000    1.000    5.000    1.875   10.500    2.000 
#    0.000    0.000    0.000    6.000    0.000    0.000 
#    0.000    0.000    0.000    0.000    0.000    0.000 
#
# Total GULP energy -178788.826618 kJ/mol
# GULP energy per Si atom -5587.150832 kJ/mol
# Density = 2.165033 g / cm^3
# Si number density = 21.699722 Si / 1000 Ang^3
#
#
#
# Elastic Constant Matrix: (Units=GPa)
#
#
# Indices 1 2 3 4 5 6 
#
# 1 48.6769 24.0355 11.1224 0.0000 0.0000 0.0000
# 2 24.0355 133.2020 43.1682 0.0000 0.0000 0.0000
# 3 11.1224 43.1682 64.0090 0.0000 0.0000 0.0000
# 4 0.0000 0.0000 0.0000 39.1951 0.0000 0.0000
# 5 0.0000 0.0000 0.0000 0.0000 29.3188 0.0000
# 6 0.0000 0.0000 0.0000 0.0000 0.0000 35.1344
#
#
#
# Elastic Compliance Matrix: (Units=1/GPa)
#
#
# Indices 1 2 3 4 5 6 
#
# 1 0.022667 -0.003601 -0.001510 0.000000 0.000000 0.000000
# 2 -0.003601 0.010179 -0.006239 0.000000 0.000000 0.000000
# 3 -0.001510 -0.006239 0.020093 0.000000 0.000000 0.000000
# 4 0.000000 0.000000 0.000000 0.025513 0.000000 0.000000
# 5 0.000000 0.000000 0.000000 0.000000 0.034108 0.000000
# 6 0.000000 0.000000 0.000000 0.000000 0.000000 0.028462
#
#
# Mechanical properties :
#
#
# Convention : Reuss Voigt Hill
#
# Bulk Modulus (GPa) = 33.07048 44.72666 38.89857
# Shear Modulus (GPa) = 28.76837 31.90044 30.33441
#
# Velocity S-wave (km/s) = 3.64503 3.83833 3.74293
# Velocity P-wave (km/s) = 5.74353 6.34823 6.05344
#
# Compressibility (1/GPa) = 0.03023845
#
# Stress axis : x y z
#
# Youngs Moduli (GPa) = 44.11777 98.24034 49.76843
#
# Poissons Ratio (x) = 0.35372 0.07517
# Poissons Ratio (y) = 0.15885 0.31052
# Poissons Ratio (z) = 0.06663 0.61295
#
# Static dielectric constant tensor:
#      x y z
#    x 1.890530 0.000000 0.000000 
#    y 0.000000 1.882550 0.000000 
#    z 0.000000 0.000000 1.823000 
# 
# From -- ./inp_files/1617.got.cif
#   From: 2010.05.17/outbox.cif.g08.bks.cpg/sg27_1_cif.got.tgz:1617.got - 2010.06.04 01:11:05.
