data_PCOD9338372
_publ_section_title
;
Structure prediction by ZEFSAII (Michael W. Deem and Ramdas Pophale) SiO2 
 PCOD9338372
Probable space group: P M C 21
;
_chemical_formula_sum "Si O2"
_cell_formula_units_Z 24
_cell_length_a 7.631652
_cell_length_b 10.132450
_cell_length_c 14.204573
_cell_angle_alpha 90.000000
_cell_angle_beta 90.000000
_cell_angle_gamma 90.000000
_cell_volume 1098.401737
_symmetry_space_group_name_H-M "P M C 21"
_symmetry_group_IT_number 26
_symmetry_cell_setting 'orthorhombic'
loop_
_space_group_symop_operation_xyz
x,y,z
-x,-y,1/2+z
-x,y,z
x,-y,1/2+z
loop_
_atom_site_type_symbol
_atom_site_label
_atom_site_fract_x
_atom_site_fract_y
_atom_site_fract_z
Si Si1 0.713027 0.986443 0.215000
Si Si2 0.794143 0.931480 0.430107
Si Si3 0.794942 0.641892 0.483341
Si Si4 0.711996 0.712470 0.688283
Si Si5 0.296510 0.627889 0.893651
Si Si6 0.301178 0.178378 0.547849
O O1 0.500000 0.985084 0.212776
O O2 0.773170 0.962431 0.320544
O O3 0.778266 0.870736 0.145980
O O4 0.767180 0.133541 0.182770
O O5 0.726475 0.785580 0.453287
O O6 0.000000 0.938029 0.455723
O O7 0.696055 0.043633 0.487980
O O8 0.773239 0.634760 0.596056
O O9 0.710827 0.522259 0.426750
O O10 0.000000 0.637810 0.460407
O O11 0.500000 0.708350 0.686346
O O12 0.774115 0.655799 0.789103
O O13 0.500000 0.671312 0.887948
O O14 0.215870 0.715097 0.978269
O O15 0.500000 0.224342 0.568644
#
# Coordination Sequence:
#
# PCOD9338372 Si02
#       6
#     4   4   4   4   4   4
#     4  10  20  36  63  92 119 153 198 251 299 347
#     4  11  23  37  57  87 122 157 197 241 291 356
#     4  11  25  41  58  87 126 165 200 238 295 363
#     4  10  20  38  65  90 115 154 201 251 303 352
#     4  10  22  40  62  90 120 153 201 250 297 355
#     4  10  20  38  63  90 116 148 199 251 295 349
#
# _framework density 21.849930000000001
#
# number of rings (size 3 to 8) (size 9 to 14) (size 15 to 20)
#    0.000    1.667    3.333    1.000    0.000    6.000 
#    0.000    5.000    0.000    0.000    0.000    0.000 
#    0.000    0.000    0.000    0.000    0.000    0.000 
#
# Total GULP energy -134067.321565 kJ/mol
# GULP energy per Si atom -5586.138399 kJ/mol
# Density = 2.180020 g / cm^3
# Si number density = 21.849930 Si / 1000 Ang^3
#
#
#
# Elastic Constant Matrix: (Units=GPa)
#
#
# Indices 1 2 3 4 5 6 
#
# 1 51.1315 -7.9281 -13.9048 0.0000 0.0000 0.0000
# 2 -7.9281 64.2360 -12.2796 0.0000 0.0000 0.0000
# 3 -13.9048 -12.2796 64.8708 0.0000 0.0000 0.0000
# 4 0.0000 0.0000 0.0000 36.6211 0.0000 0.0000
# 5 0.0000 0.0000 0.0000 0.0000 5.5580 0.0000
# 6 0.0000 0.0000 0.0000 0.0000 0.0000 10.4369
#
#
#
# Elastic Compliance Matrix: (Units=1/GPa)
#
#
# Indices 1 2 3 4 5 6 
#
# 1 0.021575 0.003680 0.005321 0.000000 0.000000 0.000000
# 2 0.003680 0.016780 0.003965 0.000000 0.000000 0.000000
# 3 0.005321 0.003965 0.017306 0.000000 0.000000 0.000000
# 4 0.000000 0.000000 0.000000 0.027307 0.000000 0.000000
# 5 0.000000 0.000000 0.000000 0.000000 0.179920 0.000000
# 6 0.000000 0.000000 0.000000 0.000000 0.000000 0.095814
#
#
# Mechanical properties :
#
#
# Convention : Reuss Voigt Hill
#
# Bulk Modulus (GPa) = 12.25585 12.44593 12.35089
# Shear Modulus (GPa) = 13.89017 24.81326 19.35172
#
# Velocity S-wave (km/s) = 2.52406 3.37356 2.97924
# Velocity P-wave (km/s) = 3.75710 4.56979 4.18323
#
# Compressibility (1/GPa) = 0.08159369
#
# Stress axis : x y z
#
# Youngs Moduli (GPa) = 46.34985 59.59561 57.78215
#
# Poissons Ratio (x) = -0.21931 -0.30747
# Poissons Ratio (y) = -0.17057 -0.22911
# Poissons Ratio (z) = -0.24663 -0.23630
#
# Static dielectric constant tensor:
#      x y z
#    x 1.843960 0.000000 0.000000 
#    y 0.000000 1.767880 0.000000 
#    z 0.000000 0.000000 1.791230 
# 
# From -- ./inp_files/2825.got.cif
#   From: 2010.05.17/outbox.cif.g08.bks.cpg/sg26_2_cif.got.tgz:2825.got - 2010.06.04 01:07:29.
