data_PCOD9338186
_publ_section_title
;
Structure prediction by ZEFSAII (Michael W. Deem and Ramdas Pophale) SiO2 
 PCOD9338186
Probable space group: P M C 21
;
_chemical_formula_sum "Si O2"
_cell_formula_units_Z 32
_cell_length_a 7.621455
_cell_length_b 12.075028
_cell_length_c 15.862422
_cell_angle_alpha 90.000000
_cell_angle_beta 90.000000
_cell_angle_gamma 90.000000
_cell_volume 1459.807316
_symmetry_space_group_name_H-M "P M C 21"
_symmetry_group_IT_number 26
_symmetry_cell_setting 'orthorhombic'
loop_
_space_group_symop_operation_xyz
x,y,z
-x,-y,1/2+z
-x,y,z
x,-y,1/2+z
loop_
_atom_site_type_symbol
_atom_site_label
_atom_site_fract_x
_atom_site_fract_y
_atom_site_fract_z
Si Si1 0.713573 0.251846 0.699740
Si Si2 0.702853 0.162027 0.342615
Si Si3 0.794174 0.089299 0.850529
Si Si4 0.711971 0.503968 0.256017
Si Si5 0.205907 0.493596 0.450416
Si Si6 0.794475 0.261424 0.986528
Si Si7 0.702532 0.261044 0.513372
Si Si8 0.712467 0.720256 0.674550
O O1 0.500000 0.253093 0.699147
O O2 0.772653 0.159991 0.765630
O O3 0.771982 0.373693 0.730409
O O4 0.777874 0.232404 0.604574
O O5 0.500000 0.201370 0.343029
O O6 0.784101 0.208614 0.429120
O O7 0.775780 0.210057 0.255329
O O8 0.707821 0.030117 0.343629
O O9 0.000000 0.068451 0.865843
O O10 0.721257 0.166483 0.925879
O O11 0.500000 0.504460 0.257305
O O12 0.772251 0.475537 0.350383
O O13 0.766420 0.406917 0.192231
O O14 0.279958 0.615669 0.470129
O O15 0.293086 0.393309 0.500445
O O16 0.000000 0.490995 0.471764
O O17 0.778007 0.237277 0.085027
O O18 0.000000 0.269621 0.963413
O O19 0.500000 0.223386 0.516162
O O20 0.500000 0.724463 0.670749
#
# Coordination Sequence:
#
# PCOD9338186 Si02
#       8
#     4   4   4   4   4   4   4   4
#     4  10  21  37  63  92 117 151 194 240 292 347
#     4  10  22  41  62  85 115 150 197 248 293 343
#     4  11  24  42  60  81 118 158 197 243 291 347
#     4  10  19  35  59  89 121 152 189 236 293 350
#     4  11  21  35  58  88 122 158 192 232 289 353
#     4  10  23  40  57  85 122 157 192 235 288 347
#     4  10  21  40  63  88 120 152 191 245 293 345
#     4  10  21  38  62  90 117 150 192 241 293 344
#
# _framework density 21.920701000000001
#
# number of rings (size 3 to 8) (size 9 to 14) (size 15 to 20)
#    0.000    1.750    2.500    1.500    0.000    6.000 
#    0.000    3.750    0.000    0.000    0.000    0.000 
#    0.000    0.000    0.000    0.000    0.000    0.000 
#
# Total GULP energy -178859.096630 kJ/mol
# GULP energy per Si atom -5589.346770 kJ/mol
# Density = 2.187081 g / cm^3
# Si number density = 21.920701 Si / 1000 Ang^3
#
#
#
# Elastic Constant Matrix: (Units=GPa)
#
#
# Indices 1 2 3 4 5 6 
#
# 1 45.0315 -9.9680 -10.9719 0.0000 0.0000 0.0000
# 2 -9.9680 97.2653 25.5787 0.0000 0.0000 0.0000
# 3 -10.9719 25.5787 115.7952 0.0000 0.0000 0.0000
# 4 0.0000 0.0000 0.0000 6.2082 0.0000 0.0000
# 5 0.0000 0.0000 0.0000 0.0000 23.0136 0.0000
# 6 0.0000 0.0000 0.0000 0.0000 0.0000 71.2903
#
#
#
# Elastic Compliance Matrix: (Units=1/GPa)
#
#
# Indices 1 2 3 4 5 6 
#
# 1 0.023057 0.001899 0.001765 0.000000 0.000000 0.000000
# 2 0.001899 0.011072 -0.002266 0.000000 0.000000 0.000000
# 3 0.001765 -0.002266 0.009304 0.000000 0.000000 0.000000
# 4 0.000000 0.000000 0.000000 0.161077 0.000000 0.000000
# 5 0.000000 0.000000 0.000000 0.000000 0.043453 0.000000
# 6 0.000000 0.000000 0.000000 0.000000 0.000000 0.014027
#
#
# Mechanical properties :
#
#
# Convention : Reuss Voigt Hill
#
# Bulk Modulus (GPa) = 21.63151 29.70774 25.66963
# Shear Modulus (GPa) = 18.20813 36.99931 27.60372
#
# Velocity S-wave (km/s) = 2.88520 4.11283 3.55245
# Velocity P-wave (km/s) = 4.58134 6.01129 5.34436
#
# Compressibility (1/GPa) = 0.04622885
#
# Stress axis : x y z
#
# Youngs Moduli (GPa) = 43.37064 90.32123 107.48415
#
# Poissons Ratio (x) = -0.17149 -0.18974
# Poissons Ratio (y) = -0.08235 0.24353
# Poissons Ratio (z) = -0.07656 0.20465
#
# Static dielectric constant tensor:
#      x y z
#    x 1.830660 0.000000 0.000000 
#    y 0.000000 1.768370 0.000000 
#    z 0.000000 0.000000 1.794380 
# 
# From -- ./inp_files/4220.got.cif
#   From: 2010.05.17/outbox.cif.g08.bks.cpg/sg26_3_cif.got.tgz:4220.got - 2010.06.04 01:07:29.
