data_PCOD9338792
_publ_section_title
;
Structure prediction by ZEFSAII (Michael W. Deem and Ramdas Pophale) SiO2 
 PCOD9338792
Probable space group: P C C 2
;
_chemical_formula_sum "Si O2"
_cell_formula_units_Z 32
_cell_length_a 18.543275
_cell_length_b 7.004383
_cell_length_c 9.221895
_cell_angle_alpha 90.000000
_cell_angle_beta 90.000000
_cell_angle_gamma 90.000000
_cell_volume 1197.778456
_symmetry_space_group_name_H-M "P C C 2"
_symmetry_group_IT_number 27
_symmetry_cell_setting 'orthorhombic'
loop_
_space_group_symop_operation_xyz
x,y,z
-x,-y,z
-x,y,1/2+z
x,-y,1/2+z
loop_
_atom_site_type_symbol
_atom_site_label
_atom_site_fract_x
_atom_site_fract_y
_atom_site_fract_z
Si Si1 0.655141 0.887200 0.573950
Si Si2 0.481061 0.772931 0.909726
Si Si3 0.402194 0.315395 0.123068
Si Si4 0.252534 0.086021 0.850761
Si Si5 0.752534 0.586021 0.093215
Si Si6 0.981061 0.727068 0.534250
Si Si7 0.097806 0.184605 0.820908
Si Si8 0.844859 0.387200 0.870026
O O1 0.584021 0.773995 0.526783
O O2 0.704002 0.840043 0.712113
O O3 0.625956 0.097172 0.616711
O O4 0.704038 0.917758 0.430390
O O5 0.452331 0.681756 0.763005
O O6 0.500000 0.000000 0.884824
O O7 0.550224 0.671040 0.978484
O O8 0.331101 0.444662 0.130800
O O9 0.168899 0.055338 0.813176
O O10 0.250000 0.250000 0.971988
O O11 0.795998 0.659957 0.231863
O O12 0.795962 0.417758 0.013586
O O13 0.952331 0.818244 0.680971
O O14 0.915979 0.726005 0.417193
O O15 0.000000 0.500000 0.559152
O O16 0.050224 0.828960 0.465492
O O17 0.125956 0.402828 0.827265
#
# Coordination Sequence:
#
# PCOD9338792 Si02
#       8
#     4   4   4   4   4   4   4   4
#     4  10  19  38  59  86 121 154 200 255 297 354
#     4  10  19  33  60  88 119 151 197 259 301 338
#     4  10  21  34  57  92 118 151 195 249 304 357
#     4  10  22  37  58  91 122 156 200 251 305 360
#     4  10  22  37  58  91 122 156 200 251 305 360
#     4  10  19  33  60  88 119 151 197 259 301 338
#     4  10  21  34  57  92 118 151 195 249 304 357
#     4  10  19  38  59  86 121 154 200 255 297 354
#
# _framework density 26.716128999999999
#
# number of rings (size 3 to 8) (size 9 to 14) (size 15 to 20)
#    0.000    2.000    2.500    2.250    7.000    1.000 
#    0.000    0.000    0.000    4.500    0.000    0.000 
#    0.000    0.000    0.000    0.000    0.000    0.000 
#
# Total GULP energy -179461.738056 kJ/mol
# GULP energy per Si atom -5608.179314 kJ/mol
# Density = 2.665532 g / cm^3
# Si number density = 26.716129 Si / 1000 Ang^3
#
#
#
# Elastic Constant Matrix: (Units=GPa)
#
#
# Indices 1 2 3 4 5 6 
#
# 1 186.1681 36.5228 86.1553 0.0000 0.0000 0.0000
# 2 36.5228 66.9236 9.4187 0.0000 0.0000 0.0000
# 3 86.1553 9.4187 173.3275 0.0000 0.0000 0.0000
# 4 0.0000 0.0000 0.0000 23.2951 0.0000 0.0000
# 5 0.0000 0.0000 0.0000 0.0000 81.8792 0.0000
# 6 0.0000 0.0000 0.0000 0.0000 0.0000 45.5210
#
#
#
# Elastic Compliance Matrix: (Units=1/GPa)
#
#
# Indices 1 2 3 4 5 6 
#
# 1 0.007808 -0.003743 -0.003678 0.000000 0.000000 0.000000
# 2 -0.003743 0.016852 0.000945 0.000000 0.000000 0.000000
# 3 -0.003678 0.000945 0.007546 0.000000 0.000000 0.000000
# 4 0.000000 0.000000 0.000000 0.042928 0.000000 0.000000
# 5 0.000000 0.000000 0.000000 0.000000 0.012213 0.000000
# 6 0.000000 0.000000 0.000000 0.000000 0.000000 0.021968
#
#
# Mechanical properties :
#
#
# Convention : Reuss Voigt Hill
#
# Bulk Modulus (GPa) = 51.93684 76.73475 64.33580
# Shear Modulus (GPa) = 38.85459 49.76055 44.30757
#
# Velocity S-wave (km/s) = 3.81773 4.32043 4.07683
# Velocity P-wave (km/s) = 6.23826 7.32617 6.80399
#
# Compressibility (1/GPa) = 0.01925415
#
# Stress axis : x y z
#
# Youngs Moduli (GPa) = 128.07699 59.33886 132.51922
#
# Poissons Ratio (x) = 0.22213 0.48735
# Poissons Ratio (y) = 0.47945 -0.12523
# Poissons Ratio (z) = 0.47101 -0.05607
#
# Static dielectric constant tensor:
#      x y z
#    x 2.138090 0.000000 0.000000 
#    y 0.000000 2.186450 0.000000 
#    z 0.000000 0.000000 2.001580 
# 
# From -- ./inp_files/1714.got.cif
#   From: 2010.05.17/outbox.cif.g08.bks.cpg/sg27_1_cif.got.tgz:1714.got - 2010.06.04 01:11:05.
