data_PCOD9338393
_publ_section_title
;
Structure prediction by ZEFSAII (Michael W. Deem and Ramdas Pophale) SiO2 
 PCOD9338393
Probable space group: P M C 21
;
_chemical_formula_sum "Si O2"
_cell_formula_units_Z 32
_cell_length_a 16.886339
_cell_length_b 14.206015
_cell_length_c 5.718790
_cell_angle_alpha 90.000000
_cell_angle_beta 90.000000
_cell_angle_gamma 90.000000
_cell_volume 1371.866723
_symmetry_space_group_name_H-M "P M C 21"
_symmetry_group_IT_number 26
_symmetry_cell_setting 'orthorhombic'
loop_
_space_group_symop_operation_xyz
x,y,z
-x,-y,1/2+z
-x,y,z
x,-y,1/2+z
loop_
_atom_site_type_symbol
_atom_site_label
_atom_site_fract_x
_atom_site_fract_y
_atom_site_fract_z
Si Si1 0.907548 0.810196 0.689930
Si Si2 0.410833 0.218956 0.144349
Si Si3 0.595040 0.040314 0.890917
Si Si4 0.851211 0.792086 0.191596
Si Si5 0.691538 0.722207 0.016339
Si Si6 0.744754 0.529883 0.860761
Si Si7 0.589903 0.400315 0.850153
Si Si8 0.198444 0.998451 0.673571
O O1 0.887548 0.760825 0.439982
O O2 0.000000 0.833634 0.689022
O O3 0.854087 0.904341 0.682736
O O4 0.888125 0.761488 0.940819
O O5 0.500000 0.196603 0.225544
O O6 0.391955 0.152003 0.927151
O O7 0.346599 0.203121 0.343352
O O8 0.410160 0.327757 0.066818
O O9 0.500000 0.027271 0.887023
O O10 0.619980 0.995230 0.138231
O O11 0.759061 0.762282 0.183244
O O12 0.854005 0.906171 0.179631
O O13 0.734275 0.641349 0.862895
O O14 0.620623 0.666610 0.142164
O O15 0.781527 0.503399 0.114573
O O16 0.658162 0.478012 0.874231
O O17 0.500000 0.435045 0.813529
O O18 0.240725 0.997227 0.423256
#
# Coordination Sequence:
#
# PCOD9338393 Si02
#       8
#     4   4   4   4   4   4   4   4
#     4  10  20  37  62  91 123 162 205 253 304 362
#     4  10  21  37  59  83 111 157 210 262 314 362
#     4   9  19  35  54  74 100 136 192 255 298 346
#     4  10  22  34  57  85 125 165 200 243 298 377
#     4  11  23  38  57  85 128 166 198 252 321 381
#     4  10  21  38  58  84 117 154 197 247 311 379
#     4  10  22  38  61  89 118 158 210 268 323 379
#     4   8  16  31  50  81 115 156 198 242 288 350
#
# _framework density 23.325880999999999
#
# number of rings (size 3 to 8) (size 9 to 14) (size 15 to 20)
#    0.000    2.250    1.250    0.750    3.500    7.000 
#    0.000    3.750    0.000    0.000    0.000    0.000 
#    0.000   40.000    0.000    0.000    0.000    0.000 
#
# Total GULP energy -178607.295993 kJ/mol
# GULP energy per Si atom -5581.478000 kJ/mol
# Density = 2.327279 g / cm^3
# Si number density = 23.325881 Si / 1000 Ang^3
#
#
#
# Elastic Constant Matrix: (Units=GPa)
#
#
# Indices 1 2 3 4 5 6 
#
# 1 73.4214 12.4369 56.4355 0.0000 0.0000 0.0000
# 2 12.4369 47.7726 15.1682 0.0000 0.0000 0.0000
# 3 56.4355 15.1682 211.4847 0.0000 0.0000 0.0000
# 4 0.0000 0.0000 0.0000 13.9514 0.0000 0.0000
# 5 0.0000 0.0000 0.0000 0.0000 35.2824 0.0000
# 6 0.0000 0.0000 0.0000 0.0000 0.0000 -28.4410
#
#
#
# Elastic Compliance Matrix: (Units=1/GPa)
#
#
# Indices 1 2 3 4 5 6 
#
# 1 0.017589 -0.003161 -0.004467 0.000000 0.000000 0.000000
# 2 -0.003161 0.021988 -0.000734 0.000000 0.000000 0.000000
# 3 -0.004467 -0.000734 0.005973 0.000000 0.000000 0.000000
# 4 0.000000 0.000000 0.000000 0.071677 0.000000 0.000000
# 5 0.000000 0.000000 0.000000 0.000000 0.028343 0.000000
# 6 0.000000 0.000000 0.000000 0.000000 0.000000 -0.035161
#
#
# Mechanical properties :
#
#
# Convention : Reuss Voigt Hill
#
# Bulk Modulus (GPa) = 34.68884 55.64002 45.16443
# Shear Modulus (GPa) = 36.56529 20.73443 28.64986
#
# Velocity S-wave (km/s) = 3.96357 2.98468 3.50843
# Velocity P-wave (km/s) = 5.98750 5.98188 5.98469
#
# Compressibility (1/GPa) = 0.02882771
#
# Stress axis : x y z
#
# Youngs Moduli (GPa) = 56.85380 45.47878 167.41653
#
# Poissons Ratio (x) = 0.14375 0.74785
# Poissons Ratio (y) = 0.17970 0.12282
# Poissons Ratio (z) = 0.25397 0.03336
#
# Static dielectric constant tensor:
#      x y z
#    x 1.848170 0.000000 0.000000 
#    y 0.000000 1.966170 0.000000 
#    z 0.000000 0.000000 1.973600 
# 
# From -- ./inp_files/802.got.cif
#   From: 2010.05.17/outbox.cif.g08.bks.cpg/sg26_1_cif.got.tgz:802.got - 2010.06.04 01:07:29.
