data_PCOD9338875
_publ_section_title
;
Structure prediction by ZEFSAII (Michael W. Deem and Ramdas Pophale) SiO2 
 PCOD9338875
Probable space group: P C C 2
;
_chemical_formula_sum "Si O2"
_cell_formula_units_Z 22
_cell_length_a 13.196309
_cell_length_b 8.036996
_cell_length_c 9.145799
_cell_angle_alpha 90.000000
_cell_angle_beta 90.000000
_cell_angle_gamma 90.000000
_cell_volume 969.991394
_symmetry_space_group_name_H-M "P C C 2"
_symmetry_group_IT_number 27
_symmetry_cell_setting 'orthorhombic'
loop_
_space_group_symop_operation_xyz
x,y,z
-x,-y,z
-x,y,1/2+z
x,-y,1/2+z
loop_
_atom_site_type_symbol
_atom_site_label
_atom_site_fract_x
_atom_site_fract_y
_atom_site_fract_z
Si Si1 0.079260 0.211840 0.016500
Si Si2 0.000000 0.500000 0.189022
Si Si3 0.659499 0.591677 0.584716
Si Si4 0.206602 0.540229 0.360240
Si Si5 0.000000 0.000000 0.252447
Si Si6 0.500000 0.000000 0.827638
Si Si7 0.553265 0.231118 0.577154
O O1 0.997956 0.340063 0.084250
O O2 0.176920 0.320476 0.979887
O O3 0.084369 0.072037 0.141386
O O4 0.042713 0.136659 0.863621
O O5 0.898943 0.511691 0.285218
O O6 0.735445 0.603114 0.448050
O O7 0.721054 0.608241 0.734066
O O8 0.565214 0.714431 0.575854
O O9 0.613733 0.596469 0.078993
O O10 0.566038 0.882336 0.934022
O O11 0.434768 0.881608 0.720916
#
# Coordination Sequence:
#
# PCOD9338875 Si02
#       7
#     4   2   4   4   2   2   4
#     4  11  23  43  66  94 129 182 225 287 345 400
#     4  12  24  42  74  94 134 180 244 284 330 406
#     4  11  24  42  69 102 135 176 232 282 337 410
#     4  12  24  39  69 101 131 174 236 286 334 392
#     4  10  24  42  68  90 136 184 228 286 362 404
#     4  10  20  40  76  94 136 182 210 268 364 410
#     4  10  22  44  70  99 137 176 218 282 343 412
#
# _framework density 22.680613000000001
#
# number of rings (size 3 to 8) (size 9 to 14) (size 15 to 20)
#    0.000    1.091    3.636    2.727    0.000    2.909 
#    0.000    7.273    0.000    0.000    0.000    0.000 
#    0.000    0.000    0.000    0.000    0.000    0.000 
#
# Total GULP energy -123026.167457 kJ/mol
# GULP energy per Si atom -5592.098521 kJ/mol
# Density = 2.262899 g / cm^3
# Si number density = 22.680613 Si / 1000 Ang^3
#
#
#
# Elastic Constant Matrix: (Units=GPa)
#
#
# Indices 1 2 3 4 5 6 
#
# 1 107.9485 17.0551 46.8151 0.0000 0.0000 0.0000
# 2 17.0551 88.9557 45.6145 0.0000 0.0000 0.0000
# 3 46.8151 45.6145 161.2661 0.0000 0.0000 0.0000
# 4 0.0000 0.0000 0.0000 46.7330 0.0000 0.0000
# 5 0.0000 0.0000 0.0000 0.0000 28.0978 0.0000
# 6 0.0000 0.0000 0.0000 0.0000 0.0000 22.2997
#
#
#
# Elastic Compliance Matrix: (Units=1/GPa)
#
#
# Indices 1 2 3 4 5 6 
#
# 1 0.010619 -0.000532 -0.002932 0.000000 0.000000 0.000000
# 2 -0.000532 0.013175 -0.003572 0.000000 0.000000 0.000000
# 3 -0.002932 -0.003572 0.008063 0.000000 0.000000 0.000000
# 4 0.000000 0.000000 0.000000 0.021398 0.000000 0.000000
# 5 0.000000 0.000000 0.000000 0.000000 0.035590 0.000000
# 6 0.000000 0.000000 0.000000 0.000000 0.000000 0.044844
#
#
# Mechanical properties :
#
#
# Convention : Reuss Voigt Hill
#
# Bulk Modulus (GPa) = 56.23102 64.12664 60.17883
# Shear Modulus (GPa) = 32.53294 36.00516 34.26905
#
# Velocity S-wave (km/s) = 3.79145 3.98865 3.89130
# Velocity P-wave (km/s) = 6.63424 7.03900 6.83962
#
# Compressibility (1/GPa) = 0.01778378
#
# Stress axis : x y z
#
# Youngs Moduli (GPa) = 94.16706 75.89944 124.03086
#
# Poissons Ratio (x) = 0.04041 0.36368
# Poissons Ratio (y) = 0.05014 0.44305
# Poissons Ratio (z) = 0.27611 0.27112
#
# Static dielectric constant tensor:
#      x y z
#    x 1.865080 0.000000 0.000000 
#    y 0.000000 1.920460 0.000000 
#    z 0.000000 0.000000 1.860740 
# 
# From -- ./inp_files/1555.got.cif
#   From: 2010.05.17/outbox.cif.g08.bks.cpg/sg27_1_cif.got.tgz:1555.got - 2010.06.04 01:11:05.
