data_PCOD9338028
_publ_section_title
;
Structure prediction by ZEFSAII (Michael W. Deem and Ramdas Pophale) SiO2 
 PCOD9338028
Probable space group: P M C 21
;
_chemical_formula_sum "Si O2"
_cell_formula_units_Z 26
_cell_length_a 36.566409
_cell_length_b 5.205584
_cell_length_c 5.016678
_cell_angle_alpha 90.000000
_cell_angle_beta 90.000000
_cell_angle_gamma 90.000000
_cell_volume 954.922217
_symmetry_space_group_name_H-M "P M C 21"
_symmetry_group_IT_number 26
_symmetry_cell_setting 'orthorhombic'
loop_
_space_group_symop_operation_xyz
x,y,z
-x,-y,1/2+z
-x,y,z
x,-y,1/2+z
loop_
_atom_site_type_symbol
_atom_site_label
_atom_site_fract_x
_atom_site_fract_y
_atom_site_fract_z
Si Si1 0.539272 0.842120 0.801290
Si Si2 0.000000 0.183123 0.327120
Si Si3 0.619326 0.344751 0.452656
Si Si4 0.924237 0.817605 0.963179
Si Si5 0.849181 0.841860 0.810085
Si Si6 0.306282 0.316567 0.296992
Si Si7 0.231670 0.659588 0.949903
O O1 0.500000 0.712468 0.866283
O O2 0.578341 0.734975 0.882809
O O3 0.538864 0.903796 0.488534
O O4 0.037993 0.324134 0.394105
O O5 0.000000 0.058965 0.035071
O O6 0.622471 0.403541 0.763308
O O7 0.654841 0.184521 0.357837
O O8 0.924842 0.941568 0.254419
O O9 0.885279 0.687587 0.901443
O O10 0.851727 0.094060 0.999755
O O11 0.808755 0.751109 0.880519
O O12 0.306144 0.553475 0.509563
O O13 0.267621 0.182786 0.359292
O O14 0.234164 0.408119 0.759329
#
# Coordination Sequence:
#
# PCOD9338028 Si02
#       7
#     4   2   4   4   4   4   4
#     4  10  21  36  51  71 103 135 157 187 237 287
#     4   8  12  20  34  54  78 108 142 174 216 270
#     4  10  19  33  54  76  95 121 162 204 233 267
#     4   8  14  23  37  57  84 112 140 180 227 267
#     4  10  19  31  46  69  97 120 148 195 241 268
#     4   8  16  30  48  69  93 120 153 194 234 269
#     4  10  19  33  51  69  92 127 162 187 224 286
#
# _framework density 27.227350000000001
#
# number of rings (size 3 to 8) (size 9 to 14) (size 15 to 20)
#    0.000    2.769    0.000    1.846    0.000    0.615 
#    0.000    1.538    0.000    0.000    0.000    1.077 
#    0.000    0.000    0.000    0.000    0.000    0.000 
#
# Total GULP energy -145160.290858 kJ/mol
# GULP energy per Si atom -5583.088110 kJ/mol
# Density = 2.716538 g / cm^3
# Si number density = 27.227350 Si / 1000 Ang^3
#
#
#
# Elastic Constant Matrix: (Units=GPa)
#
#
# Indices 1 2 3 4 5 6 
#
# 1 331.4766 26.4819 13.4282 0.0000 0.0000 0.0000
# 2 26.4819 42.2404 24.9385 0.0000 0.0000 0.0000
# 3 13.4282 24.9385 116.7304 0.0000 0.0000 0.0000
# 4 0.0000 0.0000 0.0000 41.5882 0.0000 0.0000
# 5 0.0000 0.0000 0.0000 0.0000 51.2642 0.0000
# 6 0.0000 0.0000 0.0000 0.0000 0.0000 -10.0020
#
#
#
# Elastic Compliance Matrix: (Units=1/GPa)
#
#
# Indices 1 2 3 4 5 6 
#
# 1 0.003176 -0.002032 0.000069 0.000000 0.000000 0.000000
# 2 -0.002032 0.028391 -0.005832 0.000000 0.000000 0.000000
# 3 0.000069 -0.005832 0.009805 0.000000 0.000000 0.000000
# 4 0.000000 0.000000 0.000000 0.024045 0.000000 0.000000
# 5 0.000000 0.000000 0.000000 0.000000 0.019507 0.000000
# 6 0.000000 0.000000 0.000000 0.000000 0.000000 -0.099980
#
#
# Mechanical properties :
#
#
# Convention : Reuss Voigt Hill
#
# Bulk Modulus (GPa) = 38.78659 68.90494 53.84577
# Shear Modulus (GPa) = 547.77402 44.94334 296.35868
#
# Velocity S-wave (km/s) = 14.19936 4.06725 10.44424
# Velocity P-wave (km/s) = 16.82574 6.88614 12.85544
#
# Compressibility (1/GPa) = 0.02578211
#
# Stress axis : x y z
#
# Youngs Moduli (GPa) = 314.82656 35.22254 101.99144
#
# Poissons Ratio (x) = 0.07157 -0.00701
# Poissons Ratio (y) = 0.63970 0.59479
# Poissons Ratio (z) = -0.02163 0.20541
#
# Static dielectric constant tensor:
#      x y z
#    x 2.282760 0.000000 0.000000 
#    y 0.000000 2.128260 0.000000 
#    z 0.000000 0.000000 2.000200 
# 
# From -- ./inp_files/1094.got.cif
#   From: 2010.05.17/outbox.cif.g08.bks.cpg/sg26_1_cif.got.tgz:1094.got - 2010.06.04 01:07:29.
