data_PCOD9338021
_publ_section_title
;
Structure prediction by ZEFSAII (Michael W. Deem and Ramdas Pophale) SiO2 
 PCOD9338021
Probable space group: P M C 21
;
_chemical_formula_sum "Si O2"
_cell_formula_units_Z 32
_cell_length_a 13.676993
_cell_length_b 14.279553
_cell_length_c 8.073196
_cell_angle_alpha 90.000000
_cell_angle_beta 90.000000
_cell_angle_gamma 90.000000
_cell_volume 1576.706049
_symmetry_space_group_name_H-M "P M C 21"
_symmetry_group_IT_number 26
_symmetry_cell_setting 'orthorhombic'
loop_
_space_group_symop_operation_xyz
x,y,z
-x,-y,1/2+z
-x,y,z
x,-y,1/2+z
loop_
_atom_site_type_symbol
_atom_site_label
_atom_site_fract_x
_atom_site_fract_y
_atom_site_fract_z
Si Si1 0.114082 0.974323 0.471890
Si Si2 0.388088 0.846315 0.530276
Si Si3 0.389298 0.027561 0.700593
Si Si4 0.117803 0.554474 0.245855
Si Si5 0.887222 0.813124 0.702098
Si Si6 0.883072 0.360638 0.383938
Si Si7 0.797043 0.123853 0.653367
Si Si8 0.208929 0.721817 0.405053
O O1 0.146195 0.914036 0.633624
O O2 0.173590 0.931574 0.321920
O O3 0.000000 0.958402 0.440680
O O4 0.131644 0.082753 0.514393
O O5 0.500000 0.810266 0.541275
O O6 0.368578 0.916294 0.685148
O O7 0.308129 0.765983 0.487804
O O8 0.385801 0.921838 0.379191
O O9 0.500000 0.039554 0.638639
O O10 0.308953 0.086935 0.601887
O O11 0.141889 0.444831 0.259032
O O12 0.187063 0.614092 0.367864
O O13 0.000000 0.565011 0.284473
O O14 0.134406 0.596245 0.063890
O O15 0.839630 0.740321 0.832142
O O16 0.876022 0.755306 0.529249
O O17 0.000000 0.828181 0.743777
O O18 0.000000 0.347632 0.372617
O O19 0.799815 0.227393 0.725241
#
# Coordination Sequence:
#
# PCOD9338021 Si02
#       8
#     4   4   4   4   4   4   4   4
#     4  10  20  31  43  60  90 133 172 201 232 276
#     4   9  18  32  50  72  96 125 163 204 246 288
#     4   9  16  29  49  69  90 118 156 204 251 286
#     4  10  19  31  49  73  98 125 157 196 242 289
#     4   9  17  30  46  66  94 128 163 199 237 278
#     4   9  18  32  50  72  97 123 157 202 245 283
#     4  10  19  31  44  64  93 126 165 201 236 284
#     4  10  19  30  46  68  96 128 158 193 238 288
#
# _framework density 20.295477000000002
#
# number of rings (size 3 to 8) (size 9 to 14) (size 15 to 20)
#    0.000    2.500    0.000    3.750    0.000    4.500 
#    0.000    3.750    0.000    0.000    0.000    3.500 
#    0.000    0.000    0.000    0.000    0.000    0.000 
#
# Total GULP energy -178183.358304 kJ/mol
# GULP energy per Si atom -5568.229947 kJ/mol
# Density = 2.024928 g / cm^3
# Si number density = 20.295477 Si / 1000 Ang^3
#
#
#
# Elastic Constant Matrix: (Units=GPa)
#
#
# Indices 1 2 3 4 5 6 
#
# 1 90.4917 13.3339 17.9046 0.0000 0.0000 0.0000
# 2 13.3339 113.9723 26.6073 0.0000 0.0000 0.0000
# 3 17.9046 26.6073 42.0565 0.0000 0.0000 0.0000
# 4 0.0000 0.0000 0.0000 37.8931 0.0000 0.0000
# 5 0.0000 0.0000 0.0000 0.0000 18.8942 0.0000
# 6 0.0000 0.0000 0.0000 0.0000 0.0000 19.7728
#
#
#
# Elastic Compliance Matrix: (Units=1/GPa)
#
#
# Indices 1 2 3 4 5 6 
#
# 1 0.012073 -0.000249 -0.004982 0.000000 0.000000 0.000000
# 2 -0.000249 0.010300 -0.006410 0.000000 0.000000 0.000000
# 3 -0.004982 -0.006410 0.029954 0.000000 0.000000 0.000000
# 4 0.000000 0.000000 0.000000 0.026390 0.000000 0.000000
# 5 0.000000 0.000000 0.000000 0.000000 0.052926 0.000000
# 6 0.000000 0.000000 0.000000 0.000000 0.000000 0.050575
#
#
# Mechanical properties :
#
#
# Convention : Reuss Voigt Hill
#
# Bulk Modulus (GPa) = 34.43077 40.24580 37.33829
# Shear Modulus (GPa) = 23.23615 27.89033 25.56324
#
# Velocity S-wave (km/s) = 3.38730 3.71106 3.55287
# Velocity P-wave (km/s) = 5.68331 6.18350 5.93867
#
# Compressibility (1/GPa) = 0.02904379
#
# Stress axis : x y z
#
# Youngs Moduli (GPa) = 82.82772 97.09051 33.38467
#
# Poissons Ratio (x) = 0.02421 0.16633
# Poissons Ratio (y) = 0.02066 0.21399
# Poissons Ratio (z) = 0.41266 0.62235
#
# Static dielectric constant tensor:
#      x y z
#    x 1.711140 0.000000 0.000000 
#    y 0.000000 1.761710 0.000000 
#    z 0.000000 0.000000 1.837390 
# 
# From -- ./inp_files/2256.got.cif
#   From: 2010.05.17/outbox.cif.g08.bks.cpg/sg26_2_cif.got.tgz:2256.got - 2010.06.04 01:07:29.
