data_PCOD9338750
_publ_section_title
;
Structure prediction by ZEFSAII (Michael W. Deem and Ramdas Pophale) SiO2 
 PCOD9338750
Probable space group: P C C 2
;
_chemical_formula_sum "Si O2"
_cell_formula_units_Z 24
_cell_length_a 16.182401
_cell_length_b 9.439478
_cell_length_c 8.566187
_cell_angle_alpha 90.000000
_cell_angle_beta 90.000000
_cell_angle_gamma 90.000000
_cell_volume 1308.514345
_symmetry_space_group_name_H-M "P C C 2"
_symmetry_group_IT_number 27
_symmetry_cell_setting 'orthorhombic'
loop_
_space_group_symop_operation_xyz
x,y,z
-x,-y,z
-x,y,1/2+z
x,-y,1/2+z
loop_
_atom_site_type_symbol
_atom_site_label
_atom_site_fract_x
_atom_site_fract_y
_atom_site_fract_z
Si Si1 0.758595 0.339373 0.760300
Si Si2 0.414505 0.662023 0.633727
Si Si3 0.088456 0.839912 0.260057
Si Si4 0.414503 0.662022 0.260497
Si Si5 0.911541 0.160081 0.634169
Si Si6 0.758598 0.660619 0.633926
O O1 0.671647 0.277085 0.696920
O O2 0.836071 0.251800 0.698077
O O3 0.765358 0.499995 0.697110
O O4 0.756736 0.341729 0.947113
O O5 0.415033 0.659967 0.447112
O O6 0.500002 0.727116 0.697110
O O7 0.414075 0.500001 0.697113
O O8 0.087776 0.840584 0.447113
O O9 0.163924 0.748186 0.196149
O O10 0.999997 0.786063 0.197116
O O11 0.097129 0.999996 0.197109
O O12 0.328349 0.722910 0.197310
#
# Coordination Sequence:
#
# PCOD9338750 Si02
#       6
#     4   4   4   4   4   4
#     4  11  21  35  54  81 111 142 178 223 269 315
#     4  10  17  28  46  72 104 140 176 216 261 313
#     4  11  22  39  59  81 106 140 179 219 264 319
#     4  10  17  28  46  72 104 140 176 216 261 313
#     4  11  22  39  59  81 106 140 179 219 264 319
#     4  11  21  35  54  81 111 142 178 223 269 315
#
# _framework density 18.341411000000001
#
# number of rings (size 3 to 8) (size 9 to 14) (size 15 to 20)
#    0.000    1.333    0.000   13.000    0.000    0.667 
#    0.000    3.333    0.000    1.000    0.000    7.000 
#    0.000    0.000    0.000    0.000    0.000    0.000 
#
# Total GULP energy -134036.285717 kJ/mol
# GULP energy per Si atom -5584.845238 kJ/mol
# Density = 1.829967 g / cm^3
# Si number density = 18.341411 Si / 1000 Ang^3
#
#
#
# Elastic Constant Matrix: (Units=GPa)
#
#
# Indices 1 2 3 4 5 6 
#
# 1 237.9068 59.2234 100.7008 0.0000 0.0000 0.0000
# 2 59.2234 28.8159 30.1895 0.0000 0.0000 0.0000
# 3 100.7008 30.1895 244.3483 0.0000 0.0000 0.0000
# 4 0.0000 0.0000 0.0000 24.4920 0.0000 0.0000
# 5 0.0000 0.0000 0.0000 0.0000 39.5517 0.0000
# 6 0.0000 0.0000 0.0000 0.0000 0.0000 -32.7847
#
#
#
# Elastic Compliance Matrix: (Units=1/GPa)
#
#
# Indices 1 2 3 4 5 6 
#
# 1 0.009160 -0.017083 -0.001665 0.000000 0.000000 0.000000
# 2 -0.017083 0.071720 -0.001821 0.000000 0.000000 0.000000
# 3 -0.001665 -0.001821 0.005004 0.000000 0.000000 0.000000
# 4 0.000000 0.000000 0.000000 0.040830 0.000000 0.000000
# 5 0.000000 0.000000 0.000000 0.000000 0.025283 0.000000
# 6 0.000000 0.000000 0.000000 0.000000 0.000000 -0.030502
#
#
# Mechanical properties :
#
#
# Convention : Reuss Voigt Hill
#
# Bulk Modulus (GPa) = 22.34770 99.03316 60.69043
# Shear Modulus (GPa) = 28.16141 27.64894 27.90518
#
# Velocity S-wave (km/s) = 3.92267 3.88681 3.90478
# Velocity P-wave (km/s) = 5.72077 8.61711 7.31375
#
# Compressibility (1/GPa) = 0.04474733
#
# Stress axis : x y z
#
# Youngs Moduli (GPa) = 109.16474 13.94306 199.85993
#
# Poissons Ratio (x) = 0.23819 0.33268
# Poissons Ratio (y) = 1.86486 0.36392
# Poissons Ratio (z) = 0.18171 0.02539
#
# Static dielectric constant tensor:
#      x y z
#    x 1.686250 0.000000 0.000000 
#    y 0.000000 1.634120 0.000000 
#    z 0.000000 0.000000 1.604540 
# 
# From -- ./inp_files/1391.got.cif
#   From: 2010.05.17/outbox.cif.g08.bks.cpg/sg27_1_cif.got.tgz:1391.got - 2010.06.04 01:11:05.
