data_PCOD9338553
_publ_section_title
;
Structure prediction by ZEFSAII (Michael W. Deem and Ramdas Pophale) SiO2 
 PCOD9338553
Probable space group: P M C 21
;
_chemical_formula_sum "Si O2"
_cell_formula_units_Z 32
_cell_length_a 8.844776
_cell_length_b 11.685626
_cell_length_c 16.656486
_cell_angle_alpha 90.000000
_cell_angle_beta 90.000000
_cell_angle_gamma 90.000000
_cell_volume 1721.560166
_symmetry_space_group_name_H-M "P M C 21"
_symmetry_group_IT_number 26
_symmetry_cell_setting 'orthorhombic'
loop_
_space_group_symop_operation_xyz
x,y,z
-x,-y,1/2+z
-x,y,z
x,-y,1/2+z
loop_
_atom_site_type_symbol
_atom_site_label
_atom_site_fract_x
_atom_site_fract_y
_atom_site_fract_z
Si Si1 0.331745 0.569285 0.785860
Si Si2 0.320150 0.218237 0.170561
Si Si3 0.315557 0.928268 0.823808
Si Si4 0.818657 0.439978 0.558623
Si Si5 0.823308 0.363158 0.734874
Si Si6 0.672147 0.267426 0.439337
Si Si7 0.319440 0.809552 0.350485
Si Si8 0.818343 0.303967 0.009937
O O1 0.500000 0.518367 0.774261
O O2 0.301082 0.659484 0.715031
O O3 0.208010 0.471635 0.791894
O O4 0.335988 0.644593 0.865287
O O5 0.500000 0.201777 0.156605
O O6 0.268865 0.125091 0.237466
O O7 0.235218 0.228505 0.086332
O O8 0.500000 0.920233 0.823342
O O9 0.265603 0.847321 0.897605
O O10 0.272136 0.058402 0.839660
O O11 0.768756 0.410013 0.648947
O O12 0.767183 0.333320 0.505255
O O13 0.765037 0.564224 0.526348
O O14 0.000000 0.446911 0.559900
O O15 0.732377 0.258825 0.771735
O O16 0.000000 0.335663 0.730916
O O17 0.500000 0.246755 0.468237
O O18 0.500000 0.805964 0.358658
O O19 0.247524 0.748809 0.428281
O O20 0.000000 0.304433 0.005664
#
# Coordination Sequence:
#
# PCOD9338553 Si02
#       8
#     4   4   4   4   4   4   4   4
#     4   9  17  31  55  85 111 138 181 228 278 333
#     4   9  17  34  61  87 111 144 187 237 280 330
#     4   8  18  39  61  82 111 144 188 238 285 332
#     4  10  22  37  53  80 118 152 181 222 282 345
#     4  11  22  37  54  77 116 154 185 228 284 340
#     4   9  18  34  58  84 107 138 181 232 277 327
#     4  11  23  40  60  83 112 152 196 239 286 336
#     4  11  22  38  58  86 120 152 187 230 288 349
#
# _framework density 18.587790999999999
#
# number of rings (size 3 to 8) (size 9 to 14) (size 15 to 20)
#    0.000    2.250    1.250    3.375    0.000    4.500 
#    2.250    4.375    0.000    0.000    0.000    0.000 
#    0.000    0.000    0.000    0.000    0.000    0.000 
#
# Total GULP energy -178424.033961 kJ/mol
# GULP energy per Si atom -5575.751061 kJ/mol
# Density = 1.854548 g / cm^3
# Si number density = 18.587791 Si / 1000 Ang^3
#
#
#
# Elastic Constant Matrix: (Units=GPa)
#
#
# Indices 1 2 3 4 5 6 
#
# 1 24.0041 34.7965 25.9301 0.0000 0.0000 0.0000
# 2 34.7965 140.6917 66.6912 0.0000 0.0000 0.0000
# 3 25.9301 66.6912 79.7340 0.0000 0.0000 0.0000
# 4 0.0000 0.0000 0.0000 22.3931 0.0000 0.0000
# 5 0.0000 0.0000 0.0000 0.0000 24.5033 0.0000
# 6 0.0000 0.0000 0.0000 0.0000 0.0000 9.8162
#
#
#
# Elastic Compliance Matrix: (Units=1/GPa)
#
#
# Indices 1 2 3 4 5 6 
#
# 1 0.073812 -0.011395 -0.014473 0.000000 0.000000 0.000000
# 2 -0.011395 0.013536 -0.007616 0.000000 0.000000 0.000000
# 3 -0.014473 -0.007616 0.023619 0.000000 0.000000 0.000000
# 4 0.000000 0.000000 0.000000 0.044657 0.000000 0.000000
# 5 0.000000 0.000000 0.000000 0.000000 0.040811 0.000000
# 6 0.000000 0.000000 0.000000 0.000000 0.000000 0.101873
#
#
# Mechanical properties :
#
#
# Convention : Reuss Voigt Hill
#
# Bulk Modulus (GPa) = 22.72808 55.47393 39.10101
# Shear Modulus (GPa) = 13.15985 19.14331 16.15158
#
# Velocity S-wave (km/s) = 2.66368 3.21267 2.95097
# Velocity P-wave (km/s) = 4.65985 6.60838 5.71773
#
# Compressibility (1/GPa) = 0.04399843
#
# Stress axis : x y z
#
# Youngs Moduli (GPa) = 13.54785 73.87541 42.33870
#
# Poissons Ratio (x) = 0.84180 0.61279
# Poissons Ratio (y) = 0.15438 0.32247
# Poissons Ratio (z) = 0.19608 0.56266
#
# Static dielectric constant tensor:
#      x y z
#    x 1.643030 0.000000 0.000000 
#    y 0.000000 1.650570 0.000000 
#    z 0.000000 0.000000 1.664960 
# 
# From -- ./inp_files/4131.got.cif
#   From: 2010.05.17/outbox.cif.g08.bks.cpg/sg26_3_cif.got.tgz:4131.got - 2010.06.04 01:07:29.
