data_PCOD9338545
_publ_section_title
;
Structure prediction by ZEFSAII (Michael W. Deem and Ramdas Pophale) SiO2 
 PCOD9338545
Probable space group: P M C 21
;
_chemical_formula_sum "Si O2"
_cell_formula_units_Z 30
_cell_length_a 12.171879
_cell_length_b 13.597233
_cell_length_c 9.615181
_cell_angle_alpha 90.000000
_cell_angle_beta 90.000000
_cell_angle_gamma 90.000000
_cell_volume 1591.349713
_symmetry_space_group_name_H-M "P M C 21"
_symmetry_group_IT_number 26
_symmetry_cell_setting 'orthorhombic'
loop_
_space_group_symop_operation_xyz
x,y,z
-x,-y,1/2+z
-x,y,z
x,-y,1/2+z
loop_
_atom_site_type_symbol
_atom_site_label
_atom_site_fract_x
_atom_site_fract_y
_atom_site_fract_z
Si Si1 0.623042 0.618792 0.068020
Si Si2 0.870674 0.321023 0.238241
Si Si3 0.373064 0.868523 0.399722
Si Si4 0.790598 0.790086 0.003695
Si Si5 0.371888 0.953841 0.095032
Si Si6 0.000000 0.228299 0.702928
Si Si7 0.811392 0.705056 0.422007
Si Si8 0.717081 0.499096 0.819225
O O1 0.500000 0.659460 0.075458
O O2 0.715020 0.703073 0.067785
O O3 0.646986 0.545956 0.194607
O O4 0.641969 0.557181 0.927856
O O5 0.821036 0.243871 0.348320
O O6 0.807325 0.423738 0.263772
O O7 0.000000 0.333662 0.265745
O O8 0.851639 0.288292 0.080584
O O9 0.500000 0.836106 0.397127
O O10 0.355420 0.933654 0.259510
O O11 0.292389 0.776672 0.401278
O O12 0.356143 0.936705 0.535379
O O13 0.714535 0.885358 0.015404
O O14 0.902276 0.799282 0.090046
O O15 0.500000 0.928541 0.064183
O O16 0.904660 0.261560 0.815726
O O17 0.776964 0.592732 0.392064
#
# Coordination Sequence:
#
# PCOD9338545 Si02
#       8
#     4   4   4   4   4   2   4   4
#     4  11  22  38  59  89 123 161 205 258 321 381
#     4  11  25  40  62  92 128 167 216 261 316 382
#     4  10  23  42  69 100 130 168 214 265 322 384
#     4  11  23  41  65  92 124 165 210 264 321 380
#     4  10  21  42  69  98 128 164 212 266 321 385
#     4  12  22  40  68  90 122 166 218 258 308 384
#     4  12  24  43  65  94 128 171 214 268 320 380
#     4  11  23  40  59  91 124 164 211 261 318 376
#
# _framework density 18.851921999999998
#
# number of rings (size 3 to 8) (size 9 to 14) (size 15 to 20)
#    0.000    1.067    5.333    0.800    2.800    2.133 
#    0.000    1.333    2.933    0.000    0.000    0.000 
#    0.000    0.000    0.000    0.000    0.000    0.000 
#
# Total GULP energy -167062.424964 kJ/mol
# GULP energy per Si atom -5568.747499 kJ/mol
# Density = 1.880901 g / cm^3
# Si number density = 18.851922 Si / 1000 Ang^3
#
#
#
# Elastic Constant Matrix: (Units=GPa)
#
#
# Indices 1 2 3 4 5 6 
#
# 1 103.7236 20.4059 13.7493 0.0000 0.0000 0.0000
# 2 20.4059 35.7419 0.3736 0.0000 0.0000 0.0000
# 3 13.7493 0.3736 59.7440 0.0000 0.0000 0.0000
# 4 0.0000 0.0000 0.0000 19.9709 0.0000 0.0000
# 5 0.0000 0.0000 0.0000 0.0000 28.6140 0.0000
# 6 0.0000 0.0000 0.0000 0.0000 0.0000 9.9801
#
#
#
# Elastic Compliance Matrix: (Units=1/GPa)
#
#
# Indices 1 2 3 4 5 6 
#
# 1 0.011235 -0.006388 -0.002546 0.000000 0.000000 0.000000
# 2 -0.006388 0.031612 0.001272 0.000000 0.000000 0.000000
# 3 -0.002546 0.001272 0.017316 0.000000 0.000000 0.000000
# 4 0.000000 0.000000 0.000000 0.050073 0.000000 0.000000
# 5 0.000000 0.000000 0.000000 0.000000 0.034948 0.000000
# 6 0.000000 0.000000 0.000000 0.000000 0.000000 0.100199
#
#
# Mechanical properties :
#
#
# Convention : Reuss Voigt Hill
#
# Bulk Modulus (GPa) = 22.30107 29.80746 26.05426
# Shear Modulus (GPa) = 18.13879 22.69172 20.41526
#
# Velocity S-wave (km/s) = 3.10525 3.47318 3.29436
# Velocity P-wave (km/s) = 4.97113 5.65063 5.32173
#
# Compressibility (1/GPa) = 0.04484090
#
# Stress axis : x y z
#
# Youngs Moduli (GPa) = 89.00644 31.63359 57.75012
#
# Poissons Ratio (x) = 0.20207 0.14701
# Poissons Ratio (y) = 0.56855 -0.07348
# Poissons Ratio (z) = 0.22658 -0.04025
#
# Static dielectric constant tensor:
#      x y z
#    x 1.620110 0.000000 0.000000 
#    y 0.000000 1.636390 0.000000 
#    z 0.000000 0.000000 1.668150 
# 
# From -- ./inp_files/1962.got.cif
#   From: 2010.05.17/outbox.cif.g08.bks.cpg/sg26_1_cif.got.tgz:1962.got - 2010.06.04 01:07:29.
