data_PCOD9338205
_publ_section_title
;
Structure prediction by ZEFSAII (Michael W. Deem and Ramdas Pophale) SiO2 
 PCOD9338205
Probable space group: P M C 21
;
_chemical_formula_sum "Si O2"
_cell_formula_units_Z 24
_cell_length_a 8.105098
_cell_length_b 14.353865
_cell_length_c 8.201967
_cell_angle_alpha 90.000000
_cell_angle_beta 90.000000
_cell_angle_gamma 90.000000
_cell_volume 954.212596
_symmetry_space_group_name_H-M "P M C 21"
_symmetry_group_IT_number 26
_symmetry_cell_setting 'orthorhombic'
loop_
_space_group_symop_operation_xyz
x,y,z
-x,-y,1/2+z
-x,y,z
x,-y,1/2+z
loop_
_atom_site_type_symbol
_atom_site_label
_atom_site_fract_x
_atom_site_fract_y
_atom_site_fract_z
Si Si1 0.688293 0.526450 0.917930
Si Si2 0.814236 0.316697 0.208639
Si Si3 0.189052 0.639338 0.217968
Si Si4 0.300346 0.857275 0.536657
Si Si5 0.308826 0.202569 0.507027
Si Si6 0.299879 0.033920 0.718965
O O1 0.500000 0.528890 0.974168
O O2 0.704843 0.595405 0.761234
O O3 0.742075 0.424500 0.862404
O O4 0.798695 0.572351 0.057981
O O5 0.763193 0.246333 0.066114
O O6 0.798739 0.249806 0.367953
O O7 0.000000 0.349819 0.186651
O O8 0.292630 0.729469 0.164221
O O9 0.000000 0.665104 0.246220
O O10 0.500000 0.853149 0.533273
O O11 0.239191 0.910325 0.375710
O O12 0.249856 0.928715 0.681319
O O13 0.500000 0.202809 0.451936
O O14 0.262835 0.099924 0.564623
O O15 0.500000 0.031993 0.732541
#
# Coordination Sequence:
#
# PCOD9338205 Si02
#       6
#     4   4   4   4   4   4
#     4  11  22  39  61  85 112 151 195 236 279 339
#     4  11  22  37  55  81 113 149 187 232 284 335
#     4  11  22  38  58  85 118 152 187 236 291 339
#     4  10  19  36  58  83 110 144 186 232 280 334
#     4  10  19  36  59  84 111 147 189 232 278 336
#     4   9  19  34  59  86 110 141 186 234 278 329
#
# _framework density 25.151626
#
# number of rings (size 3 to 8) (size 9 to 14) (size 15 to 20)
#    0.000    1.667    0.000    8.000    0.000    4.000 
#    0.000   10.833    0.000    0.000    0.000    0.000 
#    0.000    0.000    0.000    0.000    0.000    0.000 
#
# Total GULP energy -134400.539484 kJ/mol
# GULP energy per Si atom -5600.022478 kJ/mol
# Density = 2.509438 g / cm^3
# Si number density = 25.151626 Si / 1000 Ang^3
#
#
#
# Elastic Constant Matrix: (Units=GPa)
#
#
# Indices 1 2 3 4 5 6 
#
# 1 76.8387 4.1646 -1.6745 0.0000 0.0000 0.0000
# 2 4.1646 136.2431 11.9395 0.0000 0.0000 0.0000
# 3 -1.6745 11.9395 67.9724 0.0000 0.0000 0.0000
# 4 0.0000 0.0000 0.0000 47.5465 0.0000 0.0000
# 5 0.0000 0.0000 0.0000 0.0000 21.2483 0.0000
# 6 0.0000 0.0000 0.0000 0.0000 0.0000 -119.5629
#
#
#
# Elastic Compliance Matrix: (Units=1/GPa)
#
#
# Indices 1 2 3 4 5 6 
#
# 1 0.013046 -0.000434 0.000398 0.000000 0.000000 0.000000
# 2 -0.000434 0.007469 -0.001323 0.000000 0.000000 0.000000
# 3 0.000398 -0.001323 0.014954 0.000000 0.000000 0.000000
# 4 0.000000 0.000000 0.000000 0.021032 0.000000 0.000000
# 5 0.000000 0.000000 0.000000 0.000000 0.047063 0.000000
# 6 0.000000 0.000000 0.000000 0.000000 0.000000 -0.008364
#
#
# Mechanical properties :
#
#
# Convention : Reuss Voigt Hill
#
# Bulk Modulus (GPa) = 30.53250 34.43484 32.48367
# Shear Modulus (GPa) = 45.94114 7.62136 26.78125
#
# Velocity S-wave (km/s) = 4.27847 1.74263 3.26665
# Velocity P-wave (km/s) = 6.04755 4.21540 5.21260
#
# Compressibility (1/GPa) = 0.03275199
#
# Stress axis : x y z
#
# Youngs Moduli (GPa) = 76.64928 133.88703 66.87192
#
# Poissons Ratio (x) = 0.05806 -0.02659
# Poissons Ratio (y) = 0.03324 0.08845
# Poissons Ratio (z) = -0.03047 0.17708
#
# Static dielectric constant tensor:
#      x y z
#    x 1.854870 0.000000 0.000000 
#    y 0.000000 1.946210 0.000000 
#    z 0.000000 0.000000 2.124730 
# 
# From -- ./inp_files/1449.got.cif
#   From: 2010.05.17/outbox.cif.g08.bks.cpg/sg26_1_cif.got.tgz:1449.got - 2010.06.04 01:07:29.
