data_PCOD9338714
_publ_section_title
;
Structure prediction by ZEFSAII (Michael W. Deem and Ramdas Pophale) SiO2 
 PCOD9338714
Probable space group: P C C 2
;
_chemical_formula_sum "Si O2"
_cell_formula_units_Z 24
_cell_length_a 8.376888
_cell_length_b 23.014162
_cell_length_c 5.409859
_cell_angle_alpha 90.000000
_cell_angle_beta 90.000000
_cell_angle_gamma 90.000000
_cell_volume 1042.950798
_symmetry_space_group_name_H-M "P C C 2"
_symmetry_group_IT_number 27
_symmetry_cell_setting 'orthorhombic'
loop_
_space_group_symop_operation_xyz
x,y,z
-x,-y,z
-x,y,1/2+z
x,-y,1/2+z
loop_
_atom_site_type_symbol
_atom_site_label
_atom_site_fract_x
_atom_site_fract_y
_atom_site_fract_z
Si Si1 0.562281 0.065759 0.289000
Si Si2 0.312960 0.476778 0.168963
Si Si3 0.595406 0.648040 0.040173
Si Si4 0.601519 0.217897 0.581495
Si Si5 0.955582 0.789283 0.107657
Si Si6 0.919285 0.082543 0.121161
O O1 0.534433 0.092871 0.559023
O O2 0.743645 0.065557 0.203782
O O3 0.500000 0.000000 0.321788
O O4 0.500000 0.500000 0.187921
O O5 0.243021 0.488719 0.437471
O O6 0.304891 0.409054 0.101490
O O7 0.459079 0.643645 0.254604
O O8 0.654297 0.713604 0.078901
O O9 0.506922 0.208795 0.324627
O O10 0.774203 0.188664 0.598723
O O11 0.995469 0.756917 0.359479
O O12 0.065243 0.847397 0.112875
O O13 0.035977 0.063090 0.344401
#
# Coordination Sequence:
#
# PCOD9338714 Si02
#       6
#     4   4   4   4   4   4
#     4  10  21  40  62  90 123 155 191 237 284 330
#     4  10  14  20  34  55  91 134 163 199 265 332
#     4  10  16  25  39  64  97 136 166 214 269 339
#     4  10  21  35  55  81 112 144 182 236 293 332
#     4  10  21  40  60  82 112 150 191 237 278 344
#     4  10  21  40  62  88 117 153 195 232 278 339
#
# _framework density 23.011628000000002
#
# number of rings (size 3 to 8) (size 9 to 14) (size 15 to 20)
#    0.000    2.000    3.333    2.000    0.000    0.000 
#    0.000   30.000    0.000    0.000    0.000    0.000 
#    0.000    4.000    0.000    0.000    0.000    0.000 
#
# Total GULP energy -134006.080838 kJ/mol
# GULP energy per Si atom -5583.586702 kJ/mol
# Density = 2.295925 g / cm^3
# Si number density = 23.011628 Si / 1000 Ang^3
#
#
#
# Elastic Constant Matrix: (Units=GPa)
#
#
# Indices 1 2 3 4 5 6 
#
# 1 97.7005 -5.1047 31.9383 0.0000 0.0000 0.0000
# 2 -5.1047 64.7438 -8.6433 0.0000 0.0000 0.0000
# 3 31.9383 -8.6433 187.1658 0.0000 0.0000 0.0000
# 4 0.0000 0.0000 0.0000 38.2978 0.0000 0.0000
# 5 0.0000 0.0000 0.0000 0.0000 31.1315 0.0000
# 6 0.0000 0.0000 0.0000 0.0000 0.0000 -0.0709
#
#
#
# Elastic Compliance Matrix: (Units=1/GPa)
#
#
# Indices 1 2 3 4 5 6 
#
# 1 0.010864 0.000613 -0.001826 0.000000 0.000000 0.000000
# 2 0.000613 0.015576 0.000615 0.000000 0.000000 0.000000
# 3 -0.001826 0.000615 0.005683 0.000000 0.000000 0.000000
# 4 0.000000 0.000000 0.000000 0.026111 0.000000 0.000000
# 5 0.000000 0.000000 0.000000 0.000000 0.032122 0.000000
# 6 0.000000 0.000000 0.000000 0.000000 0.000000-14.102319
#
#
# Mechanical properties :
#
#
# Convention : Reuss Voigt Hill
#
# Bulk Modulus (GPa) = 32.33443 42.88787 37.61115
# Shear Modulus (GPa) = -0.35713 35.96631 17.80459
#
# Velocity S-wave (km/s) = -0.39438 3.95772 2.78460
# Velocity P-wave (km/s) = 3.72485 6.28989 5.16900
#
# Compressibility (1/GPa) = 0.03092678
#
# Stress axis : x y z
#
# Youngs Moduli (GPa) = 92.04577 64.20186 175.97068
#
# Poissons Ratio (x) = -0.03935 0.32125
# Poissons Ratio (y) = -0.05641 -0.10817
# Poissons Ratio (z) = 0.16804 -0.03947
#
# Static dielectric constant tensor:
#      x y z
#    x 1.840560 0.000000 0.000000 
#    y 0.000000 1.900410 0.000000 
#    z 0.000000 0.000000 1.965040 
# 
# From -- ./inp_files/167.got.cif
#   From: 2010.05.17/outbox.cif.g08.bks.cpg/sg27_1_cif.got.tgz:167.got - 2010.06.04 01:11:05.
