data_PCOD9338525
_publ_section_title
;
Structure prediction by ZEFSAII (Michael W. Deem and Ramdas Pophale) SiO2 
 PCOD9338525
Probable space group: P M C 21
;
_chemical_formula_sum "Si O2"
_cell_formula_units_Z 32
_cell_length_a 11.584443
_cell_length_b 11.248193
_cell_length_c 10.943946
_cell_angle_alpha 90.000000
_cell_angle_beta 90.000000
_cell_angle_gamma 90.000000
_cell_volume 1426.040494
_symmetry_space_group_name_H-M "P M C 21"
_symmetry_group_IT_number 26
_symmetry_cell_setting 'orthorhombic'
loop_
_space_group_symop_operation_xyz
x,y,z
-x,-y,1/2+z
-x,y,z
x,-y,1/2+z
loop_
_atom_site_type_symbol
_atom_site_label
_atom_site_fract_x
_atom_site_fract_y
_atom_site_fract_z
Si Si1 0.333225 0.532620 0.911190
Si Si2 0.124332 0.738678 0.153724
Si Si3 0.377783 0.400077 0.162798
Si Si4 0.123698 0.614017 0.409652
Si Si5 0.366811 0.984522 0.429891
Si Si6 0.375094 0.243984 0.543424
Si Si7 0.131078 0.002759 0.264229
Si Si8 0.230862 0.195879 0.086928
O O1 0.367480 0.504332 0.771891
O O2 0.374379 0.334012 0.429864
O O3 0.376629 0.459028 0.028441
O O4 0.199497 0.502821 0.920581
O O5 0.119482 0.651862 0.269396
O O6 0.252240 0.722918 0.100961
O O7 0.000000 0.723403 0.085809
O O8 0.125226 0.874874 0.199992
O O9 0.500000 0.337755 0.174812
O O10 0.278861 0.302195 0.170522
O O11 0.170086 0.730687 0.478969
O O12 0.000000 0.588638 0.462650
O O13 0.500000 0.967178 0.379618
O O14 0.333435 0.878768 0.522897
O O15 0.370513 0.108179 0.502737
O O16 0.250885 0.997256 0.344221
O O17 0.500000 0.262308 0.608309
O O18 0.153150 0.105601 0.163992
O O19 0.000000 0.020125 0.320779
#
# Coordination Sequence:
#
# PCOD9338525 Si02
#       8
#     4   4   4   4   4   4   4   4
#     4  11  24  42  67  97 133 181 234 286 348 412
#     4  10  21  39  64  95 128 174 225 281 345 415
#     4  11  23  42  68  97 135 180 230 289 349 419
#     4  10  22  42  66  92 130 174 227 289 346 412
#     4  11  24  40  63  96 135 177 223 280 348 422
#     4  11  23  41  63  95 136 179 225 285 346 409
#     4  11  23  39  64  94 131 176 223 278 344 420
#     4  11  22  41  65  98 133 175 228 282 355 421
#
# _framework density 22.439754000000001
#
# number of rings (size 3 to 8) (size 9 to 14) (size 15 to 20)
#    0.000    1.250    2.500    3.375    0.000    4.000 
#    0.000    6.875    0.000    0.000    0.000    0.000 
#    0.000    0.000    0.000    0.000    0.000    0.000 
#
# Total GULP energy -178212.743489 kJ/mol
# GULP energy per Si atom -5569.148234 kJ/mol
# Density = 2.238868 g / cm^3
# Si number density = 22.439754 Si / 1000 Ang^3
#
#
#
# Elastic Constant Matrix: (Units=GPa)
#
#
# Indices 1 2 3 4 5 6 
#
# 1 205.4204 35.5610 52.6506 0.0000 0.0000 0.0000
# 2 35.5610 53.6668 14.0057 0.0000 0.0000 0.0000
# 3 52.6506 14.0057 55.9877 0.0000 0.0000 0.0000
# 4 0.0000 0.0000 0.0000 11.5041 0.0000 0.0000
# 5 0.0000 0.0000 0.0000 0.0000 14.5817 0.0000
# 6 0.0000 0.0000 0.0000 0.0000 0.0000 11.6841
#
#
#
# Elastic Compliance Matrix: (Units=1/GPa)
#
#
# Indices 1 2 3 4 5 6 
#
# 1 0.006853 -0.003059 -0.005680 0.000000 0.000000 0.000000
# 2 -0.003059 0.021300 -0.002452 0.000000 0.000000 0.000000
# 3 -0.005680 -0.002452 0.023816 0.000000 0.000000 0.000000
# 4 0.000000 0.000000 0.000000 0.086926 0.000000 0.000000
# 5 0.000000 0.000000 0.000000 0.000000 0.068579 0.000000
# 6 0.000000 0.000000 0.000000 0.000000 0.000000 0.085587
#
#
# Mechanical properties :
#
#
# Convention : Reuss Voigt Hill
#
# Bulk Modulus (GPa) = 33.79703 57.72328 45.76015
# Shear Modulus (GPa) = 15.37023 21.74447 18.55735
#
# Velocity S-wave (km/s) = 2.62000 3.11628 2.87886
# Velocity P-wave (km/s) = 4.92407 6.22316 5.61134
#
# Compressibility (1/GPa) = 0.02958840
#
# Stress axis : x y z
#
# Youngs Moduli (GPa) = 145.91414 46.94776 41.98941
#
# Poissons Ratio (x) = 0.14361 0.23849
# Poissons Ratio (y) = 0.44635 0.10295
# Poissons Ratio (z) = 0.82874 0.11510
#
# Static dielectric constant tensor:
#      x y z
#    x 1.927990 0.000000 0.000000 
#    y 0.000000 1.768700 0.000000 
#    z 0.000000 0.000000 1.917610 
# 
# From -- ./inp_files/3381.got.cif
#   From: 2010.05.17/outbox.cif.g08.bks.cpg/sg26_2_cif.got.tgz:3381.got - 2010.06.04 01:07:29.
