data_PCOD9338727
_publ_section_title
;
Structure prediction by ZEFSAII (Michael W. Deem and Ramdas Pophale) SiO2 
 PCOD9338727
Probable space group: P C C 2
;
_chemical_formula_sum "Si O2"
_cell_formula_units_Z 32
_cell_length_a 38.431764
_cell_length_b 7.166080
_cell_length_c 5.333820
_cell_angle_alpha 90.000000
_cell_angle_beta 90.000000
_cell_angle_gamma 90.000000
_cell_volume 1468.961206
_symmetry_space_group_name_H-M "P C C 2"
_symmetry_group_IT_number 27
_symmetry_cell_setting 'orthorhombic'
loop_
_space_group_symop_operation_xyz
x,y,z
-x,-y,z
-x,y,1/2+z
x,-y,1/2+z
loop_
_atom_site_type_symbol
_atom_site_label
_atom_site_fract_x
_atom_site_fract_y
_atom_site_fract_z
Si Si1 0.485895 0.789112 0.144880
Si Si2 0.124657 0.290090 0.632210
Si Si3 0.096519 0.287397 0.132504
Si Si4 0.338406 0.382658 0.591073
Si Si5 0.273278 0.879815 0.993398
Si Si6 0.985023 0.711745 0.075966
Si Si7 0.195429 0.874846 0.011759
Si Si8 0.415057 0.624608 0.017251
O O1 0.491467 0.703401 0.419357
O O2 0.446213 0.769280 0.059910
O O3 0.500000 0.000000 0.176007
O O4 0.101646 0.204630 0.408428
O O5 0.111357 0.502010 0.665065
O O6 0.164396 0.271317 0.547837
O O7 0.118444 0.202283 0.904904
O O8 0.056374 0.293740 0.057179
O O9 0.337348 0.542787 0.376124
O O10 0.305287 0.256077 0.538680
O O11 0.376352 0.291216 0.546702
O O12 0.275355 0.033145 0.215500
O O13 0.234553 0.793683 0.020796
O O14 0.000000 0.500000 0.087709
O O15 0.997092 0.798092 0.335289
O O16 0.192169 0.981735 0.746201
O O17 0.417889 0.473320 0.244816
#
# Coordination Sequence:
#
# PCOD9338727 Si02
#       8
#     4   4   4   4   4   4   4   4
#     4  10  21  37  53  80 117 145 192 242 284 331
#     4  10  18  32  47  70 102 136 163 206 268 305
#     4  10  19  30  47  74 111 127 163 221 259 326
#     4  10  21  40  61  91 123 152 194 248 296 353
#     4  10  21  40  61  88 116 154 196 241 288 346
#     4  10  16  25  41  65 100 134 161 196 260 327
#     4  10  21  37  56  75 106 141 182 221 258 319
#     4  10  21  37  59  83 115 155 190 231 294 349
#
# _framework density 21.784103000000002
#
# number of rings (size 3 to 8) (size 9 to 14) (size 15 to 20)
#    0.000    2.000    0.000    6.000    0.000    1.500 
#    9.000    0.000    0.000    0.000    0.000    0.000 
#    0.000  122.000    0.000    0.000    0.000    0.000 
#
# Total GULP energy -178603.476964 kJ/mol
# GULP energy per Si atom -5581.358655 kJ/mol
# Density = 2.173452 g / cm^3
# Si number density = 21.784103 Si / 1000 Ang^3
#
#
#
# Elastic Constant Matrix: (Units=GPa)
#
#
# Indices 1 2 3 4 5 6 
#
# 1 156.8210 14.9376 -15.5093 0.0000 0.0000 0.0000
# 2 14.9376 48.0860 -12.7548 0.0000 0.0000 0.0000
# 3 -15.5093 -12.7548 147.3086 0.0000 0.0000 0.0000
# 4 0.0000 0.0000 0.0000 2.2778 0.0000 0.0000
# 5 0.0000 0.0000 0.0000 0.0000 35.9800 0.0000
# 6 0.0000 0.0000 0.0000 0.0000 0.0000 -233.2429
#
#
#
# Elastic Compliance Matrix: (Units=1/GPa)
#
#
# Indices 1 2 3 4 5 6 
#
# 1 0.006611 -0.001913 0.000530 0.000000 0.000000 0.000000
# 2 -0.001913 0.021838 0.001689 0.000000 0.000000 0.000000
# 3 0.000530 0.001689 0.006991 0.000000 0.000000 0.000000
# 4 0.000000 0.000000 0.000000 0.439024 0.000000 0.000000
# 5 0.000000 0.000000 0.000000 0.000000 0.027793 0.000000
# 6 0.000000 0.000000 0.000000 0.000000 0.000000 -0.004287
#
#
# Mechanical properties :
#
#
# Convention : Reuss Voigt Hill
#
# Bulk Modulus (GPa) = 27.73609 36.17363 31.95486
# Shear Modulus (GPa) = 9.81596 -14.62757 -2.40580
#
# Velocity S-wave (km/s) = 2.12504 -2.59410 -1.05204
# Velocity P-wave (km/s) = 4.33370 2.76931 3.63662
#
# Compressibility (1/GPa) = 0.03605411
#
# Stress axis : x y z
#
# Youngs Moduli (GPa) = 151.25425 45.79070 143.04923
#
# Poissons Ratio (x) = 0.08760 -0.07588
# Poissons Ratio (y) = 0.28936 -0.24168
# Poissons Ratio (z) = -0.08023 -0.07736
#
# Static dielectric constant tensor:
#      x y z
#    x 1.773340 0.000000 0.000000 
#    y 0.000000 1.674640 0.000000 
#    z 0.000000 0.000000 1.868170 
# 
# From -- ./inp_files/740.got.cif
#   From: 2010.05.17/outbox.cif.g08.bks.cpg/sg27_1_cif.got.tgz:740.got - 2010.06.04 01:11:05.
