data_PCOD9338353
_publ_section_title
;
Structure prediction by ZEFSAII (Michael W. Deem and Ramdas Pophale) SiO2 
 PCOD9338353
Probable space group: P M C 21
;
_chemical_formula_sum "Si O2"
_cell_formula_units_Z 32
_cell_length_a 9.691418
_cell_length_b 12.411085
_cell_length_c 13.728706
_cell_angle_alpha 90.000000
_cell_angle_beta 90.000000
_cell_angle_gamma 90.000000
_cell_volume 1651.302659
_symmetry_space_group_name_H-M "P M C 21"
_symmetry_group_IT_number 26
_symmetry_cell_setting 'orthorhombic'
loop_
_space_group_symop_operation_xyz
x,y,z
-x,-y,1/2+z
-x,y,z
x,-y,1/2+z
loop_
_atom_site_type_symbol
_atom_site_label
_atom_site_fract_x
_atom_site_fract_y
_atom_site_fract_z
Si Si1 0.161354 0.936493 0.476550
Si Si2 0.834850 0.171765 0.187560
Si Si3 0.161317 0.424270 0.169352
Si Si4 0.161120 0.246658 0.815313
Si Si5 0.658939 0.366528 0.679495
Si Si6 0.663160 0.891053 0.870257
Si Si7 0.346932 0.649725 0.945868
Si Si8 0.158430 0.543645 0.437218
O O1 0.190226 0.874601 0.578425
O O2 0.174939 0.855482 0.384915
O O3 0.000000 0.971256 0.480839
O O4 0.264057 0.032401 0.449404
O O5 0.801762 0.300237 0.193735
O O6 0.746365 0.108179 0.268078
O O7 0.000000 0.161080 0.205849
O O8 0.257495 0.523153 0.202983
O O9 0.000000 0.442409 0.195791
O O10 0.170197 0.432635 0.051894
O O11 0.261974 0.264283 0.725180
O O12 0.198837 0.348537 0.882483
O O13 0.000000 0.254296 0.785622
O O14 0.500000 0.373132 0.712040
O O15 0.659748 0.352906 0.563016
O O16 0.500000 0.915562 0.858578
O O17 0.676559 0.769040 0.908275
O O18 0.500000 0.615498 0.915788
O O19 0.240743 0.561965 0.909402
O O20 0.000000 0.523119 0.415737
#
# Coordination Sequence:
#
# PCOD9338353 Si02
#       8
#     4   4   4   4   4   4   4   4
#     4  10  22  43  66  88 118 155 203 255 302 353
#     4  10  21  40  65  90 116 152 199 252 302 355
#     4   9  17  34  58  85 117 153 195 244 296 348
#     4  10  20  36  58  87 118 151 193 245 297 350
#     4  10  21  35  54  84 123 165 200 237 290 355
#     4  11  25  42  61  88 122 160 202 248 301 359
#     4   9  21  40  55  77 119 160 194 238 288 345
#     4   9  17  32  57  85 113 148 188 237 294 347
#
# _framework density 19.378640000000001
#
# number of rings (size 3 to 8) (size 9 to 14) (size 15 to 20)
#    0.000    2.250    1.250    0.750    1.750    4.500 
#    0.000    2.500    0.000    0.000    0.000    0.000 
#    0.000    0.000    0.000    0.000    0.000    0.000 
#
# Total GULP energy -178569.439303 kJ/mol
# GULP energy per Si atom -5580.294978 kJ/mol
# Density = 1.933453 g / cm^3
# Si number density = 19.378640 Si / 1000 Ang^3
#
#
#
# Elastic Constant Matrix: (Units=GPa)
#
#
# Indices 1 2 3 4 5 6 
#
# 1 22.5455 22.2226 19.1928 0.0000 0.0000 0.0000
# 2 22.2226 33.0670 12.1872 0.0000 0.0000 0.0000
# 3 19.1928 12.1872 55.4527 0.0000 0.0000 0.0000
# 4 0.0000 0.0000 0.0000 23.8523 0.0000 0.0000
# 5 0.0000 0.0000 0.0000 0.0000 12.7644 0.0000
# 6 0.0000 0.0000 0.0000 0.0000 0.0000 50.5301
#
#
#
# Elastic Compliance Matrix: (Units=1/GPa)
#
#
# Indices 1 2 3 4 5 6 
#
# 1 0.191005 -0.113166 -0.041238 0.000000 0.000000 0.000000
# 2 -0.113166 0.099955 0.017200 0.000000 0.000000 0.000000
# 3 -0.041238 0.017200 0.028526 0.000000 0.000000 0.000000
# 4 0.000000 0.000000 0.000000 0.041925 0.000000 0.000000
# 5 0.000000 0.000000 0.000000 0.000000 0.078343 0.000000
# 6 0.000000 0.000000 0.000000 0.000000 0.000000 0.019790
#
#
# Mechanical properties :
#
#
# Convention : Reuss Voigt Hill
#
# Bulk Modulus (GPa) = 22.18310 24.25227 23.21769
# Shear Modulus (GPa) = 6.67577 21.26021 13.96799
#
# Velocity S-wave (km/s) = 1.85806 3.31584 2.68767
# Velocity P-wave (km/s) = 4.00939 5.21554 4.65172
#
# Compressibility (1/GPa) = 0.04507936
#
# Stress axis : x y z
#
# Youngs Moduli (GPa) = 5.23546 10.00450 35.05566
#
# Poissons Ratio (x) = 1.13217 1.44562
# Poissons Ratio (y) = 0.59247 -0.60296
# Poissons Ratio (z) = 0.21590 -0.17208
#
# Static dielectric constant tensor:
#      x y z
#    x 1.667860 0.000000 0.000000 
#    y 0.000000 1.658900 0.000000 
#    z 0.000000 0.000000 1.702690 
# 
# From -- ./inp_files/4207.got.cif
#   From: 2010.05.17/outbox.cif.g08.bks.cpg/sg26_3_cif.got.tgz:4207.got - 2010.06.04 01:07:29.
