data_PCOD9338620
_publ_section_title
;
Structure prediction by ZEFSAII (Michael W. Deem and Ramdas Pophale) SiO2 
 PCOD9338620
Probable space group: P M C 21
;
_chemical_formula_sum "Si O2"
_cell_formula_units_Z 20
_cell_length_a 14.719969
_cell_length_b 5.225085
_cell_length_c 9.188103
_cell_angle_alpha 90.000000
_cell_angle_beta 90.000000
_cell_angle_gamma 90.000000
_cell_volume 706.685386
_symmetry_space_group_name_H-M "P M C 21"
_symmetry_group_IT_number 26
_symmetry_cell_setting 'orthorhombic'
loop_
_space_group_symop_operation_xyz
x,y,z
-x,-y,1/2+z
-x,y,z
x,-y,1/2+z
loop_
_atom_site_type_symbol
_atom_site_label
_atom_site_fract_x
_atom_site_fract_y
_atom_site_fract_z
Si Si1 0.500000 0.552404 0.766561
Si Si2 0.000000 0.650443 0.155551
Si Si3 0.500000 0.114054 0.527951
Si Si4 0.000000 0.990408 0.890147
Si Si5 0.843252 0.300357 0.220019
Si Si6 0.696234 0.338336 0.783537
Si Si7 0.301896 0.010078 0.535021
O O1 0.500000 0.389321 0.611800
O O2 0.598783 0.453479 0.819854
O O3 0.500000 0.826542 0.854708
O O4 0.000000 0.904549 0.056991
O O5 0.089091 0.484708 0.131295
O O6 0.000000 0.724258 0.327134
O O7 0.409289 0.956646 0.569540
O O8 0.909425 0.869799 0.818902
O O9 0.778003 0.474974 0.317916
O O10 0.777443 0.147186 0.112706
O O11 0.705473 0.070578 0.868189
O O12 0.704700 0.285344 0.610761
#
# Coordination Sequence:
#
# PCOD9338620 Si02
#       7
#     2   2   2   2   4   4   4
#     4  10  25  45  71 103 146 202 242 297 361 425
#     4  11  26  50  77 107 143 193 242 306 382 444
#     4  10  25  47  73 109 152 202 250 301 361 433
#     4  11  26  50  75 103 145 185 244 306 376 454
#     4  11  26  45  75 108 145 190 244 309 371 437
#     4  11  26  44  72 107 149 197 245 304 363 433
#     4  11  26  45  71 109 149 196 251 302 361 439
#
# _framework density 28.301138000000002
#
# number of rings (size 3 to 8) (size 9 to 14) (size 15 to 20)
#    0.000    1.200    0.000    3.000    8.400   10.400 
#    0.000    0.000    0.000    0.000    0.000    0.000 
#    0.000    0.000    0.000    0.000    0.000    0.000 
#
# Total GULP energy -111930.558245 kJ/mol
# GULP energy per Si atom -5596.527912 kJ/mol
# Density = 2.823672 g / cm^3
# Si number density = 28.301138 Si / 1000 Ang^3
#
#
#
# Elastic Constant Matrix: (Units=GPa)
#
#
# Indices 1 2 3 4 5 6 
#
# 1 242.0639 65.0950 59.8132 0.0000 0.0000 0.0000
# 2 65.0950 56.3350 8.3263 0.0000 0.0000 0.0000
# 3 59.8132 8.3263 130.1846 0.0000 0.0000 0.0000
# 4 0.0000 0.0000 0.0000 41.1531 0.0000 0.0000
# 5 0.0000 0.0000 0.0000 0.0000 26.4108 0.0000
# 6 0.0000 0.0000 0.0000 0.0000 0.0000 58.1630
#
#
#
# Elastic Compliance Matrix: (Units=1/GPa)
#
#
# Indices 1 2 3 4 5 6 
#
# 1 0.006788 -0.007453 -0.002642 0.000000 0.000000 0.000000
# 2 -0.007453 0.026104 0.001755 0.000000 0.000000 0.000000
# 3 -0.002642 0.001755 0.008783 0.000000 0.000000 0.000000
# 4 0.000000 0.000000 0.000000 0.024300 0.000000 0.000000
# 5 0.000000 0.000000 0.000000 0.000000 0.037863 0.000000
# 6 0.000000 0.000000 0.000000 0.000000 0.000000 0.017193
#
#
# Mechanical properties :
#
#
# Convention : Reuss Voigt Hill
#
# Bulk Modulus (GPa) = 40.00954 77.22808 58.61881
# Shear Modulus (GPa) = 34.23621 44.83529 39.53575
#
# Velocity S-wave (km/s) = 3.48186 3.98455 3.74166
# Velocity P-wave (km/s) = 5.50747 6.96535 6.27887
#
# Compressibility (1/GPa) = 0.02499404
#
# Stress axis : x y z
#
# Youngs Moduli (GPa) = 147.31062 38.30831 113.85477
#
# Poissons Ratio (x) = 0.28553 0.30083
# Poissons Ratio (y) = 1.09797 -0.19981
# Poissons Ratio (z) = 0.38923 -0.06723
#
# Static dielectric constant tensor:
#      x y z
#    x 2.107620 0.000000 0.000000 
#    y 0.000000 2.197310 0.000000 
#    z 0.000000 0.000000 2.233840 
# 
# From -- ./inp_files/3464.got.cif
#   From: 2010.05.17/outbox.cif.g08.bks.cpg/sg26_2_cif.got.tgz:3464.got - 2010.06.04 01:07:29.
