data_PCOD9338926
_publ_section_title
;
Structure prediction by ZEFSAII (Michael W. Deem and Ramdas Pophale) SiO2 
 PCOD9338926
Probable space group: P C C 2
;
_chemical_formula_sum "Si O2"
_cell_formula_units_Z 32
_cell_length_a 12.154167
_cell_length_b 15.339711
_cell_length_c 9.251312
_cell_angle_alpha 90.000000
_cell_angle_beta 90.000000
_cell_angle_gamma 90.000000
_cell_volume 1724.827646
_symmetry_space_group_name_H-M "P C C 2"
_symmetry_group_IT_number 27
_symmetry_cell_setting 'orthorhombic'
loop_
_space_group_symop_operation_xyz
x,y,z
-x,-y,z
-x,y,1/2+z
x,-y,1/2+z
loop_
_atom_site_type_symbol
_atom_site_label
_atom_site_fract_x
_atom_site_fract_y
_atom_site_fract_z
Si Si1 0.123761 0.271936 0.967220
Si Si2 0.415486 0.724088 0.801878
Si Si3 0.623761 0.228064 0.467220
Si Si4 0.084514 0.775912 0.801879
Si Si5 0.720883 0.893817 0.362290
Si Si6 0.122376 0.464760 0.066545
Si Si7 0.220883 0.393817 0.362291
Si Si8 0.622376 0.035240 0.566544
O O1 0.250000 0.250000 0.935996
O O2 0.039763 0.228474 0.855859
O O3 0.096939 0.237931 0.129698
O O4 0.111089 0.376730 0.971500
O O5 0.403061 0.737931 0.629697
O O6 0.539763 0.728474 0.855858
O O7 0.354361 0.807230 0.874288
O O8 0.345545 0.640055 0.849364
O O9 0.611089 0.123270 0.471500
O O10 0.154455 0.859945 0.849364
O O11 0.145639 0.692770 0.874289
O O12 0.682931 0.937015 0.212384
O O13 0.692058 0.961497 0.486320
O O14 0.182931 0.437015 0.212385
O O15 0.000000 0.500000 0.096774
O O16 0.192058 0.538503 0.986320
O O17 0.500000 0.000000 0.596773
#
# Coordination Sequence:
#
# PCOD9338926 Si02
#       8
#     4   4   4   4   4   4   4   4
#     4  11  22  42  64  89 124 162 206 254 305 366
#     4  10  21  42  61  88 127 162 196 254 310 364
#     4  11  22  42  64  89 124 162 206 254 305 366
#     4  10  21  42  61  88 127 162 196 254 310 364
#     4  10  21  38  60  90 125 152 200 258 301 355
#     4  11  20  35  65  94 117 155 208 257 299 353
#     4  10  21  38  60  90 125 152 200 258 301 355
#     4  11  20  35  65  94 117 155 208 257 299 353
#
# _framework density 18.552579000000001
#
# number of rings (size 3 to 8) (size 9 to 14) (size 15 to 20)
#    0.000    1.500    7.500    0.750    3.500    0.000 
#    9.000    1.250    0.000    0.000    0.000    0.000 
#    0.000    0.000    0.000    0.000    0.000    0.000 
#
# Total GULP energy -178704.072357 kJ/mol
# GULP energy per Si atom -5584.502261 kJ/mol
# Density = 1.851035 g / cm^3
# Si number density = 18.552579 Si / 1000 Ang^3
#
#
#
# Elastic Constant Matrix: (Units=GPa)
#
#
# Indices 1 2 3 4 5 6 
#
# 1 180.5109 58.8329 56.8695 0.0000 0.0000 0.0000
# 2 58.8329 96.0848 44.3441 0.0000 0.0000 0.0000
# 3 56.8695 44.3441 37.8343 0.0000 0.0000 0.0000
# 4 0.0000 0.0000 0.0000 4.2156 0.0000 0.0000
# 5 0.0000 0.0000 0.0000 0.0000 15.2792 0.0000
# 6 0.0000 0.0000 0.0000 0.0000 0.0000 33.0440
#
#
#
# Elastic Compliance Matrix: (Units=1/GPa)
#
#
# Indices 1 2 3 4 5 6 
#
# 1 0.010679 0.001894 -0.018271 0.000000 0.000000 0.000000
# 2 0.001894 0.023006 -0.029811 0.000000 0.000000 0.000000
# 3 -0.018271 -0.029811 0.088835 0.000000 0.000000 0.000000
# 4 0.000000 0.000000 0.000000 0.237214 0.000000 0.000000
# 5 0.000000 0.000000 0.000000 0.000000 0.065449 0.000000
# 6 0.000000 0.000000 0.000000 0.000000 0.000000 0.030263
#
#
# Mechanical properties :
#
#
# Convention : Reuss Voigt Hill
#
# Bulk Modulus (GPa) = 33.17506 70.50256 51.83881
# Shear Modulus (GPa) = 8.96267 20.79999 14.88133
#
# Velocity S-wave (km/s) = 2.20033 3.35197 2.83524
# Velocity P-wave (km/s) = 4.93718 7.28457 6.22257
#
# Compressibility (1/GPa) = 0.03014313
#
# Stress axis : x y z
#
# Youngs Moduli (GPa) = 93.64227 43.46694 11.25686
#
# Poissons Ratio (x) = -0.08231 0.20568
# Poissons Ratio (y) = -0.17732 0.33558
# Poissons Ratio (z) = 1.71095 1.29578
#
# Static dielectric constant tensor:
#      x y z
#    x 1.644650 0.000000 0.000000 
#    y 0.000000 1.646950 0.000000 
#    z 0.000000 0.000000 1.640890 
# 
# From -- ./inp_files/1484.got.cif
#   From: 2010.05.17/outbox.cif.g08.bks.cpg/sg27_1_cif.got.tgz:1484.got - 2010.06.04 01:11:05.
