data_PCOD9338719
_publ_section_title
;
Structure prediction by ZEFSAII (Michael W. Deem and Ramdas Pophale) SiO2 
 PCOD9338719
Probable space group: P C C 2
;
_chemical_formula_sum "Si O2"
_cell_formula_units_Z 30
_cell_length_a 7.566588
_cell_length_b 8.302232
_cell_length_c 22.105888
_cell_angle_alpha 90.000000
_cell_angle_beta 90.000000
_cell_angle_gamma 90.000000
_cell_volume 1388.682357
_symmetry_space_group_name_H-M "P C C 2"
_symmetry_group_IT_number 27
_symmetry_cell_setting 'orthorhombic'
loop_
_space_group_symop_operation_xyz
x,y,z
-x,-y,z
-x,y,1/2+z
x,-y,1/2+z
loop_
_atom_site_type_symbol
_atom_site_label
_atom_site_fract_x
_atom_site_fract_y
_atom_site_fract_z
Si Si1 0.280255 0.350790 0.660810
Si Si2 0.268434 0.357291 0.916240
Si Si3 0.393829 0.854212 0.951619
Si Si4 0.500000 0.500000 0.821195
Si Si5 0.296152 0.975365 0.219833
Si Si6 0.187355 0.056764 0.851613
Si Si7 0.341469 0.326533 0.213787
Si Si8 0.295718 0.434983 0.526966
O O1 0.215707 0.175118 0.682911
O O2 0.496225 0.329067 0.665240
O O3 0.239743 0.505151 0.703228
O O4 0.227176 0.409130 0.594273
O O5 0.452439 0.260991 0.926625
O O6 0.329215 0.476968 0.863578
O O7 0.148230 0.220446 0.888291
O O8 0.212249 0.442255 0.978047
O O9 0.500000 0.000000 0.983332
O O10 0.282468 0.934879 0.897951
O O11 0.288465 0.740709 0.996343
O O12 0.553258 0.353627 0.776830
O O13 0.296228 0.926047 0.290302
O O14 0.500000 0.000000 0.201128
O O15 0.232287 0.161179 0.213043
O O16 0.000000 0.000000 0.829073
O O17 0.500000 0.500000 0.530807
#
# Coordination Sequence:
#
# PCOD9338719 Si02
#       8
#     4   4   4   2   4   4   4   4
#     4   9  17  31  48  83 118 138 179 231 281 336
#     4  10  18  31  56  83 111 148 179 234 298 347
#     4   9  18  31  52  83 110 144 179 232 291 345
#     4  10  14  26  52  78 114 142 182 222 290 344
#     4  10  19  33  56  83 110 150 182 232 291 341
#     4  11  22  37  53  81 118 147 194 239 284 349
#     4   9  17  26  48  78 115 142 169 227 284 336
#     4  10  17  31  53  83 117 143 182 234 286 341
#
# _framework density 21.603211000000002
#
# number of rings (size 3 to 8) (size 9 to 14) (size 15 to 20)
#    0.000    2.400    3.333    4.400    0.000    1.600 
#    2.400    0.667    0.000    0.800    3.467    0.000 
#    0.000    0.000    0.000    0.000    0.000    0.000 
#
# Total GULP energy -167016.193643 kJ/mol
# GULP energy per Si atom -5567.206455 kJ/mol
# Density = 2.155404 g / cm^3
# Si number density = 21.603211 Si / 1000 Ang^3
#
#
#
# Elastic Constant Matrix: (Units=GPa)
#
#
# Indices 1 2 3 4 5 6 
#
# 1 18.8573 9.4891 -4.0531 0.0000 0.0000 0.0000
# 2 9.4891 178.6970 62.1497 0.0000 0.0000 0.0000
# 3 -4.0531 62.1497 109.9180 0.0000 0.0000 0.0000
# 4 0.0000 0.0000 0.0000 23.6591 0.0000 0.0000
# 5 0.0000 0.0000 0.0000 0.0000 -8.1129 0.0000
# 6 0.0000 0.0000 0.0000 0.0000 0.0000 -0.3248
#
#
#
# Elastic Compliance Matrix: (Units=1/GPa)
#
#
# Indices 1 2 3 4 5 6 
#
# 1 0.056366 -0.004626 0.004694 0.000000 0.000000 0.000000
# 2 -0.004626 0.007345 -0.004324 0.000000 0.000000 0.000000
# 3 0.004694 -0.004324 0.011716 0.000000 0.000000 0.000000
# 4 0.000000 0.000000 0.000000 0.042267 0.000000 0.000000
# 5 0.000000 0.000000 0.000000 0.000000 -0.123260 0.000000
# 6 0.000000 0.000000 0.000000 0.000000 0.000000 -3.079054
#
#
# Mechanical properties :
#
#
# Convention : Reuss Voigt Hill
#
# Bulk Modulus (GPa) = 14.94405 49.18263 32.06334
# Shear Modulus (GPa) = -1.63730 19.03673 8.69971
#
# Velocity S-wave (km/s) = -0.87152 2.97172 2.00893
# Velocity P-wave (km/s) = 2.43307 5.88138 4.50058
#
# Compressibility (1/GPa) = 0.06691626
#
# Stress axis : x y z
#
# Youngs Moduli (GPa) = 17.74105 136.13781 85.35663
#
# Poissons Ratio (x) = 0.62972 -0.40065
# Poissons Ratio (y) = 0.08206 0.36907
# Poissons Ratio (z) = -0.08327 0.58864
#
# Static dielectric constant tensor:
#      x y z
#    x 1.836710 0.000000 0.000000 
#    y 0.000000 1.915410 0.000000 
#    z 0.000000 0.000000 1.797600 
# 
# From -- ./inp_files/4782.got.cif
#   From: 2010.05.17/outbox.cif.g08.bks.cpg/sg27_3_cif.got.tgz:4782.got - 2010.06.04 01:11:05.
