data_PCOD9338851
_publ_section_title
;
Structure prediction by ZEFSAII (Michael W. Deem and Ramdas Pophale) SiO2 
 PCOD9338851
Probable space group: P C C 2
;
_chemical_formula_sum "Si O2"
_cell_formula_units_Z 30
_cell_length_a 14.213905
_cell_length_b 13.704865
_cell_length_c 8.549199
_cell_angle_alpha 90.000000
_cell_angle_beta 90.000000
_cell_angle_gamma 90.000000
_cell_volume 1665.380966
_symmetry_space_group_name_H-M "P C C 2"
_symmetry_group_IT_number 27
_symmetry_cell_setting 'orthorhombic'
loop_
_space_group_symop_operation_xyz
x,y,z
-x,-y,z
-x,y,1/2+z
x,-y,1/2+z
loop_
_atom_site_type_symbol
_atom_site_label
_atom_site_fract_x
_atom_site_fract_y
_atom_site_fract_z
Si Si1 0.974169 0.170035 0.381910
Si Si2 0.000000 0.500000 0.633342
Si Si3 0.797292 0.129958 0.570329
Si Si4 0.129333 0.087160 0.579632
Si Si5 0.423363 0.126165 0.508931
Si Si6 0.904734 0.633491 0.378981
Si Si7 0.260619 0.770889 0.892898
Si Si8 0.619089 0.083597 0.372540
O O1 0.891124 0.182510 0.508400
O O2 0.923244 0.130277 0.229042
O O3 0.051457 0.093435 0.443286
O O4 0.030970 0.269835 0.358555
O O5 0.942040 0.576377 0.529781
O O6 0.927234 0.439139 0.738080
O O7 0.756328 0.181501 0.722936
O O8 0.718555 0.122208 0.435282
O O9 0.829599 0.019419 0.607629
O O10 0.210132 0.159283 0.520495
O O11 0.368702 0.220247 0.443286
O O12 0.534283 0.128774 0.475201
O O13 0.401578 0.104728 0.690843
O O14 0.386526 0.032267 0.409214
O O15 0.797983 0.670895 0.393698
#
# Coordination Sequence:
#
# PCOD9338851 Si02
#       8
#     4   2   4   4   4   4   4   4
#     4  11  22  35  50  73 109 142 192 232 277 319
#     4  10  20  38  60  76 108 140 184 224 308 356
#     4  12  22  33  49  75 108 153 194 227 266 318
#     4  11  22  34  47  70 106 155 190 230 262 314
#     4  11  21  37  53  75 106 149 191 243 265 317
#     4  10  21  37  56  81 106 145 177 235 283 353
#     4  11  21  35  55  77 111 139 193 232 275 320
#     4  11  22  35  54  74 107 152 200 225 275 302
#
# _framework density 18.013897
#
# number of rings (size 3 to 8) (size 9 to 14) (size 15 to 20)
#    0.000    1.067    1.333    9.200    0.000    2.133 
#    0.000    0.000    0.000    0.000    0.000    0.000 
#    0.000   36.267    0.000    0.000    0.000    0.000 
#
# Total GULP energy -167728.927187 kJ/mol
# GULP energy per Si atom -5590.964240 kJ/mol
# Density = 1.797290 g / cm^3
# Si number density = 18.013897 Si / 1000 Ang^3
#
#
#
# Elastic Constant Matrix: (Units=GPa)
#
#
# Indices 1 2 3 4 5 6 
#
# 1 89.5195 21.5384 9.2491 0.0000 0.0000 0.0000
# 2 21.5384 65.5663 23.5485 0.0000 0.0000 0.0000
# 3 9.2491 23.5485 84.8757 0.0000 0.0000 0.0000
# 4 0.0000 0.0000 0.0000 -4.7454 0.0000 0.0000
# 5 0.0000 0.0000 0.0000 0.0000 32.5225 0.0000
# 6 0.0000 0.0000 0.0000 0.0000 0.0000 20.4675
#
#
#
# Elastic Compliance Matrix: (Units=1/GPa)
#
#
# Indices 1 2 3 4 5 6 
#
# 1 0.012134 -0.003900 -0.000240 0.000000 0.000000 0.000000
# 2 -0.003900 0.018193 -0.004623 0.000000 0.000000 0.000000
# 3 -0.000240 -0.004623 0.013091 0.000000 0.000000 0.000000
# 4 0.000000 0.000000 0.000000 -0.210731 0.000000 0.000000
# 5 0.000000 0.000000 0.000000 0.000000 0.030748 0.000000
# 6 0.000000 0.000000 0.000000 0.000000 0.000000 0.048858
#
#
# Mechanical properties :
#
#
# Convention : Reuss Voigt Hill
#
# Bulk Modulus (GPa) = 38.62146 38.73704 38.67925
# Shear Modulus (GPa) = -81.23281 22.02395 -29.60443
#
# Velocity S-wave (km/s) = -6.72253 3.50038 -4.05831
# Velocity P-wave (km/s) = 6.22657 6.15528 0.66434
#
# Compressibility (1/GPa) = 0.02589234
#
# Stress axis : x y z
#
# Youngs Moduli (GPa) = 82.41420 54.96614 76.39027
#
# Poissons Ratio (x) = 0.21435 0.01836
# Poissons Ratio (y) = 0.32138 0.35313
# Poissons Ratio (z) = 0.01980 0.25409
#
# Static dielectric constant tensor:
#      x y z
#    x 1.662410 0.000000 0.000000 
#    y 0.000000 1.599250 0.000000 
#    z 0.000000 0.000000 1.670660 
# 
# From -- ./inp_files/1607.got.cif
#   From: 2010.05.17/outbox.cif.g08.bks.cpg/sg27_1_cif.got.tgz:1607.got - 2010.06.04 01:11:05.
