data_PCOD9338568
_publ_section_title
;
Structure prediction by ZEFSAII (Michael W. Deem and Ramdas Pophale) SiO2 
 PCOD9338568
Probable space group: P M C 21
;
_chemical_formula_sum "Si O2"
_cell_formula_units_Z 24
_cell_length_a 8.929385
_cell_length_b 10.207741
_cell_length_c 14.250832
_cell_angle_alpha 90.000000
_cell_angle_beta 90.000000
_cell_angle_gamma 90.000000
_cell_volume 1298.946939
_symmetry_space_group_name_H-M "P M C 21"
_symmetry_group_IT_number 26
_symmetry_cell_setting 'orthorhombic'
loop_
_space_group_symop_operation_xyz
x,y,z
-x,-y,1/2+z
-x,y,z
x,-y,1/2+z
loop_
_atom_site_type_symbol
_atom_site_label
_atom_site_fract_x
_atom_site_fract_y
_atom_site_fract_z
Si Si1 0.173959 0.607946 0.236740
Si Si2 0.680566 0.785059 0.921338
Si Si3 0.320580 0.884921 0.714925
Si Si4 0.322086 0.476590 0.924254
Si Si5 0.820788 0.135505 0.615882
Si Si6 0.174160 0.352870 0.105904
O O1 0.277033 0.590132 0.326744
O O2 0.214957 0.730480 0.171590
O O3 0.184133 0.476397 0.175699
O O4 0.000000 0.623989 0.266200
O O5 0.500000 0.791958 0.928912
O O6 0.724055 0.850684 0.822271
O O7 0.722461 0.630566 0.920745
O O8 0.753213 0.852843 0.011660
O O9 0.500000 0.896105 0.712351
O O10 0.267378 0.765187 0.649971
O O11 0.246646 0.015402 0.674076
O O12 0.500000 0.471221 0.938978
O O13 0.238641 0.402607 0.007696
O O14 0.000000 0.123703 0.609811
O O15 0.000000 0.315044 0.097014
#
# Coordination Sequence:
#
# PCOD9338568 Si02
#       6
#     4   4   4   4   4   4
#     4  10  22  39  61  90 124 161 207 255 307 366
#     4  10  22  40  63  90 123 165 207 254 313 372
#     4  11  24  43  64  92 127 165 208 256 311 371
#     4  11  22  37  63  95 126 163 209 259 311 365
#     4  11  24  42  64  93 126 166 208 255 311 371
#     4  11  22  39  63  92 124 162 205 255 309 365
#
# _framework density 18.476505
#
# number of rings (size 3 to 8) (size 9 to 14) (size 15 to 20)
#    0.000    1.333    3.333    2.000    0.000    5.333 
#    0.000    3.333    0.000    0.000    0.000    0.000 
#    0.000    0.000    0.000    0.000    0.000    0.000 
#
# Total GULP energy -134147.533634 kJ/mol
# GULP energy per Si atom -5589.480568 kJ/mol
# Density = 1.843445 g / cm^3
# Si number density = 18.476505 Si / 1000 Ang^3
#
#
#
# Elastic Constant Matrix: (Units=GPa)
#
#
# Indices 1 2 3 4 5 6 
#
# 1 33.4642 13.9918 34.0576 0.0000 0.0000 0.0000
# 2 13.9918 73.1815 11.5854 0.0000 0.0000 0.0000
# 3 34.0576 11.5854 104.4474 0.0000 0.0000 0.0000
# 4 0.0000 0.0000 0.0000 28.5412 0.0000 0.0000
# 5 0.0000 0.0000 0.0000 0.0000 30.8944 0.0000
# 6 0.0000 0.0000 0.0000 0.0000 0.0000 29.2642
#
#
#
# Elastic Compliance Matrix: (Units=1/GPa)
#
#
# Indices 1 2 3 4 5 6 
#
# 1 0.047829 -0.006795 -0.014842 0.000000 0.000000 0.000000
# 2 -0.006795 0.014874 0.000566 0.000000 0.000000 0.000000
# 3 -0.014842 0.000566 0.014351 0.000000 0.000000 0.000000
# 4 0.000000 0.000000 0.000000 0.035037 0.000000 0.000000
# 5 0.000000 0.000000 0.000000 0.000000 0.032368 0.000000
# 6 0.000000 0.000000 0.000000 0.000000 0.000000 0.034171
#
#
# Mechanical properties :
#
#
# Convention : Reuss Voigt Hill
#
# Bulk Modulus (GPa) = 28.64360 36.70696 32.67528
# Shear Modulus (GPa) = 21.51365 27.83718 24.67541
#
# Velocity S-wave (km/s) = 3.41600 3.88574 3.65842
# Velocity P-wave (km/s) = 5.57630 6.32787 5.96394
#
# Compressibility (1/GPa) = 0.03491181
#
# Stress axis : x y z
#
# Youngs Moduli (GPa) = 20.90788 67.23042 69.68136
#
# Poissons Ratio (x) = 0.45682 1.03421
# Poissons Ratio (y) = 0.14207 -0.03942
# Poissons Ratio (z) = 0.31032 -0.03804
#
# Static dielectric constant tensor:
#      x y z
#    x 1.614560 0.000000 0.000000 
#    y 0.000000 1.610980 0.000000 
#    z 0.000000 0.000000 1.610720 
# 
# From -- ./inp_files/2821.got.cif
#   From: 2010.05.17/outbox.cif.g08.bks.cpg/sg26_2_cif.got.tgz:2821.got - 2010.06.04 01:07:29.
