data_PCOD9338435
_publ_section_title
;
Structure prediction by ZEFSAII (Michael W. Deem and Ramdas Pophale) SiO2 
 PCOD9338435
Probable space group: P M C 21
;
_chemical_formula_sum "Si O2"
_cell_formula_units_Z 32
_cell_length_a 8.657324
_cell_length_b 10.355951
_cell_length_c 20.328767
_cell_angle_alpha 90.000000
_cell_angle_beta 90.000000
_cell_angle_gamma 90.000000
_cell_volume 1822.572010
_symmetry_space_group_name_H-M "P M C 21"
_symmetry_group_IT_number 26
_symmetry_cell_setting 'orthorhombic'
loop_
_space_group_symop_operation_xyz
x,y,z
-x,-y,1/2+z
-x,y,z
x,-y,1/2+z
loop_
_atom_site_type_symbol
_atom_site_label
_atom_site_fract_x
_atom_site_fract_y
_atom_site_fract_z
Si Si1 0.813687 0.822520 0.959660
Si Si2 0.315352 0.666777 0.578444
Si Si3 0.315084 0.543325 0.326893
Si Si4 0.313894 0.453626 0.472778
Si Si5 0.814482 0.894591 0.495282
Si Si6 0.814676 0.661202 0.723738
Si Si7 0.187745 0.103578 0.311676
Si Si8 0.185966 0.178554 0.844135
O O1 0.745027 0.690246 0.986052
O O2 0.765613 0.841438 0.883241
O O3 0.000000 0.815222 0.960642
O O4 0.768774 0.954717 0.996423
O O5 0.500000 0.661416 0.581649
O O6 0.261167 0.556680 0.527074
O O7 0.263790 0.803490 0.548312
O O8 0.247264 0.646334 0.650438
O O9 0.500000 0.534031 0.324249
O O10 0.262423 0.496787 0.399666
O O11 0.243352 0.451367 0.271855
O O12 0.263787 0.691426 0.319388
O O13 0.500000 0.453773 0.472594
O O14 0.778345 0.842960 0.421646
O O15 0.000000 0.888076 0.502778
O O16 0.761653 0.797753 0.755602
O O17 0.000000 0.660601 0.723044
O O18 0.000000 0.101859 0.311954
O O19 0.235979 0.954063 0.308315
O O20 0.000000 0.190119 0.838602
#
# Coordination Sequence:
#
# PCOD9338435 Si02
#       8
#     4   4   4   4   4   4   4   4
#     4   9  17  32  56  84 110 136 178 231 276 318
#     4  11  23  39  55  78 115 153 187 227 279 338
#     4  11  21  35  54  83 116 147 183 228 279 333
#     4  10  21  35  53  80 114 148 183 225 276 329
#     4   9  18  33  55  83 110 139 180 227 274 326
#     4  11  22  38  59  82 109 147 190 232 282 335
#     4   8  16  32  54  81 109 135 173 228 277 320
#     4   9  17  32  56  83 109 139 178 226 273 321
#
# _framework density 17.557604000000001
#
# number of rings (size 3 to 8) (size 9 to 14) (size 15 to 20)
#    0.000    2.250    2.500    2.625    0.000    2.000 
#    0.000    4.375    0.000    1.500    0.000    0.000 
#    0.000    0.000    0.000    0.000    0.000    0.000 
#
# Total GULP energy -178533.676283 kJ/mol
# GULP energy per Si atom -5579.177384 kJ/mol
# Density = 1.751764 g / cm^3
# Si number density = 17.557604 Si / 1000 Ang^3
#
#
#
# Elastic Constant Matrix: (Units=GPa)
#
#
# Indices 1 2 3 4 5 6 
#
# 1 22.7656 30.2093 34.8839 0.0000 0.0000 0.0000
# 2 30.2093 160.5867 83.9888 0.0000 0.0000 0.0000
# 3 34.8839 83.9888 124.2992 0.0000 0.0000 0.0000
# 4 0.0000 0.0000 0.0000 24.6778 0.0000 0.0000
# 5 0.0000 0.0000 0.0000 0.0000 23.8235 0.0000
# 6 0.0000 0.0000 0.0000 0.0000 0.0000 -13.8210
#
#
#
# Elastic Compliance Matrix: (Units=1/GPa)
#
#
# Indices 1 2 3 4 5 6 
#
# 1 0.079674 -0.005094 -0.018918 0.000000 0.000000 0.000000
# 2 -0.005094 0.009956 -0.005298 0.000000 0.000000 0.000000
# 3 -0.018918 -0.005298 0.016934 0.000000 0.000000 0.000000
# 4 0.000000 0.000000 0.000000 0.040522 0.000000 0.000000
# 5 0.000000 0.000000 0.000000 0.000000 0.041975 0.000000
# 6 0.000000 0.000000 0.000000 0.000000 0.000000 -0.072354
#
#
# Mechanical properties :
#
#
# Convention : Reuss Voigt Hill
#
# Bulk Modulus (GPa) = 20.85741 67.31283 44.08512
# Shear Modulus (GPa) = 26.13573 17.50738 21.82155
#
# Velocity S-wave (km/s) = 3.86239 3.16118 3.52924
# Velocity P-wave (km/s) = 5.63879 7.19344 6.46303
#
# Compressibility (1/GPa) = 0.04794460
#
# Stress axis : x y z
#
# Youngs Moduli (GPa) = 12.55119 100.43955 59.05203
#
# Poissons Ratio (x) = 0.51160 1.11716
# Poissons Ratio (y) = 0.06393 0.31285
# Poissons Ratio (z) = 0.23745 0.53212
#
# Static dielectric constant tensor:
#      x y z
#    x 1.594900 0.000000 0.000000 
#    y 0.000000 1.599370 0.000000 
#    z 0.000000 0.000000 1.576460 
# 
# From -- ./inp_files/5554.got.cif
#   From: 2010.05.17/outbox.cif.g08.bks.cpg/sg26_3_cif.got.tgz:5554.got - 2010.06.04 01:07:29.
