data_PCOD9338560
_publ_section_title
;
Structure prediction by ZEFSAII (Michael W. Deem and Ramdas Pophale) SiO2 
 PCOD9338560
Probable space group: P M C 21
;
_chemical_formula_sum "Si O2"
_cell_formula_units_Z 32
_cell_length_a 16.147255
_cell_length_b 7.664717
_cell_length_c 14.378366
_cell_angle_alpha 90.000000
_cell_angle_beta 90.000000
_cell_angle_gamma 90.000000
_cell_volume 1779.526101
_symmetry_space_group_name_H-M "P M C 21"
_symmetry_group_IT_number 26
_symmetry_cell_setting 'orthorhombic'
loop_
_space_group_symop_operation_xyz
x,y,z
-x,-y,1/2+z
-x,y,z
x,-y,1/2+z
loop_
_atom_site_type_symbol
_atom_site_label
_atom_site_fract_x
_atom_site_fract_y
_atom_site_fract_z
Si Si1 0.192025 0.862042 0.431020
Si Si2 0.598010 0.269271 0.360213
Si Si3 0.900655 0.050473 0.740841
Si Si4 0.189825 0.627315 0.146813
Si Si5 0.310174 0.372689 0.819132
Si Si6 0.098010 0.730726 0.605735
Si Si7 0.692024 0.137954 0.534928
Si Si8 0.599345 0.050477 0.725109
O O1 0.251474 0.704136 0.399354
O O2 0.124321 0.801225 0.505043
O O3 0.148571 0.937205 0.338152
O O4 0.250002 0.999994 0.482974
O O5 0.500000 0.291759 0.354855
O O6 0.641975 0.453212 0.344551
O O7 0.624321 0.198775 0.460905
O O8 0.621340 0.123939 0.282808
O O9 0.878660 0.876056 0.683141
O O10 0.000000 0.055241 0.754765
O O11 0.870875 0.216726 0.680206
O O12 0.250001 0.588657 0.232972
O O13 0.141974 0.453217 0.121395
O O14 0.248523 0.704144 0.066591
O O15 0.370875 0.216730 0.785744
O O16 0.000000 0.708238 0.611093
O O17 0.648571 0.062798 0.627798
O O18 0.500000 0.055244 0.711183
#
# Coordination Sequence:
#
# PCOD9338560 Si02
#       8
#     4   4   4   4   4   4   4   4
#     4  11  22  39  64  90 120 158 202 250 296 352
#     4  11  23  40  63  88 123 162 198 244 304 358
#     4  10  22  41  60  87 123 158 198 247 297 354
#     4  10  22  38  64  89 120 156 199 251 292 356
#     4  10  22  38  64  89 120 156 199 251 292 356
#     4  11  23  40  63  88 123 162 198 244 304 358
#     4  11  22  39  64  90 120 158 202 250 296 352
#     4  10  22  41  60  87 123 158 198 247 297 354
#
# _framework density 17.982316999999998
#
# number of rings (size 3 to 8) (size 9 to 14) (size 15 to 20)
#    0.000    1.500    2.500    2.250    3.500    0.000 
#    0.000    0.000    0.000    0.000    0.000    0.000 
#    0.000    0.000    0.000    0.000    0.000    0.000 
#
# Total GULP energy -178737.846305 kJ/mol
# GULP energy per Si atom -5585.557697 kJ/mol
# Density = 1.794139 g / cm^3
# Si number density = 17.982317 Si / 1000 Ang^3
#
#
#
# Elastic Constant Matrix: (Units=GPa)
#
#
# Indices 1 2 3 4 5 6 
#
# 1 83.2522 53.9048 49.8800 0.0000 0.0000 0.0000
# 2 53.9048 109.9664 75.5280 0.0000 0.0000 0.0000
# 3 49.8800 75.5280 112.2611 0.0000 0.0000 0.0000
# 4 0.0000 0.0000 0.0000 14.9797 0.0000 0.0000
# 5 0.0000 0.0000 0.0000 0.0000 31.8681 0.0000
# 6 0.0000 0.0000 0.0000 0.0000 0.0000 37.8148
#
#
#
# Elastic Compliance Matrix: (Units=1/GPa)
#
#
# Indices 1 2 3 4 5 6 
#
# 1 0.018487 -0.006359 -0.003936 0.000000 0.000000 0.000000
# 2 -0.006359 0.019093 -0.010020 0.000000 0.000000 0.000000
# 3 -0.003936 -0.010020 0.017398 0.000000 0.000000 0.000000
# 4 0.000000 0.000000 0.000000 0.066757 0.000000 0.000000
# 5 0.000000 0.000000 0.000000 0.000000 0.031379 0.000000
# 6 0.000000 0.000000 0.000000 0.000000 0.000000 0.026445
#
#
# Mechanical properties :
#
#
# Convention : Reuss Voigt Hill
#
# Bulk Modulus (GPa) = 69.69570 73.78948 71.74259
# Shear Modulus (GPa) = 22.22501 25.34366 23.78433
#
# Velocity S-wave (km/s) = 3.51940 3.75822 3.64077
# Velocity P-wave (km/s) = 7.44023 7.74312 7.59318
#
# Compressibility (1/GPa) = 0.01434809
#
# Stress axis : x y z
#
# Youngs Moduli (GPa) = 54.09119 52.37567 57.47776
#
# Poissons Ratio (x) = 0.33305 0.22624
# Poissons Ratio (y) = 0.34396 0.57593
# Poissons Ratio (z) = 0.21291 0.52481
#
# Static dielectric constant tensor:
#      x y z
#    x 1.599720 0.000000 0.000000 
#    y 0.000000 1.596220 0.000000 
#    z 0.000000 0.000000 1.602020 
# 
# From -- ./inp_files/4727.got.cif
#   From: 2010.05.17/outbox.cif.g08.bks.cpg/sg26_3_cif.got.tgz:4727.got - 2010.06.04 01:07:29.
