data_PCOD9338431
_publ_section_title
;
Structure prediction by ZEFSAII (Michael W. Deem and Ramdas Pophale) SiO2 
 PCOD9338431
Probable space group: P M C 21
;
_chemical_formula_sum "Si O2"
_cell_formula_units_Z 16
_cell_length_a 12.256007
_cell_length_b 4.930924
_cell_length_c 13.700376
_cell_angle_alpha 90.000000
_cell_angle_beta 90.000000
_cell_angle_gamma 90.000000
_cell_volume 827.960838
_symmetry_space_group_name_H-M "P M C 21"
_symmetry_group_IT_number 26
_symmetry_cell_setting 'orthorhombic'
loop_
_space_group_symop_operation_xyz
x,y,z
-x,-y,1/2+z
-x,y,z
x,-y,1/2+z
loop_
_atom_site_type_symbol
_atom_site_label
_atom_site_fract_x
_atom_site_fract_y
_atom_site_fract_z
Si Si1 0.125860 0.478962 0.552990
Si Si2 0.241216 0.737489 0.860684
Si Si3 0.628929 0.204871 0.798805
Si Si4 0.200975 0.021063 0.169053
O O1 0.176891 0.360122 0.454369
O O2 0.190704 0.740661 0.591179
O O3 0.000000 0.555481 0.539368
O O4 0.136153 0.239096 0.632355
O O5 0.311172 0.487917 0.818395
O O6 0.164806 0.852792 0.773452
O O7 0.325033 0.986369 0.877076
O O8 0.500000 0.228487 0.799459
O O9 0.677559 0.082135 0.697608
#
# Coordination Sequence:
#
# PCOD9338431 Si02
#       4
#     4   4   4   4
#     4  12  24  40  63  92 126 164 205 252 305 364
#     4  10  22  41  64  90 127 156 210 250 300 371
#     4  10  20  42  66  85 124 164 197 256 312 353
#     4  10  22  43  61  91 127 156 210 254 297 370
#
# _framework density 19.324584999999999
#
# number of rings (size 3 to 8) (size 9 to 14) (size 15 to 20)
#    1.500    0.000    2.500    3.000    0.000    2.000 
#    0.000    7.500    0.000    0.000    0.000    0.000 
#    0.000    0.000    0.000    0.000    0.000    0.000 
#
# Total GULP energy -89120.530081 kJ/mol
# GULP energy per Si atom -5570.033130 kJ/mol
# Density = 1.928060 g / cm^3
# Si number density = 19.324585 Si / 1000 Ang^3
#
#
#
# Elastic Constant Matrix: (Units=GPa)
#
#
# Indices 1 2 3 4 5 6 
#
# 1 79.4028 23.0010 50.6432 0.0000 0.0000 0.0000
# 2 23.0010 114.3381 10.9904 0.0000 0.0000 0.0000
# 3 50.6432 10.9904 52.3281 0.0000 0.0000 0.0000
# 4 0.0000 0.0000 0.0000 26.6904 0.0000 0.0000
# 5 0.0000 0.0000 0.0000 0.0000 24.3997 0.0000
# 6 0.0000 0.0000 0.0000 0.0000 0.0000 13.0391
#
#
#
# Elastic Compliance Matrix: (Units=1/GPa)
#
#
# Indices 1 2 3 4 5 6 
#
# 1 0.034452 -0.003802 -0.032544 0.000000 0.000000 0.000000
# 2 -0.003802 0.009346 0.001717 0.000000 0.000000 0.000000
# 3 -0.032544 0.001717 0.050246 0.000000 0.000000 0.000000
# 4 0.000000 0.000000 0.000000 0.037467 0.000000 0.000000
# 5 0.000000 0.000000 0.000000 0.000000 0.040984 0.000000
# 6 0.000000 0.000000 0.000000 0.000000 0.000000 0.076692
#
#
# Mechanical properties :
#
#
# Convention : Reuss Voigt Hill
#
# Bulk Modulus (GPa) = 40.34735 46.14868 43.24801
# Shear Modulus (GPa) = 15.30420 23.58814 19.44617
#
# Velocity S-wave (km/s) = 2.81722 3.49754 3.17565
# Velocity P-wave (km/s) = 5.61306 6.34374 5.98955
#
# Compressibility (1/GPa) = 0.02478478
#
# Stress axis : x y z
#
# Youngs Moduli (GPa) = 29.02570 106.99931 19.90213
#
# Poissons Ratio (x) = 0.40685 0.64770
# Poissons Ratio (y) = 0.11037 -0.03417
# Poissons Ratio (z) = 0.94462 -0.18372
#
# Static dielectric constant tensor:
#      x y z
#    x 1.648310 0.000000 0.000000 
#    y 0.000000 1.695450 0.000000 
#    z 0.000000 0.000000 1.705650 
# 
# From -- ./inp_files/3153.got.cif
#   From: 2010.05.17/outbox.cif.g08.bks.cpg/sg26_2_cif.got.tgz:3153.got - 2010.06.04 01:07:29.
