data_PCOD9338119
_publ_section_title
;
Structure prediction by ZEFSAII (Michael W. Deem and Ramdas Pophale) SiO2 
 PCOD9338119
Probable space group: P M C 21
;
_chemical_formula_sum "Si O2"
_cell_formula_units_Z 18
_cell_length_a 25.201926
_cell_length_b 4.951347
_cell_length_c 5.048823
_cell_angle_alpha 90.000000
_cell_angle_beta 90.000000
_cell_angle_gamma 90.000000
_cell_volume 630.009707
_symmetry_space_group_name_H-M "P M C 21"
_symmetry_group_IT_number 26
_symmetry_cell_setting 'orthorhombic'
loop_
_space_group_symop_operation_xyz
x,y,z
-x,-y,1/2+z
-x,y,z
x,-y,1/2+z
loop_
_atom_site_type_symbol
_atom_site_label
_atom_site_fract_x
_atom_site_fract_y
_atom_site_fract_z
Si Si1 0.557098 0.690902 0.683390
Si Si2 0.333138 0.690946 0.547909
Si Si3 0.000000 0.117985 0.211612
Si Si4 0.113632 0.332648 0.032899
Si Si5 0.223000 0.689459 0.682842
O O1 0.500000 0.830666 0.646671
O O2 0.558005 0.444843 0.470919
O O3 0.611858 0.840252 0.615187
O O4 0.333178 0.559489 0.258535
O O5 0.277864 0.837555 0.613852
O O6 0.944143 0.223352 0.102089
O O7 0.000000 0.155213 0.527957
O O8 0.116756 0.592430 0.226819
O O9 0.166634 0.173771 0.120335
O O10 0.223725 0.439090 0.472741
#
# Coordination Sequence:
#
# PCOD9338119 Si02
#       5
#     4   4   2   4   4
#     4   8  12  16  22  33  53  83 115 145 181 227
#     4   8  12  18  27  42  63  85 115 157 195 225
#     4  12  24  36  50  72  98 120 144 180 226 266
#     4  10  19  34  53  70  89 118 153 183 215 261
#     4   8  14  23  38  57  74  95 129 171 205 235
#
# _framework density 28.570988
#
# number of rings (size 3 to 8) (size 9 to 14) (size 15 to 20)
#    0.000    3.111    0.000    2.000    0.000    0.000 
#    0.000    0.000    0.000    0.000    0.000    0.000 
#    0.000    0.000    0.000    0.000    0.000    2.222 
#
# Total GULP energy -100631.498760 kJ/mol
# GULP energy per Si atom -5590.638820 kJ/mol
# Density = 2.850596 g / cm^3
# Si number density = 28.570988 Si / 1000 Ang^3
#
#
#
# Elastic Constant Matrix: (Units=GPa)
#
#
# Indices 1 2 3 4 5 6 
#
# 1 314.1910 20.4682 -0.0775 0.0000 0.0000 0.0000
# 2 20.4682 59.6480 41.8713 0.0000 0.0000 0.0000
# 3 -0.0775 41.8713 159.1743 0.0000 0.0000 0.0000
# 4 0.0000 0.0000 0.0000 55.4597 0.0000 0.0000
# 5 0.0000 0.0000 0.0000 0.0000 40.4693 0.0000
# 6 0.0000 0.0000 0.0000 0.0000 0.0000 -52.0988
#
#
#
# Elastic Compliance Matrix: (Units=1/GPa)
#
#
# Indices 1 2 3 4 5 6 
#
# 1 0.003273 -0.001379 0.000364 0.000000 0.000000 0.000000
# 2 -0.001379 0.021143 -0.005562 0.000000 0.000000 0.000000
# 3 0.000364 -0.005562 0.007746 0.000000 0.000000 0.000000
# 4 0.000000 0.000000 0.000000 0.018031 0.000000 0.000000
# 5 0.000000 0.000000 0.000000 0.000000 0.024710 0.000000
# 6 0.000000 0.000000 0.000000 0.000000 0.000000 -0.019194
#
#
# Mechanical properties :
#
#
# Convention : Reuss Voigt Hill
#
# Bulk Modulus (GPa) = 52.61046 73.05972 62.83509
# Shear Modulus (GPa) = 66.49147 40.14946 53.32047
#
# Velocity S-wave (km/s) = 4.82938 3.75274 4.32469
# Velocity P-wave (km/s) = 7.03926 6.66365 6.85402
#
# Compressibility (1/GPa) = 0.01900763
#
# Stress axis : x y z
#
# Youngs Moduli (GPa) = 305.55935 47.29751 129.10238
#
# Poissons Ratio (x) = 0.06521 -0.04703
# Poissons Ratio (y) = 0.42129 0.71811
# Poissons Ratio (z) = -0.11131 0.26309
#
# Static dielectric constant tensor:
#      x y z
#    x 2.359380 0.000000 0.000000 
#    y 0.000000 2.173050 0.000000 
#    z 0.000000 0.000000 2.167150 
# 
# From -- ./inp_files/935.got.cif
#   From: 2010.05.17/outbox.cif.g08.bks.cpg/sg26_1_cif.got.tgz:935.got - 2010.06.04 01:07:29.
