data_PCOD9338290
_publ_section_title
;
Structure prediction by ZEFSAII (Michael W. Deem and Ramdas Pophale) SiO2 
 PCOD9338290
Probable space group: P M C 21
;
_chemical_formula_sum "Si O2"
_cell_formula_units_Z 32
_cell_length_a 8.701677
_cell_length_b 11.677445
_cell_length_c 16.523300
_cell_angle_alpha 90.000000
_cell_angle_beta 90.000000
_cell_angle_gamma 90.000000
_cell_volume 1678.987942
_symmetry_space_group_name_H-M "P M C 21"
_symmetry_group_IT_number 26
_symmetry_cell_setting 'orthorhombic'
loop_
_space_group_symop_operation_xyz
x,y,z
-x,-y,1/2+z
-x,y,z
x,-y,1/2+z
loop_
_atom_site_type_symbol
_atom_site_label
_atom_site_fract_x
_atom_site_fract_y
_atom_site_fract_z
Si Si1 0.682358 0.169472 0.263160
Si Si2 0.316627 0.429293 0.624409
Si Si3 0.824001 0.792545 0.442661
Si Si4 0.178120 0.936390 0.605018
Si Si5 0.319969 0.071890 0.804663
Si Si6 0.180941 0.179439 0.645435
Si Si7 0.313217 0.428532 0.285996
Si Si8 0.182377 0.523245 0.455412
O O1 0.500000 0.180283 0.272347
O O2 0.722260 0.123637 0.173976
O O3 0.743726 0.296896 0.277324
O O4 0.731027 0.060306 0.317450
O O5 0.500000 0.441124 0.620635
O O6 0.271210 0.296218 0.631907
O O7 0.264896 0.497936 0.706156
O O8 0.248070 0.475000 0.539852
O O9 0.815125 0.860538 0.525955
O O10 0.707517 0.851257 0.381961
O O11 0.792174 0.659539 0.455157
O O12 0.000000 0.803397 0.411368
O O13 0.000000 0.939397 0.633581
O O14 0.222276 0.069012 0.590291
O O15 0.500000 0.071333 0.781472
O O16 0.222209 0.129306 0.733453
O O17 0.000000 0.203703 0.637700
O O18 0.500000 0.431133 0.287000
O O19 0.255006 0.475498 0.372193
O O20 0.000000 0.500998 0.453526
#
# Coordination Sequence:
#
# PCOD9338290 Si02
#       8
#     4   4   4   4   4   4   4   4
#     4   9  19  36  56  80 109 141 181 227 277 332
#     4  11  23  39  61  86 116 155 194 237 286 337
#     4  10  21  37  55  78 109 142 181 228 278 332
#     4   9  19  35  56  81 108 141 180 226 279 335
#     4  10  20  34  55  82 109 140 180 226 277 332
#     4  10  20  36  57  81 111 145 183 227 278 335
#     4  10  22  40  60  83 115 154 193 235 284 338
#     4  11  24  39  58  85 115 150 192 238 285 339
#
# _framework density 19.059100999999998
#
# number of rings (size 3 to 8) (size 9 to 14) (size 15 to 20)
#    0.000    2.000    0.000    3.000    0.000    7.000 
#    0.000    2.500    0.000    0.000    0.000    0.000 
#    0.000    0.000    0.000    0.000    0.000    0.000 
#
# Total GULP energy -178471.948920 kJ/mol
# GULP energy per Si atom -5577.248404 kJ/mol
# Density = 1.901572 g / cm^3
# Si number density = 19.059101 Si / 1000 Ang^3
#
#
#
# Elastic Constant Matrix: (Units=GPa)
#
#
# Indices 1 2 3 4 5 6 
#
# 1 19.6448 42.9664 28.8178 0.0000 0.0000 0.0000
# 2 42.9664 157.8344 69.3083 0.0000 0.0000 0.0000
# 3 28.8178 69.3083 98.4525 0.0000 0.0000 0.0000
# 4 0.0000 0.0000 0.0000 26.1843 0.0000 0.0000
# 5 0.0000 0.0000 0.0000 0.0000 29.8151 0.0000
# 6 0.0000 0.0000 0.0000 0.0000 0.0000 23.8118
#
#
#
# Elastic Compliance Matrix: (Units=1/GPa)
#
#
# Indices 1 2 3 4 5 6 
#
# 1 0.154019 -0.032034 -0.022532 0.000000 0.000000 0.000000
# 2 -0.032034 0.015833 -0.001770 0.000000 0.000000 0.000000
# 3 -0.022532 -0.001770 0.017998 0.000000 0.000000 0.000000
# 4 0.000000 0.000000 0.000000 0.038191 0.000000 0.000000
# 5 0.000000 0.000000 0.000000 0.000000 0.033540 0.000000
# 6 0.000000 0.000000 0.000000 0.000000 0.000000 0.041996
#
#
# Mechanical properties :
#
#
# Convention : Reuss Voigt Hill
#
# Bulk Modulus (GPa) = 13.30129 62.01298 37.65713
# Shear Modulus (GPa) = 11.38153 24.95152 18.16653
#
# Velocity S-wave (km/s) = 2.44636 3.62217 3.09069
# Velocity P-wave (km/s) = 3.86958 7.07823 5.70416
#
# Compressibility (1/GPa) = 0.07518069
#
# Stress axis : x y z
#
# Youngs Moduli (GPa) = 6.49268 63.15818 55.56117
#
# Poissons Ratio (x) = 2.02320 1.25188
# Poissons Ratio (y) = 0.20799 0.09833
# Poissons Ratio (z) = 0.14629 0.11177
#
# Static dielectric constant tensor:
#      x y z
#    x 1.672300 0.000000 0.000000 
#    y 0.000000 1.676120 0.000000 
#    z 0.000000 0.000000 1.641830 
# 
# From -- ./inp_files/4281.got.cif
#   From: 2010.05.17/outbox.cif.g08.bks.cpg/sg26_3_cif.got.tgz:4281.got - 2010.06.04 01:07:29.
