data_PCOD9338629
_publ_section_title
;
Structure prediction by ZEFSAII (Michael W. Deem and Ramdas Pophale) SiO2 
 PCOD9338629
Probable space group: P M C 21
;
_chemical_formula_sum "Si O2"
_cell_formula_units_Z 16
_cell_length_a 9.000030
_cell_length_b 7.299743
_cell_length_c 11.491736
_cell_angle_alpha 90.000000
_cell_angle_beta 90.000000
_cell_angle_gamma 90.000000
_cell_volume 754.982991
_symmetry_space_group_name_H-M "P M C 21"
_symmetry_group_IT_number 26
_symmetry_cell_setting 'orthorhombic'
loop_
_space_group_symop_operation_xyz
x,y,z
-x,-y,1/2+z
-x,y,z
x,-y,1/2+z
loop_
_atom_site_type_symbol
_atom_site_label
_atom_site_fract_x
_atom_site_fract_y
_atom_site_fract_z
Si Si1 0.669416 0.214153 0.230050
Si Si2 0.330631 0.165737 0.966375
Si Si3 0.176014 0.577815 0.282948
Si Si4 0.823189 0.890883 0.117412
O O1 0.500000 0.182032 0.266855
O O2 0.665336 0.264107 0.092398
O O3 0.743780 0.383966 0.292682
O O4 0.765323 0.028259 0.220222
O O5 0.500000 0.151961 0.924056
O O6 0.262252 0.968092 0.004136
O O7 0.230818 0.286428 0.883148
O O8 0.000000 0.551888 0.288655
O O9 0.209505 0.687398 0.162494
O O10 0.000000 0.912020 0.102825
#
# Coordination Sequence:
#
# PCOD9338629 Si02
#       4
#     4   4   4   4
#     4   9  20  37  56  81 111 143 183 226 268 321
#     4   9  20  37  56  81 111 143 181 228 270 321
#     4  11  21  35  60  83 108 148 180 223 279 322
#     4   9  19  37  56  81 112 140 182 227 269 324
#
# _framework density 21.192532
#
# number of rings (size 3 to 8) (size 9 to 14) (size 15 to 20)
#    1.500    1.000    0.000    2.250    0.000    4.000 
#    4.500    0.000    0.000    0.000    0.000    0.000 
#    0.000    0.000    0.000    0.000    0.000    0.000 
#
# Total GULP energy -89138.515719 kJ/mol
# GULP energy per Si atom -5571.157232 kJ/mol
# Density = 2.114430 g / cm^3
# Si number density = 21.192532 Si / 1000 Ang^3
#
#
#
# Elastic Constant Matrix: (Units=GPa)
#
#
# Indices 1 2 3 4 5 6 
#
# 1 58.2984 19.2719 -9.2452 0.0000 0.0000 0.0000
# 2 19.2719 79.7365 5.3899 0.0000 0.0000 0.0000
# 3 -9.2452 5.3899 26.7316 0.0000 0.0000 0.0000
# 4 0.0000 0.0000 0.0000 22.4425 0.0000 0.0000
# 5 0.0000 0.0000 0.0000 0.0000 26.5167 0.0000
# 6 0.0000 0.0000 0.0000 0.0000 0.0000 -46.6798
#
#
#
# Elastic Compliance Matrix: (Units=1/GPa)
#
#
# Indices 1 2 3 4 5 6 
#
# 1 0.020234 -0.005438 0.008095 0.000000 0.000000 0.000000
# 2 -0.005438 0.014176 -0.004739 0.000000 0.000000 0.000000
# 3 0.008095 -0.004739 0.041164 0.000000 0.000000 0.000000
# 4 0.000000 0.000000 0.000000 0.044558 0.000000 0.000000
# 5 0.000000 0.000000 0.000000 0.000000 0.037712 0.000000
# 6 0.000000 0.000000 0.000000 0.000000 0.000000 -0.021423
#
#
# Mechanical properties :
#
#
# Convention : Reuss Voigt Hill
#
# Bulk Modulus (GPa) = 14.00366 21.73331 17.86848
# Shear Modulus (GPa) = 30.41556 10.41256 20.41406
#
# Velocity S-wave (km/s) = 3.79252 2.21900 3.10702
# Velocity P-wave (km/s) = 5.07934 4.10399 4.61749
#
# Compressibility (1/GPa) = 0.07140992
#
# Stress axis : x y z
#
# Youngs Moduli (GPa) = 49.42096 70.54227 24.29310
#
# Poissons Ratio (x) = 0.38359 -0.19664
# Poissons Ratio (y) = 0.26874 0.11512
# Poissons Ratio (z) = -0.40004 0.33430
#
# Static dielectric constant tensor:
#      x y z
#    x 1.712600 0.000000 0.000000 
#    y 0.000000 1.738320 0.000000 
#    z 0.000000 0.000000 1.843230 
# 
# From -- ./inp_files/1203.got.cif
#   From: 2010.05.17/outbox.cif.g08.bks.cpg/sg26_1_cif.got.tgz:1203.got - 2010.06.04 01:07:29.
