data_PCOD9338105
_publ_section_title
;
Structure prediction by ZEFSAII (Michael W. Deem and Ramdas Pophale) SiO2 
 PCOD9338105
Probable space group: P M C 21
;
_chemical_formula_sum "Si O2"
_cell_formula_units_Z 32
_cell_length_a 9.511510
_cell_length_b 12.627011
_cell_length_c 14.065265
_cell_angle_alpha 90.000000
_cell_angle_beta 90.000000
_cell_angle_gamma 90.000000
_cell_volume 1689.265633
_symmetry_space_group_name_H-M "P M C 21"
_symmetry_group_IT_number 26
_symmetry_cell_setting 'orthorhombic'
loop_
_space_group_symop_operation_xyz
x,y,z
-x,-y,1/2+z
-x,y,z
x,-y,1/2+z
loop_
_atom_site_type_symbol
_atom_site_label
_atom_site_fract_x
_atom_site_fract_y
_atom_site_fract_z
Si Si1 0.171200 0.582151 0.596980
Si Si2 0.169107 0.636431 0.005132
Si Si3 0.155659 0.963146 0.554902
Si Si4 0.170213 0.317269 0.295905
Si Si5 0.162372 0.252856 0.936186
Si Si6 0.661415 0.131955 0.795264
Si Si7 0.339317 0.158888 0.567437
Si Si8 0.163727 0.923662 0.780452
O O1 0.211988 0.463047 0.569877
O O2 0.220863 0.628024 0.698419
O O3 0.211966 0.657279 0.508956
O O4 0.000000 0.585264 0.599503
O O5 0.202672 0.621015 0.893050
O O6 0.000000 0.648711 0.012213
O O7 0.245985 0.742243 0.037337
O O8 0.270569 0.050314 0.530954
O O9 0.000000 0.010892 0.541683
O O10 0.164233 0.856216 0.495689
O O11 0.166828 0.930856 0.665576
O O12 0.215118 0.194221 0.306077
O O13 0.000000 0.311808 0.288198
O O14 0.259348 0.228197 0.846756
O O15 0.000000 0.274629 0.908286
O O16 0.500000 0.124126 0.826779
O O17 0.663699 0.149445 0.682055
O O18 0.744754 0.022596 0.814747
O O19 0.500000 0.170642 0.536233
O O20 0.000000 0.936417 0.810170
#
# Coordination Sequence:
#
# PCOD9338105 Si02
#       8
#     4   4   4   4   4   4   4   4
#     4   9  18  35  57  84 117 147 183 233 281 326
#     4  10  21  35  58  87 111 143 189 234 277 330
#     4   9  17  31  54  80 106 141 183 228 276 328
#     4   9  17  32  54  82 112 142 179 228 279 325
#     4  10  19  33  56  84 111 146 187 228 276 329
#     4  10  22  36  51  78 116 153 186 227 279 335
#     4  10  22  39  54  74 113 153 183 226 281 333
#     4   9  16  31  54  77 106 145 186 228 275 328
#
# _framework density 18.943142999999999
#
# number of rings (size 3 to 8) (size 9 to 14) (size 15 to 20)
#    0.000    2.500    1.250    0.750    1.750    3.000 
#    0.000    3.125    0.000    2.250    0.000    0.000 
#    0.000    0.000    0.000    0.000    0.000    0.000 
#
# Total GULP energy -178537.838845 kJ/mol
# GULP energy per Si atom -5579.307464 kJ/mol
# Density = 1.890003 g / cm^3
# Si number density = 18.943143 Si / 1000 Ang^3
#
#
#
# Elastic Constant Matrix: (Units=GPa)
#
#
# Indices 1 2 3 4 5 6 
#
# 1 52.7530 22.4230 15.0213 0.0000 0.0000 0.0000
# 2 22.4230 77.4550 16.8359 0.0000 0.0000 0.0000
# 3 15.0213 16.8359 48.5136 0.0000 0.0000 0.0000
# 4 0.0000 0.0000 0.0000 23.8230 0.0000 0.0000
# 5 0.0000 0.0000 0.0000 0.0000 15.3351 0.0000
# 6 0.0000 0.0000 0.0000 0.0000 0.0000 -15.8306
#
#
#
# Elastic Compliance Matrix: (Units=1/GPa)
#
#
# Indices 1 2 3 4 5 6 
#
# 1 0.022745 -0.005466 -0.005146 0.000000 0.000000 0.000000
# 2 -0.005466 0.015278 -0.003609 0.000000 0.000000 0.000000
# 3 -0.005146 -0.003609 0.023459 0.000000 0.000000 0.000000
# 4 0.000000 0.000000 0.000000 0.041976 0.000000 0.000000
# 5 0.000000 0.000000 0.000000 0.000000 0.065210 0.000000
# 6 0.000000 0.000000 0.000000 0.000000 0.000000 -0.063169
#
#
# Mechanical properties :
#
#
# Convention : Reuss Voigt Hill
#
# Bulk Modulus (GPa) = 30.26730 31.92022 31.09376
# Shear Modulus (GPa) = 34.49379 12.96160 23.72769
#
# Velocity S-wave (km/s) = 4.27184 2.61863 3.54301
# Velocity P-wave (km/s) = 6.35171 5.10197 5.76083
#
# Compressibility (1/GPa) = 0.03303896
#
# Stress axis : x y z
#
# Youngs Moduli (GPa) = 43.96597 65.45488 42.62825
#
# Poissons Ratio (x) = 0.35778 0.21935
# Poissons Ratio (y) = 0.24032 0.15386
# Poissons Ratio (z) = 0.22623 0.23625
#
# Static dielectric constant tensor:
#      x y z
#    x 1.640660 0.000000 0.000000 
#    y 0.000000 1.632190 0.000000 
#    z 0.000000 0.000000 1.690370 
# 
# From -- ./inp_files/4182.got.cif
#   From: 2010.05.17/outbox.cif.g08.bks.cpg/sg26_3_cif.got.tgz:4182.got - 2010.06.04 01:07:29.
