data_PCOD9338409
_publ_section_title
;
Structure prediction by ZEFSAII (Michael W. Deem and Ramdas Pophale) SiO2 
 PCOD9338409
Probable space group: P M C 21
;
_chemical_formula_sum "Si O2"
_cell_formula_units_Z 32
_cell_length_a 8.932460
_cell_length_b 12.202916
_cell_length_c 15.337466
_cell_angle_alpha 90.000000
_cell_angle_beta 90.000000
_cell_angle_gamma 90.000000
_cell_volume 1671.815375
_symmetry_space_group_name_H-M "P M C 21"
_symmetry_group_IT_number 26
_symmetry_cell_setting 'orthorhombic'
loop_
_space_group_symop_operation_xyz
x,y,z
-x,-y,1/2+z
-x,y,z
x,-y,1/2+z
loop_
_atom_site_type_symbol
_atom_site_label
_atom_site_fract_x
_atom_site_fract_y
_atom_site_fract_z
Si Si1 0.674217 0.464088 0.446200
Si Si2 0.178084 0.606093 0.295273
Si Si3 0.325783 0.535911 0.644346
Si Si4 0.170212 0.750774 0.692602
Si Si5 0.820129 0.999382 0.647954
Si Si6 0.829788 0.249226 0.397937
Si Si7 0.320629 0.152036 0.795272
Si Si8 0.179871 0.999381 0.942589
O O1 0.500000 0.477059 0.422823
O O2 0.770229 0.536488 0.379430
O O3 0.696487 0.499996 0.545274
O O4 0.722253 0.337795 0.439648
O O5 0.229772 0.536485 0.211119
O O6 0.255380 0.725117 0.295272
O O7 0.000000 0.618877 0.295273
O O8 0.500000 0.522943 0.667724
O O9 0.277746 0.662204 0.650891
O O10 0.214242 0.876570 0.680049
O O11 0.167312 0.727434 0.795270
O O12 0.000000 0.738300 0.658259
O O13 0.000000 0.016566 0.656644
O O14 0.738590 0.086529 0.709864
O O15 0.782804 0.000002 0.545271
O O16 0.785760 0.123430 0.410491
O O17 0.000000 0.261702 0.432281
O O18 0.500000 0.154735 0.795271
O O19 0.261411 0.086529 0.880680
O O20 0.000000 0.016567 0.933899
#
# Coordination Sequence:
#
# PCOD9338409 Si02
#       8
#     4   4   4   4   4   4   4   4
#     4  11  25  43  64  94 130 165 206 262 323 379
#     4  12  26  45  68  91 124 171 219 263 311 374
#     4  11  25  43  64  94 130 165 206 262 323 379
#     4  10  20  38  64  93 125 162 210 262 309 369
#     4  10  22  42  67  95 126 167 216 263 310 370
#     4  10  20  38  64  93 125 162 210 262 309 369
#     4  12  26  43  64  93 132 171 209 261 325 382
#     4  10  22  42  67  95 126 167 216 263 310 370
#
# _framework density 19.14087
#
# number of rings (size 3 to 8) (size 9 to 14) (size 15 to 20)
#    0.000    1.250    2.500    3.000    3.500    3.500 
#    0.000    0.000    0.000    0.000    0.000    0.000 
#    0.000    0.000    0.000    0.000    0.000    0.000 
#
# Total GULP energy -178860.252599 kJ/mol
# GULP energy per Si atom -5589.382894 kJ/mol
# Density = 1.909730 g / cm^3
# Si number density = 19.140870 Si / 1000 Ang^3
#
#
#
# Elastic Constant Matrix: (Units=GPa)
#
#
# Indices 1 2 3 4 5 6 
#
# 1 103.7470 54.1882 49.7773 0.0000 0.0000 0.0000
# 2 54.1882 88.7626 20.5729 0.0000 0.0000 0.0000
# 3 49.7773 20.5729 49.0213 0.0000 0.0000 0.0000
# 4 0.0000 0.0000 0.0000 31.1695 0.0000 0.0000
# 5 0.0000 0.0000 0.0000 0.0000 123.1023 0.0000
# 6 0.0000 0.0000 0.0000 0.0000 0.0000 99.1418
#
#
#
# Elastic Compliance Matrix: (Units=1/GPa)
#
#
# Indices 1 2 3 4 5 6 
#
# 1 0.025403 -0.010557 -0.021365 0.000000 0.000000 0.000000
# 2 -0.010557 0.016867 0.003641 0.000000 0.000000 0.000000
# 3 -0.021365 0.003641 0.040566 0.000000 0.000000 0.000000
# 4 0.000000 0.000000 0.000000 0.032083 0.000000 0.000000
# 5 0.000000 0.000000 0.000000 0.000000 0.008123 0.000000
# 6 0.000000 0.000000 0.000000 0.000000 0.000000 0.010087
#
#
# Mechanical properties :
#
#
# Convention : Reuss Voigt Hill
#
# Bulk Modulus (GPa) = 38.05942 54.51196 46.28569
# Shear Modulus (GPa) = 25.19553 58.48223 41.83888
#
# Velocity S-wave (km/s) = 3.63205 5.53353 4.68037
# Velocity P-wave (km/s) = 6.12504 8.32873 7.31040
#
# Compressibility (1/GPa) = 0.02627471
#
# Stress axis : x y z
#
# Youngs Moduli (GPa) = 39.36478 59.28819 24.65133
#
# Poissons Ratio (x) = 0.62588 0.52667
# Poissons Ratio (y) = 0.41556 -0.08975
# Poissons Ratio (z) = 0.84103 -0.21586
#
# Static dielectric constant tensor:
#      x y z
#    x 1.657640 0.000000 0.000000 
#    y 0.000000 1.640040 0.000000 
#    z 0.000000 0.000000 1.727560 
# 
# From -- ./inp_files/4257.got.cif
#   From: 2010.05.17/outbox.cif.g08.bks.cpg/sg26_3_cif.got.tgz:4257.got - 2010.06.04 01:07:29.
