data_PCOD9338839
_publ_section_title
;
Structure prediction by ZEFSAII (Michael W. Deem and Ramdas Pophale) SiO2 
 PCOD9338839
Probable space group: P C C 2
;
_chemical_formula_sum "Si O2"
_cell_formula_units_Z 22
_cell_length_a 5.080536
_cell_length_b 13.166483
_cell_length_c 16.215570
_cell_angle_alpha 90.000000
_cell_angle_beta 90.000000
_cell_angle_gamma 90.000000
_cell_volume 1084.704733
_symmetry_space_group_name_H-M "P C C 2"
_symmetry_group_IT_number 27
_symmetry_cell_setting 'orthorhombic'
loop_
_space_group_symop_operation_xyz
x,y,z
-x,-y,z
-x,y,1/2+z
x,-y,1/2+z
loop_
_atom_site_type_symbol
_atom_site_label
_atom_site_fract_x
_atom_site_fract_y
_atom_site_fract_z
Si Si1 0.515827 0.284593 0.065870
Si Si2 0.948845 0.883217 0.324571
Si Si3 0.144193 0.407791 0.776552
Si Si4 0.562880 0.760260 0.877067
Si Si5 0.032541 0.768792 0.668784
Si Si6 0.500000 0.500000 0.636583
O O1 0.789602 0.257571 0.109838
O O2 0.440471 0.402085 0.081974
O O3 0.291622 0.223096 0.114533
O O4 0.522389 0.264675 0.969375
O O5 0.659410 0.834796 0.339020
O O6 0.159842 0.819044 0.376601
O O7 0.014827 0.863823 0.228169
O O8 0.000000 0.000000 0.344864
O O9 0.362629 0.342407 0.826035
O O10 0.952250 0.323756 0.735787
O O11 0.275606 0.463474 0.698996
O O12 0.000000 0.500000 0.824184
#
# Coordination Sequence:
#
# PCOD9338839 Si02
#       6
#     4   4   4   4   4   2
#     4  11  22  40  58  93 135 162 208 263 327 371
#     4  11  23  46  69  91 119 170 223 272 332 399
#     4  10  20  37  60  89 128 173 218 249 308 387
#     4  11  25  40  64  99 133 163 212 279 329 385
#     4  10  21  40  64  87 123 167 213 264 309 387
#     4  10  20  36  60  84 128 178 214 244 296 386
#
# _framework density 20.282018999999998
#
# number of rings (size 3 to 8) (size 9 to 14) (size 15 to 20)
#    0.000    1.455    1.818    4.909    2.545    0.727 
#    6.545    5.455    0.000    0.000    0.000    0.000 
#    0.000    0.000    0.000    0.000    0.000    0.000 
#
# Total GULP energy -122771.201291 kJ/mol
# GULP energy per Si atom -5580.509150 kJ/mol
# Density = 2.023586 g / cm^3
# Si number density = 20.282019 Si / 1000 Ang^3
#
#
#
# Elastic Constant Matrix: (Units=GPa)
#
#
# Indices 1 2 3 4 5 6 
#
# 1 75.5487 31.8915 3.9546 0.0000 0.0000 0.0000
# 2 31.8915 91.4256 36.3495 0.0000 0.0000 0.0000
# 3 3.9546 36.3495 92.4277 0.0000 0.0000 0.0000
# 4 0.0000 0.0000 0.0000 -7.7204 0.0000 0.0000
# 5 0.0000 0.0000 0.0000 0.0000 28.0438 0.0000
# 6 0.0000 0.0000 0.0000 0.0000 0.0000 24.3058
#
#
#
# Elastic Compliance Matrix: (Units=1/GPa)
#
#
# Indices 1 2 3 4 5 6 
#
# 1 0.015761 -0.006199 0.001764 0.000000 0.000000 0.000000
# 2 -0.006199 0.015403 -0.005792 0.000000 0.000000 0.000000
# 3 0.001764 -0.005792 0.013022 0.000000 0.000000 0.000000
# 4 0.000000 0.000000 0.000000 -0.129526 0.000000 0.000000
# 5 0.000000 0.000000 0.000000 0.000000 0.035659 0.000000
# 6 0.000000 0.000000 0.000000 0.000000 0.000000 0.041142
#
#
# Mechanical properties :
#
#
# Convention : Reuss Voigt Hill
#
# Bulk Modulus (GPa) = 42.14034 44.86594 43.50314
# Shear Modulus (GPa) = 252.18596 21.40624 136.79610
#
# Velocity S-wave (km/s) = 11.16287 3.25226 8.22152
# Velocity P-wave (km/s) = 13.67364 6.02262 10.56505
#
# Compressibility (1/GPa) = 0.02373023
#
# Stress axis : x y z
#
# Youngs Moduli (GPa) = 63.44783 64.92146 76.79404
#
# Poissons Ratio (x) = 0.40245 -0.13543
# Poissons Ratio (y) = 0.39331 0.44483
# Poissons Ratio (z) = -0.11189 0.37606
#
# Static dielectric constant tensor:
#      x y z
#    x 1.770430 0.000000 0.000000 
#    y 0.000000 1.793160 0.000000 
#    z 0.000000 0.000000 1.694360 
# 
# From -- ./inp_files/3003.got.cif
#   From: 2010.05.17/outbox.cif.g08.bks.cpg/sg27_2_cif.got.tgz:3003.got - 2010.06.04 01:11:05.
