data_PCOD9338533
_publ_section_title
;
Structure prediction by ZEFSAII (Michael W. Deem and Ramdas Pophale) SiO2 
 PCOD9338533
Probable space group: P M C 21
;
_chemical_formula_sum "Si O2"
_cell_formula_units_Z 24
_cell_length_a 8.927397
_cell_length_b 12.163420
_cell_length_c 12.108686
_cell_angle_alpha 90.000000
_cell_angle_beta 90.000000
_cell_angle_gamma 90.000000
_cell_volume 1314.854111
_symmetry_space_group_name_H-M "P M C 21"
_symmetry_group_IT_number 26
_symmetry_cell_setting 'orthorhombic'
loop_
_space_group_symop_operation_xyz
x,y,z
-x,-y,1/2+z
-x,y,z
x,-y,1/2+z
loop_
_atom_site_type_symbol
_atom_site_label
_atom_site_fract_x
_atom_site_fract_y
_atom_site_fract_z
Si Si1 0.178332 0.215273 0.754250
Si Si2 0.679846 0.346359 0.347997
Si Si3 0.679434 0.720435 0.598100
Si Si4 0.821067 0.579078 0.406517
Si Si5 0.820948 0.078391 0.972378
Si Si6 0.321121 0.843668 0.022267
O O1 0.212390 0.333744 0.808566
O O2 0.212259 0.126732 0.850408
O O3 0.267486 0.191732 0.643536
O O4 0.000000 0.210520 0.731860
O O5 0.500000 0.363379 0.353258
O O6 0.717181 0.307789 0.224179
O O7 0.760884 0.459480 0.377569
O O8 0.719372 0.251363 0.435036
O O9 0.500000 0.725413 0.587319
O O10 0.744270 0.628167 0.515858
O O11 0.749597 0.835374 0.558189
O O12 0.000000 0.578735 0.421945
O O13 0.000000 0.078552 0.985849
O O14 0.755644 0.958078 0.989883
O O15 0.500000 0.857392 0.020412
#
# Coordination Sequence:
#
# PCOD9338533 Si02
#       6
#     4   4   4   4   4   4
#     4   9  21  41  61  87 119 155 198 245 297 353
#     4  10  24  41  59  89 123 157 199 245 295 352
#     4  10  21  40  64  89 120 158 200 246 298 354
#     4  10  22  40  63  90 120 157 200 246 299 354
#     4  10  22  41  63  89 120 156 200 247 299 354
#     4  11  24  39  60  90 122 157 199 245 296 353
#
# _framework density 18.252976
#
# number of rings (size 3 to 8) (size 9 to 14) (size 15 to 20)
#    0.000    2.000    0.000    3.000    4.667    6.667 
#    0.000    0.000    0.000    0.000    0.000    0.000 
#    0.000    0.000    0.000    0.000    0.000    0.000 
#
# Total GULP energy -134107.253444 kJ/mol
# GULP energy per Si atom -5587.802227 kJ/mol
# Density = 1.821143 g / cm^3
# Si number density = 18.252976 Si / 1000 Ang^3
#
#
#
# Elastic Constant Matrix: (Units=GPa)
#
#
# Indices 1 2 3 4 5 6 
#
# 1 71.4924 85.2548 82.3127 0.0000 0.0000 0.0000
# 2 85.2548 186.9916 120.1012 0.0000 0.0000 0.0000
# 3 82.3127 120.1012 156.3881 0.0000 0.0000 0.0000
# 4 0.0000 0.0000 0.0000 9.1767 0.0000 0.0000
# 5 0.0000 0.0000 0.0000 0.0000 23.9342 0.0000
# 6 0.0000 0.0000 0.0000 0.0000 0.0000 35.1627
#
#
#
# Elastic Compliance Matrix: (Units=1/GPa)
#
#
# Indices 1 2 3 4 5 6 
#
# 1 0.043400 -0.010095 -0.015090 0.000000 0.000000 0.000000
# 2 -0.010095 0.012901 -0.004594 0.000000 0.000000 0.000000
# 3 -0.015090 -0.004594 0.017865 0.000000 0.000000 0.000000
# 4 0.000000 0.000000 0.000000 0.108972 0.000000 0.000000
# 5 0.000000 0.000000 0.000000 0.000000 0.041781 0.000000
# 6 0.000000 0.000000 0.000000 0.000000 0.000000 0.028439
#
#
# Mechanical properties :
#
#
# Convention : Reuss Voigt Hill
#
# Bulk Modulus (GPa) = 68.45992 110.02329 89.24161
# Shear Modulus (GPa) = 15.73377 22.13496 18.93436
#
# Velocity S-wave (km/s) = 2.93914 3.48613 3.22425
# Velocity P-wave (km/s) = 7.00754 8.75282 7.92835
#
# Compressibility (1/GPa) = 0.01460709
#
# Stress axis : x y z
#
# Youngs Moduli (GPa) = 23.04138 77.51082 55.97421
#
# Poissons Ratio (x) = 0.78248 0.84467
# Poissons Ratio (y) = 0.23261 0.25717
# Poissons Ratio (z) = 0.34770 0.35612
#
# Static dielectric constant tensor:
#      x y z
#    x 1.609860 0.000000 0.000000 
#    y 0.000000 1.595550 0.000000 
#    z 0.000000 0.000000 1.602300 
# 
# From -- ./inp_files/2806.got.cif
#   From: 2010.05.17/outbox.cif.g08.bks.cpg/sg26_2_cif.got.tgz:2806.got - 2010.06.04 01:07:29.
