data_PCOD9338624
_publ_section_title
;
Structure prediction by ZEFSAII (Michael W. Deem and Ramdas Pophale) SiO2 
 PCOD9338624
Probable space group: P M C 21
;
_chemical_formula_sum "Si O2"
_cell_formula_units_Z 20
_cell_length_a 8.158434
_cell_length_b 12.755070
_cell_length_c 7.861202
_cell_angle_alpha 90.000000
_cell_angle_beta 90.000000
_cell_angle_gamma 90.000000
_cell_volume 818.047660
_symmetry_space_group_name_H-M "P M C 21"
_symmetry_group_IT_number 26
_symmetry_cell_setting 'orthorhombic'
loop_
_space_group_symop_operation_xyz
x,y,z
-x,-y,1/2+z
-x,y,z
x,-y,1/2+z
loop_
_atom_site_type_symbol
_atom_site_label
_atom_site_fract_x
_atom_site_fract_y
_atom_site_fract_z
Si Si1 0.184201 0.247973 0.073650
Si Si2 0.190850 0.650239 0.061519
Si Si3 0.747224 0.856620 0.929640
Si Si4 0.310159 0.438479 0.915130
Si Si5 0.190278 0.066380 0.808792
O O1 0.178204 0.190770 0.254730
O O2 0.000000 0.282869 0.032221
O O3 0.292799 0.351899 0.064179
O O4 0.233693 0.162812 0.931532
O O5 0.233682 0.617590 0.251942
O O6 0.000000 0.686111 0.049157
O O7 0.310242 0.743578 0.001605
O O8 0.215987 0.544878 0.955266
O O9 0.692775 0.968254 0.849951
O O10 0.809992 0.900744 0.112195
O O11 0.500000 0.462128 0.885590
O O12 0.000000 0.035165 0.849553
#
# Coordination Sequence:
#
# PCOD9338624 Si02
#       5
#     4   4   4   4   4
#     4  11  22  39  68 102 139 181 230 290 349 419
#     4  12  24  43  71 106 142 184 238 296 355 425
#     4  12  23  37  66 107 145 179 226 295 363 417
#     4  12  27  47  70 101 142 189 236 293 360 427
#     4  11  20  34  60 102 143 175 223 290 358 416
#
# _framework density 24.448456
#
# number of rings (size 3 to 8) (size 9 to 14) (size 15 to 20)
#    0.000    0.400    4.000    7.200    0.000    0.000 
#    0.000    1.000    0.000    6.000    0.000    0.000 
#    0.000    0.000    0.000    0.000    0.000    0.000 
#
# Total GULP energy -111467.507604 kJ/mol
# GULP energy per Si atom -5573.375380 kJ/mol
# Density = 2.439281 g / cm^3
# Si number density = 24.448456 Si / 1000 Ang^3
#
#
#
# Elastic Constant Matrix: (Units=GPa)
#
#
# Indices 1 2 3 4 5 6 
#
# 1 77.0789 27.5853 9.2021 0.0000 0.0000 0.0000
# 2 27.5853 167.2654 53.0310 0.0000 0.0000 0.0000
# 3 9.2021 53.0310 162.2070 0.0000 0.0000 0.0000
# 4 0.0000 0.0000 0.0000 63.7488 0.0000 0.0000
# 5 0.0000 0.0000 0.0000 0.0000 -27.0144 0.0000
# 6 0.0000 0.0000 0.0000 0.0000 0.0000 -167.8253
#
#
#
# Elastic Compliance Matrix: (Units=1/GPa)
#
#
# Indices 1 2 3 4 5 6 
#
# 1 0.013788 -0.002260 -0.000043 0.000000 0.000000 0.000000
# 2 -0.002260 0.007040 -0.002174 0.000000 0.000000 0.000000
# 3 -0.000043 -0.002174 0.006878 0.000000 0.000000 0.000000
# 4 0.000000 0.000000 0.000000 0.015687 0.000000 0.000000
# 5 0.000000 0.000000 0.000000 0.000000 -0.037017 0.000000
# 6 0.000000 0.000000 0.000000 0.000000 0.000000 -0.005959
#
#
# Mechanical properties :
#
#
# Convention : Reuss Voigt Hill
#
# Bulk Modulus (GPa) = 53.32687 65.13202 59.22944
# Shear Modulus (GPa) = 320.07237 -5.10266 157.48486
#
# Velocity S-wave (km/s) = 11.45432 -1.44625 8.03461
# Velocity P-wave (km/s) = 14.02835 4.88974 10.50486
#
# Compressibility (1/GPa) = 0.01875227
#
# Stress axis : x y z
#
# Youngs Moduli (GPa) = 72.52808 142.03789 145.39079
#
# Poissons Ratio (x) = 0.32103 0.00629
# Poissons Ratio (y) = 0.16392 0.31601
# Poissons Ratio (z) = 0.00314 0.30872
#
# Static dielectric constant tensor:
#      x y z
#    x 1.920150 0.000000 0.000000 
#    y 0.000000 1.918020 0.000000 
#    z 0.000000 0.000000 1.933510 
# 
# From -- ./inp_files/1291.got.cif
#   From: 2010.05.17/outbox.cif.g08.bks.cpg/sg26_1_cif.got.tgz:1291.got - 2010.06.04 01:07:29.
