data_PCOD9338630
_publ_section_title
;
Structure prediction by ZEFSAII (Michael W. Deem and Ramdas Pophale) SiO2 
 PCOD9338630
Probable space group: P M C 21
;
_chemical_formula_sum "Si O2"
_cell_formula_units_Z 24
_cell_length_a 14.095102
_cell_length_b 9.735565
_cell_length_c 8.393459
_cell_angle_alpha 90.000000
_cell_angle_beta 90.000000
_cell_angle_gamma 90.000000
_cell_volume 1151.782186
_symmetry_space_group_name_H-M "P M C 21"
_symmetry_group_IT_number 26
_symmetry_cell_setting 'orthorhombic'
loop_
_space_group_symop_operation_xyz
x,y,z
-x,-y,1/2+z
-x,y,z
x,-y,1/2+z
loop_
_atom_site_type_symbol
_atom_site_label
_atom_site_fract_x
_atom_site_fract_y
_atom_site_fract_z
Si Si1 0.689769 0.419610 0.056530
Si Si2 0.391965 0.665999 0.884174
Si Si3 0.895380 0.536669 0.533740
Si Si4 0.699889 0.174306 0.834224
Si Si5 0.894840 0.283516 0.719818
Si Si6 0.609584 0.953624 0.028958
O O1 0.626056 0.377541 0.203686
O O2 0.799582 0.401876 0.107530
O O3 0.672762 0.574566 0.999604
O O4 0.672583 0.323078 0.903498
O O5 0.500000 0.635414 0.930454
O O6 0.377944 0.827768 0.905988
O O7 0.887771 0.372565 0.558225
O O8 0.892601 0.596091 0.354937
O O9 0.000000 0.576269 0.596881
O O10 0.805787 0.188405 0.761948
O O11 0.632052 0.115032 0.698274
O O12 0.683294 0.071712 0.982043
O O13 0.000000 0.218899 0.727574
O O14 0.500000 0.002011 0.024413
#
# Coordination Sequence:
#
# PCOD9338630 Si02
#       6
#     4   4   4   4   4   4
#     4  11  21  36  59  87 117 148 188 241 292 340
#     4  11  23  37  56  84 116 149 189 237 293 351
#     4   9  17  31  54  84 116 147 180 221 274 337
#     4  11  23  39  60  83 113 151 196 244 289 347
#     4   9  18  34  58  88 120 153 188 231 286 347
#     4  11  24  41  59  80 110 154 201 242 294 356
#
# _framework density 20.837271999999999
#
# number of rings (size 3 to 8) (size 9 to 14) (size 15 to 20)
#    0.000    1.667    0.000    6.000    0.000    5.333 
#    0.000    0.833    0.000    4.000    0.000    0.000 
#    0.000    0.000    0.000    0.000    0.000    0.000 
#
# Total GULP energy -133894.800823 kJ/mol
# GULP energy per Si atom -5578.950034 kJ/mol
# Density = 2.078985 g / cm^3
# Si number density = 20.837272 Si / 1000 Ang^3
#
#
#
# Elastic Constant Matrix: (Units=GPa)
#
#
# Indices 1 2 3 4 5 6 
#
# 1 103.6170 40.0708 15.5362 0.0000 0.0000 0.0000
# 2 40.0708 46.2869 0.8225 0.0000 0.0000 0.0000
# 3 15.5362 0.8225 25.1323 0.0000 0.0000 0.0000
# 4 0.0000 0.0000 0.0000 39.4136 0.0000 0.0000
# 5 0.0000 0.0000 0.0000 0.0000 25.7338 0.0000
# 6 0.0000 0.0000 0.0000 0.0000 0.0000 29.4197
#
#
#
# Elastic Compliance Matrix: (Units=1/GPa)
#
#
# Indices 1 2 3 4 5 6 
#
# 1 0.016617 -0.014211 -0.009807 0.000000 0.000000 0.000000
# 2 -0.014211 0.033771 0.007680 0.000000 0.000000 0.000000
# 3 -0.009807 0.007680 0.045601 0.000000 0.000000 0.000000
# 4 0.000000 0.000000 0.000000 0.025372 0.000000 0.000000
# 5 0.000000 0.000000 0.000000 0.000000 0.038859 0.000000
# 6 0.000000 0.000000 0.000000 0.000000 0.000000 0.033991
#
#
# Mechanical properties :
#
#
# Convention : Reuss Voigt Hill
#
# Bulk Modulus (GPa) = 15.79501 31.98835 23.89168
# Shear Modulus (GPa) = 20.16195 26.82054 23.49125
#
# Velocity S-wave (km/s) = 3.11399 3.59157 3.36127
# Velocity P-wave (km/s) = 4.53055 5.70824 5.15315
#
# Compressibility (1/GPa) = 0.06331112
#
# Stress axis : x y z
#
# Youngs Moduli (GPa) = 60.17858 29.61148 21.92950
#
# Poissons Ratio (x) = 0.42082 0.21507
# Poissons Ratio (y) = 0.85522 -0.16841
# Poissons Ratio (z) = 0.59019 -0.22741
#
# Static dielectric constant tensor:
#      x y z
#    x 1.756050 0.000000 0.000000 
#    y 0.000000 1.752990 0.000000 
#    z 0.000000 0.000000 1.811360 
# 
# From -- ./inp_files/2109.got.cif
#   From: 2010.05.17/outbox.cif.g08.bks.cpg/sg26_2_cif.got.tgz:2109.got - 2010.06.04 01:07:29.
