data_PCOD9338764
_publ_section_title
;
Structure prediction by ZEFSAII (Michael W. Deem and Ramdas Pophale) SiO2 
 PCOD9338764
Probable space group: P C C 2
;
_chemical_formula_sum "Si O2"
_cell_formula_units_Z 28
_cell_length_a 13.372782
_cell_length_b 5.085539
_cell_length_c 22.163075
_cell_angle_alpha 90.000000
_cell_angle_beta 90.000000
_cell_angle_gamma 90.000000
_cell_volume 1507.262069
_symmetry_space_group_name_H-M "P C C 2"
_symmetry_group_IT_number 27
_symmetry_cell_setting 'orthorhombic'
loop_
_space_group_symop_operation_xyz
x,y,z
-x,-y,z
-x,y,1/2+z
x,-y,1/2+z
loop_
_atom_site_type_symbol
_atom_site_label
_atom_site_fract_x
_atom_site_fract_y
_atom_site_fract_z
Si Si1 0.879110 0.520274 0.382830
Si Si2 0.883251 0.580514 0.019058
Si Si3 0.220663 0.095027 0.564854
Si Si4 0.119987 0.019560 0.806630
Si Si5 0.433994 0.261250 0.556855
Si Si6 0.606842 0.597647 0.695757
Si Si7 0.267889 0.915693 0.700886
O O1 0.845100 0.476908 0.451144
O O2 0.851675 0.800330 0.355895
O O3 0.000000 0.500000 0.385547
O O4 0.849518 0.296808 0.335350
O O5 0.831567 0.378456 0.065016
O O6 0.000000 0.500000 0.020703
O O7 0.851373 0.878921 0.033801
O O8 0.327255 0.155930 0.532421
O O9 0.241801 0.983627 0.631609
O O10 0.174744 0.962659 0.744298
O O11 0.000000 0.000000 0.798805
O O12 0.500000 0.500000 0.528423
O O13 0.406089 0.369325 0.623407
O O14 0.500000 0.000000 0.563374
O O15 0.500000 0.500000 0.719413
O O16 0.689455 0.375971 0.706291
O O17 0.645244 0.877275 0.718712
#
# Coordination Sequence:
#
# PCOD9338764 Si02
#       7
#     4   4   4   4   4   4   4
#     4   9  19  36  55  73  95 134 189 228 245 279
#     4  11  22  36  54  77 108 143 179 218 257 307
#     4  11  21  34  52  82 113 139 170 209 269 331
#     4  10  20  35  54  76 104 137 174 216 255 299
#     4  10  18  32  52  75 105 139 176 217 257 305
#     4  10  18  32  51  74 105 138 173 212 252 301
#     4  11  21  33  51  81 112 136 167 206 263 328
#
# _framework density 18.576730000000001
#
# number of rings (size 3 to 8) (size 9 to 14) (size 15 to 20)
#    0.000    1.714    0.000    8.571    0.000    3.429 
#    0.000    1.429    0.000    0.000    0.000   35.000 
#    0.000    0.000    0.000    0.000    0.000    0.000 
#
# Total GULP energy -156100.647902 kJ/mol
# GULP energy per Si atom -5575.023139 kJ/mol
# Density = 1.853445 g / cm^3
# Si number density = 18.576730 Si / 1000 Ang^3
#
#
#
# Elastic Constant Matrix: (Units=GPa)
#
#
# Indices 1 2 3 4 5 6 
#
# 1 71.5322 16.6695 10.1210 0.0000 0.0000 0.0000
# 2 16.6695 85.0983 -3.8407 0.0000 0.0000 0.0000
# 3 10.1210 -3.8407 33.7102 0.0000 0.0000 0.0000
# 4 0.0000 0.0000 0.0000 7.5473 0.0000 0.0000
# 5 0.0000 0.0000 0.0000 0.0000 -4.6298 0.0000
# 6 0.0000 0.0000 0.0000 0.0000 0.0000 35.2904
#
#
#
# Elastic Compliance Matrix: (Units=1/GPa)
#
#
# Indices 1 2 3 4 5 6 
#
# 1 0.015446 -0.003252 -0.005008 0.000000 0.000000 0.000000
# 2 -0.003252 0.012496 0.002400 0.000000 0.000000 0.000000
# 3 -0.005008 0.002400 0.031442 0.000000 0.000000 0.000000
# 4 0.000000 0.000000 0.000000 0.132498 0.000000 0.000000
# 5 0.000000 0.000000 0.000000 0.000000 -0.215990 0.000000
# 6 0.000000 0.000000 0.000000 0.000000 0.000000 0.028336
#
#
# Mechanical properties :
#
#
# Convention : Reuss Voigt Hill
#
# Bulk Modulus (GPa) = 20.97981 26.24892 23.61437
# Shear Modulus (GPa) = 157.06012 18.80098 87.93055
#
# Velocity S-wave (km/s) = 9.20490 3.18476 6.88741
# Velocity P-wave (km/s) = 11.14862 5.26158 8.71711
#
# Compressibility (1/GPa) = 0.04766486
#
# Stress axis : x y z
#
# Youngs Moduli (GPa) = 64.74150 80.02317 31.80500
#
# Poissons Ratio (x) = 0.26021 0.15928
# Poissons Ratio (y) = 0.21052 -0.07633
# Poissons Ratio (z) = 0.32422 -0.19206
#
# Static dielectric constant tensor:
#      x y z
#    x 1.693510 0.000000 0.000000 
#    y 0.000000 1.647190 0.000000 
#    z 0.000000 0.000000 1.621200 
# 
# From -- ./inp_files/4665.got.cif
#   From: 2010.05.17/outbox.cif.g08.bks.cpg/sg27_3_cif.got.tgz:4665.got - 2010.06.04 01:11:05.
