data_PCOD9338088
_publ_section_title
;
Structure prediction by ZEFSAII (Michael W. Deem and Ramdas Pophale) SiO2 
 PCOD9338088
Probable space group: P M C 21
;
_chemical_formula_sum "Si O2"
_cell_formula_units_Z 32
_cell_length_a 7.306571
_cell_length_b 8.292229
_cell_length_c 19.646908
_cell_angle_alpha 90.000000
_cell_angle_beta 90.000000
_cell_angle_gamma 90.000000
_cell_volume 1190.362145
_symmetry_space_group_name_H-M "P M C 21"
_symmetry_group_IT_number 26
_symmetry_cell_setting 'orthorhombic'
loop_
_space_group_symop_operation_xyz
x,y,z
-x,-y,1/2+z
-x,y,z
x,-y,1/2+z
loop_
_atom_site_type_symbol
_atom_site_label
_atom_site_fract_x
_atom_site_fract_y
_atom_site_fract_z
Si Si1 0.775462 0.685356 0.842660
Si Si2 0.791260 0.010108 0.259223
Si Si3 0.222859 0.303449 0.089311
Si Si4 0.221570 0.509523 0.714176
Si Si5 0.710728 0.806658 0.383419
Si Si6 0.792104 0.490447 0.468616
Si Si7 0.220166 0.983258 0.009107
Si Si8 0.224522 0.191728 0.635884
O O1 0.711457 0.845274 0.804015
O O2 0.722511 0.541755 0.791060
O O3 0.711771 0.643753 0.918450
O O4 0.000000 0.691916 0.847137
O O5 0.000000 0.059993 0.244482
O O6 0.792962 0.858741 0.311377
O O7 0.715786 0.950127 0.187572
O O8 0.275417 0.340595 0.166064
O O9 0.276159 0.136780 0.055401
O O10 0.000000 0.305115 0.087127
O O11 0.287953 0.446106 0.039072
O O12 0.284018 0.353034 0.673826
O O13 0.000000 0.503248 0.715407
O O14 0.500000 0.767480 0.373399
O O15 0.797948 0.655073 0.422652
O O16 0.721810 0.961895 0.434191
O O17 0.000000 0.439469 0.484154
O O18 0.000000 0.974883 0.004521
O O19 0.279780 0.836193 0.057625
O O20 0.000000 0.191125 0.636027
#
# Coordination Sequence:
#
# PCOD9338088 Si02
#       8
#     4   4   4   4   4   4   4   4
#     4   9  17  28  48  75 102 130 164 206 255 302
#     4  10  19  33  53  79 107 136 170 212 256 305
#     4   8  14  24  41  64  94 124 153 193 245 296
#     4   9  15  24  41  72 105 127 154 203 257 305
#     4  11  22  35  51  74 103 140 177 211 253 304
#     4   9  17  32  52  74  97 127 167 213 257 300
#     4   9  17  32  52  74  99 131 168 211 258 306
#     4   9  17  28  49  78 105 131 165 209 259 306
#
# _framework density 26.882576
#
# number of rings (size 3 to 8) (size 9 to 14) (size 15 to 20)
#    0.000    2.750    0.000    3.375    0.000    6.000 
#    0.000    5.000    0.000    0.000    0.000   14.000 
#    0.000    0.000    0.000    0.000    0.000    0.000 
#
# Total GULP energy -178952.341744 kJ/mol
# GULP energy per Si atom -5592.260680 kJ/mol
# Density = 2.682139 g / cm^3
# Si number density = 26.882576 Si / 1000 Ang^3
#
#
#
# Elastic Constant Matrix: (Units=GPa)
#
#
# Indices 1 2 3 4 5 6 
#
# 1 118.0890 -5.4800 -6.0044 0.0000 0.0000 0.0000
# 2 -5.4800 78.2547 9.8320 0.0000 0.0000 0.0000
# 3 -6.0044 9.8320 161.5394 0.0000 0.0000 0.0000
# 4 0.0000 0.0000 0.0000 54.6782 0.0000 0.0000
# 5 0.0000 0.0000 0.0000 0.0000 214.9760 0.0000
# 6 0.0000 0.0000 0.0000 0.0000 0.0000 -30.6891
#
#
#
# Elastic Compliance Matrix: (Units=1/GPa)
#
#
# Indices 1 2 3 4 5 6 
#
# 1 0.008509 0.000560 0.000282 0.000000 0.000000 0.000000
# 2 0.000560 0.012914 -0.000765 0.000000 0.000000 0.000000
# 3 0.000282 -0.000765 0.006247 0.000000 0.000000 0.000000
# 4 0.000000 0.000000 0.000000 0.018289 0.000000 0.000000
# 5 0.000000 0.000000 0.000000 0.000000 0.004652 0.000000
# 6 0.000000 0.000000 0.000000 0.000000 0.000000 -0.032585
#
#
# Mechanical properties :
#
#
# Convention : Reuss Voigt Hill
#
# Bulk Modulus (GPa) = 35.93901 39.39759 37.66830
# Shear Modulus (GPa) = 184.18827 71.76206 127.97516
#
# Velocity S-wave (km/s) = 8.28641 5.17229 6.90714
# Velocity P-wave (km/s) = 10.24455 7.09629 8.81215
#
# Compressibility (1/GPa) = 0.02782491
#
# Stress axis : x y z
#
# Youngs Moduli (GPa) = 117.52898 77.43437 160.06405
#
# Poissons Ratio (x) = -0.04339 -0.04516
# Poissons Ratio (y) = -0.06586 0.12248
# Poissons Ratio (z) = -0.03316 0.05925
#
# Static dielectric constant tensor:
#      x y z
#    x 1.933190 0.000000 0.000000 
#    y 0.000000 2.173040 0.000000 
#    z 0.000000 0.000000 2.009350 
# 
# From -- ./inp_files/5340.got.cif
#   From: 2010.05.17/outbox.cif.g08.bks.cpg/sg26_3_cif.got.tgz:5340.got - 2010.06.04 01:07:29.
