data_PCOD9338841
_publ_section_title
;
Structure prediction by ZEFSAII (Michael W. Deem and Ramdas Pophale) SiO2 
 PCOD9338841
Probable space group: P C C 2
;
_chemical_formula_sum "Si O2"
_cell_formula_units_Z 26
_cell_length_a 10.453713
_cell_length_b 12.052881
_cell_length_c 8.773257
_cell_angle_alpha 90.000000
_cell_angle_beta 90.000000
_cell_angle_gamma 90.000000
_cell_volume 1105.407210
_symmetry_space_group_name_H-M "P C C 2"
_symmetry_group_IT_number 27
_symmetry_cell_setting 'orthorhombic'
loop_
_space_group_symop_operation_xyz
x,y,z
-x,-y,z
-x,y,1/2+z
x,-y,1/2+z
loop_
_atom_site_type_symbol
_atom_site_label
_atom_site_fract_x
_atom_site_fract_y
_atom_site_fract_z
Si Si1 0.500000 0.500000 0.482250
Si Si2 0.688851 0.937175 0.581973
Si Si3 0.673265 0.417007 0.240520
Si Si4 0.125508 0.776944 0.219407
Si Si5 0.833872 0.617243 0.201109
Si Si6 0.500000 0.000000 0.825476
Si Si7 0.848105 0.164239 0.572809
Si Si8 0.000000 0.500000 0.441324
O O1 0.578937 0.409938 0.382711
O O2 0.407997 0.425354 0.587722
O O3 0.787631 0.839466 0.595911
O O4 0.585491 0.924047 0.716694
O O5 0.604223 0.942137 0.431781
O O6 0.773774 0.049714 0.602636
O O7 0.799137 0.340340 0.231295
O O8 0.722356 0.541583 0.260407
O O9 0.134503 0.826539 0.390504
O O10 0.983871 0.804630 0.155328
O O11 0.774558 0.732368 0.146259
O O12 0.939337 0.597318 0.335388
O O13 0.898587 0.559534 0.052431
#
# Coordination Sequence:
#
# PCOD9338841 Si02
#       8
#     2   4   4   4   4   2   4   2
#     4  10  24  46  66  98 142 180 242 290 336 414
#     4  11  25  49  73 104 135 180 238 286 352 409
#     4  11  24  45  66 101 135 185 233 286 348 405
#     4  12  27  45  72 102 143 183 229 292 355 416
#     4  11  21  40  63  96 136 176 224 272 343 415
#     4  10  24  52  74  98 134 184 240 286 336 420
#     4  12  26  44  69 107 144 182 229 289 353 418
#     4  10  20  36  64  96 134 176 222 272 334 430
#
# _framework density 23.520745000000002
#
# number of rings (size 3 to 8) (size 9 to 14) (size 15 to 20)
#    0.000    0.923    1.538    6.000    2.154    3.692 
#   11.077    0.000    0.000    0.000    0.000    0.000 
#    0.000    0.000    0.000    0.000    0.000    0.000 
#
# Total GULP energy -145137.313233 kJ/mol
# GULP energy per Si atom -5582.204355 kJ/mol
# Density = 2.346721 g / cm^3
# Si number density = 23.520745 Si / 1000 Ang^3
#
#
#
# Elastic Constant Matrix: (Units=GPa)
#
#
# Indices 1 2 3 4 5 6 
#
# 1 106.9572 17.7522 28.1376 0.0000 0.0000 0.0000
# 2 17.7522 38.1338 -12.9134 0.0000 0.0000 0.0000
# 3 28.1376 -12.9134 105.6190 0.0000 0.0000 0.0000
# 4 0.0000 0.0000 0.0000 -1.9136 0.0000 0.0000
# 5 0.0000 0.0000 0.0000 0.0000 23.1245 0.0000
# 6 0.0000 0.0000 0.0000 0.0000 0.0000 6.3892
#
#
#
# Elastic Compliance Matrix: (Units=1/GPa)
#
#
# Indices 1 2 3 4 5 6 
#
# 1 0.011471 -0.006650 -0.003869 0.000000 0.000000 0.000000
# 2 -0.006650 0.031211 0.005588 0.000000 0.000000 0.000000
# 3 -0.003869 0.005588 0.011182 0.000000 0.000000 0.000000
# 4 0.000000 0.000000 0.000000 -0.522567 0.000000 0.000000
# 5 0.000000 0.000000 0.000000 0.000000 0.043244 0.000000
# 6 0.000000 0.000000 0.000000 0.000000 0.000000 0.156514
#
#
# Mechanical properties :
#
#
# Convention : Reuss Voigt Hill
#
# Bulk Modulus (GPa) = 22.72664 35.18476 28.95570
# Shear Modulus (GPa) = -20.45706 20.03560 -0.21073
#
# Velocity S-wave (km/s) = -2.95234 2.92177 -0.29965
# Velocity P-wave (km/s) = 1.39227 5.13555 3.49538
#
# Compressibility (1/GPa) = 0.04400123
#
# Stress axis : x y z
#
# Youngs Moduli (GPa) = 87.17512 32.03951 89.43014
#
# Poissons Ratio (x) = 0.21307 0.34601
# Poissons Ratio (y) = 0.57974 -0.49971
# Poissons Ratio (z) = 0.33729 -0.17903
#
# Static dielectric constant tensor:
#      x y z
#    x 2.104860 0.000000 0.000000 
#    y 0.000000 1.953280 0.000000 
#    z 0.000000 0.000000 1.915920 
# 
# From -- ./inp_files/1418.got.cif
#   From: 2010.05.17/outbox.cif.g08.bks.cpg/sg27_1_cif.got.tgz:1418.got - 2010.06.04 01:11:05.
