data_PCOD9338303
_publ_section_title
;
Structure prediction by ZEFSAII (Michael W. Deem and Ramdas Pophale) SiO2 
 PCOD9338303
Probable space group: P M C 21
;
_chemical_formula_sum "Si O2"
_cell_formula_units_Z 26
_cell_length_a 12.119285
_cell_length_b 8.352483
_cell_length_c 12.894460
_cell_angle_alpha 90.000000
_cell_angle_beta 90.000000
_cell_angle_gamma 90.000000
_cell_volume 1305.256180
_symmetry_space_group_name_H-M "P M C 21"
_symmetry_group_IT_number 26
_symmetry_cell_setting 'orthorhombic'
loop_
_space_group_symop_operation_xyz
x,y,z
-x,-y,1/2+z
-x,y,z
x,-y,1/2+z
loop_
_atom_site_type_symbol
_atom_site_label
_atom_site_fract_x
_atom_site_fract_y
_atom_site_fract_z
Si Si1 0.316633 0.518495 0.280830
Si Si2 0.129807 0.927896 0.106383
Si Si3 0.262942 0.208043 0.190936
Si Si4 0.500000 0.282514 0.659259
Si Si5 0.125938 0.742326 0.319757
Si Si6 0.500000 0.680630 0.908037
Si Si7 0.500000 0.086076 0.227926
Si Si8 0.873024 0.903200 0.885386
O O1 0.258211 0.398110 0.199004
O O2 0.395116 0.632298 0.212824
O O3 0.221741 0.616226 0.340003
O O4 0.394792 0.417243 0.360000
O O5 0.195410 0.093412 0.115665
O O6 0.000000 0.966150 0.105892
O O7 0.148348 0.814462 0.204564
O O8 0.155391 0.841949 0.998926
O O9 0.390289 0.162413 0.180660
O O10 0.213065 0.154306 0.301683
O O11 0.500000 0.300680 0.533144
O O12 0.500000 0.099833 0.699643
O O13 0.130388 0.903459 0.387799
O O14 0.000000 0.679582 0.323956
O O15 0.500000 0.853172 0.848163
O O16 0.000000 0.860644 0.856990
#
# Coordination Sequence:
#
# PCOD9338303 Si02
#       8
#     4   4   4   2   4   2   2   4
#     4  10  22  37  55  86 116 143 185 222 277 355
#     4   9  18  34  56  80 105 142 191 230 267 320
#     4  10  20  35  53  77 111 140 176 228 275 323
#     4  11  21  41  64  78 112 151 181 235 286 320
#     4   9  18  33  53  79 112 146 181 226 274 321
#     4   9  23  43  60  82 112 147 185 233 280 330
#     4  10  22  38  58  84 104 140 198 230 266 338
#     4   9  18  34  56  79 105 144 191 230 267 318
#
# _framework density 19.919460999999998
#
# number of rings (size 3 to 8) (size 9 to 14) (size 15 to 20)
#    0.000    2.462    0.000    3.692    0.000    7.385 
#    0.000    6.154    0.000    6.462    0.000    0.000 
#    0.000    0.000    0.000    0.000    0.000    0.000 
#
# Total GULP energy -144882.468832 kJ/mol
# GULP energy per Si atom -5572.402647 kJ/mol
# Density = 1.987412 g / cm^3
# Si number density = 19.919461 Si / 1000 Ang^3
#
#
#
# Elastic Constant Matrix: (Units=GPa)
#
#
# Indices 1 2 3 4 5 6 
#
# 1 69.7433 14.9526 16.5455 0.0000 0.0000 0.0000
# 2 14.9526 60.8538 0.2959 0.0000 0.0000 0.0000
# 3 16.5455 0.2959 90.4815 0.0000 0.0000 0.0000
# 4 0.0000 0.0000 0.0000 8.0821 0.0000 0.0000
# 5 0.0000 0.0000 0.0000 0.0000 1.4067 0.0000
# 6 0.0000 0.0000 0.0000 0.0000 0.0000 4.9120
#
#
#
# Elastic Compliance Matrix: (Units=1/GPa)
#
#
# Indices 1 2 3 4 5 6 
#
# 1 0.015855 -0.003882 -0.002887 0.000000 0.000000 0.000000
# 2 -0.003882 0.017383 0.000653 0.000000 0.000000 0.000000
# 3 -0.002887 0.000653 0.011578 0.000000 0.000000 0.000000
# 4 0.000000 0.000000 0.000000 0.123731 0.000000 0.000000
# 5 0.000000 0.000000 0.000000 0.000000 0.710892 0.000000
# 6 0.000000 0.000000 0.000000 0.000000 0.000000 0.203585
#
#
# Mechanical properties :
#
#
# Convention : Reuss Voigt Hill
#
# Bulk Modulus (GPa) = 30.68843 31.62961 31.15902
# Shear Modulus (GPa) = 4.52032 15.49911 10.00972
#
# Velocity S-wave (km/s) = 1.50805 2.79245 2.24410
# Velocity P-wave (km/s) = 4.29791 5.12935 4.73193
#
# Compressibility (1/GPa) = 0.03258557
#
# Stress axis : x y z
#
# Youngs Moduli (GPa) = 63.07019 57.52596 86.37290
#
# Poissons Ratio (x) = 0.22331 0.24933
# Poissons Ratio (y) = 0.24483 -0.05640
# Poissons Ratio (z) = 0.18206 -0.03756
#
# Static dielectric constant tensor:
#      x y z
#    x 1.718070 0.000000 0.000000 
#    y 0.000000 1.714000 0.000000 
#    z 0.000000 0.000000 1.744040 
# 
# From -- ./inp_files/4496.got.cif
#   From: 2010.05.17/outbox.cif.g08.bks.cpg/sg26_3_cif.got.tgz:4496.got - 2010.06.04 01:07:29.
