data_PCOD9338930
_publ_section_title
;
Structure prediction by ZEFSAII (Michael W. Deem and Ramdas Pophale) SiO2 
 PCOD9338930
Probable space group: P C C 2
;
_chemical_formula_sum "Si O2"
_cell_formula_units_Z 30
_cell_length_a 4.852589
_cell_length_b 20.347211
_cell_length_c 13.106137
_cell_angle_alpha 90.000000
_cell_angle_beta 90.000000
_cell_angle_gamma 90.000000
_cell_volume 1294.056092
_symmetry_space_group_name_H-M "P C C 2"
_symmetry_group_IT_number 27
_symmetry_cell_setting 'orthorhombic'
loop_
_space_group_symop_operation_xyz
x,y,z
-x,-y,z
-x,y,1/2+z
x,-y,1/2+z
loop_
_atom_site_type_symbol
_atom_site_label
_atom_site_fract_x
_atom_site_fract_y
_atom_site_fract_z
Si Si1 0.857805 0.431421 0.618970
Si Si2 0.791357 0.939674 0.634876
Si Si3 0.279640 0.866469 0.717644
Si Si4 0.072429 0.342368 0.946362
Si Si5 0.148944 0.142089 0.452185
Si Si6 0.500000 0.500000 0.450691
Si Si7 0.605033 0.384112 0.824673
Si Si8 0.638346 0.214437 0.532159
O O1 0.034389 0.381783 0.548503
O O2 0.660347 0.454236 0.528046
O O3 0.686809 0.395786 0.707695
O O4 0.000000 0.500000 0.654282
O O5 0.490593 0.924898 0.682010
O O6 0.776508 0.924119 0.514558
O O7 0.971233 0.881099 0.681307
O O8 0.000000 0.000000 0.653429
O O9 0.251874 0.862196 0.837546
O O10 0.354442 0.801932 0.652578
O O11 0.290964 0.371997 0.861078
O O12 0.238482 0.282383 0.995325
O O13 0.803622 0.331152 0.877264
O O14 0.326688 0.200500 0.501424
O O15 0.830397 0.159824 0.473612
O O16 0.319248 0.453920 0.378452
#
# Coordination Sequence:
#
# PCOD9338930 Si02
#       8
#     4   4   4   4   4   2   4   4
#     4  11  24  40  64  88 118 160 198 248 324 394
#     4  10  21  38  61  97 135 164 211 260 306 365
#     4  10  21  39  64  92 125 176 213 254 313 368
#     4  11  25  43  59  95 121 157 207 267 312 376
#     4  10  21  40  65  92 123 176 212 256 316 366
#     4  10  22  42  60  88 116 158 192 250 302 398
#     4  11  25  39  64  87 121 155 202 248 318 385
#     4  10  22  40  63  87 127 160 216 268 309 367
#
# _framework density 23.182919999999999
#
# number of rings (size 3 to 8) (size 9 to 14) (size 15 to 20)
#    0.000    1.600    1.333    2.400    5.600    2.667 
#    0.000    4.000    0.000    0.000    0.000    0.000 
#    0.000    0.000    0.000    0.000    0.000    0.000 
#
# Total GULP energy -167141.766360 kJ/mol
# GULP energy per Si atom -5571.392212 kJ/mol
# Density = 2.313015 g / cm^3
# Si number density = 23.182920 Si / 1000 Ang^3
#
#
#
# Elastic Constant Matrix: (Units=GPa)
#
#
# Indices 1 2 3 4 5 6 
#
# 1 97.2658 -6.3602 1.7059 0.0000 0.0000 0.0000
# 2 -6.3602 14.3656 -17.9230 0.0000 0.0000 0.0000
# 3 1.7059 -17.9230 111.1187 0.0000 0.0000 0.0000
# 4 0.0000 0.0000 0.0000 0.6024 0.0000 0.0000
# 5 0.0000 0.0000 0.0000 0.0000 26.5912 0.0000
# 6 0.0000 0.0000 0.0000 0.0000 0.0000 26.1427
#
#
#
# Elastic Compliance Matrix: (Units=1/GPa)
#
#
# Indices 1 2 3 4 5 6 
#
# 1 0.010637 0.005641 0.000747 0.000000 0.000000 0.000000
# 2 0.005641 0.090140 0.014453 0.000000 0.000000 0.000000
# 3 0.000747 0.014453 0.011319 0.000000 0.000000 0.000000
# 4 0.000000 0.000000 0.000000 1.660113 0.000000 0.000000
# 5 0.000000 0.000000 0.000000 0.000000 0.037606 0.000000
# 6 0.000000 0.000000 0.000000 0.000000 0.000000 0.038252
#
#
# Mechanical properties :
#
#
# Convention : Reuss Voigt Hill
#
# Bulk Modulus (GPa) = 6.50299 19.73283 13.11791
# Shear Modulus (GPa) = 2.69158 27.02241 14.85699
#
# Velocity S-wave (km/s) = 1.07867 3.41782 2.53427
# Velocity P-wave (km/s) = 2.08867 4.90974 3.77281
#
# Compressibility (1/GPa) = 0.15377548
#
# Stress axis : x y z
#
# Youngs Moduli (GPa) = 94.01271 11.09387 88.34648
#
# Poissons Ratio (x) = -0.06258 -0.06595
# Poissons Ratio (y) = -0.53030 -1.27683
# Poissons Ratio (z) = -0.07018 -0.16034
#
# Static dielectric constant tensor:
#      x y z
#    x 1.939320 0.000000 0.000000 
#    y 0.000000 2.240820 0.000000 
#    z 0.000000 0.000000 1.887880 
# 
# From -- ./inp_files/2114.got.cif
#   From: 2010.05.17/outbox.cif.g08.bks.cpg/sg27_2_cif.got.tgz:2114.got - 2010.06.04 01:11:05.
