data_PCOD9338577
_publ_section_title
;
Structure prediction by ZEFSAII (Michael W. Deem and Ramdas Pophale) SiO2 
 PCOD9338577
Probable space group: P M C 21
;
_chemical_formula_sum "Si O2"
_cell_formula_units_Z 20
_cell_length_a 10.289800
_cell_length_b 9.189076
_cell_length_c 10.556413
_cell_angle_alpha 90.000000
_cell_angle_beta 90.000000
_cell_angle_gamma 90.000000
_cell_volume 998.148480
_symmetry_space_group_name_H-M "P M C 21"
_symmetry_group_IT_number 26
_symmetry_cell_setting 'orthorhombic'
loop_
_space_group_symop_operation_xyz
x,y,z
-x,-y,1/2+z
-x,y,z
x,-y,1/2+z
loop_
_atom_site_type_symbol
_atom_site_label
_atom_site_fract_x
_atom_site_fract_y
_atom_site_fract_z
Si Si1 0.275158 0.050805 0.566270
Si Si2 0.640747 0.251191 0.977289
Si Si3 0.150032 0.111858 0.303400
Si Si4 0.843862 0.398384 0.156563
Si Si5 0.355278 0.341118 0.687609
O O1 0.176650 0.076666 0.449537
O O2 0.339915 0.205415 0.593267
O O3 0.359086 0.918027 0.513021
O O4 0.222788 0.989141 0.700604
O O5 0.500000 0.311606 0.020289
O O6 0.768035 0.321742 0.040433
O O7 0.649193 0.276790 0.828672
O O8 0.177676 0.281516 0.270111
O O9 0.000000 0.088786 0.275536
O O10 0.763168 0.545986 0.175671
O O11 0.000000 0.417409 0.139155
O O12 0.500000 0.405849 0.671152
#
# Coordination Sequence:
#
# PCOD9338577 Si02
#       5
#     4   4   4   4   4
#     4  11  21  42  65  97 125 169 218 266 324 383
#     4  10  22  43  66  94 128 167 215 269 324 385
#     4  10  22  40  64  95 132 169 213 265 324 387
#     4  10  24  43  64  94 130 172 215 265 324 384
#     4  11  24  42  65  96 128 169 216 267 327 385
#
# _framework density 20.037098
#
# number of rings (size 3 to 8) (size 9 to 14) (size 15 to 20)
#    0.000    1.600    2.000    1.800    2.800    3.200 
#    0.000    2.000    0.000    0.000    0.000    0.000 
#    0.000    0.000    0.000    0.000    0.000    0.000 
#
# Total GULP energy -111458.063879 kJ/mol
# GULP energy per Si atom -5572.903194 kJ/mol
# Density = 1.999149 g / cm^3
# Si number density = 20.037098 Si / 1000 Ang^3
#
#
#
# Elastic Constant Matrix: (Units=GPa)
#
#
# Indices 1 2 3 4 5 6 
#
# 1 133.0506 68.9263 22.4851 0.0000 0.0000 0.0000
# 2 68.9263 116.0654 42.5120 0.0000 0.0000 0.0000
# 3 22.4851 42.5120 45.9352 0.0000 0.0000 0.0000
# 4 0.0000 0.0000 0.0000 12.8138 0.0000 0.0000
# 5 0.0000 0.0000 0.0000 0.0000 18.2760 0.0000
# 6 0.0000 0.0000 0.0000 0.0000 0.0000 43.8624
#
#
#
# Elastic Compliance Matrix: (Units=1/GPa)
#
#
# Indices 1 2 3 4 5 6 
#
# 1 0.010885 -0.006827 0.000990 0.000000 0.000000 0.000000
# 2 -0.006827 0.017316 -0.012684 0.000000 0.000000 0.000000
# 3 0.000990 -0.012684 0.033024 0.000000 0.000000 0.000000
# 4 0.000000 0.000000 0.000000 0.078041 0.000000 0.000000
# 5 0.000000 0.000000 0.000000 0.000000 0.054717 0.000000
# 6 0.000000 0.000000 0.000000 0.000000 0.000000 0.022799
#
#
# Mechanical properties :
#
#
# Convention : Reuss Voigt Hill
#
# Bulk Modulus (GPa) = 41.35074 62.54423 51.94749
# Shear Modulus (GPa) = 19.09251 25.73230 22.41241
#
# Velocity S-wave (km/s) = 3.09019 3.58751 3.34809
# Velocity P-wave (km/s) = 5.78051 6.96005 6.39752
#
# Compressibility (1/GPa) = 0.02418336
#
# Stress axis : x y z
#
# Youngs Moduli (GPa) = 91.86721 57.75117 30.28136
#
# Poissons Ratio (x) = 0.39426 -0.02997
# Poissons Ratio (y) = 0.62716 0.38407
# Poissons Ratio (z) = -0.09093 0.73249
#
# Static dielectric constant tensor:
#      x y z
#    x 1.717480 0.000000 0.000000 
#    y 0.000000 1.728880 0.000000 
#    z 0.000000 0.000000 1.678120 
# 
# From -- ./inp_files/2709.got.cif
#   From: 2010.05.17/outbox.cif.g08.bks.cpg/sg26_2_cif.got.tgz:2709.got - 2010.06.04 01:07:29.
