data_PCOD9338311
_publ_section_title
;
Structure prediction by ZEFSAII (Michael W. Deem and Ramdas Pophale) SiO2 
 PCOD9338311
Probable space group: P M C 21
;
_chemical_formula_sum "Si O2"
_cell_formula_units_Z 32
_cell_length_a 11.513618
_cell_length_b 9.905917
_cell_length_c 15.117546
_cell_angle_alpha 90.000000
_cell_angle_beta 90.000000
_cell_angle_gamma 90.000000
_cell_volume 1724.200632
_symmetry_space_group_name_H-M "P M C 21"
_symmetry_group_IT_number 26
_symmetry_cell_setting 'orthorhombic'
loop_
_space_group_symop_operation_xyz
x,y,z
-x,-y,1/2+z
-x,y,z
x,-y,1/2+z
loop_
_atom_site_type_symbol
_atom_site_label
_atom_site_fract_x
_atom_site_fract_y
_atom_site_fract_z
Si Si1 0.131880 0.834852 0.723640
Si Si2 0.630026 0.992309 0.477610
Si Si3 0.363771 0.690158 0.427444
Si Si4 0.369583 0.492640 0.768356
Si Si5 0.304771 0.250516 0.374275
Si Si6 0.225835 0.402644 0.102371
Si Si7 0.867122 0.053310 0.585474
Si Si8 0.126378 0.344043 0.518499
O O1 0.216277 0.815630 0.805062
O O2 0.167495 0.726746 0.648192
O O3 0.000000 0.809141 0.750585
O O4 0.140280 0.981655 0.679746
O O5 0.500000 0.983074 0.522253
O O6 0.628443 0.127499 0.419116
O O7 0.750348 0.005987 0.533581
O O8 0.642389 0.852493 0.424034
O O9 0.500000 0.652030 0.434824
O O10 0.319513 0.615960 0.338587
O O11 0.300472 0.643958 0.517399
O O12 0.500000 0.449947 0.744934
O O13 0.372144 0.634141 0.821716
O O14 0.300052 0.523575 0.679136
O O15 0.229170 0.325657 0.448873
O O16 0.137900 0.515004 0.067536
O O17 0.863857 0.215139 0.583184
O O18 0.000000 0.016897 0.551034
O O19 0.000000 0.334670 0.474326
#
# Coordination Sequence:
#
# PCOD9338311 Si02
#       8
#     4   4   4   4   4   4   4   4
#     4  10  20  35  57  82 113 150 192 239 287 347
#     4  10  20  36  57  82 112 148 191 239 287 341
#     4  10  20  36  56  81 116 151 188 239 291 340
#     4  10  21  36  55  81 112 148 189 233 289 350
#     4  10  20  35  57  82 112 148 191 237 284 344
#     4  11  20  35  56  82 112 150 193 235 286 340
#     4   9  19  36  56  82 114 149 187 235 291 345
#     4  10  20  35  56  80 112 150 189 237 286 337
#
# _framework density 18.559324
#
# number of rings (size 3 to 8) (size 9 to 14) (size 15 to 20)
#    0.000    2.000    2.500    1.500    0.000    1.500 
#    0.000    1.250    0.000    0.000    0.000    0.000 
#    0.000    0.000    0.000    0.000    0.000    0.000 
#
# Total GULP energy -178193.610230 kJ/mol
# GULP energy per Si atom -5568.550320 kJ/mol
# Density = 1.851708 g / cm^3
# Si number density = 18.559324 Si / 1000 Ang^3
#
#
#
# Elastic Constant Matrix: (Units=GPa)
#
#
# Indices 1 2 3 4 5 6 
#
# 1 80.7993 6.9427 10.5468 0.0000 0.0000 0.0000
# 2 6.9427 43.0655 3.8123 0.0000 0.0000 0.0000
# 3 10.5468 3.8123 39.0077 0.0000 0.0000 0.0000
# 4 0.0000 0.0000 0.0000 20.5790 0.0000 0.0000
# 5 0.0000 0.0000 0.0000 0.0000 -1.2052 0.0000
# 6 0.0000 0.0000 0.0000 0.0000 0.0000 16.7985
#
#
#
# Elastic Compliance Matrix: (Units=1/GPa)
#
#
# Indices 1 2 3 4 5 6 
#
# 1 0.012965 -0.001795 -0.003330 0.000000 0.000000 0.000000
# 2 -0.001795 0.023672 -0.001828 0.000000 0.000000 0.000000
# 3 -0.003330 -0.001828 0.026715 0.000000 0.000000 0.000000
# 4 0.000000 0.000000 0.000000 0.048593 0.000000 0.000000
# 5 0.000000 0.000000 0.000000 0.000000 -0.829724 0.000000
# 6 0.000000 0.000000 0.000000 0.000000 0.000000 0.059529
#
#
# Mechanical properties :
#
#
# Convention : Reuss Voigt Hill
#
# Bulk Modulus (GPa) = 20.22448 22.83067 21.52757
# Shear Modulus (GPa) = -7.96354 16.67253 4.35449
#
# Velocity S-wave (km/s) = -2.07369 3.00048 1.53341
# Velocity P-wave (km/s) = 2.27756 4.93275 3.84183
#
# Compressibility (1/GPa) = 0.04944503
#
# Stress axis : x y z
#
# Youngs Moduli (GPa) = 77.12905 42.24457 37.43220
#
# Poissons Ratio (x) = 0.07584 0.12465
# Poissons Ratio (y) = 0.13848 0.06843
# Poissons Ratio (z) = 0.25684 0.07722
#
# Static dielectric constant tensor:
#      x y z
#    x 1.671180 0.000000 0.000000 
#    y 0.000000 1.632390 0.000000 
#    z 0.000000 0.000000 1.616060 
# 
# From -- ./inp_files/4561.got.cif
#   From: 2010.05.17/outbox.cif.g08.bks.cpg/sg26_3_cif.got.tgz:4561.got - 2010.06.04 01:07:29.
