data_PCOD9338964
_publ_section_title
;
Structure prediction by ZEFSAII (Michael W. Deem and Ramdas Pophale) SiO2 
 PCOD9338964
Probable space group: P C C 2
;
_chemical_formula_sum "Si O2"
_cell_formula_units_Z 16
_cell_length_a 11.430571
_cell_length_b 6.680371
_cell_length_c 7.042917
_cell_angle_alpha 90.000000
_cell_angle_beta 90.000000
_cell_angle_gamma 90.000000
_cell_volume 537.800347
_symmetry_space_group_name_H-M "P C C 2"
_symmetry_group_IT_number 27
_symmetry_cell_setting 'orthorhombic'
loop_
_space_group_symop_operation_xyz
x,y,z
-x,-y,z
-x,y,1/2+z
x,-y,1/2+z
loop_
_atom_site_type_symbol
_atom_site_label
_atom_site_fract_x
_atom_site_fract_y
_atom_site_fract_z
Si Si1 0.229353 0.262411 0.876390
Si Si2 0.636000 0.973231 0.576575
Si Si3 0.018373 0.734751 0.097272
Si Si4 0.794757 0.736876 0.273663
O O1 0.125126 0.185819 0.725614
O O2 0.341068 0.184069 0.744086
O O3 0.306358 0.202609 0.086227
O O4 0.227684 0.504464 0.837090
O O5 0.500000 0.000000 0.545153
O O6 0.714036 0.877060 0.410318
O O7 0.076197 0.229776 0.387954
O O8 0.000000 0.500000 0.126271
O O9 0.877517 0.775723 0.067460
#
# Coordination Sequence:
#
# PCOD9338964 Si02
#       4
#     4   4   4   4
#     4  10  23  39  64 101 133 186 226 284 357 421
#     4  10  21  42  68  98 144 180 228 288 351 418
#     4  12  23  43  66  99 141 180 231 294 346 417
#     4  10  23  38  64 100 134 184 227 276 362 420
#
# _framework density 29.750816
#
# number of rings (size 3 to 8) (size 9 to 14) (size 15 to 20)
#    1.500    0.000    2.500    3.000    0.000    2.000 
#    4.500    1.250    0.000    1.500    6.500    0.000 
#    0.000    0.000    0.000    0.000    0.000    0.000 
#
# Total GULP energy -89134.049408 kJ/mol
# GULP energy per Si atom -5570.878088 kJ/mol
# Density = 2.968310 g / cm^3
# Si number density = 29.750816 Si / 1000 Ang^3
#
#
#
# Elastic Constant Matrix: (Units=GPa)
#
#
# Indices 1 2 3 4 5 6 
#
# 1 334.6120 51.3973 14.0116 0.0000 0.0000 0.0000
# 2 51.3973 194.6899 3.3864 0.0000 0.0000 0.0000
# 3 14.0116 3.3864 183.4795 0.0000 0.0000 0.0000
# 4 0.0000 0.0000 0.0000 71.5595 0.0000 0.0000
# 5 0.0000 0.0000 0.0000 0.0000 145.4613 0.0000
# 6 0.0000 0.0000 0.0000 0.0000 0.0000 64.4496
#
#
#
# Elastic Compliance Matrix: (Units=1/GPa)
#
#
# Indices 1 2 3 4 5 6 
#
# 1 0.003124 -0.000821 -0.000223 0.000000 0.000000 0.000000
# 2 -0.000821 0.005354 -0.000036 0.000000 0.000000 0.000000
# 3 -0.000223 -0.000036 0.005468 0.000000 0.000000 0.000000
# 4 0.000000 0.000000 0.000000 0.013974 0.000000 0.000000
# 5 0.000000 0.000000 0.000000 0.000000 0.006875 0.000000
# 6 0.000000 0.000000 0.000000 0.000000 0.000000 0.015516
#
#
# Mechanical properties :
#
#
# Convention : Reuss Voigt Hill
#
# Bulk Modulus (GPa) = 84.85470 94.48579 89.67024
# Shear Modulus (GPa) = 88.65298 99.22650 93.93974
#
# Velocity S-wave (km/s) = 5.46472 5.78143 5.62531
# Velocity P-wave (km/s) = 8.27051 8.74040 8.50870
#
# Compressibility (1/GPa) = 0.01178485
#
# Stress axis : x y z
#
# Youngs Moduli (GPa) = 320.10526 186.78684 182.88465
#
# Poissons Ratio (x) = 0.15332 0.04086
# Poissons Ratio (y) = 0.26275 0.00661
# Poissons Ratio (z) = 0.07152 0.00675
#
# Static dielectric constant tensor:
#      x y z
#    x 1.281460 0.000000 0.000000 
#    y 0.000000 2.274860 0.000000 
#    z 0.000000 0.000000 3.066340 
# 
# From -- ./inp_files/2504.got.cif
#   From: 2010.05.17/outbox.cif.g08.bks.cpg/sg27_2_cif.got.tgz:2504.got - 2010.06.04 01:11:05.
