data_PCOD9338161
_publ_section_title
;
Structure prediction by ZEFSAII (Michael W. Deem and Ramdas Pophale) SiO2 
 PCOD9338161
Probable space group: P M C 21
;
_chemical_formula_sum "Si O2"
_cell_formula_units_Z 32
_cell_length_a 8.810599
_cell_length_b 11.145571
_cell_length_c 14.217766
_cell_angle_alpha 90.000000
_cell_angle_beta 90.000000
_cell_angle_gamma 90.000000
_cell_volume 1396.172631
_symmetry_space_group_name_H-M "P M C 21"
_symmetry_group_IT_number 26
_symmetry_cell_setting 'orthorhombic'
loop_
_space_group_symop_operation_xyz
x,y,z
-x,-y,1/2+z
-x,y,z
x,-y,1/2+z
loop_
_atom_site_type_symbol
_atom_site_label
_atom_site_fract_x
_atom_site_fract_y
_atom_site_fract_z
Si Si1 0.681132 0.056499 0.863550
Si Si2 0.820712 0.832498 0.751741
Si Si3 0.179641 0.463092 0.707026
Si Si4 0.674646 0.304471 0.415609
Si Si5 0.821754 0.803126 0.210566
Si Si6 0.325076 0.066389 0.545044
Si Si7 0.179780 0.547838 0.431454
Si Si8 0.679400 0.317324 0.094695
O O1 0.500000 0.048585 0.863919
O O2 0.747252 0.947712 0.801115
O O3 0.735706 0.171964 0.807656
O O4 0.729657 0.033808 0.971100
O O5 0.780393 0.727946 0.826939
O O6 0.747653 0.793552 0.653348
O O7 0.000000 0.846551 0.742960
O O8 0.213482 0.328766 0.671405
O O9 0.276690 0.565264 0.657146
O O10 0.000000 0.490031 0.691737
O O11 0.203821 0.450182 0.819222
O O12 0.500000 0.321608 0.384283
O O13 0.675727 0.189281 0.483452
O O14 0.737789 0.424741 0.461817
O O15 0.774929 0.902582 0.134510
O O16 0.000000 0.808158 0.229428
O O17 0.500000 0.042583 0.573441
O O18 0.248356 0.654820 0.493324
O O19 0.000000 0.541534 0.448685
O O20 0.500000 0.303710 0.086439
#
# Coordination Sequence:
#
# PCOD9338161 Si02
#       8
#     4   4   4   4   4   4   4   4
#     4  10  22  42  65  89 120 158 204 257 308 362
#     4  11  21  37  61  87 117 154 198 249 307 362
#     4  10  23  42  62  89 126 166 207 254 307 369
#     4  10  19  34  58  89 121 155 201 253 300 355
#     4  11  23  40  63  92 124 161 206 254 307 368
#     4   9  20  38  61  89 120 158 202 251 306 363
#     4  11  22  37  58  85 123 167 206 250 305 367
#     4  12  24  38  60  90 125 163 206 254 306 372
#
# _framework density 22.919802000000001
#
# number of rings (size 3 to 8) (size 9 to 14) (size 15 to 20)
#    0.000    1.500    1.250    5.250    0.000    6.500 
#    2.250    0.000    0.000    0.000    0.000    0.000 
#    0.000    0.000    0.000    0.000    0.000    0.000 
#
# Total GULP energy -179078.249140 kJ/mol
# GULP energy per Si atom -5596.195286 kJ/mol
# Density = 2.286764 g / cm^3
# Si number density = 22.919802 Si / 1000 Ang^3
#
#
#
# Elastic Constant Matrix: (Units=GPa)
#
#
# Indices 1 2 3 4 5 6 
#
# 1 76.9589 14.9283 27.3841 0.0000 0.0000 0.0000
# 2 14.9283 44.9568 11.3058 0.0000 0.0000 0.0000
# 3 27.3841 11.3058 99.5626 0.0000 0.0000 0.0000
# 4 0.0000 0.0000 0.0000 42.6389 0.0000 0.0000
# 5 0.0000 0.0000 0.0000 0.0000 31.9374 0.0000
# 6 0.0000 0.0000 0.0000 0.0000 0.0000 14.5919
#
#
#
# Elastic Compliance Matrix: (Units=1/GPa)
#
#
# Indices 1 2 3 4 5 6 
#
# 1 0.015099 -0.004086 -0.003689 0.000000 0.000000 0.000000
# 2 -0.004086 0.024003 -0.001602 0.000000 0.000000 0.000000
# 3 -0.003689 -0.001602 0.011240 0.000000 0.000000 0.000000
# 4 0.000000 0.000000 0.000000 0.023453 0.000000 0.000000
# 5 0.000000 0.000000 0.000000 0.000000 0.031311 0.000000
# 6 0.000000 0.000000 0.000000 0.000000 0.000000 0.068531
#
#
# Mechanical properties :
#
#
# Convention : Reuss Voigt Hill
#
# Bulk Modulus (GPa) = 31.65650 36.52387 34.09019
# Shear Modulus (GPa) = 24.64007 29.02431 26.83219
#
# Velocity S-wave (km/s) = 3.28236 3.56243 3.42526
# Velocity P-wave (km/s) = 5.31103 5.73510 5.52713
#
# Compressibility (1/GPa) = 0.03158909
#
# Stress axis : x y z
#
# Youngs Moduli (GPa) = 66.22876 41.66108 88.96442
#
# Poissons Ratio (x) = 0.17023 0.32818
# Poissons Ratio (y) = 0.27062 0.14251
# Poissons Ratio (z) = 0.24431 0.06673
#
# Static dielectric constant tensor:
#      x y z
#    x 1.758280 0.000000 0.000000 
#    y 0.000000 1.909990 0.000000 
#    z 0.000000 0.000000 1.886400 
# 
# From -- ./inp_files/4233.got.cif
#   From: 2010.05.17/outbox.cif.g08.bks.cpg/sg26_3_cif.got.tgz:4233.got - 2010.06.04 01:07:29.
