data_PCOD9338735
_publ_section_title
;
Structure prediction by ZEFSAII (Michael W. Deem and Ramdas Pophale) SiO2 
 PCOD9338735
Probable space group: P C C 2
;
_chemical_formula_sum "Si O2"
_cell_formula_units_Z 32
_cell_length_a 21.229223
_cell_length_b 13.174268
_cell_length_c 5.449164
_cell_angle_alpha 90.000000
_cell_angle_beta 90.000000
_cell_angle_gamma 90.000000
_cell_volume 1524.019317
_symmetry_space_group_name_H-M "P C C 2"
_symmetry_group_IT_number 27
_symmetry_cell_setting 'orthorhombic'
loop_
_space_group_symop_operation_xyz
x,y,z
-x,-y,z
-x,y,1/2+z
x,-y,1/2+z
loop_
_atom_site_type_symbol
_atom_site_label
_atom_site_fract_x
_atom_site_fract_y
_atom_site_fract_z
Si Si1 0.474327 0.114965 0.733440
Si Si2 0.218245 0.973888 0.849738
Si Si3 0.277355 0.228047 0.312421
Si Si4 0.245088 0.458916 0.223368
Si Si5 0.959674 0.737602 0.507465
Si Si6 0.898586 0.462206 0.152569
Si Si7 0.927939 0.038137 0.130269
Si Si8 0.671877 0.861316 0.828017
O O1 0.492419 0.163178 0.471936
O O2 0.400016 0.110592 0.778076
O O3 0.500000 0.000000 0.714068
O O4 0.284976 0.037219 0.869486
O O5 0.190330 0.030903 0.618800
O O6 0.224493 0.857662 0.771270
O O7 0.251380 0.340955 0.290029
O O8 0.303952 0.198713 0.583598
O O9 0.322688 0.203537 0.079712
O O10 0.273747 0.519025 0.455177
O O11 0.173097 0.499041 0.191636
O O12 0.907475 0.651488 0.556602
O O13 0.929767 0.848498 0.526647
O O14 0.007823 0.727686 0.740031
O O15 0.926988 0.473213 0.425931
O O16 0.905659 0.035229 0.411104
O O17 0.000000 0.000000 0.167993
#
# Coordination Sequence:
#
# PCOD9338735 Si02
#       8
#     4   4   4   4   4   4   4   4
#     4  10  21  27  43  67 114 181 184 201 257 321
#     4   8  16  25  44  68 108 133 165 215 264 313
#     4  10  19  31  55  77 101 142 181 239 282 327
#     4  10  21  40  61  80 105 136 185 239 315 347
#     4  12  21  32  56  85 118 153 191 224 280 325
#     4  10  23  40  55  80 113 152 180 233 294 356
#     4  10  16  30  48  76 113 145 176 228 254 303
#     4  10  19  31  47  79 120 145 187 220 266 329
#
# _framework density 20.997108000000001
#
# number of rings (size 3 to 8) (size 9 to 14) (size 15 to 20)
#    0.000    2.000    2.500    2.250   10.500    1.500 
#    0.000    0.000    0.000    0.000    0.000   63.000 
#    0.000   35.000    0.000    0.000    0.000    0.000 
#
# Total GULP energy -178327.831037 kJ/mol
# GULP energy per Si atom -5572.744720 kJ/mol
# Density = 2.094932 g / cm^3
# Si number density = 20.997108 Si / 1000 Ang^3
#
#
#
# Elastic Constant Matrix: (Units=GPa)
#
#
# Indices 1 2 3 4 5 6 
#
# 1 44.2043 -3.5217 1.4372 0.0000 0.0000 0.0000
# 2 -3.5217 81.9484 -3.7223 0.0000 0.0000 0.0000
# 3 1.4372 -3.7223 153.7696 0.0000 0.0000 0.0000
# 4 0.0000 0.0000 0.0000 28.3780 0.0000 0.0000
# 5 0.0000 0.0000 0.0000 0.0000 13.4426 0.0000
# 6 0.0000 0.0000 0.0000 0.0000 0.0000 14.8913
#
#
#
# Elastic Compliance Matrix: (Units=1/GPa)
#
#
# Indices 1 2 3 4 5 6 
#
# 1 0.022705 0.000967 -0.000189 0.000000 0.000000 0.000000
# 2 0.000967 0.012257 0.000288 0.000000 0.000000 0.000000
# 3 -0.000189 0.000288 0.006512 0.000000 0.000000 0.000000
# 4 0.000000 0.000000 0.000000 0.035239 0.000000 0.000000
# 5 0.000000 0.000000 0.000000 0.000000 0.074390 0.000000
# 6 0.000000 0.000000 0.000000 0.000000 0.000000 0.067153
#
#
# Mechanical properties :
#
#
# Convention : Reuss Voigt Hill
#
# Bulk Modulus (GPa) = 22.93212 29.81207 26.37209
# Shear Modulus (GPa) = 21.67687 30.39098 26.03393
#
# Velocity S-wave (km/s) = 3.21654 3.80858 3.52502
# Velocity P-wave (km/s) = 4.97395 5.79391 5.39952
#
# Compressibility (1/GPa) = 0.04360696
#
# Stress axis : x y z
#
# Youngs Moduli (GPa) = 44.04230 81.58312 153.56347
#
# Poissons Ratio (x) = -0.07891 0.02899
# Poissons Ratio (y) = -0.04260 -0.04418
# Poissons Ratio (z) = 0.00832 -0.02347
#
# Static dielectric constant tensor:
#      x y z
#    x 2.214010 0.000000 0.000000 
#    y 0.000000 1.609980 0.000000 
#    z 0.000000 0.000000 1.883090 
# 
# From -- ./inp_files/672.got.cif
#   From: 2010.05.17/outbox.cif.g08.bks.cpg/sg27_1_cif.got.tgz:672.got - 2010.06.04 01:11:05.
