data_PCOD9338953
_publ_section_title
;
Structure prediction by ZEFSAII (Michael W. Deem and Ramdas Pophale) SiO2 
 PCOD9338953
Probable space group: P C C 2
;
_chemical_formula_sum "Si O2"
_cell_formula_units_Z 32
_cell_length_a 5.176623
_cell_length_b 18.019806
_cell_length_c 14.837386
_cell_angle_alpha 90.000000
_cell_angle_beta 90.000000
_cell_angle_gamma 90.000000
_cell_volume 1384.057216
_symmetry_space_group_name_H-M "P C C 2"
_symmetry_group_IT_number 27
_symmetry_cell_setting 'orthorhombic'
loop_
_space_group_symop_operation_xyz
x,y,z
-x,-y,z
-x,y,1/2+z
x,-y,1/2+z
loop_
_atom_site_type_symbol
_atom_site_label
_atom_site_fract_x
_atom_site_fract_y
_atom_site_fract_z
Si Si1 0.096809 0.081268 0.542350
Si Si2 0.147401 0.625536 0.717375
Si Si3 0.417637 0.164420 0.086267
Si Si4 0.748553 0.450483 0.525688
Si Si5 0.324514 0.369706 0.835378
Si Si6 0.561436 0.211647 0.394728
Si Si7 0.945710 0.914826 0.839739
Si Si8 0.816041 0.213052 0.747044
O O1 0.377747 0.098838 0.579037
O O2 0.105379 0.086424 0.433522
O O3 0.876779 0.138610 0.572141
O O4 0.000000 0.000000 0.566090
O O5 0.189100 0.593637 0.618018
O O6 0.408207 0.621088 0.778741
O O7 0.073245 0.712576 0.706462
O O8 0.905513 0.595887 0.775116
O O9 0.432766 0.199167 0.184096
O O10 0.470203 0.216876 0.001618
O O11 0.500000 0.500000 0.546633
O O12 0.677775 0.405370 0.434832
O O13 0.000000 0.500000 0.505459
O O14 0.280070 0.281412 0.855706
O O15 0.287743 0.223517 0.347678
O O16 0.683224 0.130136 0.370595
O O17 0.032075 0.862928 0.758144
O O18 0.000000 0.000000 0.810987
#
# Coordination Sequence:
#
# PCOD9338953 Si02
#       8
#     4   4   4   4   4   4   4   4
#     4  10  22  41  58  85 123 168 217 278 358 407
#     4  11  25  45  72 104 145 193 234 290 352 425
#     4  11  23  37  65  86 123 171 215 286 336 398
#     4  12  27  47  73 113 149 181 234 292 354 429
#     4  11  24  44  74 101 142 195 237 284 354 428
#     4  10  22  43  63  95 135 174 239 281 344 411
#     4  10  21  40  65  92 133 178 227 298 349 399
#     4  11  23  41  64  98 134 177 243 274 345 417
#
# _framework density 23.120431
#
# number of rings (size 3 to 8) (size 9 to 14) (size 15 to 20)
#    0.000    1.250    2.500    2.625    1.750    4.000 
#    2.250    3.750    0.000    0.000    0.000    0.000 
#    0.000    0.000    0.000    0.000    0.000    0.000 
#
# Total GULP energy -178536.936295 kJ/mol
# GULP energy per Si atom -5579.279259 kJ/mol
# Density = 2.306781 g / cm^3
# Si number density = 23.120431 Si / 1000 Ang^3
#
#
#
# Elastic Constant Matrix: (Units=GPa)
#
#
# Indices 1 2 3 4 5 6 
#
# 1 80.2771 12.4487 16.7929 0.0000 0.0000 0.0000
# 2 12.4487 81.5950 16.9600 0.0000 0.0000 0.0000
# 3 16.7929 16.9600 113.0383 0.0000 0.0000 0.0000
# 4 0.0000 0.0000 0.0000 26.4467 0.0000 0.0000
# 5 0.0000 0.0000 0.0000 0.0000 35.1521 0.0000
# 6 0.0000 0.0000 0.0000 0.0000 0.0000 27.6871
#
#
#
# Elastic Compliance Matrix: (Units=1/GPa)
#
#
# Indices 1 2 3 4 5 6 
#
# 1 0.013066 -0.001641 -0.001695 0.000000 0.000000 0.000000
# 2 -0.001641 0.012856 -0.001685 0.000000 0.000000 0.000000
# 3 -0.001695 -0.001685 0.009351 0.000000 0.000000 0.000000
# 4 0.000000 0.000000 0.000000 0.037812 0.000000 0.000000
# 5 0.000000 0.000000 0.000000 0.000000 0.028448 0.000000
# 6 0.000000 0.000000 0.000000 0.000000 0.000000 0.036118
#
#
# Mechanical properties :
#
#
# Convention : Reuss Voigt Hill
#
# Bulk Modulus (GPa) = 39.63352 40.81264 40.22308
# Shear Modulus (GPa) = 32.03002 33.10443 32.56722
#
# Velocity S-wave (km/s) = 3.72607 3.78805 3.75719
# Velocity P-wave (km/s) = 5.97419 6.06819 6.02137
#
# Compressibility (1/GPa) = 0.02523117
#
# Stress axis : x y z
#
# Youngs Moduli (GPa) = 76.53514 77.78287 106.93847
#
# Poissons Ratio (x) = 0.12765 0.18124
# Poissons Ratio (y) = 0.12561 0.18020
# Poissons Ratio (z) = 0.12971 0.13107
#
# Static dielectric constant tensor:
#      x y z
#    x 1.928930 0.000000 0.000000 
#    y 0.000000 1.936470 0.000000 
#    z 0.000000 0.000000 1.877660 
# 
# From -- ./inp_files/3167.got.cif
#   From: 2010.05.17/outbox.cif.g08.bks.cpg/sg27_2_cif.got.tgz:3167.got - 2010.06.04 01:11:05.
