data_PCOD9338144
_publ_section_title
;
Structure prediction by ZEFSAII (Michael W. Deem and Ramdas Pophale) SiO2 
 PCOD9338144
Probable space group: P M C 21
;
_chemical_formula_sum "Si O2"
_cell_formula_units_Z 32
_cell_length_a 7.460268
_cell_length_b 16.435976
_cell_length_c 11.495168
_cell_angle_alpha 90.000000
_cell_angle_beta 90.000000
_cell_angle_gamma 90.000000
_cell_volume 1409.500552
_symmetry_space_group_name_H-M "P M C 21"
_symmetry_group_IT_number 26
_symmetry_cell_setting 'orthorhombic'
loop_
_space_group_symop_operation_xyz
x,y,z
-x,-y,1/2+z
-x,y,z
x,-y,1/2+z
loop_
_atom_site_type_symbol
_atom_site_label
_atom_site_fract_x
_atom_site_fract_y
_atom_site_fract_z
Si Si1 0.208356 0.964988 0.531760
Si Si2 0.782790 0.522432 0.571930
Si Si3 0.716618 0.222748 0.075016
Si Si4 0.205600 0.653053 0.028844
Si Si5 0.779807 0.050556 0.770581
Si Si6 0.782139 0.230471 0.705073
Si Si7 0.202840 0.356384 0.886281
Si Si8 0.710472 0.656264 0.766035
O O1 0.222381 0.868203 0.551845
O O2 0.279583 0.979940 0.399517
O O3 0.000000 0.989929 0.527541
O O4 0.279846 0.005031 0.651745
O O5 0.713104 0.430889 0.576665
O O6 0.715443 0.567718 0.454635
O O7 0.739975 0.579526 0.681113
O O8 0.000000 0.521470 0.563573
O O9 0.500000 0.226587 0.065413
O O10 0.769804 0.262506 0.197925
O O11 0.798261 0.284584 0.981882
O O12 0.205394 0.646988 0.890973
O O13 0.000000 0.650676 0.068851
O O14 0.270743 0.740308 0.076047
O O15 0.719769 0.144220 0.752700
O O16 0.000000 0.047487 0.773401
O O17 0.716893 0.308329 0.778685
O O18 0.000000 0.224040 0.716714
O O19 0.000000 0.379918 0.853316
O O20 0.500000 0.663579 0.785863
#
# Coordination Sequence:
#
# PCOD9338144 Si02
#       8
#     4   4   4   4   4   4   4   4
#     4  10  19  34  57  83 108 140 181 231 280 336
#     4   9  19  33  55  83 107 138 182 230 276 321
#     4  10  20  35  55  78 104 139 182 225 268 320
#     4  10  21  34  55  83 111 141 181 233 281 326
#     4   9  18  32  54  83 111 138 180 227 279 339
#     4   9  17  31  53  81 109 137 173 223 276 325
#     4   9  16  31  56  79 103 136 175 220 268 321
#     4  10  22  38  53  74 111 149 184 225 272 334
#
# _framework density 22.703075999999999
#
# number of rings (size 3 to 8) (size 9 to 14) (size 15 to 20)
#    0.000    2.500    1.250    0.750    1.750    3.000 
#    0.000    3.750    0.000    0.000    0.000    0.000 
#    0.000    0.000    0.000    0.000    0.000    0.000 
#
# Total GULP energy -178404.431484 kJ/mol
# GULP energy per Si atom -5575.138484 kJ/mol
# Density = 2.265140 g / cm^3
# Si number density = 22.703076 Si / 1000 Ang^3
#
#
#
# Elastic Constant Matrix: (Units=GPa)
#
#
# Indices 1 2 3 4 5 6 
#
# 1 67.2844 -4.9869 -0.4803 0.0000 0.0000 0.0000
# 2 -4.9869 67.6528 55.3903 0.0000 0.0000 0.0000
# 3 -0.4803 55.3903 152.2280 0.0000 0.0000 0.0000
# 4 0.0000 0.0000 0.0000 25.3664 0.0000 0.0000
# 5 0.0000 0.0000 0.0000 0.0000 41.7782 0.0000
# 6 0.0000 0.0000 0.0000 0.0000 0.0000 -102.4576
#
#
#
# Elastic Compliance Matrix: (Units=1/GPa)
#
#
# Indices 1 2 3 4 5 6 
#
# 1 0.014971 0.001517 -0.000505 0.000000 0.000000 0.000000
# 2 0.001517 0.021207 -0.007712 0.000000 0.000000 0.000000
# 3 -0.000505 -0.007712 0.009374 0.000000 0.000000 0.000000
# 4 0.000000 0.000000 0.000000 0.039422 0.000000 0.000000
# 5 0.000000 0.000000 0.000000 0.000000 0.023936 0.000000
# 6 0.000000 0.000000 0.000000 0.000000 0.000000 -0.009760
#
#
# Mechanical properties :
#
#
# Convention : Reuss Voigt Hill
#
# Bulk Modulus (GPa) = 31.10182 43.00128 37.05155
# Shear Modulus (GPa) = 40.56252 8.75353 24.65803
#
# Velocity S-wave (km/s) = 4.23147 1.96571 3.29919
# Velocity P-wave (km/s) = 6.13212 4.91263 5.55593
#
# Compressibility (1/GPa) = 0.03215245
#
# Stress axis : x y z
#
# Youngs Moduli (GPa) = 66.79536 47.15405 106.68349
#
# Poissons Ratio (x) = -0.07152 0.05384
# Poissons Ratio (y) = -0.10131 0.82271
# Poissons Ratio (z) = 0.03371 0.36364
#
# Static dielectric constant tensor:
#      x y z
#    x 1.858360 0.000000 0.000000 
#    y 0.000000 1.814460 0.000000 
#    z 0.000000 0.000000 1.914900 
# 
# From -- ./inp_files/3026.got.cif
#   From: 2010.05.17/outbox.cif.g08.bks.cpg/sg26_2_cif.got.tgz:3026.got - 2010.06.04 01:07:29.
