data_PCOD9338257
_publ_section_title
;
Structure prediction by ZEFSAII (Michael W. Deem and Ramdas Pophale) SiO2 
 PCOD9338257
Probable space group: P M C 21
;
_chemical_formula_sum "Si O2"
_cell_formula_units_Z 28
_cell_length_a 11.596590
_cell_length_b 12.218742
_cell_length_c 11.727890
_cell_angle_alpha 90.000000
_cell_angle_beta 90.000000
_cell_angle_gamma 90.000000
_cell_volume 1661.792067
_symmetry_space_group_name_H-M "P M C 21"
_symmetry_group_IT_number 26
_symmetry_cell_setting 'orthorhombic'
loop_
_space_group_symop_operation_xyz
x,y,z
-x,-y,1/2+z
-x,y,z
x,-y,1/2+z
loop_
_atom_site_type_symbol
_atom_site_label
_atom_site_fract_x
_atom_site_fract_y
_atom_site_fract_z
Si Si1 0.748019 0.299653 0.278090
Si Si2 0.500000 0.429336 0.535782
Si Si3 0.861414 0.237842 0.939682
Si Si4 0.500000 0.410738 0.263470
Si Si5 0.136902 0.562742 0.582913
Si Si6 0.137423 0.896366 0.666385
Si Si7 0.250777 0.666045 0.039812
Si Si8 0.861533 0.846041 0.193474
O O1 0.615963 0.337329 0.258606
O O2 0.826889 0.372752 0.195712
O O3 0.781534 0.175435 0.247822
O O4 0.778084 0.322933 0.407550
O O5 0.500000 0.462879 0.396377
O O6 0.500000 0.514478 0.645762
O O7 0.613696 0.356546 0.550168
O O8 0.822372 0.194561 0.818276
O O9 0.000000 0.246479 0.933000
O O10 0.819293 0.357530 0.980505
O O11 0.838340 0.151094 0.040147
O O12 0.190564 0.443771 0.584368
O O13 0.000000 0.554310 0.574847
O O14 0.000000 0.876434 0.689836
O O15 0.157854 0.025049 0.677082
O O16 0.205116 0.771698 0.104183
O O17 0.000000 0.828128 0.182757
#
# Coordination Sequence:
#
# PCOD9338257 Si02
#       8
#     4   2   4   2   4   4   4   4
#     4  10  21  37  58  81 109 147 189 235 281 335
#     4  10  22  40  59  82 114 152 193 241 283 338
#     4   8  17  33  50  75 111 145 179 222 272 333
#     4  10  20  40  63  84 110 152 199 235 285 340
#     4  10  20  33  53  81 114 146 179 227 287 342
#     4   9  19  36  56  80 112 150 187 229 283 338
#     4  11  23  36  56  83 111 148 189 233 284 337
#     4  10  21  34  55  83 113 149 187 228 281 344
#
# _framework density 16.849281000000001
#
# number of rings (size 3 to 8) (size 9 to 14) (size 15 to 20)
#    0.000    2.286    1.429    1.714    4.000    2.286 
#    0.000    0.714    0.000    0.000    0.000    0.000 
#    0.000    0.000    0.000    0.000    0.000    0.000 
#
# Total GULP energy -155953.810431 kJ/mol
# GULP energy per Si atom -5569.778944 kJ/mol
# Density = 1.681093 g / cm^3
# Si number density = 16.849281 Si / 1000 Ang^3
#
#
#
# Elastic Constant Matrix: (Units=GPa)
#
#
# Indices 1 2 3 4 5 6 
#
# 1 52.2580 38.4469 14.8550 0.0000 0.0000 0.0000
# 2 38.4469 101.1759 31.7220 0.0000 0.0000 0.0000
# 3 14.8550 31.7220 60.1872 0.0000 0.0000 0.0000
# 4 0.0000 0.0000 0.0000 15.7070 0.0000 0.0000
# 5 0.0000 0.0000 0.0000 0.0000 23.9668 0.0000
# 6 0.0000 0.0000 0.0000 0.0000 0.0000 -155.3972
#
#
#
# Elastic Compliance Matrix: (Units=1/GPa)
#
#
# Indices 1 2 3 4 5 6 
#
# 1 0.026672 -0.009669 -0.001487 0.000000 0.000000 0.000000
# 2 -0.009669 0.015346 -0.005702 0.000000 0.000000 0.000000
# 3 -0.001487 -0.005702 0.019987 0.000000 0.000000 0.000000
# 4 0.000000 0.000000 0.000000 0.063666 0.000000 0.000000
# 5 0.000000 0.000000 0.000000 0.000000 0.041724 0.000000
# 6 0.000000 0.000000 0.000000 0.000000 0.000000 -0.006435
#
#
# Mechanical properties :
#
#
# Convention : Reuss Voigt Hill
#
# Bulk Modulus (GPa) = 35.34876 42.62987 38.98932
# Shear Modulus (GPa) = 24.49713 -14.57155 4.96279
#
# Velocity S-wave (km/s) = 3.81714 -2.94397 1.71808
# Velocity P-wave (km/s) = 6.36021 3.71480 5.20826
#
# Compressibility (1/GPa) = 0.02828953
#
# Stress axis : x y z
#
# Youngs Moduli (GPa) = 37.49198 65.16457 50.03294
#
# Poissons Ratio (x) = 0.63010 0.07439
# Poissons Ratio (y) = 0.36252 0.28526
# Poissons Ratio (z) = 0.05574 0.37154
#
# Static dielectric constant tensor:
#      x y z
#    x 1.570350 0.000000 0.000000 
#    y 0.000000 1.556060 0.000000 
#    z 0.000000 0.000000 1.600110 
# 
# From -- ./inp_files/3338.got.cif
#   From: 2010.05.17/outbox.cif.g08.bks.cpg/sg26_2_cif.got.tgz:3338.got - 2010.06.04 01:07:29.
