data_PCOD9338670
_publ_section_title
;
Structure prediction by ZEFSAII (Michael W. Deem and Ramdas Pophale) SiO2 
 PCOD9338670
Probable space group: P M C 21
;
_chemical_formula_sum "Si O2"
_cell_formula_units_Z 32
_cell_length_a 7.548712
_cell_length_b 22.576592
_cell_length_c 6.794984
_cell_angle_alpha 90.000000
_cell_angle_beta 90.000000
_cell_angle_gamma 90.000000
_cell_volume 1158.029651
_symmetry_space_group_name_H-M "P M C 21"
_symmetry_group_IT_number 26
_symmetry_cell_setting 'orthorhombic'
loop_
_space_group_symop_operation_xyz
x,y,z
-x,-y,1/2+z
-x,y,z
x,-y,1/2+z
loop_
_atom_site_type_symbol
_atom_site_label
_atom_site_fract_x
_atom_site_fract_y
_atom_site_fract_z
Si Si1 0.795852 0.452784 0.028950
Si Si2 0.219019 0.295615 0.376962
Si Si3 0.300116 0.954196 0.671932
Si Si4 0.211617 0.329633 0.931114
Si Si5 0.204731 0.418843 0.485056
Si Si6 0.711945 0.798341 0.345800
Si Si7 0.796168 0.829113 0.800764
Si Si8 0.704509 0.081435 0.716754
O O1 0.722230 0.397644 0.900844
O O2 0.802063 0.428067 0.248918
O O3 0.000000 0.463986 0.964448
O O4 0.713353 0.518145 0.046591
O O5 0.271447 0.310714 0.150752
O O6 0.279974 0.352492 0.503058
O O7 0.288475 0.228578 0.405287
O O8 0.000000 0.295880 0.385515
O O9 0.500000 0.969260 0.731072
O O10 0.252256 0.898845 0.811403
O O11 0.299688 0.928865 0.453258
O O12 0.209752 0.018691 0.654911
O O13 0.000000 0.336341 0.938421
O O14 0.241889 0.269996 0.805823
O O15 0.000000 0.415616 0.556069
O O16 0.500000 0.803134 0.349299
O O17 0.777296 0.812606 0.567734
O O18 0.782070 0.852102 0.208001
O O19 0.000000 0.826951 0.846639
O O20 0.500000 0.085623 0.647544
#
# Coordination Sequence:
#
# PCOD9338670 Si02
#       8
#     4   4   4   4   4   4   4   4
#     4   8  13  20  33  52  74  96 124 157 190 224
#     4   7  11  19  32  49  71  94 119 150 187 221
#     4   9  16  28  43  60  79 102 130 162 194 230
#     4   8  13  22  35  54  77  99 123 161 203 233
#     4   8  12  19  31  50  72  96 123 154 187 224
#     4   9  15  24  39  59  78 101 133 167 194 226
#     4   9  15  24  38  58  81 104 127 160 200 234
#     4   8  15  26  42  60  78  98 127 163 195 224
#
# _framework density 27.633146
#
# number of rings (size 3 to 8) (size 9 to 14) (size 15 to 20)
#    0.000    3.750    0.000    3.750    0.000    0.000 
#    0.000    3.125    0.000    1.500    0.000   10.500 
#    0.000    0.000    0.000    0.000    0.000    0.000 
#
# Total GULP energy -178490.184642 kJ/mol
# GULP energy per Si atom -5577.818270 kJ/mol
# Density = 2.757025 g / cm^3
# Si number density = 27.633146 Si / 1000 Ang^3
#
#
#
# Elastic Constant Matrix: (Units=GPa)
#
#
# Indices 1 2 3 4 5 6 
#
# 1 81.1501 21.0057 -1.3197 0.0000 0.0000 0.0000
# 2 21.0057 376.3420 55.4161 0.0000 0.0000 0.0000
# 3 -1.3197 55.4161 69.2413 0.0000 0.0000 0.0000
# 4 0.0000 0.0000 0.0000 77.7567 0.0000 0.0000
# 5 0.0000 0.0000 0.0000 0.0000 8.9441 0.0000
# 6 0.0000 0.0000 0.0000 0.0000 0.0000 31.2115
#
#
#
# Elastic Compliance Matrix: (Units=1/GPa)
#
#
# Indices 1 2 3 4 5 6 
#
# 1 0.012554 -0.000834 0.000907 0.000000 0.000000 0.000000
# 2 -0.000834 0.003068 -0.002471 0.000000 0.000000 0.000000
# 3 0.000907 -0.002471 0.016437 0.000000 0.000000 0.000000
# 4 0.000000 0.000000 0.000000 0.012861 0.000000 0.000000
# 5 0.000000 0.000000 0.000000 0.000000 0.111806 0.000000
# 6 0.000000 0.000000 0.000000 0.000000 0.000000 0.032039
#
#
# Mechanical properties :
#
#
# Convention : Reuss Voigt Hill
#
# Bulk Modulus (GPa) = 36.68152 75.21528 55.94840
# Shear Modulus (GPa) = 24.67334 53.69122 39.18228
#
# Velocity S-wave (km/s) = 2.99137 4.41273 3.76965
# Velocity P-wave (km/s) = 5.02338 7.29666 6.26401
#
# Compressibility (1/GPa) = 0.02726169
#
# Stress axis : x y z
#
# Youngs Moduli (GPa) = 79.65885 325.99097 60.83786
#
# Poissons Ratio (x) = 0.27195 -0.05518
# Poissons Ratio (y) = 0.06645 0.15033
# Poissons Ratio (z) = -0.07224 0.80552
#
# Static dielectric constant tensor:
#      x y z
#    x 2.111600 0.000000 0.000000 
#    y 0.000000 2.332650 0.000000 
#    z 0.000000 0.000000 2.264140 
# 
# From -- ./inp_files/3144.got.cif
#   From: 2010.05.17/outbox.cif.g08.bks.cpg/sg26_2_cif.got.tgz:3144.got - 2010.06.04 01:07:29.
