data_PCOD9338942
_publ_section_title
;
Structure prediction by ZEFSAII (Michael W. Deem and Ramdas Pophale) SiO2 
 PCOD9338942
Probable space group: P C C 2
;
_chemical_formula_sum "Si O2"
_cell_formula_units_Z 32
_cell_length_a 9.048645
_cell_length_b 14.836442
_cell_length_c 10.333284
_cell_angle_alpha 90.000000
_cell_angle_beta 90.000000
_cell_angle_gamma 90.000000
_cell_volume 1387.240243
_symmetry_space_group_name_H-M "P C C 2"
_symmetry_group_IT_number 27
_symmetry_cell_setting 'orthorhombic'
loop_
_space_group_symop_operation_xyz
x,y,z
-x,-y,z
-x,y,1/2+z
x,-y,1/2+z
loop_
_atom_site_type_symbol
_atom_site_label
_atom_site_fract_x
_atom_site_fract_y
_atom_site_fract_z
Si Si1 0.758918 0.606367 0.909170
Si Si2 0.248970 0.804056 0.998458
Si Si3 0.013968 0.306110 0.054801
Si Si4 0.658583 0.948674 0.137042
Si Si5 0.179060 0.999410 0.891035
Si Si6 0.226352 0.547671 0.119909
Si Si7 0.710332 0.253900 0.726341
Si Si8 0.510397 0.322934 0.054027
O O1 0.756906 0.550250 0.776058
O O2 0.901166 0.672837 0.919043
O O3 0.778077 0.541686 0.034084
O O4 0.607954 0.661413 0.939486
O O5 0.246666 0.739993 0.873419
O O6 0.232754 0.904454 0.951105
O O7 0.403523 0.772761 0.056181
O O8 0.102900 0.774756 0.071118
O O9 0.147509 0.277998 0.145003
O O10 0.919172 0.393408 0.092062
O O11 0.753910 0.004551 0.245788
O O12 0.655767 0.847836 0.196079
O O13 0.500000 0.000000 0.122732
O O14 0.744706 0.937246 0.999450
O O15 0.000000 0.000000 0.888203
O O16 0.367378 0.601072 0.063879
O O17 0.584996 0.322395 0.684052
#
# Coordination Sequence:
#
# PCOD9338942 Si02
#       8
#     4   4   4   4   4   4   4   4
#     4  11  24  40  61  89 120 157 199 248 304 362
#     4  10  21  39  61  86 118 158 201 247 300 359
#     4  10  22  39  61  86 118 155 201 250 299 358
#     4  11  23  40  63  93 128 166 209 259 315 377
#     4  11  23  40  63  93 128 166 209 259 315 377
#     4  11  24  40  61  89 120 157 199 248 304 362
#     4  10  21  39  61  86 118 158 201 247 300 359
#     4  10  22  39  61  86 118 155 201 250 299 358
#
# _framework density 23.067381000000001
#
# number of rings (size 3 to 8) (size 9 to 14) (size 15 to 20)
#    0.000    1.500    0.000    4.500    0.000   10.000 
#    0.000    6.250    0.000    0.000    0.000    0.000 
#    0.000    0.000    0.000    0.000    0.000    0.000 
#
# Total GULP energy -178566.214849 kJ/mol
# GULP energy per Si atom -5580.194214 kJ/mol
# Density = 2.301488 g / cm^3
# Si number density = 23.067381 Si / 1000 Ang^3
#
#
#
# Elastic Constant Matrix: (Units=GPa)
#
#
# Indices 1 2 3 4 5 6 
#
# 1 154.1213 12.4548 23.4827 0.0000 0.0000 0.0000
# 2 12.4548 28.1409 -18.2913 0.0000 0.0000 0.0000
# 3 23.4827 -18.2913 73.5840 0.0000 0.0000 0.0000
# 4 0.0000 0.0000 0.0000 30.7549 0.0000 0.0000
# 5 0.0000 0.0000 0.0000 0.0000 35.1272 0.0000
# 6 0.0000 0.0000 0.0000 0.0000 0.0000 28.0404
#
#
#
# Elastic Compliance Matrix: (Units=1/GPa)
#
#
# Indices 1 2 3 4 5 6 
#
# 1 0.007550 -0.005854 -0.003865 0.000000 0.000000 0.000000
# 2 -0.005854 0.046922 0.013532 0.000000 0.000000 0.000000
# 3 -0.003865 0.013532 0.018187 0.000000 0.000000 0.000000
# 4 0.000000 0.000000 0.000000 0.032515 0.000000 0.000000
# 5 0.000000 0.000000 0.000000 0.000000 0.028468 0.000000
# 6 0.000000 0.000000 0.000000 0.000000 0.000000 0.035663
#
#
# Mechanical properties :
#
#
# Convention : Reuss Voigt Hill
#
# Bulk Modulus (GPa) = 12.45546 32.34872 22.40209
# Shear Modulus (GPa) = 26.53368 34.66449 30.59908
#
# Velocity S-wave (km/s) = 3.39524 3.88074 3.64608
# Velocity P-wave (km/s) = 4.55868 5.84245 5.24002
#
# Compressibility (1/GPa) = 0.08028609
#
# Stress axis : x y z
#
# Youngs Moduli (GPa) = 132.44573 21.31208 54.98461
#
# Poissons Ratio (x) = 0.12475 0.21249
# Poissons Ratio (y) = 0.77528 -0.74404
# Poissons Ratio (z) = 0.51185 -0.28839
#
# Static dielectric constant tensor:
#      x y z
#    x 1.826690 0.000000 0.000000 
#    y 0.000000 1.900900 0.000000 
#    z 0.000000 0.000000 1.898060 
# 
# From -- ./inp_files/2433.got.cif
#   From: 2010.05.17/outbox.cif.g08.bks.cpg/sg27_2_cif.got.tgz:2433.got - 2010.06.04 01:11:05.
