data_PCOD9338505
_publ_section_title
;
Structure prediction by ZEFSAII (Michael W. Deem and Ramdas Pophale) SiO2 
 PCOD9338505
Probable space group: P M C 21
;
_chemical_formula_sum "Si O2"
_cell_formula_units_Z 32
_cell_length_a 13.553398
_cell_length_b 11.545927
_cell_length_c 9.327194
_cell_angle_alpha 90.000000
_cell_angle_beta 90.000000
_cell_angle_gamma 90.000000
_cell_volume 1459.580353
_symmetry_space_group_name_H-M "P M C 21"
_symmetry_group_IT_number 26
_symmetry_cell_setting 'orthorhombic'
loop_
_space_group_symop_operation_xyz
x,y,z
-x,-y,1/2+z
-x,y,z
x,-y,1/2+z
loop_
_atom_site_type_symbol
_atom_site_label
_atom_site_fract_x
_atom_site_fract_y
_atom_site_fract_z
Si Si1 0.382242 0.840919 0.188450
Si Si2 0.109859 0.731267 0.618072
Si Si3 0.812206 0.052865 0.265694
Si Si4 0.888787 0.375778 0.437202
Si Si5 0.729599 0.568431 0.514682
Si Si6 0.617225 0.583597 0.231328
Si Si7 0.114477 0.873395 0.070194
Si Si8 0.615117 0.954466 0.883035
O O1 0.500000 0.825642 0.185182
O O2 0.345515 0.709686 0.175898
O O3 0.367273 0.911991 0.336499
O O4 0.363579 0.918796 0.046305
O O5 0.128335 0.863855 0.659910
O O6 0.111870 0.664804 0.771700
O O7 0.201826 0.680659 0.532304
O O8 0.000000 0.716563 0.554919
O O9 0.859866 0.060858 0.422314
O O10 0.701125 0.102022 0.286628
O O11 0.820964 0.925740 0.197941
O O12 0.807293 0.470659 0.465618
O O13 0.870826 0.261030 0.532006
O O14 0.000000 0.418199 0.470058
O O15 0.645060 0.583426 0.397585
O O16 0.676830 0.519381 0.655855
O O17 0.500000 0.570862 0.208312
O O18 0.000000 0.889659 0.106343
O O19 0.500000 0.927114 0.851205
#
# Coordination Sequence:
#
# PCOD9338505 Si02
#       8
#     4   4   4   4   4   4   4   4
#     4   9  21  41  62  91 131 173 220 278 330 389
#     4  10  22  42  64  94 130 168 217 278 336 396
#     4  11  22  37  63  93 131 172 218 265 336 398
#     4   9  20  40  65  94 127 168 219 273 331 397
#     4  12  23  43  69  93 130 174 229 268 345 391
#     4  11  26  44  67  98 138 177 227 287 336 403
#     4  10  21  39  62  90 129 168 212 269 332 403
#     4  10  21  38  63  95 132 176 223 270 331 399
#
# _framework density 21.924109999999999
#
# number of rings (size 3 to 8) (size 9 to 14) (size 15 to 20)
#    0.000    1.750    1.250    3.375    5.250    2.000 
#    0.000    2.500    0.000    0.000    0.000    0.000 
#    0.000    0.000    0.000    0.000    0.000    0.000 
#
# Total GULP energy -178624.426669 kJ/mol
# GULP energy per Si atom -5582.013333 kJ/mol
# Density = 2.187421 g / cm^3
# Si number density = 21.924110 Si / 1000 Ang^3
#
#
#
# Elastic Constant Matrix: (Units=GPa)
#
#
# Indices 1 2 3 4 5 6 
#
# 1 103.6046 2.0044 11.9959 0.0000 0.0000 0.0000
# 2 2.0044 17.7358 6.6820 0.0000 0.0000 0.0000
# 3 11.9959 6.6820 33.3597 0.0000 0.0000 0.0000
# 4 0.0000 0.0000 0.0000 25.2524 0.0000 0.0000
# 5 0.0000 0.0000 0.0000 0.0000 33.4404 0.0000
# 6 0.0000 0.0000 0.0000 0.0000 0.0000 27.3159
#
#
#
# Elastic Compliance Matrix: (Units=1/GPa)
#
#
# Indices 1 2 3 4 5 6 
#
# 1 0.010072 0.000245 -0.003671 0.000000 0.000000 0.000000
# 2 0.000245 0.060991 -0.012305 0.000000 0.000000 0.000000
# 3 -0.003671 -0.012305 0.033761 0.000000 0.000000 0.000000
# 4 0.000000 0.000000 0.000000 0.039600 0.000000 0.000000
# 5 0.000000 0.000000 0.000000 0.000000 0.029904 0.000000
# 6 0.000000 0.000000 0.000000 0.000000 0.000000 0.036609
#
#
# Mechanical properties :
#
#
# Convention : Reuss Voigt Hill
#
# Bulk Modulus (GPa) = 13.63086 21.78494 17.70790
# Shear Modulus (GPa) = 18.73689 26.13627 22.43658
#
# Velocity S-wave (km/s) = 2.92657 3.45646 3.20249
# Velocity P-wave (km/s) = 4.20125 5.08798 4.66573
#
# Compressibility (1/GPa) = 0.07336293
#
# Stress axis : x y z
#
# Youngs Moduli (GPa) = 99.28128 16.39581 29.62006
#
# Poissons Ratio (x) = -0.00401 0.10873
# Poissons Ratio (y) = -0.02430 0.36446
# Poissons Ratio (z) = 0.36446 0.20174
#
# Static dielectric constant tensor:
#      x y z
#    x 1.849550 0.000000 0.000000 
#    y 0.000000 1.801370 0.000000 
#    z 0.000000 0.000000 1.774900 
# 
# From -- ./inp_files/2261.got.cif
#   From: 2010.05.17/outbox.cif.g08.bks.cpg/sg26_2_cif.got.tgz:2261.got - 2010.06.04 01:07:29.
