data_PCOD9338402
_publ_section_title
;
Structure prediction by ZEFSAII (Michael W. Deem and Ramdas Pophale) SiO2 
 PCOD9338402
Probable space group: P M C 21
;
_chemical_formula_sum "Si O2"
_cell_formula_units_Z 24
_cell_length_a 8.170914
_cell_length_b 14.534841
_cell_length_c 8.202765
_cell_angle_alpha 90.000000
_cell_angle_beta 90.000000
_cell_angle_gamma 90.000000
_cell_volume 974.184453
_symmetry_space_group_name_H-M "P M C 21"
_symmetry_group_IT_number 26
_symmetry_cell_setting 'orthorhombic'
loop_
_space_group_symop_operation_xyz
x,y,z
-x,-y,1/2+z
-x,y,z
x,-y,1/2+z
loop_
_atom_site_type_symbol
_atom_site_label
_atom_site_fract_x
_atom_site_fract_y
_atom_site_fract_z
Si Si1 0.696774 0.688384 0.327280
Si Si2 0.300207 0.137527 0.643643
Si Si3 0.814661 0.518800 0.150550
Si Si4 0.805914 0.201515 0.149347
Si Si5 0.313317 0.365150 0.349953
Si Si6 0.695689 0.031178 0.965775
O O1 0.500000 0.676740 0.327071
O O2 0.745387 0.757995 0.179756
O O3 0.783190 0.592521 0.294595
O O4 0.749605 0.739550 0.491040
O O5 0.500000 0.137792 0.639905
O O6 0.241044 0.071483 0.499608
O O7 0.243503 0.081724 0.804788
O O8 0.701642 0.431776 0.191270
O O9 0.000000 0.485232 0.151169
O O10 0.779608 0.578198 0.989468
O O11 0.747197 0.264083 0.299861
O O12 0.730493 0.101037 0.115408
O O13 0.000000 0.193678 0.152554
O O14 0.500000 0.358028 0.402995
O O15 0.500000 0.025601 0.949143
#
# Coordination Sequence:
#
# PCOD9338402 Si02
#       6
#     4   4   4   4   4   4
#     4  10  20  38  61  87 116 155 199 238 281 343
#     4   8  16  30  53  80 109 145 192 239 280 329
#     4  12  25  42  62  90 122 151 184 236 294 342
#     4  11  22  38  58  85 118 154 192 242 297 342
#     4  12  25  43  64  87 114 153 197 236 278 342
#     4   9  17  33  54  79 109 148 192 237 284 340
#
# _framework density 24.635991000000001
#
# number of rings (size 3 to 8) (size 9 to 14) (size 15 to 20)
#    0.000    1.667    0.000    7.000    0.000    1.333 
#    0.000    7.500    0.000    0.000    0.000    0.000 
#    0.000    0.000    0.000    0.000    0.000    0.000 
#
# Total GULP energy -134286.467470 kJ/mol
# GULP energy per Si atom -5595.269478 kJ/mol
# Density = 2.457992 g / cm^3
# Si number density = 24.635991 Si / 1000 Ang^3
#
#
#
# Elastic Constant Matrix: (Units=GPa)
#
#
# Indices 1 2 3 4 5 6 
#
# 1 56.4648 -18.1097 -17.2536 0.0000 0.0000 0.0000
# 2 -18.1097 114.3488 -14.3990 0.0000 0.0000 0.0000
# 3 -17.2536 -14.3990 51.2578 0.0000 0.0000 0.0000
# 4 0.0000 0.0000 0.0000 45.4777 0.0000 0.0000
# 5 0.0000 0.0000 0.0000 0.0000 22.1593 0.0000
# 6 0.0000 0.0000 0.0000 0.0000 0.0000 -20.2078
#
#
#
# Elastic Compliance Matrix: (Units=1/GPa)
#
#
# Indices 1 2 3 4 5 6 
#
# 1 0.021796 0.004536 0.008611 0.000000 0.000000 0.000000
# 2 0.004536 0.010010 0.004339 0.000000 0.000000 0.000000
# 3 0.008611 0.004339 0.023627 0.000000 0.000000 0.000000
# 4 0.000000 0.000000 0.000000 0.021989 0.000000 0.000000
# 5 0.000000 0.000000 0.000000 0.000000 0.045128 0.000000
# 6 0.000000 0.000000 0.000000 0.000000 0.000000 -0.049486
#
#
# Mechanical properties :
#
#
# Convention : Reuss Voigt Hill
#
# Bulk Modulus (GPa) = 11.06134 13.61631 12.33882
# Shear Modulus (GPa) = 73.28557 27.60808 50.44682
#
# Velocity S-wave (km/s) = 5.46003 3.35123 4.53005
# Velocity P-wave (km/s) = 6.65199 4.52916 5.69044
#
# Compressibility (1/GPa) = 0.09040500
#
# Stress axis : x y z
#
# Youngs Moduli (GPa) = 45.87941 99.90072 42.32520
#
# Poissons Ratio (x) = -0.45317 -0.36446
# Poissons Ratio (y) = -0.20812 -0.18364
# Poissons Ratio (z) = -0.39507 -0.43345
#
# Static dielectric constant tensor:
#      x y z
#    x 1.869940 0.000000 0.000000 
#    y 0.000000 1.998010 0.000000 
#    z 0.000000 0.000000 2.094640 
# 
# From -- ./inp_files/1413.got.cif
#   From: 2010.05.17/outbox.cif.g08.bks.cpg/sg26_1_cif.got.tgz:1413.got - 2010.06.04 01:07:29.
