data_PCOD9338832
_publ_section_title
;
Structure prediction by ZEFSAII (Michael W. Deem and Ramdas Pophale) SiO2 
 PCOD9338832
Probable space group: P C C 2
;
_chemical_formula_sum "Si O2"
_cell_formula_units_Z 32
_cell_length_a 9.122956
_cell_length_b 10.498134
_cell_length_c 15.006873
_cell_angle_alpha 90.000000
_cell_angle_beta 90.000000
_cell_angle_gamma 90.000000
_cell_volume 1437.268473
_symmetry_space_group_name_H-M "P C C 2"
_symmetry_group_IT_number 27
_symmetry_cell_setting 'orthorhombic'
loop_
_space_group_symop_operation_xyz
x,y,z
-x,-y,z
-x,y,1/2+z
x,-y,1/2+z
loop_
_atom_site_type_symbol
_atom_site_label
_atom_site_fract_x
_atom_site_fract_y
_atom_site_fract_z
Si Si1 0.837501 0.938299 0.948620
Si Si2 0.837886 0.300255 0.780747
Si Si3 0.162499 0.938299 0.651154
Si Si4 0.837886 0.300255 0.319027
Si Si5 0.562084 0.372582 0.400524
Si Si6 0.437916 0.627418 0.699251
Si Si7 0.674237 0.805030 0.650278
Si Si8 0.325763 0.805030 0.949496
O O1 0.839044 0.833396 0.872236
O O2 0.714860 0.047445 0.933169
O O3 0.816830 0.887811 0.049887
O O4 0.000000 0.000000 0.946616
O O5 0.839044 0.166604 0.727538
O O6 0.734616 0.382506 0.716028
O O7 0.762349 0.273844 0.875680
O O8 0.000000 0.346390 0.799887
O O9 0.285140 0.047445 0.666605
O O10 0.000000 0.000000 0.653158
O O11 0.734616 0.382506 0.383746
O O12 0.762349 0.273844 0.224095
O O13 0.500000 0.500000 0.444546
O O14 0.500000 0.368679 0.299887
O O15 0.493624 0.244516 0.442352
O O16 0.500000 0.500000 0.655228
O O17 0.506376 0.755484 0.657422
O O18 0.725735 0.778786 0.549887
#
# Coordination Sequence:
#
# PCOD9338832 Si02
#       8
#     4   4   4   4   4   4   4   4
#     4  10  20  35  59  92 131 162 200 258 314 376
#     4  11  21  36  66  93 123 162 208 259 321 379
#     4  10  20  35  59  92 131 162 200 258 314 376
#     4  11  21  36  66  93 123 162 208 259 321 379
#     4   9  21  42  60  82 120 165 217 266 311 368
#     4   9  21  42  60  82 120 165 217 266 311 368
#     4  10  21  37  60  90 127 169 206 253 313 375
#     4  10  21  37  60  90 127 169 206 253 313 375
#
# _framework density 22.264455000000002
#
# number of rings (size 3 to 8) (size 9 to 14) (size 15 to 20)
#    0.000    2.000    2.500    0.750    0.000    2.500 
#    0.000   16.250    0.000    1.500    0.000    0.000 
#    0.000    0.000    0.000    0.000    0.000    0.000 
#
# Total GULP energy -178521.012198 kJ/mol
# GULP energy per Si atom -5578.781631 kJ/mol
# Density = 2.221378 g / cm^3
# Si number density = 22.264455 Si / 1000 Ang^3
#
#
#
# Elastic Constant Matrix: (Units=GPa)
#
#
# Indices 1 2 3 4 5 6 
#
# 1 148.3820 46.3322 22.5184 0.0000 0.0000 0.0000
# 2 46.3322 82.7366 27.7794 0.0000 0.0000 0.0000
# 3 22.5184 27.7794 96.5681 0.0000 0.0000 0.0000
# 4 0.0000 0.0000 0.0000 -19.1724 0.0000 0.0000
# 5 0.0000 0.0000 0.0000 0.0000 14.7830 0.0000
# 6 0.0000 0.0000 0.0000 0.0000 0.0000 22.7517
#
#
#
# Elastic Compliance Matrix: (Units=1/GPa)
#
#
# Indices 1 2 3 4 5 6 
#
# 1 0.008205 -0.004375 -0.000655 0.000000 0.000000 0.000000
# 2 -0.004375 0.015711 -0.003499 0.000000 0.000000 0.000000
# 3 -0.000655 -0.003499 0.011515 0.000000 0.000000 0.000000
# 4 0.000000 0.000000 0.000000 -0.052158 0.000000 0.000000
# 5 0.000000 0.000000 0.000000 0.000000 0.067645 0.000000
# 6 0.000000 0.000000 0.000000 0.000000 0.000000 0.043953
#
#
# Mechanical properties :
#
#
# Convention : Reuss Voigt Hill
#
# Bulk Modulus (GPa) = 54.42825 57.88296 56.15560
# Shear Modulus (GPa) = 42.35382 19.07624 30.71503
#
# Velocity S-wave (km/s) = 4.36628 2.93029 3.71827
# Velocity P-wave (km/s) = 7.06530 6.12399 6.61142
#
# Compressibility (1/GPa) = 0.01837281
#
# Stress axis : x y z
#
# Youngs Moduli (GPa) = 121.88053 63.64806 86.84516
#
# Poissons Ratio (x) = 0.27845 0.05686
# Poissons Ratio (y) = 0.53320 0.30391
# Poissons Ratio (z) = 0.07980 0.22274
#
# Static dielectric constant tensor:
#      x y z
#    x 1.901500 0.000000 0.000000 
#    y 0.000000 1.893700 0.000000 
#    z 0.000000 0.000000 1.794430 
# 
# From -- ./inp_files/3465.got.cif
#   From: 2010.05.17/outbox.cif.g08.bks.cpg/sg27_2_cif.got.tgz:3465.got - 2010.06.04 01:11:05.
