data_PCOD9338552
_publ_section_title
;
Structure prediction by ZEFSAII (Michael W. Deem and Ramdas Pophale) SiO2 
 PCOD9338552
Probable space group: P M C 21
;
_chemical_formula_sum "Si O2"
_cell_formula_units_Z 32
_cell_length_a 8.287450
_cell_length_b 11.725474
_cell_length_c 16.859177
_cell_angle_alpha 90.000000
_cell_angle_beta 90.000000
_cell_angle_gamma 90.000000
_cell_volume 1638.278378
_symmetry_space_group_name_H-M "P M C 21"
_symmetry_group_IT_number 26
_symmetry_cell_setting 'orthorhombic'
loop_
_space_group_symop_operation_xyz
x,y,z
-x,-y,1/2+z
-x,y,z
x,-y,1/2+z
loop_
_atom_site_type_symbol
_atom_site_label
_atom_site_fract_x
_atom_site_fract_y
_atom_site_fract_z
Si Si1 0.688927 0.047636 0.048750
Si Si2 0.804881 0.423073 0.280832
Si Si3 0.693388 0.680100 0.261026
Si Si4 0.186113 0.779072 0.671722
Si Si5 0.815123 0.934330 0.826975
Si Si6 0.196183 0.721027 0.931379
Si Si7 0.686271 0.146611 0.885239
Si Si8 0.807232 0.798939 0.099711
O O1 0.500000 0.021704 0.038476
O O2 0.713067 0.155425 0.106193
O O3 0.766082 0.931947 0.083339
O O4 0.759232 0.092100 0.964819
O O5 0.753188 0.550884 0.263762
O O6 0.751287 0.338390 0.209959
O O7 0.749058 0.372953 0.366692
O O8 0.000000 0.415399 0.281539
O O9 0.500000 0.681112 0.265163
O O10 0.758193 0.746143 0.339269
O O11 0.741724 0.747285 0.181354
O O12 0.182648 0.864349 0.746302
O O13 0.000000 0.763667 0.644349
O O14 0.762400 0.843909 0.893602
O O15 0.000000 0.971102 0.842452
O O16 0.700791 0.042273 0.823868
O O17 0.000000 0.715254 0.932134
O O18 0.250859 0.726001 0.022511
O O19 0.500000 0.172728 0.903759
O O20 0.000000 0.790352 0.102853
#
# Coordination Sequence:
#
# PCOD9338552 Si02
#       8
#     4   4   4   4   4   4   4   4
#     4  11  22  36  55  84 120 152 188 232 286 347
#     4   9  19  40  63  83 110 146 195 242 284 338
#     4  11  24  41  57  81 118 158 197 237 286 344
#     4   9  19  35  58  85 111 142 185 234 283 337
#     4   9  16  31  56  83 108 138 178 226 279 334
#     4   8  16  33  59  86 111 140 181 236 285 334
#     4  10  22  37  52  75 115 155 185 226 278 340
#     4  11  21  37  62  89 117 149 191 241 293 344
#
# _framework density 19.532699999999998
#
# number of rings (size 3 to 8) (size 9 to 14) (size 15 to 20)
#    0.000    2.250    1.250    3.375    0.000    4.500 
#    2.250    3.125    0.000    0.000    0.000    0.000 
#    0.000    0.000    0.000    0.000    0.000    0.000 
#
# Total GULP energy -178369.668824 kJ/mol
# GULP energy per Si atom -5574.052151 kJ/mol
# Density = 1.948824 g / cm^3
# Si number density = 19.532700 Si / 1000 Ang^3
#
#
#
# Elastic Constant Matrix: (Units=GPa)
#
#
# Indices 1 2 3 4 5 6 
#
# 1 16.7421 6.3731 10.5955 0.0000 0.0000 0.0000
# 2 6.3731 132.5185 66.7783 0.0000 0.0000 0.0000
# 3 10.5955 66.7783 83.7865 0.0000 0.0000 0.0000
# 4 0.0000 0.0000 0.0000 25.0321 0.0000 0.0000
# 5 0.0000 0.0000 0.0000 0.0000 15.7041 0.0000
# 6 0.0000 0.0000 0.0000 0.0000 0.0000 31.4866
#
#
#
# Elastic Compliance Matrix: (Units=1/GPa)
#
#
# Indices 1 2 3 4 5 6 
#
# 1 0.065155 0.001702 -0.009596 0.000000 0.000000 0.000000
# 2 0.001702 0.012655 -0.010302 0.000000 0.000000 0.000000
# 3 -0.009596 -0.010302 0.021359 0.000000 0.000000 0.000000
# 4 0.000000 0.000000 0.000000 0.039949 0.000000 0.000000
# 5 0.000000 0.000000 0.000000 0.000000 0.063678 0.000000
# 6 0.000000 0.000000 0.000000 0.000000 0.000000 0.031760
#
#
# Mechanical properties :
#
#
# Convention : Reuss Voigt Hill
#
# Bulk Modulus (GPa) = 15.92907 44.50451 30.21679
# Shear Modulus (GPa) = 17.13077 24.39791 20.76434
#
# Velocity S-wave (km/s) = 2.96468 3.53807 3.26399
# Velocity P-wave (km/s) = 4.46003 6.28686 5.45053
#
# Compressibility (1/GPa) = 0.06277832
#
# Stress axis : x y z
#
# Youngs Moduli (GPa) = 15.34806 79.01721 46.81840
#
# Poissons Ratio (x) = -0.13450 0.44927
# Poissons Ratio (y) = -0.02612 0.48231
# Poissons Ratio (z) = 0.14728 0.81401
#
# Static dielectric constant tensor:
#      x y z
#    x 1.700030 0.000000 0.000000 
#    y 0.000000 1.675360 0.000000 
#    z 0.000000 0.000000 1.747110 
# 
# From -- ./inp_files/4201.got.cif
#   From: 2010.05.17/outbox.cif.g08.bks.cpg/sg26_3_cif.got.tgz:4201.got - 2010.06.04 01:07:29.
