data_PCOD9338648
_publ_section_title
;
Structure prediction by ZEFSAII (Michael W. Deem and Ramdas Pophale) SiO2 
 PCOD9338648
Probable space group: P M C 21
;
_chemical_formula_sum "Si O2"
_cell_formula_units_Z 32
_cell_length_a 9.111929
_cell_length_b 14.176169
_cell_length_c 14.076892
_cell_angle_alpha 90.000000
_cell_angle_beta 90.000000
_cell_angle_gamma 90.000000
_cell_volume 1818.343748
_symmetry_space_group_name_H-M "P M C 21"
_symmetry_group_IT_number 26
_symmetry_cell_setting 'orthorhombic'
loop_
_space_group_symop_operation_xyz
x,y,z
-x,-y,1/2+z
-x,y,z
x,-y,1/2+z
loop_
_atom_site_type_symbol
_atom_site_label
_atom_site_fract_x
_atom_site_fract_y
_atom_site_fract_z
Si Si1 0.176361 0.529087 0.317700
Si Si2 0.825968 0.654242 0.493370
Si Si3 0.324701 0.359296 0.425505
Si Si4 0.673903 0.955128 0.088641
Si Si5 0.174715 0.460887 0.597826
Si Si6 0.326524 0.835189 0.576693
Si Si7 0.673518 0.929879 0.766526
Si Si8 0.826257 0.159960 0.436098
O O1 0.218640 0.612125 0.390944
O O2 0.259403 0.435279 0.351608
O O3 0.205791 0.552442 0.208526
O O4 0.000000 0.513757 0.328169
O O5 0.795442 0.569086 0.567098
O O6 0.753064 0.750627 0.525614
O O7 0.000000 0.668494 0.491448
O O8 0.500000 0.356016 0.420566
O O9 0.268888 0.396110 0.528176
O O10 0.254885 0.257020 0.410919
O O11 0.500000 0.936437 0.076229
O O12 0.707106 0.058169 0.042064
O O13 0.699186 0.977886 0.200333
O O14 0.769451 0.876981 0.037866
O O15 0.000000 0.444136 0.580777
O O16 0.500000 0.822251 0.566778
O O17 0.296256 0.845780 0.689917
O O18 0.500000 0.927435 0.790614
O O19 0.772104 0.915175 0.857525
O O20 0.000000 0.171596 0.435042
#
# Coordination Sequence:
#
# PCOD9338648 Si02
#       8
#     4   4   4   4   4   4   4   4
#     4   9  19  36  55  78 109 146 184 225 277 328
#     4   9  17  29  50  79 107 137 174 221 272 320
#     4  11  23  37  55  82 113 147 189 231 273 329
#     4   8  18  37  56  76 106 141 177 225 277 322
#     4   9  19  37  56  76 108 145 183 228 277 326
#     4   8  17  33  53  76 103 134 170 216 265 315
#     4   8  18  36  56  79 106 138 177 222 271 321
#     4  12  23  35  57  84 112 146 184 230 278 329
#
# _framework density 17.598431999999999
#
# number of rings (size 3 to 8) (size 9 to 14) (size 15 to 20)
#    0.750    2.000    0.000    3.000    1.750    4.000 
#    0.000    1.250    0.000    3.000    0.000    0.000 
#    0.000    0.000    0.000    0.000    0.000    0.000 
#
# Total GULP energy -178193.842040 kJ/mol
# GULP energy per Si atom -5568.557564 kJ/mol
# Density = 1.755838 g / cm^3
# Si number density = 17.598432 Si / 1000 Ang^3
#
#
#
# Elastic Constant Matrix: (Units=GPa)
#
#
# Indices 1 2 3 4 5 6 
#
# 1 61.4772 15.9317 22.4378 0.0000 0.0000 0.0000
# 2 15.9317 19.4708 -2.6649 0.0000 0.0000 0.0000
# 3 22.4378 -2.6649 55.0847 0.0000 0.0000 0.0000
# 4 0.0000 0.0000 0.0000 8.7361 0.0000 0.0000
# 5 0.0000 0.0000 0.0000 0.0000 27.4290 0.0000
# 6 0.0000 0.0000 0.0000 0.0000 0.0000 34.3246
#
#
#
# Elastic Compliance Matrix: (Units=1/GPa)
#
#
# Indices 1 2 3 4 5 6 
#
# 1 0.026763 -0.023546 -0.012040 0.000000 0.000000 0.000000
# 2 -0.023546 0.072418 0.013095 0.000000 0.000000 0.000000
# 3 -0.012040 0.013095 0.023692 0.000000 0.000000 0.000000
# 4 0.000000 0.000000 0.000000 0.114467 0.000000 0.000000
# 5 0.000000 0.000000 0.000000 0.000000 0.036458 0.000000
# 6 0.000000 0.000000 0.000000 0.000000 0.000000 0.029134
#
#
# Mechanical properties :
#
#
# Convention : Reuss Voigt Hill
#
# Bulk Modulus (GPa) = 12.83893 23.04911 17.94402
# Shear Modulus (GPa) = 13.37335 20.78646 17.07991
#
# Velocity S-wave (km/s) = 2.75965 3.44052 3.11872
# Velocity P-wave (km/s) = 4.17918 5.37667 4.81530
#
# Compressibility (1/GPa) = 0.07788809
#
# Stress axis : x y z
#
# Youngs Moduli (GPa) = 37.36548 13.80878 42.20864
#
# Poissons Ratio (x) = 0.32514 0.50821
# Poissons Ratio (y) = 0.87982 -0.55271
# Poissons Ratio (z) = 0.44990 -0.18082
#
# Static dielectric constant tensor:
#      x y z
#    x 1.579230 0.000000 0.000000 
#    y 0.000000 1.603610 0.000000 
#    z 0.000000 0.000000 1.623600 
# 
# From -- ./inp_files/4345.got.cif
#   From: 2010.05.17/outbox.cif.g08.bks.cpg/sg26_3_cif.got.tgz:4345.got - 2010.06.04 01:07:29.
