data_PCOD9338613
_publ_section_title
;
Structure prediction by ZEFSAII (Michael W. Deem and Ramdas Pophale) SiO2 
 PCOD9338613
Probable space group: P M C 21
;
_chemical_formula_sum "Si O2"
_cell_formula_units_Z 22
_cell_length_a 13.482575
_cell_length_b 5.570681
_cell_length_c 14.594538
_cell_angle_alpha 90.000000
_cell_angle_beta 90.000000
_cell_angle_gamma 90.000000
_cell_volume 1096.153781
_symmetry_space_group_name_H-M "P M C 21"
_symmetry_group_IT_number 26
_symmetry_cell_setting 'orthorhombic'
loop_
_space_group_symop_operation_xyz
x,y,z
-x,-y,1/2+z
-x,y,z
x,-y,1/2+z
loop_
_atom_site_type_symbol
_atom_site_label
_atom_site_fract_x
_atom_site_fract_y
_atom_site_fract_z
Si Si1 0.674925 0.025413 0.970140
Si Si2 0.782788 0.269046 0.815759
Si Si3 0.608773 0.479321 0.406707
Si Si4 0.000000 0.443326 0.832773
Si Si5 0.828977 0.924550 0.122821
Si Si6 0.000000 0.720644 0.651414
Si Si7 0.000000 0.659457 0.012428
O O1 0.740684 0.052303 0.877338
O O2 0.613756 0.274528 0.966498
O O3 0.621752 0.768856 0.961617
O O4 0.743987 0.028098 0.058744
O O5 0.704448 0.479389 0.841344
O O6 0.785613 0.221322 0.707975
O O7 0.895160 0.315442 0.847971
O O8 0.500000 0.473944 0.361147
O O9 0.000000 0.513578 0.726294
O O10 0.000000 0.664943 0.903486
O O11 0.902414 0.773879 0.057057
O O12 0.901738 0.124641 0.164651
O O13 0.000000 0.614363 0.549116
#
# Coordination Sequence:
#
# PCOD9338613 Si02
#       7
#     4   4   4   2   4   2   2
#     4  10  24  41  71  96 129 181 214 286 329 401
#     4  10  24  40  66  98 139 179 218 281 325 409
#     4  10  23  47  70  98 132 177 227 281 341 393
#     4  12  21  40  65  98 139 184 218 264 350 386
#     4  11  23  40  59 100 133 178 230 270 337 390
#     4  11  24  37  60  92 146 180 223 280 314 417
#     4  11  23  37  59  88 141 180 225 272 314 415
#
# _framework density 20.070176
#
# number of rings (size 3 to 8) (size 9 to 14) (size 15 to 20)
#    1.091    0.364    1.818    3.273    7.636    0.727 
#    0.000    1.818    0.000    0.000    0.000    0.000 
#    0.000    0.000    0.000    0.000    0.000    0.000 
#
# Total GULP energy -122577.323283 kJ/mol
# GULP energy per Si atom -5571.696513 kJ/mol
# Density = 2.002449 g / cm^3
# Si number density = 20.070176 Si / 1000 Ang^3
#
#
#
# Elastic Constant Matrix: (Units=GPa)
#
#
# Indices 1 2 3 4 5 6 
#
# 1 115.8326 35.7045 22.7204 0.0000 0.0000 0.0000
# 2 35.7045 95.2788 -2.4152 0.0000 0.0000 0.0000
# 3 22.7204 -2.4152 50.9716 0.0000 0.0000 0.0000
# 4 0.0000 0.0000 0.0000 23.9894 0.0000 0.0000
# 5 0.0000 0.0000 0.0000 0.0000 6.1298 0.0000
# 6 0.0000 0.0000 0.0000 0.0000 0.0000 -8.4246
#
#
#
# Elastic Compliance Matrix: (Units=1/GPa)
#
#
# Indices 1 2 3 4 5 6 
#
# 1 0.010930 -0.004225 -0.005072 0.000000 0.000000 0.000000
# 2 -0.004225 0.012141 0.002458 0.000000 0.000000 0.000000
# 3 -0.005072 0.002458 0.021996 0.000000 0.000000 0.000000
# 4 0.000000 0.000000 0.000000 0.041685 0.000000 0.000000
# 5 0.000000 0.000000 0.000000 0.000000 0.163137 0.000000
# 6 0.000000 0.000000 0.000000 0.000000 0.000000 -0.118700
#
#
# Mechanical properties :
#
#
# Convention : Reuss Voigt Hill
#
# Bulk Modulus (GPa) = 31.85686 41.56693 36.71190
# Shear Modulus (GPa) = 32.18952 18.07714 25.13333
#
# Velocity S-wave (km/s) = 4.00915 3.00442 3.54259
# Velocity P-wave (km/s) = 6.11050 5.72635 5.92154
#
# Compressibility (1/GPa) = 0.03139042
#
# Stress axis : x y z
#
# Youngs Moduli (GPa) = 91.48918 82.36596 45.46242
#
# Poissons Ratio (x) = 0.34796 0.23060
# Poissons Ratio (y) = 0.38650 -0.11176
# Poissons Ratio (z) = 0.46406 -0.20249
#
# Static dielectric constant tensor:
#      x y z
#    x 1.659970 0.000000 0.000000 
#    y 0.000000 1.764480 0.000000 
#    z 0.000000 0.000000 1.663080 
# 
# From -- ./inp_files/4610.got.cif
#   From: 2010.05.17/outbox.cif.g08.bks.cpg/sg26_3_cif.got.tgz:4610.got - 2010.06.04 01:07:29.
