data_PCOD9338604
_publ_section_title
;
Structure prediction by ZEFSAII (Michael W. Deem and Ramdas Pophale) SiO2 
 PCOD9338604
Probable space group: P M C 21
;
_chemical_formula_sum "Si O2"
_cell_formula_units_Z 18
_cell_length_a 7.229825
_cell_length_b 9.794468
_cell_length_c 10.124758
_cell_angle_alpha 90.000000
_cell_angle_beta 90.000000
_cell_angle_gamma 90.000000
_cell_volume 716.957296
_symmetry_space_group_name_H-M "P M C 21"
_symmetry_group_IT_number 26
_symmetry_cell_setting 'orthorhombic'
loop_
_space_group_symop_operation_xyz
x,y,z
-x,-y,1/2+z
-x,y,z
x,-y,1/2+z
loop_
_atom_site_type_symbol
_atom_site_label
_atom_site_fract_x
_atom_site_fract_y
_atom_site_fract_z
Si Si1 0.219474 0.024098 0.131180
Si Si2 0.785068 0.742187 0.412732
Si Si3 0.779048 0.560071 0.007738
Si Si4 0.500000 0.300913 0.704421
Si Si5 0.776427 0.159602 0.398929
O O1 0.289624 0.077324 0.271885
O O2 0.000000 0.995570 0.149456
O O3 0.236720 0.154575 0.033822
O O4 0.295302 0.903121 0.037240
O O5 0.730556 0.589473 0.456460
O O6 0.659980 0.779238 0.290511
O O7 0.000000 0.742726 0.375950
O O8 0.661489 0.605426 0.132462
O O9 0.000000 0.561918 0.034445
O O10 0.737219 0.679458 0.900730
O O11 0.000000 0.146115 0.400247
#
# Coordination Sequence:
#
# PCOD9338604 Si02
#       5
#     4   4   4   2   4
#     4   9  19  37  65  97 129 170 219 271 331 392
#     4  10  23  42  67  95 129 175 222 270 330 395
#     4  10  23  42  67  95 129 175 222 270 330 395
#     4  12  24  40  64 100 132 170 214 284 326 396
#     4   9  19  37  65  97 129 170 219 271 331 392
#
# _framework density 25.106096000000001
#
# number of rings (size 3 to 8) (size 9 to 14) (size 15 to 20)
#    0.000    2.222    0.000    1.333    6.222    0.000 
#    0.000    1.111    0.000    0.000    0.000    0.000 
#    0.000    0.000    0.000    0.000    0.000    0.000 
#
# Total GULP energy -100264.536355 kJ/mol
# GULP energy per Si atom -5570.252020 kJ/mol
# Density = 2.504895 g / cm^3
# Si number density = 25.106096 Si / 1000 Ang^3
#
#
#
# Elastic Constant Matrix: (Units=GPa)
#
#
# Indices 1 2 3 4 5 6 
#
# 1 109.1474 -6.5032 14.3759 0.0000 0.0000 0.0000
# 2 -6.5032 123.9078 -9.6274 0.0000 0.0000 0.0000
# 3 14.3759 -9.6274 87.7536 0.0000 0.0000 0.0000
# 4 0.0000 0.0000 0.0000 24.7297 0.0000 0.0000
# 5 0.0000 0.0000 0.0000 0.0000 188.4075 0.0000
# 6 0.0000 0.0000 0.0000 0.0000 0.0000 -33.6399
#
#
#
# Elastic Compliance Matrix: (Units=1/GPa)
#
#
# Indices 1 2 3 4 5 6 
#
# 1 0.009381 0.000376 -0.001496 0.000000 0.000000 0.000000
# 2 0.000376 0.008155 0.000833 0.000000 0.000000 0.000000
# 3 -0.001496 0.000833 0.011732 0.000000 0.000000 0.000000
# 4 0.000000 0.000000 0.000000 0.040437 0.000000 0.000000
# 5 0.000000 0.000000 0.000000 0.000000 0.005308 0.000000
# 6 0.000000 0.000000 0.000000 0.000000 0.000000 -0.029727
#
#
# Mechanical properties :
#
#
# Convention : Reuss Voigt Hill
#
# Bulk Modulus (GPa) = 34.84865 35.25549 35.05207
# Shear Modulus (GPa) = 90.21299 57.40369 73.80834
#
# Velocity S-wave (km/s) = 6.00089 4.78687 5.42793
# Velocity P-wave (km/s) = 7.86924 6.68021 7.29898
#
# Compressibility (1/GPa) = 0.02869552
#
# Stress axis : x y z
#
# Youngs Moduli (GPa) = 106.59485 122.62437 85.23737
#
# Poissons Ratio (x) = -0.04613 0.12748
# Poissons Ratio (y) = -0.04010 -0.07101
# Poissons Ratio (z) = 0.15942 -0.10215
#
# Static dielectric constant tensor:
#      x y z
#    x 1.937390 0.000000 0.000000 
#    y 0.000000 1.994380 0.000000 
#    z 0.000000 0.000000 1.992660 
# 
# From -- ./inp_files/1252.got.cif
#   From: 2010.05.17/outbox.cif.g08.bks.cpg/sg26_1_cif.got.tgz:1252.got - 2010.06.04 01:07:29.
