data_PCOD9338086
_publ_section_title
;
Structure prediction by ZEFSAII (Michael W. Deem and Ramdas Pophale) SiO2 
 PCOD9338086
Probable space group: P M C 21
;
_chemical_formula_sum "Si O2"
_cell_formula_units_Z 32
_cell_length_a 7.613283
_cell_length_b 11.119475
_cell_length_c 14.643330
_cell_angle_alpha 90.000000
_cell_angle_beta 90.000000
_cell_angle_gamma 90.000000
_cell_volume 1239.641498
_symmetry_space_group_name_H-M "P M C 21"
_symmetry_group_IT_number 26
_symmetry_cell_setting 'orthorhombic'
loop_
_space_group_symop_operation_xyz
x,y,z
-x,-y,1/2+z
-x,y,z
x,-y,1/2+z
loop_
_atom_site_type_symbol
_atom_site_label
_atom_site_fract_x
_atom_site_fract_y
_atom_site_fract_z
Si Si1 0.213521 0.439267 0.459860
Si Si2 0.786593 0.964121 0.795731
Si Si3 0.700071 0.798733 0.411090
Si Si4 0.786540 0.801814 0.069784
Si Si5 0.785132 0.426185 0.127799
Si Si6 0.793086 0.661085 0.239278
Si Si7 0.785395 0.296711 0.295642
Si Si8 0.209788 0.938812 0.585467
O O1 0.260998 0.315463 0.512497
O O2 0.276145 0.546447 0.525292
O O3 0.273498 0.407774 0.358430
O O4 0.000000 0.448335 0.456608
O O5 0.736892 0.832901 0.834717
O O6 0.727833 0.949879 0.690160
O O7 0.000000 0.974098 0.797275
O O8 0.723412 0.078271 0.852136
O O9 0.500000 0.768677 0.418706
O O10 0.774952 0.694448 0.345224
O O11 0.760945 0.832267 0.513075
O O12 0.733048 0.770737 0.174128
O O13 0.000000 0.805686 0.065274
O O14 0.726745 0.934228 0.042370
O O15 0.727501 0.540881 0.189607
O O16 0.729698 0.315683 0.190951
O O17 0.000000 0.422206 0.123669
O O18 0.000000 0.651471 0.225016
O O19 0.000000 0.298726 0.295718
O O20 0.000000 0.941427 0.594668
#
# Coordination Sequence:
#
# PCOD9338086 Si02
#       8
#     4   4   4   4   4   4   4   4
#     4   8  13  22  40  67 100 135 166 207 261 311
#     4  10  20  36  58  81 109 143 181 227 275 328
#     4  12  24  35  51  78 112 145 179 222 272 328
#     4   8  13  25  48  72  94 126 170 217 259 301
#     4   8  15  27  46  74 106 136 170 219 270 317
#     4   9  16  32  54  74 100 134 177 220 263 313
#     4   9  16  28  47  77 110 138 172 220 274 319
#     4  10  19  33  53  77 105 141 181 220 270 331
#
# _framework density 25.813914
#
# number of rings (size 3 to 8) (size 9 to 14) (size 15 to 20)
#    0.000    2.750    1.250    3.375    0.000    2.500 
#    2.250    0.000    0.000    0.750    0.000    0.000 
#    0.000    0.000    0.000    0.000    0.000    0.000 
#
# Total GULP energy -178568.665632 kJ/mol
# GULP energy per Si atom -5580.270801 kJ/mol
# Density = 2.575516 g / cm^3
# Si number density = 25.813914 Si / 1000 Ang^3
#
#
#
# Elastic Constant Matrix: (Units=GPa)
#
#
# Indices 1 2 3 4 5 6 
#
# 1 42.1422 -1.1962 -7.3360 0.0000 0.0000 0.0000
# 2 -1.1962 68.0290 16.0602 0.0000 0.0000 0.0000
# 3 -7.3360 16.0602 147.4504 0.0000 0.0000 0.0000
# 4 0.0000 0.0000 0.0000 47.2995 0.0000 0.0000
# 5 0.0000 0.0000 0.0000 0.0000 92.4391 0.0000
# 6 0.0000 0.0000 0.0000 0.0000 0.0000 26.6018
#
#
#
# Elastic Compliance Matrix: (Units=1/GPa)
#
#
# Indices 1 2 3 4 5 6 
#
# 1 0.023938 0.000143 0.001175 0.000000 0.000000 0.000000
# 2 0.000143 0.015088 -0.001636 0.000000 0.000000 0.000000
# 3 0.001175 -0.001636 0.007019 0.000000 0.000000 0.000000
# 4 0.000000 0.000000 0.000000 0.021142 0.000000 0.000000
# 5 0.000000 0.000000 0.000000 0.000000 0.010818 0.000000
# 6 0.000000 0.000000 0.000000 0.000000 0.000000 0.037591
#
#
# Mechanical properties :
#
#
# Convention : Reuss Voigt Hill
#
# Bulk Modulus (GPa) = 22.02162 30.29751 26.15956
# Shear Modulus (GPa) = 38.06110 49.94101 44.00105
#
# Velocity S-wave (km/s) = 3.84401 4.40324 4.13310
# Velocity P-wave (km/s) = 5.31520 6.13301 5.73869
#
# Compressibility (1/GPa) = 0.04540992
#
# Stress axis : x y z
#
# Youngs Moduli (GPa) = 41.77484 66.27600 142.47770
#
# Poissons Ratio (x) = -0.00951 -0.16746
# Poissons Ratio (y) = -0.00599 0.23313
# Poissons Ratio (z) = -0.04910 0.10845
#
# Static dielectric constant tensor:
#      x y z
#    x 1.954850 0.000000 0.000000 
#    y 0.000000 2.081670 0.000000 
#    z 0.000000 0.000000 2.197180 
# 
# From -- ./inp_files/4303.got.cif
#   From: 2010.05.17/outbox.cif.g08.bks.cpg/sg26_3_cif.got.tgz:4303.got - 2010.06.04 01:07:29.
