data_PCOD9338421
_publ_section_title
;
Structure prediction by ZEFSAII (Michael W. Deem and Ramdas Pophale) SiO2 
 PCOD9338421
Probable space group: P M C 21
;
_chemical_formula_sum "Si O2"
_cell_formula_units_Z 20
_cell_length_a 8.099497
_cell_length_b 13.210090
_cell_length_c 8.034452
_cell_angle_alpha 90.000000
_cell_angle_beta 90.000000
_cell_angle_gamma 90.000000
_cell_volume 859.646869
_symmetry_space_group_name_H-M "P M C 21"
_symmetry_group_IT_number 26
_symmetry_cell_setting 'orthorhombic'
loop_
_space_group_symop_operation_xyz
x,y,z
-x,-y,1/2+z
-x,y,z
x,-y,1/2+z
loop_
_atom_site_type_symbol
_atom_site_label
_atom_site_fract_x
_atom_site_fract_y
_atom_site_fract_z
Si Si1 0.689595 0.346317 0.670090
Si Si2 0.816167 0.161460 0.480140
Si Si3 0.500000 0.158727 0.014816
Si Si4 0.189262 0.521285 0.477292
Si Si5 0.184554 0.273578 0.124684
Si Si6 0.500000 0.955605 0.870480
O O1 0.500000 0.323193 0.705411
O O2 0.782796 0.244103 0.622284
O O3 0.769078 0.410865 0.818009
O O4 0.700044 0.425005 0.515738
O O5 0.811447 0.224959 0.307304
O O6 0.665656 0.083387 0.463014
O O7 0.000000 0.116450 0.497614
O O8 0.334452 0.224795 0.022867
O O9 0.500000 0.093958 0.187757
O O10 0.500000 0.076383 0.870312
O O11 0.205826 0.605507 0.623623
O O12 0.000000 0.486427 0.471154
O O13 0.000000 0.254100 0.055283
#
# Coordination Sequence:
#
# PCOD9338421 Si02
#       6
#     4   4   2   4   4   2
#     4  12  24  37  58  89 121 157 200 241 290 345
#     4  10  20  40  63  85 118 155 196 243 290 346
#     4  10  22  38  63  82 123 146 191 244 298 346
#     4  11  23  39  58  85 120 160 200 238 289 347
#     4   9  21  39  62  87 114 155 198 239 291 349
#     4  10  22  40  57  92 111 154 191 240 296 356
#
# _framework density 23.265364999999999
#
# number of rings (size 3 to 8) (size 9 to 14) (size 15 to 20)
#    0.000    1.600    1.000    3.600    2.800    4.000 
#    0.000    0.000    0.000    0.000    0.000    0.000 
#    0.000    0.000    0.000    0.000    0.000    0.000 
#
# Total GULP energy -111932.332937 kJ/mol
# GULP energy per Si atom -5596.616647 kJ/mol
# Density = 2.321241 g / cm^3
# Si number density = 23.265365 Si / 1000 Ang^3
#
#
#
# Elastic Constant Matrix: (Units=GPa)
#
#
# Indices 1 2 3 4 5 6 
#
# 1 168.9502 42.7716 14.4416 0.0000 0.0000 0.0000
# 2 42.7716 65.2939 -3.6505 0.0000 0.0000 0.0000
# 3 14.4416 -3.6505 54.0776 0.0000 0.0000 0.0000
# 4 0.0000 0.0000 0.0000 37.3775 0.0000 0.0000
# 5 0.0000 0.0000 0.0000 0.0000 25.7165 0.0000
# 6 0.0000 0.0000 0.0000 0.0000 0.0000 14.6809
#
#
#
# Elastic Compliance Matrix: (Units=1/GPa)
#
#
# Indices 1 2 3 4 5 6 
#
# 1 0.007371 -0.004957 -0.002303 0.000000 0.000000 0.000000
# 2 -0.004957 0.018707 0.002587 0.000000 0.000000 0.000000
# 3 -0.002303 0.002587 0.019282 0.000000 0.000000 0.000000
# 4 0.000000 0.000000 0.000000 0.026754 0.000000 0.000000
# 5 0.000000 0.000000 0.000000 0.000000 0.038886 0.000000
# 6 0.000000 0.000000 0.000000 0.000000 0.000000 0.068116
#
#
# Mechanical properties :
#
#
# Convention : Reuss Voigt Hill
#
# Bulk Modulus (GPa) = 27.76806 43.93857 35.85332
# Shear Modulus (GPa) = 24.94191 31.20556 28.07374
#
# Velocity S-wave (km/s) = 3.27779 3.66633 3.47749
# Velocity P-wave (km/s) = 5.12703 6.07038 5.61854
#
# Compressibility (1/GPa) = 0.03601259
#
# Stress axis : x y z
#
# Youngs Moduli (GPa) = 135.67258 53.45551 51.86301
#
# Poissons Ratio (x) = 0.26498 0.11944
# Poissons Ratio (y) = 0.67253 -0.13415
# Poissons Ratio (z) = 0.31245 -0.13827
#
# Static dielectric constant tensor:
#      x y z
#    x 1.819960 0.000000 0.000000 
#    y 0.000000 1.811680 0.000000 
#    z 0.000000 0.000000 1.982130 
# 
# From -- ./inp_files/1315.got.cif
#   From: 2010.05.17/outbox.cif.g08.bks.cpg/sg26_1_cif.got.tgz:1315.got - 2010.06.04 01:07:29.
