data_PCOD9338341
_publ_section_title
;
Structure prediction by ZEFSAII (Michael W. Deem and Ramdas Pophale) SiO2 
 PCOD9338341
Probable space group: P M C 21
;
_chemical_formula_sum "Si O2"
_cell_formula_units_Z 32
_cell_length_a 11.723294
_cell_length_b 14.962536
_cell_length_c 9.230390
_cell_angle_alpha 90.000000
_cell_angle_beta 90.000000
_cell_angle_gamma 90.000000
_cell_volume 1619.104635
_symmetry_space_group_name_H-M "P M C 21"
_symmetry_group_IT_number 26
_symmetry_cell_setting 'orthorhombic'
loop_
_space_group_symop_operation_xyz
x,y,z
-x,-y,1/2+z
-x,y,z
x,-y,1/2+z
loop_
_atom_site_type_symbol
_atom_site_label
_atom_site_fract_x
_atom_site_fract_y
_atom_site_fract_z
Si Si1 0.799241 0.001552 0.863600
Si Si2 0.129040 0.601411 0.799809
Si Si3 0.134391 0.407559 0.951578
Si Si4 0.366809 0.671551 0.301063
Si Si5 0.374076 0.146541 0.960157
Si Si6 0.121815 0.125377 0.607120
Si Si7 0.623294 0.146883 0.275489
Si Si8 0.711223 0.278336 0.501409
O O1 0.719400 0.927307 0.790292
O O2 0.859303 0.063797 0.746727
O O3 0.873054 0.944027 0.973962
O O4 0.717858 0.069821 0.947865
O O5 0.131969 0.505398 0.878731
O O6 0.150848 0.592028 0.626681
O O7 0.000000 0.637607 0.813767
O O8 0.214173 0.664134 0.889177
O O9 0.250721 0.364782 0.880915
O O10 0.000000 0.372393 0.927734
O O11 0.500000 0.641022 0.335931
O O12 0.365885 0.776404 0.342400
O O13 0.346232 0.664200 0.128387
O O14 0.500000 0.105864 0.949204
O O15 0.364106 0.191243 0.118147
O O16 0.212013 0.203100 0.580616
O O17 0.000000 0.170480 0.616324
O O18 0.500000 0.101805 0.279726
O O19 0.629673 0.219108 0.401339
#
# Coordination Sequence:
#
# PCOD9338341 Si02
#       8
#     4   4   4   4   4   4   4   4
#     4  11  20  38  54  79 112 151 203 247 311 364
#     4  10  21  41  68  96 127 165 213 259 311 382
#     4  10  22  42  69  98 127 166 211 259 313 378
#     4  11  23  40  62  94 129 164 209 262 317 379
#     4  10  20  36  56  80 113 152 199 251 303 363
#     4  11  23  37  56  81 117 160 205 259 313 366
#     4  10  21  36  57  82 112 154 199 248 304 365
#     4  11  22  38  62  88 128 160 207 253 315 373
#
# _framework density 19.764011
#
# number of rings (size 3 to 8) (size 9 to 14) (size 15 to 20)
#    0.000    1.500    2.500    3.000    0.000    2.000 
#    0.000    3.750    0.000    0.000    0.000    0.000 
#    0.000    0.000    0.000    0.000    0.000    0.000 
#
# Total GULP energy -178195.960985 kJ/mol
# GULP energy per Si atom -5568.623781 kJ/mol
# Density = 1.971903 g / cm^3
# Si number density = 19.764011 Si / 1000 Ang^3
#
#
#
# Elastic Constant Matrix: (Units=GPa)
#
#
# Indices 1 2 3 4 5 6 
#
# 1 123.8968 27.3082 45.3049 0.0000 0.0000 0.0000
# 2 27.3082 36.2784 11.0142 0.0000 0.0000 0.0000
# 3 45.3049 11.0142 118.4875 0.0000 0.0000 0.0000
# 4 0.0000 0.0000 0.0000 32.5274 0.0000 0.0000
# 5 0.0000 0.0000 0.0000 0.0000 41.5969 0.0000
# 6 0.0000 0.0000 0.0000 0.0000 0.0000 460.9042
#
#
#
# Elastic Compliance Matrix: (Units=1/GPa)
#
#
# Indices 1 2 3 4 5 6 
#
# 1 0.010936 -0.007165 -0.003515 0.000000 0.000000 0.000000
# 2 -0.007165 0.033059 -0.000334 0.000000 0.000000 0.000000
# 3 -0.003515 -0.000334 0.009815 0.000000 0.000000 0.000000
# 4 0.000000 0.000000 0.000000 0.030743 0.000000 0.000000
# 5 0.000000 0.000000 0.000000 0.000000 0.024040 0.000000
# 6 0.000000 0.000000 0.000000 0.000000 0.000000 0.002170
#
#
# Mechanical properties :
#
#
# Convention : Reuss Voigt Hill
#
# Bulk Modulus (GPa) = 31.46387 49.54636 40.50512
# Shear Modulus (GPa) = 34.87134 120.00808 77.43971
#
# Velocity S-wave (km/s) = 4.20502 7.80079 6.26636
# Velocity P-wave (km/s) = 6.28733 10.30824 8.53787
#
# Compressibility (1/GPa) = 0.03178248
#
# Stress axis : x y z
#
# Youngs Moduli (GPa) = 91.44229 30.24900 101.88606
#
# Poissons Ratio (x) = 0.21672 0.35817
# Poissons Ratio (y) = 0.65514 0.03399
# Poissons Ratio (z) = 0.32146 0.01009
#
# Static dielectric constant tensor:
#      x y z
#    x 1.728870 0.000000 0.000000 
#    y 0.000000 1.641500 0.000000 
#    z 0.000000 0.000000 1.728900 
# 
# From -- ./inp_files/1965.got.cif
#   From: 2010.05.17/outbox.cif.g08.bks.cpg/sg26_1_cif.got.tgz:1965.got - 2010.06.04 01:07:29.
