data_PCOD9338713
_publ_section_title
;
Structure prediction by ZEFSAII (Michael W. Deem and Ramdas Pophale) SiO2 
 PCOD9338713
Probable space group: P C C 2
;
_chemical_formula_sum "Si O2"
_cell_formula_units_Z 24
_cell_length_a 6.898570
_cell_length_b 30.174664
_cell_length_c 5.215103
_cell_angle_alpha 90.000000
_cell_angle_beta 90.000000
_cell_angle_gamma 90.000000
_cell_volume 1085.586437
_symmetry_space_group_name_H-M "P C C 2"
_symmetry_group_IT_number 27
_symmetry_cell_setting 'orthorhombic'
loop_
_space_group_symop_operation_xyz
x,y,z
-x,-y,z
-x,y,1/2+z
x,-y,1/2+z
loop_
_atom_site_type_symbol
_atom_site_label
_atom_site_fract_x
_atom_site_fract_y
_atom_site_fract_z
Si Si1 0.716429 0.981764 0.984400
Si Si2 0.276419 0.482237 0.969137
Si Si3 0.629838 0.614710 0.044674
Si Si4 0.373072 0.291916 0.157201
Si Si5 0.125389 0.794585 0.544097
Si Si6 0.868519 0.109409 0.639609
O O1 0.500000 0.000000 0.941202
O O2 0.805322 0.986637 0.702493
O O3 0.730251 0.932061 0.086518
O O4 0.500000 0.500000 0.932823
O O5 0.194297 0.485624 0.685142
O O6 0.266747 0.432284 0.070163
O O7 0.460305 0.614622 0.259685
O O8 0.734696 0.661347 0.099587
O O9 0.453417 0.291885 0.446710
O O10 0.251518 0.248248 0.102742
O O11 0.224900 0.842150 0.597855
O O12 0.049205 0.793801 0.252580
O O13 0.036170 0.107040 0.420697
#
# Coordination Sequence:
#
# PCOD9338713 Si02
#       6
#     4   4   4   4   4   4
#     4  10  21  37  53  80 114 143 173 214 267 314
#     4  10  14  20  34  55  86 133 166 196 257 319
#     4  10  16  25  39  62  99 134 161 213 263 326
#     4  10  21  35  53  83 113 142 176 228 288 327
#     4  10  21  40  61  81 111 146 188 228 270 328
#     4  10  21  37  59  83 105 140 184 224 257 305
#
# _framework density 22.107868
#
# number of rings (size 3 to 8) (size 9 to 14) (size 15 to 20)
#    0.000    2.000    3.333    2.000    0.000    2.000 
#    6.000    0.000    0.000    0.000    0.000    0.000 
#    0.000    4.000    0.000    0.000    0.000    0.000 
#
# Total GULP energy -133852.172508 kJ/mol
# GULP energy per Si atom -5577.173855 kJ/mol
# Density = 2.205755 g / cm^3
# Si number density = 22.107868 Si / 1000 Ang^3
#
#
#
# Elastic Constant Matrix: (Units=GPa)
#
#
# Indices 1 2 3 4 5 6 
#
# 1 31.1557 6.6107 -15.7135 0.0000 0.0000 0.0000
# 2 6.6107 180.2114 -10.7282 0.0000 0.0000 0.0000
# 3 -15.7135 -10.7282 125.6474 0.0000 0.0000 0.0000
# 4 0.0000 0.0000 0.0000 35.6242 0.0000 0.0000
# 5 0.0000 0.0000 0.0000 0.0000 -3.0588 0.0000
# 6 0.0000 0.0000 0.0000 0.0000 0.0000 9.6793
#
#
#
# Elastic Compliance Matrix: (Units=1/GPa)
#
#
# Indices 1 2 3 4 5 6 
#
# 1 0.034440 -0.001012 0.004221 0.000000 0.000000 0.000000
# 2 -0.001012 0.005607 0.000352 0.000000 0.000000 0.000000
# 3 0.004221 0.000352 0.008517 0.000000 0.000000 0.000000
# 4 0.000000 0.000000 0.000000 0.028071 0.000000 0.000000
# 5 0.000000 0.000000 0.000000 0.000000 -0.326920 0.000000
# 6 0.000000 0.000000 0.000000 0.000000 0.000000 0.103313
#
#
# Mechanical properties :
#
#
# Convention : Reuss Voigt Hill
#
# Bulk Modulus (GPa) = 17.95791 33.03915 25.49853
# Shear Modulus (GPa) = -36.89164 32.23864 -2.32650
#
# Velocity S-wave (km/s) = -4.08942 3.82284 -1.02695
# Velocity P-wave (km/s) = 3.76262 5.87047 3.18631
#
# Compressibility (1/GPa) = 0.05568576
#
# Stress axis : x y z
#
# Youngs Moduli (GPa) = 29.03569 178.34428 117.41645
#
# Poissons Ratio (x) = 0.18050 -0.49558
# Poissons Ratio (y) = 0.02939 -0.04135
# Poissons Ratio (z) = -0.12255 -0.06281
#
# Static dielectric constant tensor:
#      x y z
#    x 1.918680 0.000000 0.000000 
#    y 0.000000 1.857310 0.000000 
#    z 0.000000 0.000000 1.850590 
# 
# From -- ./inp_files/166.got.cif
#   From: 2010.05.17/outbox.cif.g08.bks.cpg/sg27_1_cif.got.tgz:166.got - 2010.06.04 01:11:05.
