data_PCOD9338227
_publ_section_title
;
Structure prediction by ZEFSAII (Michael W. Deem and Ramdas Pophale) SiO2 
 PCOD9338227
Probable space group: P M C 21
;
_chemical_formula_sum "Si O2"
_cell_formula_units_Z 32
_cell_length_a 8.945064
_cell_length_b 14.824117
_cell_length_c 12.260540
_cell_angle_alpha 90.000000
_cell_angle_beta 90.000000
_cell_angle_gamma 90.000000
_cell_volume 1625.780405
_symmetry_space_group_name_H-M "P M C 21"
_symmetry_group_IT_number 26
_symmetry_cell_setting 'orthorhombic'
loop_
_space_group_symop_operation_xyz
x,y,z
-x,-y,1/2+z
-x,y,z
x,-y,1/2+z
loop_
_atom_site_type_symbol
_atom_site_label
_atom_site_fract_x
_atom_site_fract_y
_atom_site_fract_z
Si Si1 0.677811 0.637897 0.873360
Si Si2 0.664135 0.138615 0.838650
Si Si3 0.671317 0.130571 0.095608
Si Si4 0.180530 0.237059 0.538044
Si Si5 0.673124 0.664762 0.243109
Si Si6 0.174008 0.053519 0.649701
Si Si7 0.320663 0.665163 0.620215
Si Si8 0.178877 0.547814 0.426659
O O1 0.500000 0.638522 0.892947
O O2 0.702090 0.631427 0.743461
O O3 0.754207 0.552389 0.930480
O O4 0.751273 0.726910 0.925677
O O5 0.500000 0.108704 0.796767
O O6 0.671268 0.245432 0.818123
O O7 0.791749 0.092110 0.769276
O O8 0.673080 0.119797 0.965267
O O9 0.500000 0.130532 0.134623
O O10 0.732129 0.230619 0.118144
O O11 0.752050 0.043413 0.140904
O O12 0.246338 0.302412 0.632845
O O13 0.228150 0.134753 0.569871
O O14 0.000000 0.241267 0.538276
O O15 0.500000 0.638248 0.222495
O O16 0.759609 0.591306 0.314095
O O17 0.000000 0.043577 0.629594
O O18 0.500000 0.664477 0.596655
O O19 0.239933 0.606068 0.528455
O O20 0.000000 0.546678 0.427041
#
# Coordination Sequence:
#
# PCOD9338227 Si02
#       8
#     4   4   4   4   4   4   4   4
#     4  11  25  43  66  91 124 169 213 260 314 376
#     4   9  18  35  59  84 113 154 204 258 303 355
#     4  10  20  38  63  90 120 157 208 262 308 364
#     4  10  22  41  61  88 128 165 208 260 314 371
#     4  10  19  37  64  89 117 155 206 257 306 364
#     4  10  22  37  57  89 127 165 205 252 312 380
#     4  10  23  45  67  92 124 161 214 264 310 372
#     4  12  25  40  63  93 127 162 202 255 317 380
#
# _framework density 19.682853999999999
#
# number of rings (size 3 to 8) (size 9 to 14) (size 15 to 20)
#    0.000    1.750    1.250    2.625    1.750    5.000 
#    0.000    3.750    0.000    0.000    0.000    0.000 
#    0.000    0.000    0.000    0.000    0.000    0.000 
#
# Total GULP energy -178701.111995 kJ/mol
# GULP energy per Si atom -5584.409750 kJ/mol
# Density = 1.963806 g / cm^3
# Si number density = 19.682854 Si / 1000 Ang^3
#
#
#
# Elastic Constant Matrix: (Units=GPa)
#
#
# Indices 1 2 3 4 5 6 
#
# 1 85.4773 45.0837 25.6976 0.0000 0.0000 0.0000
# 2 45.0837 117.2218 26.0673 0.0000 0.0000 0.0000
# 3 25.6976 26.0673 38.1057 0.0000 0.0000 0.0000
# 4 0.0000 0.0000 0.0000 20.6135 0.0000 0.0000
# 5 0.0000 0.0000 0.0000 0.0000 22.2005 0.0000
# 6 0.0000 0.0000 0.0000 0.0000 0.0000 21.8759
#
#
#
# Elastic Compliance Matrix: (Units=1/GPa)
#
#
# Indices 1 2 3 4 5 6 
#
# 1 0.016519 -0.004571 -0.008013 0.000000 0.000000 0.000000
# 2 -0.004571 0.011326 -0.004665 0.000000 0.000000 0.000000
# 3 -0.008013 -0.004665 0.034838 0.000000 0.000000 0.000000
# 4 0.000000 0.000000 0.000000 0.048512 0.000000 0.000000
# 5 0.000000 0.000000 0.000000 0.000000 0.045044 0.000000
# 6 0.000000 0.000000 0.000000 0.000000 0.000000 0.045712
#
#
# Mechanical properties :
#
#
# Convention : Reuss Voigt Hill
#
# Bulk Modulus (GPa) = 35.48081 48.27798 41.87939
# Shear Modulus (GPa) = 20.33796 22.53507 21.43652
#
# Velocity S-wave (km/s) = 3.21796 3.38732 3.30373
# Velocity P-wave (km/s) = 5.64556 6.31504 5.98966
#
# Compressibility (1/GPa) = 0.02818425
#
# Stress axis : x y z
#
# Youngs Moduli (GPa) = 60.53599 88.28883 28.70432
#
# Poissons Ratio (x) = 0.40360 0.23000
# Poissons Ratio (y) = 0.27673 0.13392
# Poissons Ratio (z) = 0.48507 0.41190
#
# Static dielectric constant tensor:
#      x y z
#    x 1.681280 0.000000 0.000000 
#    y 0.000000 1.692010 0.000000 
#    z 0.000000 0.000000 1.682000 
# 
# From -- ./inp_files/2975.got.cif
#   From: 2010.05.17/outbox.cif.g08.bks.cpg/sg26_2_cif.got.tgz:2975.got - 2010.06.04 01:07:29.
