data_PCOD9338297
_publ_section_title
;
Structure prediction by ZEFSAII (Michael W. Deem and Ramdas Pophale) SiO2 
 PCOD9338297
Probable space group: P M C 21
;
_chemical_formula_sum "Si O2"
_cell_formula_units_Z 24
_cell_length_a 9.786729
_cell_length_b 20.144980
_cell_length_c 5.456751
_cell_angle_alpha 90.000000
_cell_angle_beta 90.000000
_cell_angle_gamma 90.000000
_cell_volume 1075.817340
_symmetry_space_group_name_H-M "P M C 21"
_symmetry_group_IT_number 26
_symmetry_cell_setting 'orthorhombic'
loop_
_space_group_symop_operation_xyz
x,y,z
-x,-y,1/2+z
-x,y,z
x,-y,1/2+z
loop_
_atom_site_type_symbol
_atom_site_label
_atom_site_fract_x
_atom_site_fract_y
_atom_site_fract_z
Si Si1 0.150986 0.842570 0.335970
Si Si2 0.156788 0.457907 0.117411
Si Si3 0.847167 0.291141 0.544134
Si Si4 0.652537 0.640582 0.371088
Si Si5 0.835594 0.033206 0.521944
Si Si6 0.651653 0.776677 0.653758
O O1 0.185693 0.891387 0.112325
O O2 0.272975 0.838617 0.528669
O O3 0.000000 0.863035 0.434545
O O4 0.136570 0.767241 0.244614
O O5 0.172176 0.504674 0.876084
O O6 0.271970 0.402338 0.077513
O O7 0.000000 0.432089 0.104475
O O8 0.761920 0.352317 0.652649
O O9 0.755598 0.254851 0.345015
O O10 0.000000 0.309493 0.463138
O O11 0.500000 0.615598 0.308690
O O12 0.635301 0.716008 0.462499
O O13 0.000000 0.025296 0.507678
O O14 0.785022 0.010478 0.255152
O O15 0.500000 0.791620 0.751694
#
# Coordination Sequence:
#
# PCOD9338297 Si02
#       6
#     4   4   4   4   4   4
#     4   9  19  34  54  82 111 145 192 240 294 352
#     4  10  23  42  63  90 122 159 201 245 295 352
#     4  10  20  34  57  85 114 150 192 245 297 355
#     4  10  22  39  58  84 117 152 197 244 296 356
#     4   9  18  31  52  82 115 148 188 243 298 348
#     4  10  21  36  56  83 115 152 190 241 298 355
#
# _framework density 22.308617000000002
#
# number of rings (size 3 to 8) (size 9 to 14) (size 15 to 20)
#    0.000    2.333    0.000    1.500    4.667    3.333 
#    0.000    0.000    0.000    1.000    0.000    0.000 
#    0.000    0.000    0.000    0.000    0.000    0.000 
#
# Total GULP energy -133840.664417 kJ/mol
# GULP energy per Si atom -5576.694351 kJ/mol
# Density = 2.225784 g / cm^3
# Si number density = 22.308617 Si / 1000 Ang^3
#
#
#
# Elastic Constant Matrix: (Units=GPa)
#
#
# Indices 1 2 3 4 5 6 
#
# 1 144.5656 22.1103 26.4394 0.0000 0.0000 0.0000
# 2 22.1103 69.9781 11.6528 0.0000 0.0000 0.0000
# 3 26.4394 11.6528 69.6670 0.0000 0.0000 0.0000
# 4 0.0000 0.0000 0.0000 47.1253 0.0000 0.0000
# 5 0.0000 0.0000 0.0000 0.0000 12.3372 0.0000
# 6 0.0000 0.0000 0.0000 0.0000 0.0000 -120.8200
#
#
#
# Elastic Compliance Matrix: (Units=1/GPa)
#
#
# Indices 1 2 3 4 5 6 
#
# 1 0.007696 -0.002001 -0.002586 0.000000 0.000000 0.000000
# 2 -0.002001 0.015220 -0.001786 0.000000 0.000000 0.000000
# 3 -0.002586 -0.001786 0.015634 0.000000 0.000000 0.000000
# 4 0.000000 0.000000 0.000000 0.021220 0.000000 0.000000
# 5 0.000000 0.000000 0.000000 0.000000 0.081056 0.000000
# 6 0.000000 0.000000 0.000000 0.000000 0.000000 -0.008277
#
#
# Mechanical properties :
#
#
# Convention : Reuss Voigt Hill
#
# Bulk Modulus (GPa) = 38.75456 44.95731 41.85594
# Shear Modulus (GPa) = 32.48907 2.66235 17.57571
#
# Velocity S-wave (km/s) = 3.82035 1.09362 2.80990
# Velocity P-wave (km/s) = 6.07205 4.66807 5.41575
#
# Compressibility (1/GPa) = 0.02580341
#
# Stress axis : x y z
#
# Youngs Moduli (GPa) = 129.93259 65.70343 63.96210
#
# Poissons Ratio (x) = 0.13148 0.16541
# Poissons Ratio (y) = 0.26001 0.11426
# Poissons Ratio (z) = 0.33602 0.11737
#
# Static dielectric constant tensor:
#      x y z
#    x 1.895210 0.000000 0.000000 
#    y 0.000000 1.856930 0.000000 
#    z 0.000000 0.000000 1.891650 
# 
# From -- ./inp_files/178.got.cif
#   From: 2010.05.17/outbox.cif.g08.bks.cpg/sg26_1_cif.got.tgz:178.got - 2010.06.04 01:07:29.
