data_PCOD9338448
_publ_section_title
;
Structure prediction by ZEFSAII (Michael W. Deem and Ramdas Pophale) SiO2 
 PCOD9338448
Probable space group: P M C 21
;
_chemical_formula_sum "Si O2"
_cell_formula_units_Z 24
_cell_length_a 9.735546
_cell_length_b 14.378873
_cell_length_c 8.010603
_cell_angle_alpha 90.000000
_cell_angle_beta 90.000000
_cell_angle_gamma 90.000000
_cell_volume 1121.373710
_symmetry_space_group_name_H-M "P M C 21"
_symmetry_group_IT_number 26
_symmetry_cell_setting 'orthorhombic'
loop_
_space_group_symop_operation_xyz
x,y,z
-x,-y,1/2+z
-x,y,z
x,-y,1/2+z
loop_
_atom_site_type_symbol
_atom_site_label
_atom_site_fract_x
_atom_site_fract_y
_atom_site_fract_z
Si Si1 0.657755 0.798941 0.974540
Si Si2 0.157639 0.855151 0.462489
Si Si3 0.842145 0.454140 0.254441
Si Si4 0.341535 0.297674 0.109906
Si Si5 0.156640 0.356834 0.616318
Si Si6 0.158158 0.952539 0.102890
O O1 0.500000 0.808952 0.025325
O O2 0.661488 0.756063 0.788933
O O3 0.739168 0.726848 0.092644
O O4 0.737666 0.895456 0.988877
O O5 0.258892 0.769508 0.486342
O O6 0.168637 0.907795 0.285893
O O7 0.000000 0.823420 0.485065
O O8 0.185762 0.937759 0.594727
O O9 0.738689 0.393208 0.144946
O O10 0.840379 0.412295 0.439928
O O11 0.000000 0.445497 0.192342
O O12 0.808365 0.563376 0.248767
O O13 0.500000 0.311916 0.062336
O O14 0.000000 0.322769 0.643402
O O15 0.000000 0.940176 0.044690
#
# Coordination Sequence:
#
# PCOD9338448 Si02
#       6
#     4   4   4   4   4   4
#     4  10  21  36  54  78 109 144 179 216 262 315
#     4  10  21  37  58  82 106 136 176 220 265 314
#     4   9  18  33  53  76 103 137 177 220 263 308
#     4  10  21  36  54  78 109 144 179 216 262 315
#     4   9  18  33  53  76 103 137 177 220 263 308
#     4  10  21  37  58  82 106 136 176 220 265 314
#
# _framework density 21.40232
#
# number of rings (size 3 to 8) (size 9 to 14) (size 15 to 20)
#    0.000    2.333    0.000    2.000    0.000    6.667 
#    0.000    3.333    0.000    0.000    0.000    0.000 
#    0.000    0.000    0.000    0.000    0.000    0.000 
#
# Total GULP energy -134167.950703 kJ/mol
# GULP energy per Si atom -5590.331279 kJ/mol
# Density = 2.135361 g / cm^3
# Si number density = 21.402320 Si / 1000 Ang^3
#
#
#
# Elastic Constant Matrix: (Units=GPa)
#
#
# Indices 1 2 3 4 5 6 
#
# 1 86.6795 37.9742 23.9088 0.0000 0.0000 0.0000
# 2 37.9742 57.9202 10.6545 0.0000 0.0000 0.0000
# 3 23.9088 10.6545 48.9695 0.0000 0.0000 0.0000
# 4 0.0000 0.0000 0.0000 39.4649 0.0000 0.0000
# 5 0.0000 0.0000 0.0000 0.0000 18.1280 0.0000
# 6 0.0000 0.0000 0.0000 0.0000 0.0000 6.4694
#
#
#
# Elastic Compliance Matrix: (Units=1/GPa)
#
#
# Indices 1 2 3 4 5 6 
#
# 1 0.017957 -0.010584 -0.006464 0.000000 0.000000 0.000000
# 2 -0.010584 0.024223 -0.000103 0.000000 0.000000 0.000000
# 3 -0.006464 -0.000103 0.023599 0.000000 0.000000 0.000000
# 4 0.000000 0.000000 0.000000 0.025339 0.000000 0.000000
# 5 0.000000 0.000000 0.000000 0.000000 0.055163 0.000000
# 6 0.000000 0.000000 0.000000 0.000000 0.000000 0.154575
#
#
# Mechanical properties :
#
#
# Convention : Reuss Voigt Hill
#
# Bulk Modulus (GPa) = 31.76920 37.62716 34.69818
# Shear Modulus (GPa) = 14.46549 20.88124 17.67336
#
# Velocity S-wave (km/s) = 2.60260 3.12693 2.87674
# Velocity P-wave (km/s) = 4.88952 5.53679 5.22319
#
# Compressibility (1/GPa) = 0.03147703
#
# Stress axis : x y z
#
# Youngs Moduli (GPa) = 55.69006 41.28298 42.37396
#
# Poissons Ratio (x) = 0.43693 0.27392
# Poissons Ratio (y) = 0.58941 0.00436
# Poissons Ratio (z) = 0.36000 0.00425
#
# Static dielectric constant tensor:
#      x y z
#    x 1.726750 0.000000 0.000000 
#    y 0.000000 1.746860 0.000000 
#    z 0.000000 0.000000 1.838230 
# 
# From -- ./inp_files/1410.got.cif
#   From: 2010.05.17/outbox.cif.g08.bks.cpg/sg26_1_cif.got.tgz:1410.got - 2010.06.04 01:07:29.
