data_PCOD9338777
_publ_section_title
;
Structure prediction by ZEFSAII (Michael W. Deem and Ramdas Pophale) SiO2 
 PCOD9338777
Probable space group: P C C 2
;
_chemical_formula_sum "Si O2"
_cell_formula_units_Z 16
_cell_length_a 4.820316
_cell_length_b 12.067741
_cell_length_c 13.362183
_cell_angle_alpha 90.000000
_cell_angle_beta 90.000000
_cell_angle_gamma 90.000000
_cell_volume 777.282528
_symmetry_space_group_name_H-M "P C C 2"
_symmetry_group_IT_number 27
_symmetry_cell_setting 'orthorhombic'
loop_
_space_group_symop_operation_xyz
x,y,z
-x,-y,z
-x,y,1/2+z
x,-y,1/2+z
loop_
_atom_site_type_symbol
_atom_site_label
_atom_site_fract_x
_atom_site_fract_y
_atom_site_fract_z
Si Si1 0.006412 0.787193 0.321890
Si Si2 0.523379 0.205725 0.188560
Si Si3 0.256452 0.924251 0.999575
Si Si4 0.753684 0.575938 0.757582
O O1 0.785464 0.791710 0.231096
O O2 0.875988 0.843057 0.417799
O O3 0.282047 0.843175 0.277262
O O4 0.102959 0.659513 0.337567
O O5 0.626719 0.333510 0.181485
O O6 0.592789 0.141019 0.088882
O O7 0.500000 0.000000 0.955167
O O8 0.000000 0.000000 0.036618
O O9 0.500000 0.500000 0.793706
O O10 0.000000 0.500000 0.716985
#
# Coordination Sequence:
#
# PCOD9338777 Si02
#       4
#     4   4   4   4
#     4  10  22  40  63  92 131 161 214 266 312 385
#     4  10  22  40  63  90 130 162 216 261 314 387
#     4  12  26  40  63  93 130 174 219 262 318 383
#     4  10  18  38  69  86 121 166 199 263 334 374
#
# _framework density 20.584537999999998
#
# number of rings (size 3 to 8) (size 9 to 14) (size 15 to 20)
#    1.500    0.000    2.500    3.000    0.000    6.000 
#    0.000    1.250    5.500    0.000    0.000    0.000 
#    0.000    0.000    0.000    0.000    0.000    0.000 
#
# Total GULP energy -89125.338884 kJ/mol
# GULP energy per Si atom -5570.333680 kJ/mol
# Density = 2.053769 g / cm^3
# Si number density = 20.584538 Si / 1000 Ang^3
#
#
#
# Elastic Constant Matrix: (Units=GPa)
#
#
# Indices 1 2 3 4 5 6 
#
# 1 126.6381 51.8657 19.5738 0.0000 0.0000 0.0000
# 2 51.8657 118.6920 55.0348 0.0000 0.0000 0.0000
# 3 19.5738 55.0348 63.4295 0.0000 0.0000 0.0000
# 4 0.0000 0.0000 0.0000 124.8061 0.0000 0.0000
# 5 0.0000 0.0000 0.0000 0.0000 24.3396 0.0000
# 6 0.0000 0.0000 0.0000 0.0000 0.0000 43.7339
#
#
#
# Elastic Compliance Matrix: (Units=1/GPa)
#
#
# Indices 1 2 3 4 5 6 
#
# 1 0.009667 -0.004753 0.001141 0.000000 0.000000 0.000000
# 2 -0.004753 0.016433 -0.012792 0.000000 0.000000 0.000000
# 3 0.001141 -0.012792 0.026512 0.000000 0.000000 0.000000
# 4 0.000000 0.000000 0.000000 0.008012 0.000000 0.000000
# 5 0.000000 0.000000 0.000000 0.000000 0.041085 0.000000
# 6 0.000000 0.000000 0.000000 0.000000 0.000000 0.022866
#
#
# Mechanical properties :
#
#
# Convention : Reuss Voigt Hill
#
# Bulk Modulus (GPa) = 50.49310 62.41200 56.45255
# Shear Modulus (GPa) = 30.49054 50.72828 40.60941
#
# Velocity S-wave (km/s) = 3.85286 4.96965 4.44645
# Velocity P-wave (km/s) = 6.66150 7.95710 7.33795
#
# Compressibility (1/GPa) = 0.01980469
#
# Stress axis : x y z
#
# Youngs Moduli (GPa) = 103.44571 60.85136 37.71855
#
# Poissons Ratio (x) = 0.28925 -0.04304
# Poissons Ratio (y) = 0.49171 0.48249
# Poissons Ratio (z) = -0.11804 0.77839
#
# Static dielectric constant tensor:
#      x y z
#    x 1.755620 0.000000 0.000000 
#    y 0.000000 1.790240 0.000000 
#    z 0.000000 0.000000 1.704980 
# 
# From -- ./inp_files/1882.got.cif
#   From: 2010.05.17/outbox.cif.g08.bks.cpg/sg27_1_cif.got.tgz:1882.got - 2010.06.04 01:11:05.
