data_PCOD9338623
_publ_section_title
;
Structure prediction by ZEFSAII (Michael W. Deem and Ramdas Pophale) SiO2 
 PCOD9338623
Probable space group: P M C 21
;
_chemical_formula_sum "Si O2"
_cell_formula_units_Z 24
_cell_length_a 15.764940
_cell_length_b 8.734273
_cell_length_c 8.313148
_cell_angle_alpha 90.000000
_cell_angle_beta 90.000000
_cell_angle_gamma 90.000000
_cell_volume 1144.681323
_symmetry_space_group_name_H-M "P M C 21"
_symmetry_group_IT_number 26
_symmetry_cell_setting 'orthorhombic'
loop_
_space_group_symop_operation_xyz
x,y,z
-x,-y,1/2+z
-x,y,z
x,-y,1/2+z
loop_
_atom_site_type_symbol
_atom_site_label
_atom_site_fract_x
_atom_site_fract_y
_atom_site_fract_z
Si Si1 0.654691 0.468866 0.324530
Si Si2 0.406062 0.732687 0.110160
Si Si3 0.844854 0.554048 0.443019
Si Si4 0.751005 0.767884 0.649967
Si Si5 0.904652 0.266787 0.629974
Si Si6 0.752178 0.924644 0.997334
O O1 0.601223 0.381510 0.457720
O O2 0.614613 0.623731 0.260217
O O3 0.749721 0.503400 0.389898
O O4 0.672760 0.347222 0.180739
O O5 0.500000 0.799495 0.121329
O O6 0.331056 0.852177 0.079921
O O7 0.829720 0.662149 0.598145
O O8 0.892998 0.402580 0.499021
O O9 0.885532 0.651247 0.300199
O O10 0.743164 0.893756 0.511139
O O11 0.759285 0.860717 0.816385
O O12 0.834398 0.139496 0.590579
O O13 0.000000 0.206440 0.626702
#
# Coordination Sequence:
#
# PCOD9338623 Si02
#       6
#     4   4   4   4   4   4
#     4  11  19  39  66  91 120 164 209 259 306 364
#     4  11  22  38  63  93 126 163 209 259 309 368
#     4  12  19  41  66  92 122 164 214 259 311 365
#     4  11  22  39  70  88 124 174 203 257 318 368
#     4  12  23  39  64  94 128 166 210 260 314 371
#     4  11  23  42  61  92 130 167 207 254 316 382
#
# _framework density 20.966533999999999
#
# number of rings (size 3 to 8) (size 9 to 14) (size 15 to 20)
#    0.000    0.667    8.333    2.000    0.000    0.000 
#    0.000    9.167    0.000    0.000    0.000    0.000 
#    0.000    0.000    0.000    0.000    0.000    0.000 
#
# Total GULP energy -134129.792791 kJ/mol
# GULP energy per Si atom -5588.741366 kJ/mol
# Density = 2.091881 g / cm^3
# Si number density = 20.966534 Si / 1000 Ang^3
#
#
#
# Elastic Constant Matrix: (Units=GPa)
#
#
# Indices 1 2 3 4 5 6 
#
# 1 135.9696 14.2452 9.2318 0.0000 0.0000 0.0000
# 2 14.2452 61.2913 -4.2743 0.0000 0.0000 0.0000
# 3 9.2318 -4.2743 49.8346 0.0000 0.0000 0.0000
# 4 0.0000 0.0000 0.0000 41.7841 0.0000 0.0000
# 5 0.0000 0.0000 0.0000 0.0000 19.1793 0.0000
# 6 0.0000 0.0000 0.0000 0.0000 0.0000 2.8917
#
#
#
# Elastic Compliance Matrix: (Units=1/GPa)
#
#
# Indices 1 2 3 4 5 6 
#
# 1 0.007660 -0.001891 -0.001581 0.000000 0.000000 0.000000
# 2 -0.001891 0.016880 0.001798 0.000000 0.000000 0.000000
# 3 -0.001581 0.001798 0.020514 0.000000 0.000000 0.000000
# 4 0.000000 0.000000 0.000000 0.023933 0.000000 0.000000
# 5 0.000000 0.000000 0.000000 0.000000 0.052140 0.000000
# 6 0.000000 0.000000 0.000000 0.000000 0.000000 0.345820
#
#
# Mechanical properties :
#
#
# Convention : Reuss Voigt Hill
#
# Bulk Modulus (GPa) = 23.97710 31.72233 27.84971
# Shear Modulus (GPa) = 10.32639 27.96386 19.14512
#
# Velocity S-wave (km/s) = 2.22168 3.65600 3.02508
# Velocity P-wave (km/s) = 4.24757 5.74322 5.05106
#
# Compressibility (1/GPa) = 0.04170646
#
# Stress axis : x y z
#
# Youngs Moduli (GPa) = 130.54812 59.24052 48.74834
#
# Poissons Ratio (x) = 0.11200 0.07708
# Poissons Ratio (y) = 0.24681 -0.08765
# Poissons Ratio (z) = 0.20642 -0.10652
#
# Static dielectric constant tensor:
#      x y z
#    x 1.773550 0.000000 0.000000 
#    y 0.000000 1.743080 0.000000 
#    z 0.000000 0.000000 1.816240 
# 
# From -- ./inp_files/2110.got.cif
#   From: 2010.05.17/outbox.cif.g08.bks.cpg/sg26_2_cif.got.tgz:2110.got - 2010.06.04 01:07:29.
