data_PCOD9338782
_publ_section_title
;
Structure prediction by ZEFSAII (Michael W. Deem and Ramdas Pophale) SiO2 
 PCOD9338782
Probable space group: P C C 2
;
_chemical_formula_sum "Si O2"
_cell_formula_units_Z 24
_cell_length_a 6.140078
_cell_length_b 10.892533
_cell_length_c 19.170358
_cell_angle_alpha 90.000000
_cell_angle_beta 90.000000
_cell_angle_gamma 90.000000
_cell_volume 1282.132756
_symmetry_space_group_name_H-M "P C C 2"
_symmetry_group_IT_number 27
_symmetry_cell_setting 'orthorhombic'
loop_
_space_group_symop_operation_xyz
x,y,z
-x,-y,z
-x,y,1/2+z
x,-y,1/2+z
loop_
_atom_site_type_symbol
_atom_site_label
_atom_site_fract_x
_atom_site_fract_y
_atom_site_fract_z
Si Si1 0.892147 0.631491 0.185190
Si Si2 0.172657 0.694434 0.053925
Si Si3 0.834282 0.330446 0.435785
Si Si4 0.500000 0.500000 0.106380
Si Si5 0.442018 0.858640 0.950495
Si Si6 0.215369 0.277637 0.328814
Si Si7 0.500000 0.500000 0.872114
O O1 0.666727 0.584665 0.150617
O O2 0.847962 0.725346 0.248076
O O3 0.000000 0.500000 0.208881
O O4 0.054036 0.695708 0.129287
O O5 0.356356 0.592085 0.061492
O O6 0.288898 0.808057 0.013684
O O7 0.981668 0.653833 0.002738
O O8 0.664029 0.220368 0.448149
O O9 0.692140 0.447662 0.418530
O O10 0.995854 0.309130 0.371045
O O11 0.321625 0.829117 0.876512
O O12 0.500000 0.000000 0.958326
O O13 0.392976 0.387936 0.330941
#
# Coordination Sequence:
#
# PCOD9338782 Si02
#       7
#     4   4   4   2   4   4   2
#     4  10  20  34  54  85 122 153 182 227 294 364
#     4  10  22  35  56  85 117 150 187 233 287 348
#     4  10  21  35  56  82 111 145 188 236 285 338
#     4  10  21  35  56  88 125 157 182 224 291 365
#     4  10  23  41  60  80 109 153 204 252 290 328
#     4  10  21  35  57  84 114 150 189 234 287 347
#     4  10  19  31  52  86 117 143 178 228 287 351
#
# _framework density 18.718809
#
# number of rings (size 3 to 8) (size 9 to 14) (size 15 to 20)
#    0.000    2.000    0.000    3.000    0.000   26.667 
#    0.000    0.000    0.000   15.000    0.000    0.000 
#    0.000    0.000    0.000    0.000    0.000    0.000 
#
# Total GULP energy -133886.668219 kJ/mol
# GULP energy per Si atom -5578.611176 kJ/mol
# Density = 1.867620 g / cm^3
# Si number density = 18.718809 Si / 1000 Ang^3
#
#
#
# Elastic Constant Matrix: (Units=GPa)
#
#
# Indices 1 2 3 4 5 6 
#
# 1 104.2166 24.4634 44.8680 0.0000 0.0000 0.0000
# 2 24.4634 69.6062 53.5936 0.0000 0.0000 0.0000
# 3 44.8680 53.5936 124.3165 0.0000 0.0000 0.0000
# 4 0.0000 0.0000 0.0000 16.3976 0.0000 0.0000
# 5 0.0000 0.0000 0.0000 0.0000 24.7948 0.0000
# 6 0.0000 0.0000 0.0000 0.0000 0.0000 20.6293
#
#
#
# Elastic Compliance Matrix: (Units=1/GPa)
#
#
# Indices 1 2 3 4 5 6 
#
# 1 0.011434 -0.001259 -0.003584 0.000000 0.000000 0.000000
# 2 -0.001259 0.021643 -0.008876 0.000000 0.000000 0.000000
# 3 -0.003584 -0.008876 0.013164 0.000000 0.000000 0.000000
# 4 0.000000 0.000000 0.000000 0.060985 0.000000 0.000000
# 5 0.000000 0.000000 0.000000 0.000000 0.040331 0.000000
# 6 0.000000 0.000000 0.000000 0.000000 0.000000 0.048475
#
#
# Mechanical properties :
#
#
# Convention : Reuss Voigt Hill
#
# Bulk Modulus (GPa) = 53.18294 60.44325 56.81309
# Shear Modulus (GPa) = 21.76399 24.04530 22.90464
#
# Velocity S-wave (km/s) = 3.41351 3.58795 3.50182
# Velocity P-wave (km/s) = 6.63395 7.03738 6.83864
#
# Compressibility (1/GPa) = 0.01880302
#
# Stress axis : x y z
#
# Youngs Moduli (GPa) = 87.45914 46.20383 75.96454
#
# Poissons Ratio (x) = 0.05817 0.27225
# Poissons Ratio (y) = 0.11011 0.67427
# Poissons Ratio (z) = 0.31345 0.41011
#
# Static dielectric constant tensor:
#      x y z
#    x 1.686010 0.000000 0.000000 
#    y 0.000000 1.629700 0.000000 
#    z 0.000000 0.000000 1.696410 
# 
# From -- ./inp_files/3988.got.cif
#   From: 2010.05.17/outbox.cif.g08.bks.cpg/sg27_2_cif.got.tgz:3988.got - 2010.06.04 01:11:05.
