data_PCOD9338570
_publ_section_title
;
Structure prediction by ZEFSAII (Michael W. Deem and Ramdas Pophale) SiO2 
 PCOD9338570
Probable space group: P M C 21
;
_chemical_formula_sum "Si O2"
_cell_formula_units_Z 12
_cell_length_a 7.732474
_cell_length_b 12.862477
_cell_length_c 5.099149
_cell_angle_alpha 90.000000
_cell_angle_beta 90.000000
_cell_angle_gamma 90.000000
_cell_volume 507.155082
_symmetry_space_group_name_H-M "P M C 21"
_symmetry_group_IT_number 26
_symmetry_cell_setting 'orthorhombic'
loop_
_space_group_symop_operation_xyz
x,y,z
-x,-y,1/2+z
-x,y,z
x,-y,1/2+z
loop_
_atom_site_type_symbol
_atom_site_label
_atom_site_fract_x
_atom_site_fract_y
_atom_site_fract_z
Si Si1 0.807242 0.790155 0.752670
Si Si2 0.291369 0.440813 0.417975
Si Si3 0.000000 0.927167 0.103123
Si Si4 0.500000 0.925830 0.538863
O O1 0.758004 0.673679 0.826072
O O2 0.838135 0.855473 0.021774
O O3 0.665232 0.851612 0.588557
O O4 0.000000 0.787556 0.629590
O O5 0.500000 0.443924 0.424291
O O6 0.229747 0.475330 0.703754
O O7 0.000000 0.015578 0.876226
O O8 0.500000 0.985856 0.264966
#
# Coordination Sequence:
#
# PCOD9338570 Si02
#       4
#     4   4   2   2
#     4  10  24  44  67 100 129 172 218 268 322 388
#     4  10  22  42  65  93 128 167 214 267 322 385
#     4  10  22  40  60  90 128 162 204 258 308 370
#     4  12  26  44  68  96 134 176 216 264 324 384
#
# _framework density 23.661403
#
# number of rings (size 3 to 8) (size 9 to 14) (size 15 to 20)
#    1.000    0.667    1.667    2.000    0.000    6.667 
#    0.000    0.000    0.000    0.000    0.000    0.000 
#    0.000    0.000    0.000    0.000    0.000    0.000 
#
# Total GULP energy -67135.074835 kJ/mol
# GULP energy per Si atom -5594.589570 kJ/mol
# Density = 2.360755 g / cm^3
# Si number density = 23.661403 Si / 1000 Ang^3
#
#
#
# Elastic Constant Matrix: (Units=GPa)
#
#
# Indices 1 2 3 4 5 6 
#
# 1 100.0203 -1.7872 8.9580 0.0000 0.0000 0.0000
# 2 -1.7872 92.6214 0.2135 0.0000 0.0000 0.0000
# 3 8.9580 0.2135 69.6899 0.0000 0.0000 0.0000
# 4 0.0000 0.0000 0.0000 13.1829 0.0000 0.0000
# 5 0.0000 0.0000 0.0000 0.0000 11.6133 0.0000
# 6 0.0000 0.0000 0.0000 0.0000 0.0000 46.2717
#
#
#
# Elastic Compliance Matrix: (Units=1/GPa)
#
#
# Indices 1 2 3 4 5 6 
#
# 1 0.010118 0.000198 -0.001301 0.000000 0.000000 0.000000
# 2 0.000198 0.010801 -0.000059 0.000000 0.000000 0.000000
# 3 -0.001301 -0.000059 0.014517 0.000000 0.000000 0.000000
# 4 0.000000 0.000000 0.000000 0.075856 0.000000 0.000000
# 5 0.000000 0.000000 0.000000 0.000000 0.086108 0.000000
# 6 0.000000 0.000000 0.000000 0.000000 0.000000 0.021612
#
#
# Mechanical properties :
#
#
# Convention : Reuss Voigt Hill
#
# Bulk Modulus (GPa) = 30.20023 30.78890 30.49457
# Shear Modulus (GPa) = 21.51732 31.21008 26.36370
#
# Velocity S-wave (km/s) = 3.01887 3.63578 3.34159
# Velocity P-wave (km/s) = 4.99426 5.53767 5.27297
#
# Compressibility (1/GPa) = 0.03311233
#
# Stress axis : x y z
#
# Youngs Moduli (GPa) = 98.83333 92.58748 68.88607
#
# Poissons Ratio (x) = -0.01835 0.08963
# Poissons Ratio (y) = -0.01959 0.00403
# Poissons Ratio (z) = 0.12860 0.00542
#
# Static dielectric constant tensor:
#      x y z
#    x 1.946960 0.000000 0.000000 
#    y 0.000000 1.852910 0.000000 
#    z 0.000000 0.000000 1.917350 
# 
# From -- ./inp_files/74.got.cif
#   From: 2010.05.17/outbox.cif.g08.bks.cpg/sg26_1_cif.got.tgz:74.got - 2010.06.04 01:07:29.
