data_PCOD9338330
_publ_section_title
;
Structure prediction by ZEFSAII (Michael W. Deem and Ramdas Pophale) SiO2 
 PCOD9338330
Probable space group: P M C 21
;
_chemical_formula_sum "Si O2"
_cell_formula_units_Z 32
_cell_length_a 8.974004
_cell_length_b 11.572235
_cell_length_c 16.691379
_cell_angle_alpha 90.000000
_cell_angle_beta 90.000000
_cell_angle_gamma 90.000000
_cell_volume 1733.387744
_symmetry_space_group_name_H-M "P M C 21"
_symmetry_group_IT_number 26
_symmetry_cell_setting 'orthorhombic'
loop_
_space_group_symop_operation_xyz
x,y,z
-x,-y,1/2+z
-x,y,z
x,-y,1/2+z
loop_
_atom_site_type_symbol
_atom_site_label
_atom_site_fract_x
_atom_site_fract_y
_atom_site_fract_z
Si Si1 0.671188 0.647006 0.944700
Si Si2 0.173155 0.262126 0.748492
Si Si3 0.334354 0.596998 0.371176
Si Si4 0.326827 0.211222 0.002219
Si Si5 0.179474 0.307146 0.157776
Si Si6 0.678554 0.935824 0.347390
Si Si7 0.820021 0.566865 0.108351
Si Si8 0.821301 0.185101 0.324259
O O1 0.500000 0.682618 0.958822
O O2 0.670236 0.537810 0.885190
O O3 0.763838 0.746266 0.901786
O O4 0.744685 0.597983 0.024888
O O5 0.203241 0.359753 0.815285
O O6 0.268582 0.154854 0.779833
O O7 0.216782 0.327238 0.667592
O O8 0.000000 0.229703 0.745133
O O9 0.500000 0.628943 0.338665
O O10 0.320831 0.667145 0.454122
O O11 0.500000 0.187259 0.020854
O O12 0.237684 0.229244 0.083906
O O13 0.276540 0.118328 0.934614
O O14 0.227402 0.440941 0.142761
O O15 0.226276 0.253249 0.243137
O O16 0.000000 0.307068 0.156468
O O17 0.500000 0.943966 0.347776
O O18 0.752223 0.057920 0.329139
O O19 0.000000 0.562820 0.100136
O O20 0.000000 0.178829 0.324144
#
# Coordination Sequence:
#
# PCOD9338330 Si02
#       8
#     4   4   4   4   4   4   4   4
#     4  11  22  37  58  85 119 157 195 239 294 352
#     4  10  20  35  59  87 115 152 194 239 291 347
#     4   9  18  33  54  84 118 150 188 235 288 347
#     4   9  18  35  59  86 116 149 191 241 289 345
#     4  10  21  37  60  90 121 152 194 243 295 354
#     4  10  22  42  62  84 116 154 202 248 294 353
#     4  10  21  37  57  88 124 154 190 240 296 356
#     4  11  24  42  61  86 119 158 202 249 299 354
#
# _framework density 18.460958000000002
#
# number of rings (size 3 to 8) (size 9 to 14) (size 15 to 20)
#    0.000    2.000    1.250    3.000    0.000    6.500 
#    2.250    0.000    0.000    0.000    0.000    0.000 
#    0.000    0.000    0.000    0.000    0.000    0.000 
#
# Total GULP energy -178477.045358 kJ/mol
# GULP energy per Si atom -5577.407667 kJ/mol
# Density = 1.841894 g / cm^3
# Si number density = 18.460958 Si / 1000 Ang^3
#
#
#
# Elastic Constant Matrix: (Units=GPa)
#
#
# Indices 1 2 3 4 5 6 
#
# 1 36.4027 50.1114 33.6147 0.0000 0.0000 0.0000
# 2 50.1114 124.1524 65.2958 0.0000 0.0000 0.0000
# 3 33.6147 65.2958 81.6072 0.0000 0.0000 0.0000
# 4 0.0000 0.0000 0.0000 21.4043 0.0000 0.0000
# 5 0.0000 0.0000 0.0000 0.0000 -74.4929 0.0000
# 6 0.0000 0.0000 0.0000 0.0000 0.0000 23.9143
#
#
#
# Elastic Compliance Matrix: (Units=1/GPa)
#
#
# Indices 1 2 3 4 5 6 
#
# 1 0.066395 -0.021436 -0.010197 0.000000 0.000000 0.000000
# 2 -0.021436 0.020827 -0.007835 0.000000 0.000000 0.000000
# 3 -0.010197 -0.007835 0.022723 0.000000 0.000000 0.000000
# 4 0.000000 0.000000 0.000000 0.046720 0.000000 0.000000
# 5 0.000000 0.000000 0.000000 0.000000 -0.013424 0.000000
# 6 0.000000 0.000000 0.000000 0.000000 0.000000 0.041816
#
#
# Mechanical properties :
#
#
# Convention : Reuss Voigt Hill
#
# Bulk Modulus (GPa) = 32.24837 60.02290 46.13563
# Shear Modulus (GPa) = 18.22628 0.37449 9.30038
#
# Velocity S-wave (km/s) = 3.14552 0.45088 2.24695
# Velocity P-wave (km/s) = 5.54065 5.73193 5.63710
#
# Compressibility (1/GPa) = 0.03100932
#
# Stress axis : x y z
#
# Youngs Moduli (GPa) = 15.06139 48.01404 44.00813
#
# Poissons Ratio (x) = 1.02921 0.44877
# Poissons Ratio (y) = 0.32285 0.34480
# Poissons Ratio (z) = 0.15359 0.37618
#
# Static dielectric constant tensor:
#      x y z
#    x 1.633310 0.000000 0.000000 
#    y 0.000000 1.632040 0.000000 
#    z 0.000000 0.000000 1.647590 
# 
# From -- ./inp_files/4287.got.cif
#   From: 2010.05.17/outbox.cif.g08.bks.cpg/sg26_3_cif.got.tgz:4287.got - 2010.06.04 01:07:29.
