data_PCOD9338206
_publ_section_title
;
Structure prediction by ZEFSAII (Michael W. Deem and Ramdas Pophale) SiO2 
 PCOD9338206
Probable space group: P M C 21
;
_chemical_formula_sum "Si O2"
_cell_formula_units_Z 16
_cell_length_a 5.498001
_cell_length_b 7.548637
_cell_length_c 14.309118
_cell_angle_alpha 90.000000
_cell_angle_beta 90.000000
_cell_angle_gamma 90.000000
_cell_volume 593.862936
_symmetry_space_group_name_H-M "P M C 21"
_symmetry_group_IT_number 26
_symmetry_cell_setting 'orthorhombic'
loop_
_space_group_symop_operation_xyz
x,y,z
-x,-y,1/2+z
-x,y,z
x,-y,1/2+z
loop_
_atom_site_type_symbol
_atom_site_label
_atom_site_fract_x
_atom_site_fract_y
_atom_site_fract_z
Si Si1 0.500000 0.356068 0.789060
Si Si2 0.500000 0.985965 0.678246
Si Si3 0.000000 0.318829 0.049702
Si Si4 0.000000 0.089238 0.663318
Si Si5 0.000000 0.479540 0.711924
Si Si6 0.500000 0.179856 0.373153
Si Si7 0.500000 0.551656 0.478309
Si Si8 0.000000 0.022416 0.889567
O O1 0.500000 0.179326 0.727677
O O2 0.249275 0.457176 0.768820
O O3 0.500000 0.301655 0.896535
O O4 0.756376 0.994252 0.625423
O O5 0.500000 0.840986 0.759742
O O6 0.000000 0.330248 0.162950
O O7 0.745627 0.424087 0.034545
O O8 0.000000 0.180319 0.964402
O O9 0.000000 0.075256 0.777999
O O10 0.000000 0.300038 0.647091
O O11 0.500000 0.369390 0.421986
O O12 0.246956 0.088232 0.402246
#
# Coordination Sequence:
#
# PCOD9338206 Si02
#       8
#     2   2   2   2   2   2   2   2
#     4  10  19  36  59  84 111 148 196 244 284 340
#     4   8  14  27  49  74  97 136 181 214 261 328
#     4  12  23  37  60  91 118 153 199 242 288 348
#     4   8  14  27  49  73  96 131 181 226 261 312
#     4  10  20  34  56  84 116 148 188 242 293 336
#     4  10  20  34  56  84 116 148 188 242 293 336
#     4  12  23  37  60  92 120 144 193 256 296 330
#     4  10  19  36  59  80 108 156 202 230 276 358
#
# _framework density 26.942245
#
# number of rings (size 3 to 8) (size 9 to 14) (size 15 to 20)
#    0.000    2.000    0.000    7.500    0.000    0.000 
#    0.000    0.000    0.000   27.000    0.000    0.000 
#    0.000    0.000    0.000    0.000    0.000    0.000 
#
# Total GULP energy -89541.327701 kJ/mol
# GULP energy per Si atom -5596.332981 kJ/mol
# Density = 2.688092 g / cm^3
# Si number density = 26.942245 Si / 1000 Ang^3
#
#
#
# Elastic Constant Matrix: (Units=GPa)
#
#
# Indices 1 2 3 4 5 6 
#
# 1 238.4250 22.4215 -5.2080 0.0000 0.0000 0.0000
# 2 22.4215 70.1476 -9.7209 0.0000 0.0000 0.0000
# 3 -5.2080 -9.7209 58.7102 0.0000 0.0000 0.0000
# 4 0.0000 0.0000 0.0000 19.5816 0.0000 0.0000
# 5 0.0000 0.0000 0.0000 0.0000 24.5516 0.0000
# 6 0.0000 0.0000 0.0000 0.0000 0.0000 18.3237
#
#
#
# Elastic Compliance Matrix: (Units=1/GPa)
#
#
# Indices 1 2 3 4 5 6 
#
# 1 0.004326 -0.001361 0.000158 0.000000 0.000000 0.000000
# 2 -0.001361 0.015018 0.002366 0.000000 0.000000 0.000000
# 3 0.000158 0.002366 0.017439 0.000000 0.000000 0.000000
# 4 0.000000 0.000000 0.000000 0.051068 0.000000 0.000000
# 5 0.000000 0.000000 0.000000 0.000000 0.040731 0.000000
# 6 0.000000 0.000000 0.000000 0.000000 0.000000 0.054574
#
#
# Mechanical properties :
#
#
# Convention : Reuss Voigt Hill
#
# Bulk Modulus (GPa) = 25.56882 42.47422 34.02152
# Shear Modulus (GPa) = 25.79116 36.47740 31.13428
#
# Velocity S-wave (km/s) = 3.09734 3.68354 3.40309
# Velocity P-wave (km/s) = 4.72252 5.82155 5.30060
#
# Compressibility (1/GPa) = 0.03911014
#
# Stress axis : x y z
#
# Youngs Moduli (GPa) = 231.18145 66.58485 57.34402
#
# Poissons Ratio (x) = 0.09060 -0.00908
# Poissons Ratio (y) = 0.31456 -0.13567
# Poissons Ratio (z) = -0.03662 -0.15754
#
# Static dielectric constant tensor:
#      x y z
#    x 2.168530 0.000000 0.000000 
#    y 0.000000 2.232020 0.000000 
#    z 0.000000 0.000000 2.063220 
# 
# From -- ./inp_files/3746.got.cif
#   From: 2010.05.17/outbox.cif.g08.bks.cpg/sg26_2_cif.got.tgz:3746.got - 2010.06.04 01:07:29.
