data_PCOD9338899
_publ_section_title
;
Structure prediction by ZEFSAII (Michael W. Deem and Ramdas Pophale) SiO2 
 PCOD9338899
Probable space group: P C C 2
;
_chemical_formula_sum "Si O2"
_cell_formula_units_Z 32
_cell_length_a 5.202994
_cell_length_b 17.510531
_cell_length_c 18.418773
_cell_angle_alpha 90.000000
_cell_angle_beta 90.000000
_cell_angle_gamma 90.000000
_cell_volume 1678.082609
_symmetry_space_group_name_H-M "P C C 2"
_symmetry_group_IT_number 27
_symmetry_cell_setting 'orthorhombic'
loop_
_space_group_symop_operation_xyz
x,y,z
-x,-y,z
-x,y,1/2+z
x,-y,1/2+z
loop_
_atom_site_type_symbol
_atom_site_label
_atom_site_fract_x
_atom_site_fract_y
_atom_site_fract_z
Si Si1 0.001106 0.407813 0.010290
Si Si2 0.401342 0.651871 0.761844
Si Si3 0.750428 0.051509 0.470573
Si Si4 0.119388 0.164314 0.847342
Si Si5 0.901342 0.348129 0.349213
Si Si6 0.498894 0.407813 0.100767
Si Si7 0.380612 0.164314 0.263715
Si Si8 0.250429 0.051509 0.140484
O O1 0.750000 0.383343 0.055529
O O2 0.000000 0.500000 0.007137
O O3 0.250000 0.383069 0.055529
O O4 0.023956 0.378049 0.928447
O O5 0.623461 0.627655 0.818632
O O6 0.476044 0.621951 0.682610
O O7 0.387453 0.744063 0.757879
O O8 0.123461 0.627655 0.792425
O O9 0.781625 0.124712 0.420031
O O10 0.749999 0.072637 0.555529
O O11 0.500000 0.000000 0.455346
O O12 0.000000 0.000000 0.457275
O O13 0.112547 0.255937 0.853178
O O14 0.331714 0.141529 0.786978
O O15 0.831714 0.141529 0.824079
O O16 0.500000 0.500000 0.103920
O O17 0.281625 0.124712 0.191026
O O18 0.500000 0.000000 0.153783
O O19 0.000000 0.000000 0.155711
#
# Coordination Sequence:
#
# PCOD9338899 Si02
#       8
#     4   4   4   4   4   4   4   4
#     4  10  21  37  57  83 113 145 185 229 273 327
#     4  10  21  37  56  81 112 144 182 226 272 326
#     4  10  21  36  53  76 105 136 174 218 263 315
#     4  10  21  36  54  78 106 137 176 219 263 316
#     4  10  21  37  56  81 112 144 182 226 272 326
#     4  10  21  37  57  83 113 145 185 229 273 327
#     4  10  21  36  54  78 106 137 176 219 263 316
#     4  10  21  36  53  76 105 136 174 218 263 315
#
# _framework density 19.069383999999999
#
# number of rings (size 3 to 8) (size 9 to 14) (size 15 to 20)
#    0.000    2.000    0.000    3.000    0.000    5.000 
#    0.000    3.750    0.000    0.000    0.000    0.000 
#    0.000    0.000    0.000    0.000    0.000    0.000 
#
# Total GULP energy -178622.968046 kJ/mol
# GULP energy per Si atom -5581.967751 kJ/mol
# Density = 1.902598 g / cm^3
# Si number density = 19.069384 Si / 1000 Ang^3
#
#
#
# Elastic Constant Matrix: (Units=GPa)
#
#
# Indices 1 2 3 4 5 6 
#
# 1 156.8357 27.8434 52.4547 0.0000 0.0000 0.0000
# 2 27.8434 10.8148 28.5796 0.0000 0.0000 0.0000
# 3 52.4547 28.5796 103.6705 0.0000 0.0000 0.0000
# 4 0.0000 0.0000 0.0000 30.0824 0.0000 0.0000
# 5 0.0000 0.0000 0.0000 0.0000 23.8502 0.0000
# 6 0.0000 0.0000 0.0000 0.0000 0.0000 4.0358
#
#
#
# Elastic Compliance Matrix: (Units=1/GPa)
#
#
# Indices 1 2 3 4 5 6 
#
# 1 0.014431 -0.065778 0.010832 0.000000 0.000000 0.000000
# 2 -0.065778 0.640416 -0.143266 0.000000 0.000000 0.000000
# 3 0.010832 -0.143266 0.043661 0.000000 0.000000 0.000000
# 4 0.000000 0.000000 0.000000 0.033242 0.000000 0.000000
# 5 0.000000 0.000000 0.000000 0.000000 0.041928 0.000000
# 6 0.000000 0.000000 0.000000 0.000000 0.000000 0.247784
#
#
# Mechanical properties :
#
#
# Convention : Reuss Voigt Hill
#
# Bulk Modulus (GPa) = 3.31036 54.34182 28.82609
# Shear Modulus (GPa) = 3.29255 22.42322 12.85789
#
# Velocity S-wave (km/s) = 1.31543 3.43282 2.59949
# Velocity P-wave (km/s) = 2.01168 6.65366 4.91518
#
# Compressibility (1/GPa) = 0.30208229
#
# Stress axis : x y z
#
# Youngs Moduli (GPa) = 69.29503 1.56149 22.90393
#
# Poissons Ratio (x) = 0.10271 -0.24809
# Poissons Ratio (y) = 4.55809 3.28136
# Poissons Ratio (z) = -0.75059 0.22371
#
# Static dielectric constant tensor:
#      x y z
#    x 1.674850 0.000000 0.000000 
#    y 0.000000 1.642210 0.000000 
#    z 0.000000 0.000000 1.649900 
# 
# From -- ./inp_files/3160.got.cif
#   From: 2010.05.17/outbox.cif.g08.bks.cpg/sg27_2_cif.got.tgz:3160.got - 2010.06.04 01:11:05.
