data_PCOD9338564
_publ_section_title
;
Structure prediction by ZEFSAII (Michael W. Deem and Ramdas Pophale) SiO2 
 PCOD9338564
Probable space group: P M C 21
;
_chemical_formula_sum "Si O2"
_cell_formula_units_Z 32
_cell_length_a 8.955504
_cell_length_b 5.382026
_cell_length_c 31.110254
_cell_angle_alpha 90.000000
_cell_angle_beta 90.000000
_cell_angle_gamma 90.000000
_cell_volume 1499.475522
_symmetry_space_group_name_H-M "P M C 21"
_symmetry_group_IT_number 26
_symmetry_cell_setting 'orthorhombic'
loop_
_space_group_symop_operation_xyz
x,y,z
-x,-y,1/2+z
-x,y,z
x,-y,1/2+z
loop_
_atom_site_type_symbol
_atom_site_label
_atom_site_fract_x
_atom_site_fract_y
_atom_site_fract_z
Si Si1 0.823220 0.800507 0.571710
Si Si2 0.339073 0.227312 0.783217
Si Si3 0.824483 0.293835 0.625378
Si Si4 0.678939 0.179574 0.979363
Si Si5 0.328048 0.377405 0.347960
Si Si6 0.662436 0.436049 0.200015
Si Si7 0.179137 0.319877 0.438718
Si Si8 0.836435 0.821943 0.763532
O O1 0.804922 0.528440 0.592870
O O2 0.723710 0.823498 0.529457
O O3 0.000000 0.827616 0.560562
O O4 0.787004 0.029014 0.603898
O O5 0.500000 0.087142 0.778802
O O6 0.331977 0.338641 0.830841
O O7 0.353467 0.433235 0.746199
O O8 0.181773 0.113458 0.770039
O O9 0.726489 0.372719 0.665955
O O10 0.000000 0.286822 0.637029
O O11 0.500000 0.180900 0.973323
O O12 0.750308 0.432042 0.959962
O O13 0.750429 0.931768 0.958406
O O14 0.500000 0.305370 0.356607
O O15 0.226577 0.332426 0.388835
O O16 0.260343 0.246904 0.305866
O O17 0.500000 0.341840 0.186229
O O18 0.776108 0.225330 0.215370
O O19 0.000000 0.319055 0.444092
O O20 0.000000 0.718269 0.767779
#
# Coordination Sequence:
#
# PCOD9338564 Si02
#       8
#     4   4   4   4   4   4   4   4
#     4  10  22  42  66  94 131 171 212 265 329 397
#     4   9  20  38  59  83 119 165 208 260 320 377
#     4  10  22  39  63  95 129 168 214 264 323 388
#     4  12  26  46  72 103 137 176 223 277 339 404
#     4  10  22  41  62  89 125 166 214 267 324 387
#     4  10  22  39  58  85 121 163 213 265 318 376
#     4  12  26  45  71 102 138 179 226 277 333 402
#     4  11  22  36  59  87 122 164 210 263 320 385
#
# _framework density 21.340795
#
# number of rings (size 3 to 8) (size 9 to 14) (size 15 to 20)
#    0.000    1.500    0.000    5.625    3.500    5.000 
#    0.000    0.000    0.000    0.000    0.000    0.000 
#    0.000    0.000    0.000    0.000    0.000    0.000 
#
# Total GULP energy -178358.802485 kJ/mol
# GULP energy per Si atom -5573.712578 kJ/mol
# Density = 2.129222 g / cm^3
# Si number density = 21.340795 Si / 1000 Ang^3
#
#
#
# Elastic Constant Matrix: (Units=GPa)
#
#
# Indices 1 2 3 4 5 6 
#
# 1 103.8266 18.2433 15.1951 0.0000 0.0000 0.0000
# 2 18.2433 65.7000 -6.2273 0.0000 0.0000 0.0000
# 3 15.1951 -6.2273 52.8904 0.0000 0.0000 0.0000
# 4 0.0000 0.0000 0.0000 21.2613 0.0000 0.0000
# 5 0.0000 0.0000 0.0000 0.0000 38.4161 0.0000
# 6 0.0000 0.0000 0.0000 0.0000 0.0000 -9.2655
#
#
#
# Elastic Compliance Matrix: (Units=1/GPa)
#
#
# Indices 1 2 3 4 5 6 
#
# 1 0.010720 -0.003305 -0.003469 0.000000 0.000000 0.000000
# 2 -0.003305 0.016412 0.002882 0.000000 0.000000 0.000000
# 3 -0.003469 0.002882 0.020243 0.000000 0.000000 0.000000
# 4 0.000000 0.000000 0.000000 0.047034 0.000000 0.000000
# 5 0.000000 0.000000 0.000000 0.000000 0.026031 0.000000
# 6 0.000000 0.000000 0.000000 0.000000 0.000000 -0.107928
#
#
# Mechanical properties :
#
#
# Convention : Reuss Voigt Hill
#
# Bulk Modulus (GPa) = 25.25915 30.75992 28.00953
# Shear Modulus (GPa) = 149.28581 23.09613 86.19097
#
# Velocity S-wave (km/s) = 8.37288 3.29333 6.36204
# Velocity P-wave (km/s) = 10.26330 5.37646 8.19273
#
# Compressibility (1/GPa) = 0.03958961
#
# Stress axis : x y z
#
# Youngs Moduli (GPa) = 93.28427 60.93215 49.39997
#
# Poissons Ratio (x) = 0.20141 0.17137
# Poissons Ratio (y) = 0.30835 -0.14237
# Poissons Ratio (z) = 0.32360 -0.17560
#
# Static dielectric constant tensor:
#      x y z
#    x 1.599860 0.000000 0.000000 
#    y 0.000000 2.023150 0.000000 
#    z 0.000000 0.000000 1.726420 
# 
# From -- ./inp_files/5680.got.cif
#   From: 2010.05.17/outbox.cif.g08.bks.cpg/sg26_3_cif.got.tgz:5680.got - 2010.06.04 01:07:29.
