data_PCOD9338477
_publ_section_title
;
Structure prediction by ZEFSAII (Michael W. Deem and Ramdas Pophale) SiO2 
 PCOD9338477
Probable space group: P M C 21
;
_chemical_formula_sum "Si O2"
_cell_formula_units_Z 32
_cell_length_a 9.050817
_cell_length_b 12.549767
_cell_length_c 14.730689
_cell_angle_alpha 90.000000
_cell_angle_beta 90.000000
_cell_angle_gamma 90.000000
_cell_volume 1673.194804
_symmetry_space_group_name_H-M "P M C 21"
_symmetry_group_IT_number 26
_symmetry_cell_setting 'orthorhombic'
loop_
_space_group_symop_operation_xyz
x,y,z
-x,-y,1/2+z
-x,y,z
x,-y,1/2+z
loop_
_atom_site_type_symbol
_atom_site_label
_atom_site_fract_x
_atom_site_fract_y
_atom_site_fract_z
Si Si1 0.323642 0.380720 0.473760
Si Si2 0.322653 0.224790 0.637256
Si Si3 0.173897 0.220177 0.340520
Si Si4 0.823547 0.781942 0.333621
Si Si5 0.172958 0.225329 0.123527
Si Si6 0.676437 0.630429 0.479543
Si Si7 0.669409 0.998302 0.841054
Si Si8 0.668533 0.989666 0.620511
O O1 0.500000 0.370281 0.458620
O O2 0.290023 0.318621 0.567181
O O3 0.239312 0.319772 0.394130
O O4 0.287857 0.505214 0.479412
O O5 0.500000 0.223002 0.655988
O O6 0.236060 0.235034 0.731343
O O7 0.287256 0.109200 0.593375
O O8 0.194277 0.233265 0.232013
O O9 0.000000 0.208746 0.357496
O O10 0.257228 0.112250 0.369778
O O11 0.757254 0.691406 0.397963
O O12 0.760069 0.896434 0.365727
O O13 0.000000 0.782847 0.335482
O O14 0.227316 0.107586 0.094461
O O15 0.000000 0.238171 0.102968
O O16 0.267383 0.312532 0.070669
O O17 0.500000 0.642546 0.470729
O O18 0.500000 0.005972 0.871594
O O19 0.668654 0.994966 0.730710
O O20 0.500000 0.967941 0.591601
#
# Coordination Sequence:
#
# PCOD9338477 Si02
#       8
#     4   4   4   4   4   4   4   4
#     4  10  23  41  60  82 110 150 201 245 279 331
#     4   9  19  38  61  86 115 147 186 233 283 336
#     4  10  21  37  59  88 122 153 183 230 289 343
#     4  11  22  37  59  87 118 150 185 232 291 347
#     4  10  21  37  57  83 116 150 185 231 285 340
#     4  11  24  41  59  80 109 150 200 246 284 332
#     4   9  17  33  58  86 117 151 188 229 275 337
#     4   8  15  30  55  84 113 145 180 222 276 338
#
# _framework density 19.12509
#
# number of rings (size 3 to 8) (size 9 to 14) (size 15 to 20)
#    0.000    2.250    0.000    3.375    0.000    8.000 
#    0.000    7.500    0.000    0.000    0.000    0.000 
#    0.000    0.000    0.000    0.000    0.000    0.000 
#
# Total GULP energy -178777.626798 kJ/mol
# GULP energy per Si atom -5586.800837 kJ/mol
# Density = 1.908156 g / cm^3
# Si number density = 19.125090 Si / 1000 Ang^3
#
#
#
# Elastic Constant Matrix: (Units=GPa)
#
#
# Indices 1 2 3 4 5 6 
#
# 1 115.4427 97.9713 58.9568 0.0000 0.0000 0.0000
# 2 97.9713 180.2075 60.3648 0.0000 0.0000 0.0000
# 3 58.9568 60.3648 73.9503 0.0000 0.0000 0.0000
# 4 0.0000 0.0000 0.0000 31.0995 0.0000 0.0000
# 5 0.0000 0.0000 0.0000 0.0000 24.6008 0.0000
# 6 0.0000 0.0000 0.0000 0.0000 0.0000 6.8966
#
#
#
# Elastic Compliance Matrix: (Units=1/GPa)
#
#
# Indices 1 2 3 4 5 6 
#
# 1 0.020217 -0.007697 -0.009835 0.000000 0.000000 0.000000
# 2 -0.007697 0.010568 -0.002490 0.000000 0.000000 0.000000
# 3 -0.009835 -0.002490 0.023397 0.000000 0.000000 0.000000
# 4 0.000000 0.000000 0.000000 0.032155 0.000000 0.000000
# 5 0.000000 0.000000 0.000000 0.000000 0.040649 0.000000
# 6 0.000000 0.000000 0.000000 0.000000 0.000000 0.144998
#
#
# Mechanical properties :
#
#
# Convention : Reuss Voigt Hill
#
# Bulk Modulus (GPa) = 70.73649 89.35403 80.04526
# Shear Modulus (GPa) = 15.78584 22.67323 19.22954
#
# Velocity S-wave (km/s) = 2.87609 3.44688 3.17434
# Velocity P-wave (km/s) = 6.93511 7.91603 7.44175
#
# Compressibility (1/GPa) = 0.01413698
#
# Stress axis : x y z
#
# Youngs Moduli (GPa) = 49.46337 94.62913 42.74134
#
# Poissons Ratio (x) = 0.72832 0.42038
# Poissons Ratio (y) = 0.38070 0.10643
# Poissons Ratio (z) = 0.48649 0.23564
#
# Static dielectric constant tensor:
#      x y z
#    x 1.636120 0.000000 0.000000 
#    y 0.000000 1.640440 0.000000 
#    z 0.000000 0.000000 1.687040 
# 
# From -- ./inp_files/4242.got.cif
#   From: 2010.05.17/outbox.cif.g08.bks.cpg/sg26_3_cif.got.tgz:4242.got - 2010.06.04 01:07:29.
