data_PCOD9338569
_publ_section_title
;
Structure prediction by ZEFSAII (Michael W. Deem and Ramdas Pophale) SiO2 
 PCOD9338569
Probable space group: P M C 21
;
_chemical_formula_sum "Si O2"
_cell_formula_units_Z 20
_cell_length_a 14.598176
_cell_length_b 4.963151
_cell_length_c 9.841556
_cell_angle_alpha 90.000000
_cell_angle_beta 90.000000
_cell_angle_gamma 90.000000
_cell_volume 713.049783
_symmetry_space_group_name_H-M "P M C 21"
_symmetry_group_IT_number 26
_symmetry_cell_setting 'orthorhombic'
loop_
_space_group_symop_operation_xyz
x,y,z
-x,-y,1/2+z
-x,y,z
x,-y,1/2+z
loop_
_atom_site_type_symbol
_atom_site_label
_atom_site_fract_x
_atom_site_fract_y
_atom_site_fract_z
Si Si1 0.500000 0.489306 0.364650
Si Si2 0.500000 0.143574 0.619155
Si Si3 0.193359 0.067478 0.857569
Si Si4 0.000000 0.063957 0.363631
Si Si5 0.000000 0.561623 0.549010
Si Si6 0.344425 0.216082 0.191057
Si Si7 0.197392 0.563609 0.041766
O O1 0.500000 0.408045 0.523793
O O2 0.500000 0.770204 0.279529
O O3 0.409706 0.348595 0.303420
O O4 0.588592 0.957293 0.594588
O O5 0.094965 0.001394 0.792768
O O6 0.275140 0.988906 0.761385
O O7 0.200821 0.866672 0.987264
O O8 0.195774 0.370553 0.909069
O O9 0.000000 0.366975 0.416534
O O10 0.000000 0.866107 0.495048
O O11 0.901168 0.494299 0.612409
O O12 0.283998 0.447383 0.121297
#
# Coordination Sequence:
#
# PCOD9338569 Si02
#       7
#     2   2   4   2   2   4   4
#     4  11  28  48  77  98 148 188 250 316 394 453
#     4  11  28  52  71 110 140 196 248 324 388 463
#     4  10  22  39  67  98 145 183 239 290 360 433
#     4   8  16  35  58  95 136 189 224 286 350 427
#     4   8  16  35  58  93 138 187 226 284 350 427
#     4  11  26  43  71 103 138 186 250 310 375 448
#     4  10  22  39  66  99 143 185 237 291 359 433
#
# _framework density 28.048532999999999
#
# number of rings (size 3 to 8) (size 9 to 14) (size 15 to 20)
#    0.000    2.000    0.000    1.200    8.400    4.000 
#    0.000    0.000    0.000   14.400    0.000    0.000 
#    0.000    0.000    0.000    0.000    0.000    0.000 
#
# Total GULP energy -112235.085930 kJ/mol
# GULP energy per Si atom -5611.754296 kJ/mol
# Density = 2.798469 g / cm^3
# Si number density = 28.048533 Si / 1000 Ang^3
#
#
#
# Elastic Constant Matrix: (Units=GPa)
#
#
# Indices 1 2 3 4 5 6 
#
# 1 228.3951 24.2114 50.9102 0.0000 0.0000 0.0000
# 2 24.2114 119.7298 41.7017 0.0000 0.0000 0.0000
# 3 50.9102 41.7017 93.8221 0.0000 0.0000 0.0000
# 4 0.0000 0.0000 0.0000 57.1309 0.0000 0.0000
# 5 0.0000 0.0000 0.0000 0.0000 0.9935 0.0000
# 6 0.0000 0.0000 0.0000 0.0000 0.0000 11.1073
#
#
#
# Elastic Compliance Matrix: (Units=1/GPa)
#
#
# Indices 1 2 3 4 5 6 
#
# 1 0.004981 -0.000078 -0.002668 0.000000 0.000000 0.000000
# 2 -0.000078 0.009883 -0.004351 0.000000 0.000000 0.000000
# 3 -0.002668 -0.004351 0.014040 0.000000 0.000000 0.000000
# 4 0.000000 0.000000 0.000000 0.017504 0.000000 0.000000
# 5 0.000000 0.000000 0.000000 0.000000 1.006575 0.000000
# 6 0.000000 0.000000 0.000000 0.000000 0.000000 0.090031
#
#
# Mechanical properties :
#
#
# Convention : Reuss Voigt Hill
#
# Bulk Modulus (GPa) = 67.97650 75.06595 71.52123
# Shear Modulus (GPa) = 4.30251 35.52123 19.91187
#
# Velocity S-wave (km/s) = 1.23987 3.56254 2.66730
# Velocity P-wave (km/s) = 5.13202 6.61387 5.91950
#
# Compressibility (1/GPa) = 0.01471097
#
# Stress axis : x y z
#
# Youngs Moduli (GPa) = 200.74515 101.18188 71.22437
#
# Poissons Ratio (x) = 0.00788 0.19006
# Poissons Ratio (y) = 0.01564 0.30987
# Poissons Ratio (z) = 0.53567 0.44020
#
# Static dielectric constant tensor:
#      x y z
#    x 2.167610 0.000000 0.000000 
#    y 0.000000 2.098470 0.000000 
#    z 0.000000 0.000000 2.161200 
# 
# From -- ./inp_files/3453.got.cif
#   From: 2010.05.17/outbox.cif.g08.bks.cpg/sg26_2_cif.got.tgz:3453.got - 2010.06.04 01:07:29.
