data_PCOD9338457
_publ_section_title
;
Structure prediction by ZEFSAII (Michael W. Deem and Ramdas Pophale) SiO2 
 PCOD9338457
Probable space group: P M C 21
;
_chemical_formula_sum "Si O2"
_cell_formula_units_Z 24
_cell_length_a 8.087860
_cell_length_b 11.278257
_cell_length_c 13.221473
_cell_angle_alpha 90.000000
_cell_angle_beta 90.000000
_cell_angle_gamma 90.000000
_cell_volume 1206.022622
_symmetry_space_group_name_H-M "P M C 21"
_symmetry_group_IT_number 26
_symmetry_cell_setting 'orthorhombic'
loop_
_space_group_symop_operation_xyz
x,y,z
-x,-y,1/2+z
-x,y,z
x,-y,1/2+z
loop_
_atom_site_type_symbol
_atom_site_label
_atom_site_fract_x
_atom_site_fract_y
_atom_site_fract_z
Si Si1 0.195184 0.686363 0.824050
Si Si2 0.806204 0.212661 0.712259
Si Si3 0.199761 0.126993 0.927503
Si Si4 0.697531 0.291378 0.111165
Si Si5 0.203087 0.133890 0.495273
Si Si6 0.307278 0.524272 0.204193
O O1 0.226360 0.754849 0.717286
O O2 0.279980 0.559674 0.802478
O O3 0.000000 0.666471 0.834957
O O4 0.256327 0.763447 0.917599
O O5 0.736938 0.159450 0.608525
O O6 0.789611 0.354441 0.708069
O O7 0.000000 0.181446 0.712804
O O8 0.735015 0.165354 0.817636
O O9 0.248027 0.220264 0.013909
O O10 0.000000 0.125711 0.923923
O O11 0.255146 0.995381 0.957676
O O12 0.500000 0.286612 0.120488
O O13 0.744448 0.431555 0.115684
O O14 0.000000 0.136142 0.494752
O O15 0.500000 0.552404 0.193790
#
# Coordination Sequence:
#
# PCOD9338457 Si02
#       6
#     4   4   4   4   4   4
#     4   9  17  34  61  86 109 145 188 230 277 331
#     4  10  21  36  56  86 115 144 189 234 279 335
#     4  10  21  36  59  85 112 149 188 233 281 331
#     4   9  20  37  56  82 113 149 187 227 279 335
#     4   9  20  36  58  87 115 145 186 236 280 327
#     4   9  20  37  56  82 116 150 186 230 282 335
#
# _framework density 19.900124000000002
#
# number of rings (size 3 to 8) (size 9 to 14) (size 15 to 20)
#    1.000    1.667    0.000    1.000    2.333    2.000 
#    0.000    9.167    0.000    0.000    0.000    0.000 
#    0.000    0.000    0.000    0.000    0.000    0.000 
#
# Total GULP energy -133676.928177 kJ/mol
# GULP energy per Si atom -5569.872007 kJ/mol
# Density = 1.985483 g / cm^3
# Si number density = 19.900124 Si / 1000 Ang^3
#
#
#
# Elastic Constant Matrix: (Units=GPa)
#
#
# Indices 1 2 3 4 5 6 
#
# 1 11.6301 -7.8461 -3.9877 0.0000 0.0000 0.0000
# 2 -7.8461 86.5350 45.9087 0.0000 0.0000 0.0000
# 3 -3.9877 45.9087 125.3140 0.0000 0.0000 0.0000
# 4 0.0000 0.0000 0.0000 33.1373 0.0000 0.0000
# 5 0.0000 0.0000 0.0000 0.0000 -1.2128 0.0000
# 6 0.0000 0.0000 0.0000 0.0000 0.0000 -5.9205
#
#
#
# Elastic Compliance Matrix: (Units=1/GPa)
#
#
# Indices 1 2 3 4 5 6 
#
# 1 0.091588 0.008388 -0.000159 0.000000 0.000000 0.000000
# 2 0.008388 0.015112 -0.005269 0.000000 0.000000 0.000000
# 3 -0.000159 -0.005269 0.009905 0.000000 0.000000 0.000000
# 4 0.000000 0.000000 0.000000 0.030177 0.000000 0.000000
# 5 0.000000 0.000000 0.000000 0.000000 -0.824558 0.000000
# 6 0.000000 0.000000 0.000000 0.000000 0.000000 -0.168906
#
#
# Mechanical properties :
#
#
# Convention : Reuss Voigt Hill
#
# Bulk Modulus (GPa) = 8.16147 32.40321 20.28234
# Shear Modulus (GPa) = -6.15947 17.82776 5.83415
#
# Velocity S-wave (km/s) = -1.76122 2.99634 1.71408
# Velocity P-wave (km/s) = 0.16049 5.31874 3.75921
#
# Compressibility (1/GPa) = 0.12252692
#
# Stress axis : x y z
#
# Youngs Moduli (GPa) = 10.91840 66.17202 100.95559
#
# Poissons Ratio (x) = -0.55508 0.01601
# Poissons Ratio (y) = -0.09159 0.53197
# Poissons Ratio (z) = 0.00173 0.34869
#
# Static dielectric constant tensor:
#      x y z
#    x 1.697670 0.000000 0.000000 
#    y 0.000000 1.686380 0.000000 
#    z 0.000000 0.000000 1.719810 
# 
# From -- ./inp_files/2828.got.cif
#   From: 2010.05.17/outbox.cif.g08.bks.cpg/sg26_2_cif.got.tgz:2828.got - 2010.06.04 01:07:29.
