data_PCOD9338701
_publ_section_title
;
Structure prediction by ZEFSAII (Michael W. Deem and Ramdas Pophale) SiO2 
 PCOD9338701
Probable space group: P M C 21
;
_chemical_formula_sum "Si O2"
_cell_formula_units_Z 32
_cell_length_a 9.000000
_cell_length_b 9.000000
_cell_length_c 21.000000
_cell_angle_alpha 90.000000
_cell_angle_beta 90.000000
_cell_angle_gamma 90.000000
_cell_volume 1701.000000
_symmetry_space_group_name_H-M "P M C 21"
_symmetry_group_IT_number 26
_symmetry_cell_setting 'orthorhombic'
loop_
_space_group_symop_operation_xyz
x,y,z
-x,-y,1/2+z
-x,y,z
x,-y,1/2+z
loop_
_atom_site_type_symbol
_atom_site_label
_atom_site_fract_x
_atom_site_fract_y
_atom_site_fract_z
Si Si1 0.820189 0.630111 0.814900
Si Si2 0.678710 0.058563 0.277045
Si Si3 0.179444 0.364558 0.072775
Si Si4 0.179659 0.441042 0.693602
Si Si5 0.678123 0.872883 0.402460
Si Si6 0.822224 0.557787 0.433045
Si Si7 0.321797 0.046676 0.042628
Si Si8 0.179354 0.107896 0.659167
O O1 0.739176 0.779840 0.795034
O O2 0.779120 0.505714 0.762284
O O3 0.777235 0.572566 0.885029
O O4 0.000000 0.650658 0.812671
O O5 0.500000 0.058490 0.270435
O O6 0.720245 0.952443 0.336784
O O7 0.754159 0.002687 0.212103
O O8 0.226736 0.450534 0.136234
O O9 0.262306 0.208447 0.064597
O O10 0.000000 0.339330 0.075481
O O11 0.211105 0.457362 0.008101
O O12 0.226967 0.273270 0.680098
O O13 0.000000 0.439593 0.691760
O O14 0.500000 0.855826 0.402764
O O15 0.751330 0.711961 0.409819
O O16 0.716440 0.963455 0.467298
O O17 0.000000 0.572125 0.427389
O O18 0.500000 0.038440 0.049281
O O19 0.242955 0.931683 0.089767
O O20 0.000000 0.097802 0.658558
#
# Coordination Sequence:
#
# PCOD9338701 Si02
#       8
#     4   4   4   4   4   4   4   4
#     4  10  20  35  54  78 106 138 176 223 270 315
#     4  11  23  38  55  79 109 144 183 224 268 320
#     4   9  17  33  55  79 106 139 177 220 265 314
#     4   9  19  34  53  75 102 134 172 216 265 316
#     4   9  20  37  56  78 110 147 182 220 266 317
#     4   9  18  32  54  81 107 136 177 222 265 313
#     4  10  20  36  56  81 111 144 180 220 265 320
#     4  11  22  37  57  81 107 140 179 223 272 323
#
# _framework density 18.812463000000001
#
# number of rings (size 3 to 8) (size 9 to 14) (size 15 to 20)
#    0.000    2.250    0.000    2.625    0.000    5.000 
#    0.000    3.750    0.000    0.000    0.000    0.000 
#    0.000    0.000    0.000    0.000    0.000    0.000 
#
# Total GULP energy -178623.217267 kJ/mol
# GULP energy per Si atom -5581.975540 kJ/mol
# Density = 1.876965 g / cm^3
# Si number density = 18.812463 Si / 1000 Ang^3
#
#
#
# Elastic Constant Matrix: (Units=GPa)
#
#
# Indices 1 2 3 4 5 6 
#
# 1 29.2222 -3.1761 6.5851 0.0000 0.0000 0.0000
# 2 -3.1761 15.3669 -20.8786 0.0000 0.0000 0.0000
# 3 6.5851 -20.8786 44.1152 0.0000 0.0000 0.0000
# 4 0.0000 0.0000 0.0000 38.2111 0.0000 0.0000
# 5 0.0000 0.0000 0.0000 0.0000 24.8424 0.0000
# 6 0.0000 0.0000 0.0000 0.0000 0.0000 7.1565
#
#
#
# Elastic Compliance Matrix: (Units=1/GPa)
#
#
# Indices 1 2 3 4 5 6 
#
# 1 0.035412 0.000384 -0.005104 0.000000 0.000000 0.000000
# 2 0.000384 0.182299 0.086220 0.000000 0.000000 0.000000
# 3 -0.005104 0.086220 0.064235 0.000000 0.000000 0.000000
# 4 0.000000 0.000000 0.000000 0.026170 0.000000 0.000000
# 5 0.000000 0.000000 0.000000 0.000000 0.040254 0.000000
# 6 0.000000 0.000000 0.000000 0.000000 0.000000 0.139733
#
#
# Mechanical properties :
#
#
# Convention : Reuss Voigt Hill
#
# Bulk Modulus (GPa) = 2.24746 5.97392 4.11069
# Shear Modulus (GPa) = 10.56146 21.12027 15.84087
#
# Velocity S-wave (km/s) = 2.37197 3.35427 2.90494
# Velocity P-wave (km/s) = 2.94940 4.26426 3.66625
#
# Compressibility (1/GPa) = 0.44494578
#
# Stress axis : x y z
#
# Youngs Moduli (GPa) = 28.23864 5.48551 15.56778
#
# Poissons Ratio (x) = -0.00211 0.07946
# Poissons Ratio (y) = -0.01085 -1.34225
# Poissons Ratio (z) = 0.14413 -0.47296
#
# Static dielectric constant tensor:
#      x y z
#    x 1.623500 0.000000 0.000000 
#    y 0.000000 1.636480 0.000000 
#    z 0.000000 0.000000 1.660000 
# 
# From -- ./inp_files/5338.got.cif
#   From: 2010.05.17/outbox.ucp.g08.bks.cvg/sg26_3_cif.got.tgz:5338.got - 2010.06.11 15:23:25.
