data_PCOD9338677
_publ_section_title
;
Structure prediction by ZEFSAII (Michael W. Deem and Ramdas Pophale) SiO2 
 PCOD9338677
Probable space group: P M C 21
;
_chemical_formula_sum "Si O2"
_cell_formula_units_Z 32
_cell_length_a 11.127426
_cell_length_b 27.975317
_cell_length_c 5.265213
_cell_angle_alpha 90.000000
_cell_angle_beta 90.000000
_cell_angle_gamma 90.000000
_cell_volume 1639.025371
_symmetry_space_group_name_H-M "P M C 21"
_symmetry_group_IT_number 26
_symmetry_cell_setting 'orthorhombic'
loop_
_space_group_symop_operation_xyz
x,y,z
-x,-y,1/2+z
-x,y,z
x,-y,1/2+z
loop_
_atom_site_type_symbol
_atom_site_label
_atom_site_fract_x
_atom_site_fract_y
_atom_site_fract_z
Si Si1 0.144082 0.808421 0.526620
Si Si2 0.866298 0.724328 0.878479
Si Si3 0.630418 0.366005 0.082142
Si Si4 0.369516 0.700497 0.088184
Si Si5 0.133497 0.610751 0.791105
Si Si6 0.855754 0.526604 0.142780
Si Si7 0.853171 0.862916 0.030057
Si Si8 0.853612 0.028014 0.623121
O O1 0.161830 0.754149 0.623773
O O2 0.188232 0.829386 0.261738
O O3 0.000000 0.813600 0.513810
O O4 0.186568 0.841291 0.761525
O O5 0.751903 0.730608 0.058965
O O6 0.875342 0.667552 0.834604
O O7 0.000000 0.740264 0.970816
O O8 0.500000 0.391130 0.070327
O O9 0.639575 0.332749 0.835199
O O10 0.752056 0.395939 0.111297
O O11 0.627430 0.332791 0.335283
O O12 0.500000 0.725547 0.099864
O O13 0.160976 0.580932 0.046111
O O14 0.000000 0.595106 0.697815
O O15 0.810163 0.494262 0.907399
O O16 0.000000 0.521408 0.159357
O O17 0.815670 0.917448 0.077358
O O18 0.000000 0.862879 0.024862
O O19 0.000000 0.028349 0.624570
O O20 0.815568 0.994174 0.390971
#
# Coordination Sequence:
#
# PCOD9338677 Si02
#       8
#     4   4   4   4   4   4   4   4
#     4   9  17  27  38  54  81 114 143 176 224 277
#     4   9  18  31  48  72  97 122 159 201 233 270
#     4   9  18  32  49  69  94 122 149 183 230 278
#     4   9  18  32  48  67  93 124 156 189 229 274
#     4   9  18  32  52  75  96 120 155 198 234 269
#     4   9  18  32  48  67  92 120 148 182 231 284
#     4   9  16  26  37  51  77 112 145 180 227 275
#     4   9  15  22  34  51  69  96 143 193 222 251
#
# _framework density 19.523797999999999
#
# number of rings (size 3 to 8) (size 9 to 14) (size 15 to 20)
#    0.000    3.000    0.000    0.750    0.000    7.500 
#    0.000    7.500    0.000    0.750    0.000    0.000 
#    0.000    0.000    0.000    0.000    0.000   12.500 
#
# Total GULP energy -178211.234861 kJ/mol
# GULP energy per Si atom -5569.101089 kJ/mol
# Density = 1.947936 g / cm^3
# Si number density = 19.523798 Si / 1000 Ang^3
#
#
#
# Elastic Constant Matrix: (Units=GPa)
#
#
# Indices 1 2 3 4 5 6 
#
# 1 106.2045 -1.8583 12.4237 0.0000 0.0000 0.0000
# 2 -1.8583 90.3989 10.2822 0.0000 0.0000 0.0000
# 3 12.4237 10.2822 96.2237 0.0000 0.0000 0.0000
# 4 0.0000 0.0000 0.0000 28.7611 0.0000 0.0000
# 5 0.0000 0.0000 0.0000 0.0000 -0.0564 0.0000
# 6 0.0000 0.0000 0.0000 0.0000 0.0000 2.8704
#
#
#
# Elastic Compliance Matrix: (Units=1/GPa)
#
#
# Indices 1 2 3 4 5 6 
#
# 1 0.009571 0.000341 -0.001272 0.000000 0.000000 0.000000
# 2 0.000341 0.011210 -0.001242 0.000000 0.000000 0.000000
# 3 -0.001272 -0.001242 0.010689 0.000000 0.000000 0.000000
# 4 0.000000 0.000000 0.000000 0.034769 0.000000 0.000000
# 5 0.000000 0.000000 0.000000 0.000000-17.728583 0.000000
# 6 0.000000 0.000000 0.000000 0.000000 0.000000 0.348384
#
#
# Mechanical properties :
#
#
# Convention : Reuss Voigt Hill
#
# Bulk Modulus (GPa) = 36.86646 37.16915 37.01781
# Shear Modulus (GPa) = -0.28901 24.44697 12.07898
#
# Velocity S-wave (km/s) = -0.38516 3.54243 2.49003
# Velocity P-wave (km/s) = 4.32736 5.98422 5.22192
#
# Compressibility (1/GPa) = 0.02712492
#
# Stress axis : x y z
#
# Youngs Moduli (GPa) = 104.48674 89.20311 93.55041
#
# Poissons Ratio (x) = -0.03046 0.11901
# Poissons Ratio (y) = -0.03568 0.11619
# Poissons Ratio (z) = 0.13293 0.11079
#
# Static dielectric constant tensor:
#      x y z
#    x 1.727550 0.000000 0.000000 
#    y 0.000000 1.724050 0.000000 
#    z 0.000000 0.000000 1.728350 
# 
# From -- ./inp_files/496.got.cif
#   From: 2010.05.17/outbox.cif.g08.bks.cpg/sg26_1_cif.got.tgz:496.got - 2010.06.04 01:07:29.
