data_PCOD9338374
_publ_section_title
;
Structure prediction by ZEFSAII (Michael W. Deem and Ramdas Pophale) SiO2 
 PCOD9338374
Probable space group: P M C 21
;
_chemical_formula_sum "Si O2"
_cell_formula_units_Z 16
_cell_length_a 7.891996
_cell_length_b 9.654060
_cell_length_c 8.165362
_cell_angle_alpha 90.000000
_cell_angle_beta 90.000000
_cell_angle_gamma 90.000000
_cell_volume 622.117321
_symmetry_space_group_name_H-M "P M C 21"
_symmetry_group_IT_number 26
_symmetry_cell_setting 'orthorhombic'
loop_
_space_group_symop_operation_xyz
x,y,z
-x,-y,1/2+z
-x,y,z
x,-y,1/2+z
loop_
_atom_site_type_symbol
_atom_site_label
_atom_site_fract_x
_atom_site_fract_y
_atom_site_fract_z
Si Si1 0.801004 0.038784 0.896280
Si Si2 0.799003 0.458355 0.999724
Si Si3 0.207273 0.790221 0.708909
Si Si4 0.305313 0.714335 0.186223
O O1 0.783455 0.143602 0.741859
O O2 0.000000 0.023071 0.928001
O O3 0.730225 0.887072 0.856167
O O4 0.732116 0.121430 0.050626
O O5 0.748458 0.365540 0.158842
O O6 0.767315 0.618252 0.041388
O O7 0.000000 0.440593 0.971734
O O8 0.711556 0.385111 0.846720
O O9 0.000000 0.790758 0.717079
O O10 0.500000 0.743318 0.155390
#
# Coordination Sequence:
#
# PCOD9338374 Si02
#       4
#     4   4   4   4
#     4   9  17  33  53  75 102 136 175 218 262 313
#     4  10  20  37  58  80 105 142 185 224 264 316
#     4   8  16  30  52  77 100 129 175 223 260 303
#     4  11  22  36  53  80 113 143 175 221 272 320
#
# _framework density 25.718624999999999
#
# number of rings (size 3 to 8) (size 9 to 14) (size 15 to 20)
#    0.000    2.500    0.000    4.500    0.000    2.000 
#    0.000   11.250    0.000    0.000    0.000    0.000 
#    0.000    0.000    0.000    0.000    0.000    0.000 
#
# Total GULP energy -89420.575497 kJ/mol
# GULP energy per Si atom -5588.785969 kJ/mol
# Density = 2.566009 g / cm^3
# Si number density = 25.718625 Si / 1000 Ang^3
#
#
#
# Elastic Constant Matrix: (Units=GPa)
#
#
# Indices 1 2 3 4 5 6 
#
# 1 60.2695 -5.3091 1.1114 0.0000 0.0000 0.0000
# 2 -5.3091 168.6218 10.6758 0.0000 0.0000 0.0000
# 3 1.1114 10.6758 44.2437 0.0000 0.0000 0.0000
# 4 0.0000 0.0000 0.0000 55.4844 0.0000 0.0000
# 5 0.0000 0.0000 0.0000 0.0000 18.5485 0.0000
# 6 0.0000 0.0000 0.0000 0.0000 0.0000 4.0923
#
#
#
# Elastic Compliance Matrix: (Units=1/GPa)
#
#
# Indices 1 2 3 4 5 6 
#
# 1 0.016652 0.000559 -0.000553 0.000000 0.000000 0.000000
# 2 0.000559 0.006041 -0.001472 0.000000 0.000000 0.000000
# 3 -0.000553 -0.001472 0.022971 0.000000 0.000000 0.000000
# 4 0.000000 0.000000 0.000000 0.018023 0.000000 0.000000
# 5 0.000000 0.000000 0.000000 0.000000 0.053913 0.000000
# 6 0.000000 0.000000 0.000000 0.000000 0.000000 0.244359
#
#
# Mechanical properties :
#
#
# Convention : Reuss Voigt Hill
#
# Bulk Modulus (GPa) = 23.40139 31.78793 27.59466
# Shear Modulus (GPa) = 13.18794 33.40218 23.29506
#
# Velocity S-wave (km/s) = 2.26692 3.60773 3.01286
# Velocity P-wave (km/s) = 3.99633 5.45353 4.78078
#
# Compressibility (1/GPa) = 0.04273251
#
# Stress axis : x y z
#
# Youngs Moduli (GPa) = 60.05427 165.52944 43.53294
#
# Poissons Ratio (x) = -0.09258 0.02408
# Poissons Ratio (y) = -0.03359 0.06407
# Poissons Ratio (z) = 0.03322 0.24362
#
# Static dielectric constant tensor:
#      x y z
#    x 1.928960 0.000000 0.000000 
#    y 0.000000 2.025540 0.000000 
#    z 0.000000 0.000000 2.161750 
# 
# From -- ./inp_files/1195.got.cif
#   From: 2010.05.17/outbox.cif.g08.bks.cpg/sg26_1_cif.got.tgz:1195.got - 2010.06.04 01:07:29.
