data_PCOD9338984
_publ_section_title
;
Structure prediction by ZEFSAII (Michael W. Deem and Ramdas Pophale) SiO2 
 PCOD9338984
Probable space group: P C C 2
;
_chemical_formula_sum "Si O2"
_cell_formula_units_Z 28
_cell_length_a 17.398183
_cell_length_b 9.157080
_cell_length_c 8.433855
_cell_angle_alpha 90.000000
_cell_angle_beta 90.000000
_cell_angle_gamma 90.000000
_cell_volume 1343.652712
_symmetry_space_group_name_H-M "P C C 2"
_symmetry_group_IT_number 27
_symmetry_cell_setting 'orthorhombic'
loop_
_space_group_symop_operation_xyz
x,y,z
-x,-y,z
-x,y,1/2+z
x,-y,1/2+z
loop_
_atom_site_type_symbol
_atom_site_label
_atom_site_fract_x
_atom_site_fract_y
_atom_site_fract_z
Si Si1 0.582598 0.834423 0.391470
Si Si2 0.105261 0.735890 0.758909
Si Si3 0.735934 0.333872 0.271788
Si Si4 0.417402 0.165577 0.770612
Si Si5 0.000000 0.000000 0.831041
Si Si6 0.000000 0.500000 0.331041
Si Si7 0.264066 0.666128 0.890294
Si Si8 0.894739 0.735890 0.903173
O O1 0.580445 0.837613 0.581041
O O2 0.500000 0.779743 0.331041
O O3 0.654964 0.737216 0.341358
O O4 0.592186 0.000000 0.331041
O O5 0.062865 0.624008 0.879787
O O6 0.192408 0.751049 0.813279
O O7 0.100763 0.669367 0.581041
O O8 0.058882 0.886353 0.751883
O O9 0.654964 0.262784 0.320723
O O10 0.740709 0.500000 0.331041
O O11 0.807592 0.248951 0.348802
O O12 0.741767 0.329062 0.081041
O O13 0.058882 0.113646 0.910199
O O14 0.937136 0.375992 0.282295
#
# Coordination Sequence:
#
# PCOD9338984 Si02
#       8
#     4   4   4   4   2   2   4   4
#     4  10  22  41  66  96 127 164 205 252 304 368
#     4  11  23  41  64  90 125 165 207 259 310 367
#     4  11  25  42  63  94 128 163 209 256 310 371
#     4  10  22  41  66  96 127 164 205 252 304 368
#     4  10  26  42  60  96 124 158 216 256 318 366
#     4  10  22  38  64  92 120 158 214 254 310 362
#     4  11  25  42  63  94 128 163 209 256 310 371
#     4  11  23  41  64  90 125 165 207 259 310 367
#
# _framework density 20.838719000000001
#
# number of rings (size 3 to 8) (size 9 to 14) (size 15 to 20)
#    0.000    1.429    1.429    3.429    2.000   10.857 
#    0.000    2.857    0.000    0.000    0.000    0.000 
#    0.000    0.000    0.000    0.000    0.000    0.000 
#
# Total GULP energy -155967.054802 kJ/mol
# GULP energy per Si atom -5570.251957 kJ/mol
# Density = 2.079129 g / cm^3
# Si number density = 20.838719 Si / 1000 Ang^3
#
#
#
# Elastic Constant Matrix: (Units=GPa)
#
#
# Indices 1 2 3 4 5 6 
#
# 1 207.0239 65.3882 49.7007 0.0000 0.0000 0.0000
# 2 65.3882 95.7970 28.2873 0.0000 0.0000 0.0000
# 3 49.7007 28.2873 70.9647 0.0000 0.0000 0.0000
# 4 0.0000 0.0000 0.0000 -415.0723 0.0000 0.0000
# 5 0.0000 0.0000 0.0000 0.0000 -302.2649 0.0000
# 6 0.0000 0.0000 0.0000 0.0000 0.0000 38.9160
#
#
#
# Elastic Compliance Matrix: (Units=1/GPa)
#
#
# Indices 1 2 3 4 5 6 
#
# 1 0.006773 -0.003652 -0.003288 0.000000 0.000000 0.000000
# 2 -0.003652 0.013801 -0.002943 0.000000 0.000000 0.000000
# 3 -0.003288 -0.002943 0.017567 0.000000 0.000000 0.000000
# 4 0.000000 0.000000 0.000000 -0.002409 0.000000 0.000000
# 5 0.000000 0.000000 0.000000 0.000000 -0.003308 0.000000
# 6 0.000000 0.000000 0.000000 0.000000 0.000000 0.025696
#
#
# Mechanical properties :
#
#
# Convention : Reuss Voigt Hill
#
# Bulk Modulus (GPa) = 54.42282 73.39313 63.90797
# Shear Modulus (GPa) = 59.51532 -120.32362 -30.40415
#
# Velocity S-wave (km/s) = 5.34995 -7.60695 -3.82386
# Velocity P-wave (km/s) = 8.02094 6.46980 3.35240
#
# Compressibility (1/GPa) = 0.01837465
#
# Stress axis : x y z
#
# Youngs Moduli (GPa) = 147.63885 72.45934 56.92379
#
# Poissons Ratio (x) = 0.26465 0.18716
# Poissons Ratio (y) = 0.53924 0.16754
# Poissons Ratio (z) = 0.48541 0.21326
#
# Static dielectric constant tensor:
#      x y z
#    x 1.753840 0.000000 0.000000 
#    y 0.000000 1.713510 0.000000 
#    z 0.000000 0.000000 1.835730 
# 
# From -- ./inp_files/1696.got.cif
#   From: 2010.05.17/outbox.cif.g08.bks.cpg/sg27_1_cif.got.tgz:1696.got - 2010.06.04 01:11:05.
