data_PCOD9338715
_publ_section_title
;
Structure prediction by ZEFSAII (Michael W. Deem and Ramdas Pophale) SiO2 
 PCOD9338715
Probable space group: P C C 2
;
_chemical_formula_sum "Si O2"
_cell_formula_units_Z 32
_cell_length_a 16.599489
_cell_length_b 17.669370
_cell_length_c 5.332938
_cell_angle_alpha 90.000000
_cell_angle_beta 90.000000
_cell_angle_gamma 90.000000
_cell_volume 1564.164117
_symmetry_space_group_name_H-M "P C C 2"
_symmetry_group_IT_number 27
_symmetry_cell_setting 'orthorhombic'
loop_
_space_group_symop_operation_xyz
x,y,z
-x,-y,z
-x,y,1/2+z
x,-y,1/2+z
loop_
_atom_site_type_symbol
_atom_site_label
_atom_site_fract_x
_atom_site_fract_y
_atom_site_fract_z
Si Si1 0.050093 0.194489 0.120190
Si Si2 0.279066 0.414853 0.543986
Si Si3 0.405942 0.969355 0.073790
Si Si4 0.450005 0.806003 0.214083
Si Si5 0.448005 0.634519 0.175906
Si Si6 0.948788 0.636406 0.195077
Si Si7 0.216687 0.415119 0.043980
Si Si8 0.906036 0.969437 0.260059
O O1 0.085254 0.277692 0.167582
O O2 0.096642 0.117865 0.181064
O O3 0.979175 0.191518 0.331972
O O4 0.370554 0.416474 0.633643
O O5 0.267673 0.378218 0.270322
O O6 0.248141 0.499965 0.503075
O O7 0.227889 0.378361 0.770545
O O8 0.402317 0.882004 0.152424
O O9 0.500000 0.000000 0.049901
O O10 0.370061 0.017064 0.301341
O O11 0.479497 0.810198 0.501797
O O12 0.416652 0.721813 0.172346
O O13 0.492131 0.623307 0.440943
O O14 0.874557 0.582616 0.136839
O O15 0.986466 0.627156 0.470515
O O16 0.870063 0.982881 0.532533
O O17 0.000000 0.000000 0.284690
#
# Coordination Sequence:
#
# PCOD9338715 Si02
#       8
#     4   4   4   4   4   4   4   4
#     4  10  16  25  39  64  97 137 160 206 255 313
#     4  10  21  40  60  80 107 143 180 219 261 332
#     4  10  14  20  34  55  91 134 164 187 247 314
#     4  10  16  25  39  64  97 137 160 206 255 313
#     4  10  21  35  55  81 113 138 174 228 277 310
#     4  10  21  35  55  81 113 138 174 228 277 310
#     4  10  21  40  60  80 107 143 180 219 261 332
#     4  10  14  20  34  55  91 134 164 187 247 314
#
# _framework density 20.458210000000001
#
# number of rings (size 3 to 8) (size 9 to 14) (size 15 to 20)
#    0.000    2.000    5.000    1.500    0.000    0.000 
#    0.000   15.000    0.000    0.000    0.000    0.000 
#    0.000    6.000    0.000    0.000    0.000    0.000 
#
# Total GULP energy -178203.878896 kJ/mol
# GULP energy per Si atom -5568.871215 kJ/mol
# Density = 2.041165 g / cm^3
# Si number density = 20.458210 Si / 1000 Ang^3
#
#
#
# Elastic Constant Matrix: (Units=GPa)
#
#
# Indices 1 2 3 4 5 6 
#
# 1 18.6572 15.4837 -14.5119 0.0000 0.0000 0.0000
# 2 15.4837 54.5711 -23.6908 0.0000 0.0000 0.0000
# 3 -14.5119 -23.6908 104.9975 0.0000 0.0000 0.0000
# 4 0.0000 0.0000 0.0000 12.8839 0.0000 0.0000
# 5 0.0000 0.0000 0.0000 0.0000 17.0309 0.0000
# 6 0.0000 0.0000 0.0000 0.0000 0.0000 -7.6391
#
#
#
# Elastic Compliance Matrix: (Units=1/GPa)
#
#
# Indices 1 2 3 4 5 6 
#
# 1 0.073404 -0.018206 0.006037 0.000000 0.000000 0.000000
# 2 -0.018206 0.024830 0.003086 0.000000 0.000000 0.000000
# 3 0.006037 0.003086 0.011055 0.000000 0.000000 0.000000
# 4 0.000000 0.000000 0.000000 0.077616 0.000000 0.000000
# 5 0.000000 0.000000 0.000000 0.000000 0.058717 0.000000
# 6 0.000000 0.000000 0.000000 0.000000 0.000000 -0.130905
#
#
# Mechanical properties :
#
#
# Convention : Reuss Voigt Hill
#
# Bulk Modulus (GPa) = 10.97411 14.75421 12.86416
# Shear Modulus (GPa) = 30.62654 17.85146 24.23900
#
# Velocity S-wave (km/s) = 3.87334 2.95715 3.44583
# Velocity P-wave (km/s) = 5.03781 4.34594 4.70461
#
# Compressibility (1/GPa) = 0.09112352
#
# Stress axis : x y z
#
# Youngs Moduli (GPa) = 13.62324 40.27338 90.45833
#
# Poissons Ratio (x) = 0.73323 -0.54613
# Poissons Ratio (y) = 0.24803 -0.27917
# Poissons Ratio (z) = -0.08225 -0.12429
#
# Static dielectric constant tensor:
#      x y z
#    x 1.753280 0.000000 0.000000 
#    y 0.000000 1.941480 0.000000 
#    z 0.000000 0.000000 1.831660 
# 
# From -- ./inp_files/494.got.cif
#   From: 2010.05.17/outbox.cif.g08.bks.cpg/sg27_1_cif.got.tgz:494.got - 2010.06.04 01:11:05.
