data_PCOD9338045
_publ_section_title
;
Structure prediction by ZEFSAII (Michael W. Deem and Ramdas Pophale) SiO2 
 PCOD9338045
Probable space group: P M C 21
;
_chemical_formula_sum "Si O2"
_cell_formula_units_Z 18
_cell_length_a 25.166742
_cell_length_b 5.598995
_cell_length_c 4.987608
_cell_angle_alpha 90.000000
_cell_angle_beta 90.000000
_cell_angle_gamma 90.000000
_cell_volume 702.796175
_symmetry_space_group_name_H-M "P M C 21"
_symmetry_group_IT_number 26
_symmetry_cell_setting 'orthorhombic'
loop_
_space_group_symop_operation_xyz
x,y,z
-x,-y,1/2+z
-x,y,z
x,-y,1/2+z
loop_
_atom_site_type_symbol
_atom_site_label
_atom_site_fract_x
_atom_site_fract_y
_atom_site_fract_z
Si Si1 0.780055 0.847889 0.421800
Si Si2 0.443246 0.326363 0.921201
Si Si3 0.665326 0.650899 0.569570
Si Si4 0.889729 0.155051 0.076621
Si Si5 0.000000 0.619009 0.394992
O O1 0.723270 0.744130 0.497467
O O2 0.834510 0.713302 0.501864
O O3 0.782028 0.083329 0.611595
O O4 0.500000 0.196986 0.956344
O O5 0.443079 0.454055 0.634069
O O6 0.387023 0.200888 0.981342
O O7 0.661881 0.415344 0.380342
O O8 0.945039 0.273100 0.999933
O O9 0.888510 0.922252 0.883790
O O10 0.000000 0.376357 0.573939
#
# Coordination Sequence:
#
# PCOD9338045 Si02
#       5
#     4   4   4   4   2
#     4  10  21  36  54  75 102 137 171 204 247 301
#     4   8  14  25  42  66  94 124 161 202 244 294
#     4  10  19  31  51  76 100 129 167 213 256 292
#     4  10  21  39  58  74 101 143 176 196 239 311
#     4  12  24  36  56  86 110 128 162 218 262 282
#
# _framework density 25.611975000000001
#
# number of rings (size 3 to 8) (size 9 to 14) (size 15 to 20)
#    0.000    2.222    0.000    3.333    0.000    1.778 
#    0.000    0.000    0.000    1.333    0.000    0.000 
#    0.000    0.000    0.000    0.000    0.000    0.000 
#
# Total GULP energy -100469.695596 kJ/mol
# GULP energy per Si atom -5581.649755 kJ/mol
# Density = 2.555368 g / cm^3
# Si number density = 25.611975 Si / 1000 Ang^3
#
#
#
# Elastic Constant Matrix: (Units=GPa)
#
#
# Indices 1 2 3 4 5 6 
#
# 1 297.1787 24.4053 10.2250 0.0000 0.0000 0.0000
# 2 24.4053 14.2880 11.6472 0.0000 0.0000 0.0000
# 3 10.2250 11.6472 94.1005 0.0000 0.0000 0.0000
# 4 0.0000 0.0000 0.0000 27.6539 0.0000 0.0000
# 5 0.0000 0.0000 0.0000 0.0000 35.0301 0.0000
# 6 0.0000 0.0000 0.0000 0.0000 0.0000 23.6532
#
#
#
# Elastic Compliance Matrix: (Units=1/GPa)
#
#
# Indices 1 2 3 4 5 6 
#
# 1 0.003931 -0.007081 0.000449 0.000000 0.000000 0.000000
# 2 -0.007081 0.090598 -0.010444 0.000000 0.000000 0.000000
# 3 0.000449 -0.010444 0.011871 0.000000 0.000000 0.000000
# 4 0.000000 0.000000 0.000000 0.036161 0.000000 0.000000
# 5 0.000000 0.000000 0.000000 0.000000 0.028547 0.000000
# 6 0.000000 0.000000 0.000000 0.000000 0.000000 0.042278
#
#
# Mechanical properties :
#
#
# Convention : Reuss Voigt Hill
#
# Bulk Modulus (GPa) = 13.84123 55.34690 34.59407
# Shear Modulus (GPa) = 18.40812 41.22007 29.81409
#
# Velocity S-wave (km/s) = 2.68382 4.01609 3.41555
# Velocity P-wave (km/s) = 3.87554 6.56978 5.39360
#
# Compressibility (1/GPa) = 0.07224790
#
# Stress axis : x y z
#
# Youngs Moduli (GPa) = 254.38704 11.03783 84.24001
#
# Poissons Ratio (x) = 0.07816 -0.03785
# Poissons Ratio (y) = 1.80126 0.87982
# Poissons Ratio (z) = -0.11429 0.11528
#
# Static dielectric constant tensor:
#      x y z
#    x 2.150480 0.000000 0.000000 
#    y 0.000000 2.116540 0.000000 
#    z 0.000000 0.000000 1.938570 
# 
# From -- ./inp_files/926.got.cif
#   From: 2010.05.17/outbox.cif.g08.bks.cpg/sg26_1_cif.got.tgz:926.got - 2010.06.04 01:07:29.
