data_PCOD9338438
_publ_section_title
;
Structure prediction by ZEFSAII (Michael W. Deem and Ramdas Pophale) SiO2 
 PCOD9338438
Probable space group: P M C 21
;
_chemical_formula_sum "Si O2"
_cell_formula_units_Z 32
_cell_length_a 7.666197
_cell_length_b 12.766822
_cell_length_c 14.268827
_cell_angle_alpha 90.000000
_cell_angle_beta 90.000000
_cell_angle_gamma 90.000000
_cell_volume 1396.532513
_symmetry_space_group_name_H-M "P M C 21"
_symmetry_group_IT_number 26
_symmetry_cell_setting 'orthorhombic'
loop_
_space_group_symop_operation_xyz
x,y,z
-x,-y,1/2+z
-x,y,z
x,-y,1/2+z
loop_
_atom_site_type_symbol
_atom_site_label
_atom_site_fract_x
_atom_site_fract_y
_atom_site_fract_z
Si Si1 0.791207 0.909856 0.840670
Si Si2 0.301534 0.730825 0.175166
Si Si3 0.793019 0.676939 0.808472
Si Si4 0.702470 0.591049 0.012194
Si Si5 0.211762 0.930606 0.062339
Si Si6 0.211864 0.383975 0.111490
Si Si7 0.800056 0.842594 0.555477
Si Si8 0.706762 0.142418 0.842829
O O1 0.724010 0.797251 0.804362
O O2 0.000000 0.910592 0.828758
O O3 0.729962 0.023504 0.805251
O O4 0.753967 0.911382 0.952299
O O5 0.500000 0.694807 0.194029
O O6 0.215312 0.651371 0.101860
O O7 0.301577 0.839974 0.119465
O O8 0.223324 0.767435 0.273770
O O9 0.732984 0.606196 0.720724
O O10 0.000000 0.687185 0.795703
O O11 0.768406 0.626378 0.910734
O O12 0.500000 0.621298 0.010729
O O13 0.720238 0.470299 0.039753
O O14 0.000000 0.925130 0.074930
O O15 0.275018 0.046884 0.088490
O O16 0.000000 0.388731 0.104936
O O17 0.275263 0.268073 0.084114
O O18 0.796724 0.850670 0.443161
O O19 0.000000 0.841642 0.589230
O O20 0.500000 0.158179 0.855657
#
# Coordination Sequence:
#
# PCOD9338438 Si02
#       8
#     4   4   4   4   4   4   4   4
#     4   9  18  34  57  86 118 152 194 244 296 349
#     4  10  22  37  53  81 119 158 196 237 287 345
#     4  10  21  40  65  90 116 152 199 252 301 354
#     4  11  24  42  62  86 123 162 201 250 299 356
#     4   9  17  31  56  85 113 147 187 236 291 346
#     4  10  23  42  65  90 118 154 202 254 304 356
#     4   9  20  39  58  84 118 151 192 245 299 351
#     4  10  21  35  54  84 123 164 199 238 291 355
#
# _framework density 22.913893000000002
#
# number of rings (size 3 to 8) (size 9 to 14) (size 15 to 20)
#    0.000    2.250    1.250    1.500    1.750    6.000 
#    0.000    2.500    0.000    0.000    0.000    0.000 
#    0.000    0.000    0.000    0.000    0.000    0.000 
#
# Total GULP energy -178588.386900 kJ/mol
# GULP energy per Si atom -5580.887091 kJ/mol
# Density = 2.286174 g / cm^3
# Si number density = 22.913893 Si / 1000 Ang^3
#
#
#
# Elastic Constant Matrix: (Units=GPa)
#
#
# Indices 1 2 3 4 5 6 
#
# 1 33.5011 -9.0119 -5.7889 0.0000 0.0000 0.0000
# 2 -9.0119 86.4045 16.7000 0.0000 0.0000 0.0000
# 3 -5.7889 16.7000 72.6163 0.0000 0.0000 0.0000
# 4 0.0000 0.0000 0.0000 34.9389 0.0000 0.0000
# 5 0.0000 0.0000 0.0000 0.0000 10.1988 0.0000
# 6 0.0000 0.0000 0.0000 0.0000 0.0000 3.1662
#
#
#
# Elastic Compliance Matrix: (Units=1/GPa)
#
#
# Indices 1 2 3 4 5 6 
#
# 1 0.030936 0.002878 0.001804 0.000000 0.000000 0.000000
# 2 0.002878 0.012380 -0.002618 0.000000 0.000000 0.000000
# 3 0.001804 -0.002618 0.014517 0.000000 0.000000 0.000000
# 4 0.000000 0.000000 0.000000 0.028621 0.000000 0.000000
# 5 0.000000 0.000000 0.000000 0.000000 0.098051 0.000000
# 6 0.000000 0.000000 0.000000 0.000000 0.000000 0.315835
#
#
# Mechanical properties :
#
#
# Convention : Reuss Voigt Hill
#
# Bulk Modulus (GPa) = 16.13914 21.81337 18.97626
# Shear Modulus (GPa) = 9.67372 22.36897 16.02135
#
# Velocity S-wave (km/s) = 2.05692 3.12784 2.64710
# Velocity P-wave (km/s) = 3.56370 4.75236 4.20029
#
# Compressibility (1/GPa) = 0.06196117
#
# Stress axis : x y z
#
# Youngs Moduli (GPa) = 32.32515 80.77846 68.88557
#
# Poissons Ratio (x) = -0.23247 -0.12429
# Poissons Ratio (y) = -0.09303 0.18031
# Poissons Ratio (z) = -0.05833 0.21144
#
# Static dielectric constant tensor:
#      x y z
#    x 1.854270 0.000000 0.000000 
#    y 0.000000 1.852500 0.000000 
#    z 0.000000 0.000000 1.883110 
# 
# From -- ./inp_files/4193.got.cif
#   From: 2010.05.17/outbox.cif.g08.bks.cpg/sg26_3_cif.got.tgz:4193.got - 2010.06.04 01:07:29.
