data_PCOD9338417
_publ_section_title
;
Structure prediction by ZEFSAII (Michael W. Deem and Ramdas Pophale) SiO2 
 PCOD9338417
Probable space group: P M C 21
;
_chemical_formula_sum "Si O2"
_cell_formula_units_Z 32
_cell_length_a 11.621854
_cell_length_b 9.664476
_cell_length_c 14.064849
_cell_angle_alpha 90.000000
_cell_angle_beta 90.000000
_cell_angle_gamma 90.000000
_cell_volume 1579.751590
_symmetry_space_group_name_H-M "P M C 21"
_symmetry_group_IT_number 26
_symmetry_cell_setting 'orthorhombic'
loop_
_space_group_symop_operation_xyz
x,y,z
-x,-y,1/2+z
-x,y,z
x,-y,1/2+z
loop_
_atom_site_type_symbol
_atom_site_label
_atom_site_fract_x
_atom_site_fract_y
_atom_site_fract_z
Si Si1 0.216198 0.555668 0.803910
Si Si2 0.123767 0.842355 0.795754
Si Si3 0.137812 0.753266 0.315335
Si Si4 0.265674 0.858207 0.124522
Si Si5 0.373660 0.896823 0.703487
Si Si6 0.629138 0.397041 0.127377
Si Si7 0.870749 0.968608 0.474023
Si Si8 0.635111 0.627060 0.982717
O O1 0.124429 0.677229 0.793085
O O2 0.167310 0.407096 0.830926
O O3 0.282302 0.546286 0.704285
O O4 0.304532 0.616648 0.881436
O O5 0.250137 0.885270 0.756771
O O6 0.000000 0.891827 0.752801
O O7 0.122987 0.902266 0.901670
O O8 0.196519 0.802107 0.216451
O O9 0.176865 0.846201 0.405932
O O10 0.000000 0.771756 0.307377
O O11 0.371465 0.949740 0.161727
O O12 0.305176 0.736487 0.053821
O O13 0.194931 0.972867 0.064450
O O14 0.500000 0.876322 0.752290
O O15 0.365870 0.769169 0.629029
O O16 0.500000 0.435860 0.158935
O O17 0.647859 0.474986 0.029352
O O18 0.000000 0.927004 0.501924
O O19 0.500000 0.659465 0.974403
#
# Coordination Sequence:
#
# PCOD9338417 Si02
#       8
#     4   4   4   4   4   4   4   4
#     4  11  21  39  64  91 126 167 214 271 328 388
#     4  10  20  39  64  90 126 167 211 261 323 388
#     4  11  24  42  64  94 129 168 219 277 330 395
#     4  12  22  41  66  93 130 171 217 270 329 397
#     4  10  22  39  63  92 127 165 214 266 317 382
#     4   9  20  39  60  88 125 165 210 264 321 385
#     4  10  22  40  61  91 127 168 213 267 329 394
#     4  11  23  39  62  93 128 167 216 270 327 393
#
# _framework density 20.256350000000001
#
# number of rings (size 3 to 8) (size 9 to 14) (size 15 to 20)
#    0.000    1.500    3.750    1.500    1.750    1.000 
#    0.000    0.000    0.000    0.000    0.000    0.000 
#    0.000    0.000    0.000    0.000    0.000    0.000 
#
# Total GULP energy -178304.646794 kJ/mol
# GULP energy per Si atom -5572.020212 kJ/mol
# Density = 2.021025 g / cm^3
# Si number density = 20.256350 Si / 1000 Ang^3
#
#
#
# Elastic Constant Matrix: (Units=GPa)
#
#
# Indices 1 2 3 4 5 6 
#
# 1 112.2808 19.7486 31.2159 0.0000 0.0000 0.0000
# 2 19.7486 87.2583 8.7781 0.0000 0.0000 0.0000
# 3 31.2159 8.7781 51.7331 0.0000 0.0000 0.0000
# 4 0.0000 0.0000 0.0000 29.6416 0.0000 0.0000
# 5 0.0000 0.0000 0.0000 0.0000 18.0684 0.0000
# 6 0.0000 0.0000 0.0000 0.0000 0.0000 23.9254
#
#
#
# Elastic Compliance Matrix: (Units=1/GPa)
#
#
# Indices 1 2 3 4 5 6 
#
# 1 0.010988 -0.001851 -0.006316 0.000000 0.000000 0.000000
# 2 -0.001851 0.011971 -0.000914 0.000000 0.000000 0.000000
# 3 -0.006316 -0.000914 0.023296 0.000000 0.000000 0.000000
# 4 0.000000 0.000000 0.000000 0.033736 0.000000 0.000000
# 5 0.000000 0.000000 0.000000 0.000000 0.055345 0.000000
# 6 0.000000 0.000000 0.000000 0.000000 0.000000 0.041797
#
#
# Mechanical properties :
#
#
# Convention : Reuss Voigt Hill
#
# Bulk Modulus (GPa) = 35.59706 41.19529 38.39617
# Shear Modulus (GPa) = 24.43071 27.09570 25.76321
#
# Velocity S-wave (km/s) = 3.47663 3.66134 3.57018
# Velocity P-wave (km/s) = 5.80753 6.18507 5.99927
#
# Compressibility (1/GPa) = 0.02809221
#
# Stress axis : x y z
#
# Youngs Moduli (GPa) = 91.00989 83.53371 42.92550
#
# Poissons Ratio (x) = 0.15466 0.27111
# Poissons Ratio (y) = 0.16850 0.03924
# Poissons Ratio (z) = 0.57481 0.07636
#
# Static dielectric constant tensor:
#      x y z
#    x 1.749670 0.000000 0.000000 
#    y 0.000000 1.738390 0.000000 
#    z 0.000000 0.000000 1.715280 
# 
# From -- ./inp_files/4575.got.cif
#   From: 2010.05.17/outbox.cif.g08.bks.cpg/sg26_3_cif.got.tgz:4575.got - 2010.06.04 01:07:29.
