data_PCOD9338883
_publ_section_title
;
Structure prediction by ZEFSAII (Michael W. Deem and Ramdas Pophale) SiO2 
 PCOD9338883
Probable space group: P C C 2
;
_chemical_formula_sum "Si O2"
_cell_formula_units_Z 20
_cell_length_a 9.122701
_cell_length_b 8.219612
_cell_length_c 10.620285
_cell_angle_alpha 90.000000
_cell_angle_beta 90.000000
_cell_angle_gamma 90.000000
_cell_volume 796.362736
_symmetry_space_group_name_H-M "P C C 2"
_symmetry_group_IT_number 27
_symmetry_cell_setting 'orthorhombic'
loop_
_space_group_symop_operation_xyz
x,y,z
-x,-y,z
-x,y,1/2+z
x,-y,1/2+z
loop_
_atom_site_type_symbol
_atom_site_label
_atom_site_fract_x
_atom_site_fract_y
_atom_site_fract_z
Si Si1 0.217322 0.250141 0.879610
Si Si2 0.351772 0.945831 0.795199
Si Si3 0.539341 0.682006 0.090995
Si Si4 0.000000 0.500000 0.900673
Si Si5 0.788545 0.757553 0.509899
Si Si6 0.000000 0.000000 0.521473
O O1 0.114299 0.390214 0.823464
O O2 0.293964 0.129709 0.782935
O O3 0.101256 0.134549 0.952336
O O4 0.340539 0.320763 0.976800
O O5 0.400930 0.824883 0.683553
O O6 0.232409 0.845584 0.873353
O O7 0.500000 0.000000 0.870093
O O8 0.500000 0.500000 0.145863
O O9 0.378514 0.728070 0.042929
O O10 0.889858 0.397390 0.988149
O O11 0.882377 0.887716 0.588409
#
# Coordination Sequence:
#
# PCOD9338883 Si02
#       6
#     4   4   4   2   4   2
#     4  10  21  44  68 106 138 194 239 303 369 442
#     4  11  25  40  70 104 142 183 244 301 362 440
#     4  12  25  42  72 107 146 185 249 307 361 443
#     4  10  20  42  84  94 146 192 238 302 380 430
#     4  10  21  44  71 102 141 190 232 300 366 437
#     4   8  20  36  68  96 136 180 234 278 364 432
#
# _framework density 25.114183000000001
#
# number of rings (size 3 to 8) (size 9 to 14) (size 15 to 20)
#    0.000    1.600    4.000    0.000    5.600    2.400 
#    0.000    7.000    0.000    0.000    0.000    0.000 
#    0.000    0.000    0.000    0.000    0.000    0.000 
#
# Total GULP energy -111357.839388 kJ/mol
# GULP energy per Si atom -5567.891969 kJ/mol
# Density = 2.505702 g / cm^3
# Si number density = 25.114183 Si / 1000 Ang^3
#
#
#
# Elastic Constant Matrix: (Units=GPa)
#
#
# Indices 1 2 3 4 5 6 
#
# 1 193.3059 71.4803 29.0658 0.0000 0.0000 0.0000
# 2 71.4803 164.3654 30.0638 0.0000 0.0000 0.0000
# 3 29.0658 30.0638 35.4837 0.0000 0.0000 0.0000
# 4 0.0000 0.0000 0.0000 14.4334 0.0000 0.0000
# 5 0.0000 0.0000 0.0000 0.0000 21.4156 0.0000
# 6 0.0000 0.0000 0.0000 0.0000 0.0000 88.9673
#
#
#
# Elastic Compliance Matrix: (Units=1/GPa)
#
#
# Indices 1 2 3 4 5 6 
#
# 1 0.006507 -0.002195 -0.003470 0.000000 0.000000 0.000000
# 2 -0.002195 0.007940 -0.004929 0.000000 0.000000 0.000000
# 3 -0.003470 -0.004929 0.035201 0.000000 0.000000 0.000000
# 4 0.000000 0.000000 0.000000 0.069284 0.000000 0.000000
# 5 0.000000 0.000000 0.000000 0.000000 0.046695 0.000000
# 6 0.000000 0.000000 0.000000 0.000000 0.000000 0.011240
#
#
# Mechanical properties :
#
#
# Convention : Reuss Voigt Hill
#
# Bulk Modulus (GPa) = 35.13853 72.70831 53.92342
# Shear Modulus (GPa) = 24.09156 42.46626 33.27891
#
# Velocity S-wave (km/s) = 3.10059 4.11655 3.64415
# Velocity P-wave (km/s) = 5.18074 7.18391 6.26293
#
# Compressibility (1/GPa) = 0.02845879
#
# Stress axis : x y z
#
# Youngs Moduli (GPa) = 153.69160 125.94167 28.40835
#
# Poissons Ratio (x) = 0.27643 0.09858
# Poissons Ratio (y) = 0.33734 0.14004
# Poissons Ratio (z) = 0.53332 0.62083
#
# Static dielectric constant tensor:
#      x y z
#    x 1.979520 0.000000 0.000000 
#    y 0.000000 2.184490 0.000000 
#    z 0.000000 0.000000 1.980250 
# 
# From -- ./inp_files/2276.got.cif
#   From: 2010.05.17/outbox.cif.g08.bks.cpg/sg27_2_cif.got.tgz:2276.got - 2010.06.04 01:11:05.
