data_PCOD9338172
_publ_section_title
;
Structure prediction by ZEFSAII (Michael W. Deem and Ramdas Pophale) SiO2 
 PCOD9338172
Probable space group: P M C 21
;
_chemical_formula_sum "Si O2"
_cell_formula_units_Z 32
_cell_length_a 7.568736
_cell_length_b 11.016593
_cell_length_c 14.374862
_cell_angle_alpha 90.000000
_cell_angle_beta 90.000000
_cell_angle_gamma 90.000000
_cell_volume 1198.600201
_symmetry_space_group_name_H-M "P M C 21"
_symmetry_group_IT_number 26
_symmetry_cell_setting 'orthorhombic'
loop_
_space_group_symop_operation_xyz
x,y,z
-x,-y,1/2+z
-x,y,z
x,-y,1/2+z
loop_
_atom_site_type_symbol
_atom_site_label
_atom_site_fract_x
_atom_site_fract_y
_atom_site_fract_z
Si Si1 0.710339 0.440787 0.021180
Si Si2 0.209545 0.303187 0.201818
Si Si3 0.712438 0.707273 0.042165
Si Si4 0.203741 0.948427 0.150887
Si Si5 0.219187 0.203212 0.809275
Si Si6 0.798180 0.085851 0.982011
Si Si7 0.294899 0.144819 0.366879
Si Si8 0.793548 0.539409 0.304559
O O1 0.500000 0.446045 0.012512
O O2 0.753158 0.333231 0.093787
O O3 0.771486 0.570854 0.064092
O O4 0.782510 0.446940 0.916274
O O5 0.269020 0.185333 0.260357
O O6 0.285701 0.419755 0.258434
O O7 0.000000 0.299137 0.210741
O O8 0.500000 0.715249 0.054391
O O9 0.750561 0.740109 0.933666
O O10 0.797096 0.817650 0.098578
O O11 0.284952 0.908984 0.247924
O O12 0.000000 0.984859 0.166527
O O13 0.285990 0.041475 0.077721
O O14 0.280531 0.331678 0.770439
O O15 0.000000 0.201426 0.809335
O O16 0.282229 0.185373 0.914659
O O17 0.804941 0.967279 0.914491
O O18 0.000000 0.121377 0.002442
O O19 0.500000 0.117852 0.382036
O O20 0.000000 0.536718 0.280367
#
# Coordination Sequence:
#
# PCOD9338172 Si02
#       8
#     4   4   4   4   4   4   4   4
#     4  11  22  36  54  80 116 153 186 226 286 349
#     4  11  22  36  57  85 114 149 192 234 281 339
#     4   9  18  32  52  77 107 143 180 225 275 330
#     4   9  17  31  55  81 105 142 188 235 278 323
#     4   9  18  35  55  80 114 147 187 235 282 331
#     4   9  18  34  56  81 108 143 188 234 282 332
#     4  10  19  35  56  78 109 143 182 231 283 333
#     4  10  21  37  57  82 115 152 191 238 283 337
#
# _framework density 26.697811000000002
#
# number of rings (size 3 to 8) (size 9 to 14) (size 15 to 20)
#    0.000    2.250    1.250    1.875    0.000    3.000 
#    2.250    1.875    0.000    0.000    0.000    0.000 
#    0.000    0.000    0.000    0.000    0.000    0.000 
#
# Total GULP energy -178919.539999 kJ/mol
# GULP energy per Si atom -5591.235625 kJ/mol
# Density = 2.663705 g / cm^3
# Si number density = 26.697811 Si / 1000 Ang^3
#
#
#
# Elastic Constant Matrix: (Units=GPa)
#
#
# Indices 1 2 3 4 5 6 
#
# 1 88.4465 -1.6201 -12.8689 0.0000 0.0000 0.0000
# 2 -1.6201 93.0647 20.5712 0.0000 0.0000 0.0000
# 3 -12.8689 20.5712 147.9134 0.0000 0.0000 0.0000
# 4 0.0000 0.0000 0.0000 57.6247 0.0000 0.0000
# 5 0.0000 0.0000 0.0000 0.0000 -29.5998 0.0000
# 6 0.0000 0.0000 0.0000 0.0000 0.0000 5.0282
#
#
#
# Elastic Compliance Matrix: (Units=1/GPa)
#
#
# Indices 1 2 3 4 5 6 
#
# 1 0.011451 -0.000022 0.000999 0.000000 0.000000 0.000000
# 2 -0.000022 0.011086 -0.001544 0.000000 0.000000 0.000000
# 3 0.000999 -0.001544 0.007062 0.000000 0.000000 0.000000
# 4 0.000000 0.000000 0.000000 0.017354 0.000000 0.000000
# 5 0.000000 0.000000 0.000000 0.000000 -0.033784 0.000000
# 6 0.000000 0.000000 0.000000 0.000000 0.000000 0.198879
#
#
# Mechanical properties :
#
#
# Convention : Reuss Voigt Hill
#
# Bulk Modulus (GPa) = 35.12738 37.95432 36.54085
# Shear Modulus (GPa) = 22.45476 28.16676 25.31076
#
# Velocity S-wave (km/s) = 2.90327 3.25163 3.08238
# Velocity P-wave (km/s) = 4.94212 5.32397 5.13659
#
# Compressibility (1/GPa) = 0.02846782
#
# Stress axis : x y z
#
# Youngs Moduli (GPa) = 87.32655 90.20344 141.59608
#
# Poissons Ratio (x) = 0.00194 -0.14150
# Poissons Ratio (y) = 0.00188 0.21858
# Poissons Ratio (z) = -0.08726 0.13924
#
# Static dielectric constant tensor:
#      x y z
#    x 1.975490 0.000000 0.000000 
#    y 0.000000 2.143240 0.000000 
#    z 0.000000 0.000000 2.156010 
# 
# From -- ./inp_files/4225.got.cif
#   From: 2010.05.17/outbox.cif.g08.bks.cpg/sg26_3_cif.got.tgz:4225.got - 2010.06.04 01:07:29.
