data_PCOD9338069
_publ_section_title
;
Structure prediction by ZEFSAII (Michael W. Deem and Ramdas Pophale) SiO2 
 PCOD9338069
Probable space group: P M C 21
;
_chemical_formula_sum "Si O2"
_cell_formula_units_Z 32
_cell_length_a 8.901447
_cell_length_b 10.458243
_cell_length_c 19.735182
_cell_angle_alpha 90.000000
_cell_angle_beta 90.000000
_cell_angle_gamma 90.000000
_cell_volume 1837.217082
_symmetry_space_group_name_H-M "P M C 21"
_symmetry_group_IT_number 26
_symmetry_cell_setting 'orthorhombic'
loop_
_space_group_symop_operation_xyz
x,y,z
-x,-y,1/2+z
-x,y,z
x,-y,1/2+z
loop_
_atom_site_type_symbol
_atom_site_label
_atom_site_fract_x
_atom_site_fract_y
_atom_site_fract_z
Si Si1 0.679819 0.523557 0.186920
Si Si2 0.818929 0.877472 0.968726
Si Si3 0.821541 0.476925 0.830059
Si Si4 0.679608 0.620835 0.463588
Si Si5 0.180236 0.220996 0.324130
Si Si6 0.819667 0.139990 0.041767
Si Si7 0.321105 0.778713 0.679678
Si Si8 0.319574 0.637414 0.044818
O O1 0.500000 0.533284 0.197689
O O2 0.766187 0.558222 0.255139
O O3 0.710818 0.373705 0.171077
O O4 0.722148 0.608756 0.122527
O O5 0.771962 0.858281 0.890322
O O6 0.000000 0.870906 0.969056
O O7 0.756337 0.759962 0.012136
O O8 0.773757 0.010803 0.002727
O O9 0.736963 0.397575 0.887377
O O10 0.786571 0.628733 0.838203
O O11 0.000000 0.461114 0.836827
O O12 0.500000 0.635315 0.466239
O O13 0.755915 0.739163 0.500938
O O14 0.719786 0.489733 0.502586
O O15 0.259233 0.185164 0.253783
O O16 0.000000 0.210141 0.315572
O O17 0.755759 0.147789 0.117849
O O18 0.000000 0.145734 0.043892
O O19 0.500000 0.795358 0.676895
O O20 0.500000 0.651663 0.041788
#
# Coordination Sequence:
#
# PCOD9338069 Si02
#       8
#     4   4   4   4   4   4   4   4
#     4   9  18  34  53  80 114 145 181 230 281 331
#     4  10  22  39  57  82 115 149 186 231 280 331
#     4  10  19  32  54  85 113 144 184 231 284 333
#     4  11  21  36  57  83 113 146 184 230 279 329
#     4   9  18  34  55  81 111 143 184 230 277 334
#     4  11  23  38  57  82 114 152 190 230 279 332
#     4  10  19  34  56  82 112 144 184 232 280 333
#     4  10  20  35  57  83 110 143 183 226 278 331
#
# _framework density 17.417649000000001
#
# number of rings (size 3 to 8) (size 9 to 14) (size 15 to 20)
#    0.000    2.000    2.500    1.500    0.000    3.500 
#    0.000    1.250    0.000    1.500    0.000    0.000 
#    0.000    0.000    0.000    0.000    0.000    0.000 
#
# Total GULP energy -178636.348296 kJ/mol
# GULP energy per Si atom -5582.385884 kJ/mol
# Density = 1.737801 g / cm^3
# Si number density = 17.417649 Si / 1000 Ang^3
#
#
#
# Elastic Constant Matrix: (Units=GPa)
#
#
# Indices 1 2 3 4 5 6 
#
# 1 35.0373 41.2086 48.8124 0.0000 0.0000 0.0000
# 2 41.2086 99.9788 75.8854 0.0000 0.0000 0.0000
# 3 48.8124 75.8854 161.9020 0.0000 0.0000 0.0000
# 4 0.0000 0.0000 0.0000 25.6342 0.0000 0.0000
# 5 0.0000 0.0000 0.0000 0.0000 26.0240 0.0000
# 6 0.0000 0.0000 0.0000 0.0000 0.0000 22.0980
#
#
#
# Elastic Compliance Matrix: (Units=1/GPa)
#
#
# Indices 1 2 3 4 5 6 
#
# 1 0.066206 -0.018840 -0.011130 0.000000 0.000000 0.000000
# 2 -0.018840 0.020887 -0.004110 0.000000 0.000000 0.000000
# 3 -0.011130 -0.004110 0.011458 0.000000 0.000000 0.000000
# 4 0.000000 0.000000 0.000000 0.039010 0.000000 0.000000
# 5 0.000000 0.000000 0.000000 0.000000 0.038426 0.000000
# 6 0.000000 0.000000 0.000000 0.000000 0.000000 0.045253
#
#
# Mechanical properties :
#
#
# Convention : Reuss Voigt Hill
#
# Bulk Modulus (GPa) = 32.90447 69.85899 51.38173
# Shear Modulus (GPa) = 16.69279 23.48536 20.08907
#
# Velocity S-wave (km/s) = 3.09914 3.67599 3.39982
# Velocity P-wave (km/s) = 5.63371 7.62971 6.70638
#
# Compressibility (1/GPa) = 0.03039100
#
# Stress axis : x y z
#
# Youngs Moduli (GPa) = 15.10448 47.87671 87.27215
#
# Poissons Ratio (x) = 0.90202 0.97132
# Poissons Ratio (y) = 0.28458 0.35866
# Poissons Ratio (z) = 0.16811 0.19676
#
# Static dielectric constant tensor:
#      x y z
#    x 1.580070 0.000000 0.000000 
#    y 0.000000 1.566830 0.000000 
#    z 0.000000 0.000000 1.589170 
# 
# From -- ./inp_files/5081.got.cif
#   From: 2010.05.17/outbox.cif.g08.bks.cpg/sg26_3_cif.got.tgz:5081.got - 2010.06.04 01:07:29.
