data_PCOD9338732
_publ_section_title
;
Structure prediction by ZEFSAII (Michael W. Deem and Ramdas Pophale) SiO2 
 PCOD9338732
Probable space group: P C C 2
;
_chemical_formula_sum "Si O2"
_cell_formula_units_Z 24
_cell_length_a 15.803839
_cell_length_b 11.036752
_cell_length_c 5.199638
_cell_angle_alpha 90.000000
_cell_angle_beta 90.000000
_cell_angle_gamma 90.000000
_cell_volume 906.936728
_symmetry_space_group_name_H-M "P C C 2"
_symmetry_group_IT_number 27
_symmetry_cell_setting 'orthorhombic'
loop_
_space_group_symop_operation_xyz
x,y,z
-x,-y,z
-x,y,1/2+z
x,-y,1/2+z
loop_
_atom_site_type_symbol
_atom_site_label
_atom_site_fract_x
_atom_site_fract_y
_atom_site_fract_z
Si Si1 0.230256 0.851830 0.809120
Si Si2 0.095509 0.552461 0.609028
Si Si3 0.609954 0.046498 0.000018
Si Si4 0.538920 0.366415 0.178447
Si Si5 0.303134 0.255915 0.785001
Si Si6 0.053679 0.165072 0.149705
O O1 0.269538 0.777718 0.566614
O O2 0.139527 0.900317 0.727854
O O3 0.291291 0.959894 0.901859
O O4 0.232641 0.764789 0.063173
O O5 0.138072 0.519608 0.340713
O O6 0.082656 0.693496 0.660201
O O7 0.000000 0.500000 0.576042
O O8 0.622975 0.161705 0.187015
O O9 0.575024 0.950069 0.207730
O O10 0.500000 0.500000 0.140351
O O11 0.481964 0.308882 0.402544
O O12 0.637623 0.373032 0.259704
O O13 0.984066 0.143603 0.369186
#
# Coordination Sequence:
#
# PCOD9338732 Si02
#       6
#     4   4   4   4   4   4
#     4  10  22  35  58  89 117 156 205 269 300 368
#     4  10  16  30  47  66  91 136 184 231 282 364
#     4  10  18  36  63  89 113 159 208 254 316 374
#     4  10  21  38  67  91 124 174 204 233 294 370
#     4  10  20  38  62  91 122 154 216 247 301 367
#     4  12  21  33  56  78 115 155 205 249 327 379
#
# _framework density 26.462706000000001
#
# number of rings (size 3 to 8) (size 9 to 14) (size 15 to 20)
#    1.000    0.667    5.000    2.000    0.000    0.000 
#    0.000    0.000   22.000    6.000    0.000    0.000 
#    0.000    0.000    0.000    0.000    0.000    0.000 
#
# Total GULP energy -133776.337693 kJ/mol
# GULP energy per Si atom -5574.014071 kJ/mol
# Density = 2.640248 g / cm^3
# Si number density = 26.462706 Si / 1000 Ang^3
#
#
#
# Elastic Constant Matrix: (Units=GPa)
#
#
# Indices 1 2 3 4 5 6 
#
# 1 84.4700 16.2506 -2.0628 0.0000 0.0000 0.0000
# 2 16.2506 56.8106 15.0826 0.0000 0.0000 0.0000
# 3 -2.0628 15.0826 215.1429 0.0000 0.0000 0.0000
# 4 0.0000 0.0000 0.0000 26.7644 0.0000 0.0000
# 5 0.0000 0.0000 0.0000 0.0000 -1.8306 0.0000
# 6 0.0000 0.0000 0.0000 0.0000 0.0000 30.6447
#
#
#
# Elastic Compliance Matrix: (Units=1/GPa)
#
#
# Indices 1 2 3 4 5 6 
#
# 1 0.012558 -0.003693 0.000379 0.000000 0.000000 0.000000
# 2 -0.003693 0.019022 -0.001369 0.000000 0.000000 0.000000
# 3 0.000379 -0.001369 0.004748 0.000000 0.000000 0.000000
# 4 0.000000 0.000000 0.000000 0.037363 0.000000 0.000000
# 5 0.000000 0.000000 0.000000 0.000000 -0.546276 0.000000
# 6 0.000000 0.000000 0.000000 0.000000 0.000000 0.032632
#
#
# Mechanical properties :
#
#
# Convention : Reuss Voigt Hill
#
# Bulk Modulus (GPa) = 37.08807 46.10714 41.59761
# Shear Modulus (GPa) = -11.85959 32.92590 10.53316
#
# Velocity S-wave (km/s) = -2.11928 3.53120 1.99725
# Velocity P-wave (km/s) = 2.83852 5.83842 4.59044
#
# Compressibility (1/GPa) = 0.02696285
#
# Stress axis : x y z
#
# Youngs Moduli (GPa) = 79.62893 52.57028 210.62915
#
# Poissons Ratio (x) = 0.19414 -0.07989
# Poissons Ratio (y) = 0.29407 0.28834
# Poissons Ratio (z) = -0.03020 0.07197
#
# Static dielectric constant tensor:
#      x y z
#    x 2.175940 0.000000 0.000000 
#    y 0.000000 2.588560 0.000000 
#    z 0.000000 0.000000 2.189670 
# 
# From -- ./inp_files/460.got.cif
#   From: 2010.05.17/outbox.cif.g08.bks.cpg/sg27_1_cif.got.tgz:460.got - 2010.06.04 01:11:05.
