data_PCOD9338493
_publ_section_title
;
Structure prediction by ZEFSAII (Michael W. Deem and Ramdas Pophale) SiO2 
 PCOD9338493
Probable space group: P M C 21
;
_chemical_formula_sum "Si O2"
_cell_formula_units_Z 32
_cell_length_a 20.201130
_cell_length_b 16.346134
_cell_length_c 5.075547
_cell_angle_alpha 90.000000
_cell_angle_beta 90.000000
_cell_angle_gamma 90.000000
_cell_volume 1675.998293
_symmetry_space_group_name_H-M "P M C 21"
_symmetry_group_IT_number 26
_symmetry_cell_setting 'orthorhombic'
loop_
_space_group_symop_operation_xyz
x,y,z
-x,-y,1/2+z
-x,y,z
x,-y,1/2+z
loop_
_atom_site_type_symbol
_atom_site_label
_atom_site_fract_x
_atom_site_fract_y
_atom_site_fract_z
Si Si1 0.269756 0.223547 0.359510
Si Si2 0.889629 0.227575 0.351428
Si Si3 0.735583 0.047472 0.144648
Si Si4 0.896637 0.048951 0.156744
Si Si5 0.421569 0.554469 0.277254
Si Si6 0.925200 0.329557 0.841742
Si Si7 0.691807 0.679268 0.348653
Si Si8 0.806565 0.553143 0.189115
O O1 0.189902 0.224551 0.386871
O O2 0.288167 0.134330 0.250845
O O3 0.300893 0.247641 0.638218
O O4 0.291147 0.288557 0.138295
O O5 0.914918 0.139404 0.252546
O O6 0.919199 0.256959 0.627116
O O7 0.905954 0.293056 0.124948
O O8 0.816042 0.050331 0.147832
O O9 0.715678 0.977380 0.351754
O O10 0.917832 0.981434 0.370533
O O11 0.500000 0.571491 0.291855
O O12 0.406075 0.485490 0.495454
O O13 0.378027 0.633801 0.332067
O O14 0.873639 0.398026 0.750465
O O15 0.000000 0.360428 0.848210
O O16 0.746459 0.613117 0.258450
O O17 0.803213 0.476939 0.389533
#
# Coordination Sequence:
#
# PCOD9338493 Si02
#       8
#     4   4   4   4   4   4   4   4
#     4  11  20  33  57  83 115 147 181 231 280 324
#     4  11  20  39  57  79 110 140 182 226 280 336
#     4   9  17  29  46  76 113 145 177 217 272 327
#     4   9  17  29  52  80 103 136 173 216 269 327
#     4  10  21  38  58  83 118 160 194 223 268 327
#     4  12  25  41  59  77 102 142 186 230 281 339
#     4  12  21  36  57  88 116 144 184 227 276 326
#     4  12  24  39  59  80 104 134 176 226 281 326
#
# _framework density 19.0931
#
# number of rings (size 3 to 8) (size 9 to 14) (size 15 to 20)
#    0.000    1.250    2.500    4.875    0.000    4.500 
#    0.000    0.000    0.000    7.500    0.000    0.000 
#    0.000   10.000    0.000    0.000    0.000    0.000 
#
# Total GULP energy -178952.430310 kJ/mol
# GULP energy per Si atom -5592.263447 kJ/mol
# Density = 1.904964 g / cm^3
# Si number density = 19.093100 Si / 1000 Ang^3
#
#
#
# Elastic Constant Matrix: (Units=GPa)
#
#
# Indices 1 2 3 4 5 6 
#
# 1 36.2541 10.3782 -3.4453 0.0000 0.0000 0.0000
# 2 10.3782 41.6688 -19.7089 0.0000 0.0000 0.0000
# 3 -3.4453 -19.7089 51.0007 0.0000 0.0000 0.0000
# 4 0.0000 0.0000 0.0000 37.0209 0.0000 0.0000
# 5 0.0000 0.0000 0.0000 0.0000 14.3367 0.0000
# 6 0.0000 0.0000 0.0000 0.0000 0.0000 -93.6528
#
#
#
# Elastic Compliance Matrix: (Units=1/GPa)
#
#
# Indices 1 2 3 4 5 6 
#
# 1 0.029746 -0.007903 -0.001044 0.000000 0.000000 0.000000
# 2 -0.007903 0.031466 0.011626 0.000000 0.000000 0.000000
# 3 -0.001044 0.011626 0.024030 0.000000 0.000000 0.000000
# 4 0.000000 0.000000 0.000000 0.027012 0.000000 0.000000
# 5 0.000000 0.000000 0.000000 0.000000 0.069751 0.000000
# 6 0.000000 0.000000 0.000000 0.000000 0.000000 -0.010678
#
#
# Mechanical properties :
#
#
# Convention : Reuss Voigt Hill
#
# Bulk Modulus (GPa) = 11.03760 11.48575 11.26168
# Shear Modulus (GPa) = 25.48820 0.98760 13.23790
#
# Velocity S-wave (km/s) = 3.65765 0.71998 2.63598
# Velocity P-wave (km/s) = 4.86121 2.59227 3.89559
#
# Compressibility (1/GPa) = 0.09059938
#
# Stress axis : x y z
#
# Youngs Moduli (GPa) = 33.61791 31.78035 41.61500
#
# Poissons Ratio (x) = 0.25115 0.04347
# Poissons Ratio (y) = 0.26567 -0.48381
# Poissons Ratio (z) = 0.03511 -0.36948
#
# Static dielectric constant tensor:
#      x y z
#    x 1.643030 0.000000 0.000000 
#    y 0.000000 1.677750 0.000000 
#    z 0.000000 0.000000 1.652050 
# 
# From -- ./inp_files/795.got.cif
#   From: 2010.05.17/outbox.cif.g08.bks.cpg/sg26_1_cif.got.tgz:795.got - 2010.06.04 01:07:29.
