data_PCOD9338751
_publ_section_title
;
Structure prediction by ZEFSAII (Michael W. Deem and Ramdas Pophale) SiO2 
 PCOD9338751
Probable space group: P C C 2
;
_chemical_formula_sum "Si O2"
_cell_formula_units_Z 30
_cell_length_a 9.816049
_cell_length_b 7.062920
_cell_length_c 18.789896
_cell_angle_alpha 90.000000
_cell_angle_beta 90.000000
_cell_angle_gamma 90.000000
_cell_volume 1302.702903
_symmetry_space_group_name_H-M "P C C 2"
_symmetry_group_IT_number 27
_symmetry_cell_setting 'orthorhombic'
loop_
_space_group_symop_operation_xyz
x,y,z
-x,-y,z
-x,y,1/2+z
x,-y,1/2+z
loop_
_atom_site_type_symbol
_atom_site_label
_atom_site_fract_x
_atom_site_fract_y
_atom_site_fract_z
Si Si1 0.827432 0.206499 0.354200
Si Si2 0.487163 0.208346 0.636986
Si Si3 0.740424 0.730304 0.544776
Si Si4 0.000000 0.000000 0.237603
Si Si5 0.785870 0.862122 0.122801
Si Si6 0.030918 0.770005 0.498854
Si Si7 0.375619 0.121261 0.404135
Si Si8 0.438800 0.693335 0.284838
O O1 0.912414 0.281908 0.421149
O O2 0.702763 0.333560 0.326039
O O3 0.745458 0.017310 0.379687
O O4 0.923798 0.147125 0.289405
O O5 0.386511 0.342018 0.592235
O O6 0.648073 0.242723 0.646115
O O7 0.419395 0.181774 0.714743
O O8 0.500000 0.000000 0.601490
O O9 0.679598 0.748291 0.465878
O O10 0.894807 0.669893 0.527859
O O11 0.764982 0.929446 0.587354
O O12 0.890735 0.895759 0.187085
O O13 0.853952 0.748822 0.058302
O O14 0.000000 0.000000 0.493618
O O15 0.449087 0.220221 0.337787
O O16 0.500000 0.000000 0.436256
O O17 0.500000 0.500000 0.256654
#
# Coordination Sequence:
#
# PCOD9338751 Si02
#       8
#     4   4   4   2   4   4   4   4
#     4  11  20  33  61  90 117 157 193 254 305 367
#     4  10  20  35  59  88 115 153 197 243 300 354
#     4  10  17  31  56  91 120 146 180 246 310 356
#     4  12  18  28  54  94 124 146 192 242 316 358
#     4  10  18  29  52  87 124 145 176 245 301 359
#     4  10  17  31  51  94 125 139 181 247 313 354
#     4  10  18  33  58  84 111 144 197 245 292 354
#     4  11  25  40  54  82 122 162 205 248 296 359
#
# _framework density 23.029043000000001
#
# number of rings (size 3 to 8) (size 9 to 14) (size 15 to 20)
#    0.000    1.600    5.333    4.800    1.867    0.000 
#    0.000    0.667    0.000    7.200    0.000    0.000 
#    0.000    0.000    0.000    0.000    0.000    0.000 
#
# Total GULP energy -167333.516308 kJ/mol
# GULP energy per Si atom -5577.783877 kJ/mol
# Density = 2.297663 g / cm^3
# Si number density = 23.029043 Si / 1000 Ang^3
#
#
#
# Elastic Constant Matrix: (Units=GPa)
#
#
# Indices 1 2 3 4 5 6 
#
# 1 165.5067 12.3362 65.0107 0.0000 0.0000 0.0000
# 2 12.3362 38.7364 4.3848 0.0000 0.0000 0.0000
# 3 65.0107 4.3848 146.1608 0.0000 0.0000 0.0000
# 4 0.0000 0.0000 0.0000 -1.9642 0.0000 0.0000
# 5 0.0000 0.0000 0.0000 0.0000 43.8238 0.0000
# 6 0.0000 0.0000 0.0000 0.0000 0.0000 13.8791
#
#
#
# Elastic Compliance Matrix: (Units=1/GPa)
#
#
# Indices 1 2 3 4 5 6 
#
# 1 0.007474 -0.002011 -0.003264 0.000000 0.000000 0.000000
# 2 -0.002011 0.026444 0.000101 0.000000 0.000000 0.000000
# 3 -0.003264 0.000101 0.008291 0.000000 0.000000 0.000000
# 4 0.000000 0.000000 0.000000 -0.509122 0.000000 0.000000
# 5 0.000000 0.000000 0.000000 0.000000 0.022819 0.000000
# 6 0.000000 0.000000 0.000000 0.000000 0.000000 0.072051
#
#
# Mechanical properties :
#
#
# Convention : Reuss Voigt Hill
#
# Bulk Modulus (GPa) = 31.38585 57.09635 44.24110
# Shear Modulus (GPa) = -14.24196 29.05924 7.40864
#
# Velocity S-wave (km/s) = -2.48953 3.55611 1.79557
# Velocity P-wave (km/s) = 2.32265 6.45819 4.85299
#
# Compressibility (1/GPa) = 0.03186150
#
# Stress axis : x y z
#
# Youngs Moduli (GPa) = 133.79659 37.81518 120.61912
#
# Poissons Ratio (x) = 0.07604 0.39371
# Poissons Ratio (y) = 0.26903 -0.01219
# Poissons Ratio (z) = 0.43672 -0.00382
#
# Static dielectric constant tensor:
#      x y z
#    x 1.930810 0.000000 0.000000 
#    y 0.000000 1.982700 0.000000 
#    z 0.000000 0.000000 1.816150 
# 
# From -- ./inp_files/4777.got.cif
#   From: 2010.05.17/outbox.cif.g08.bks.cpg/sg27_3_cif.got.tgz:4777.got - 2010.06.04 01:11:05.
