data_PCOD9338240
_publ_section_title
;
Structure prediction by ZEFSAII (Michael W. Deem and Ramdas Pophale) SiO2 
 PCOD9338240
Probable space group: P M C 21
;
_chemical_formula_sum "Si O2"
_cell_formula_units_Z 32
_cell_length_a 7.232374
_cell_length_b 19.573534
_cell_length_c 8.274280
_cell_angle_alpha 90.000000
_cell_angle_beta 90.000000
_cell_angle_gamma 90.000000
_cell_volume 1171.332879
_symmetry_space_group_name_H-M "P M C 21"
_symmetry_group_IT_number 26
_symmetry_cell_setting 'orthorhombic'
loop_
_space_group_symop_operation_xyz
x,y,z
-x,-y,1/2+z
-x,y,z
x,-y,1/2+z
loop_
_atom_site_type_symbol
_atom_site_label
_atom_site_fract_x
_atom_site_fract_y
_atom_site_fract_z
Si Si1 0.211529 0.519751 0.357840
Si Si2 0.724138 0.896055 0.581850
Si Si3 0.724658 0.977939 0.258275
Si Si4 0.711510 0.269229 0.360116
Si Si5 0.775472 0.604293 0.053381
Si Si6 0.722854 0.642397 0.562841
Si Si7 0.276117 0.229041 0.886852
Si Si8 0.725635 0.149523 0.563640
O O1 0.288950 0.446681 0.409290
O O2 0.291129 0.566780 0.216091
O O3 0.213669 0.567182 0.518135
O O4 0.000000 0.507356 0.313539
O O5 0.500000 0.893221 0.591677
O O6 0.775561 0.940382 0.422875
O O7 0.782751 0.819764 0.536422
O O8 0.785464 0.944538 0.727836
O O9 0.500000 0.979063 0.260107
O O10 0.779209 0.927304 0.111071
O O11 0.500000 0.255831 0.309743
O O12 0.710218 0.319524 0.515717
O O13 0.791396 0.317927 0.221521
O O14 0.788592 0.195903 0.413627
O O15 0.000000 0.606499 0.055355
O O16 0.500000 0.638921 0.569393
O O17 0.781489 0.694008 0.419207
O O18 0.500000 0.228515 0.885053
O O19 0.219293 0.193095 0.722279
O O20 0.500000 0.148487 0.553538
#
# Coordination Sequence:
#
# PCOD9338240 Si02
#       8
#     4   4   4   4   4   4   4   4
#     4  10  21  37  56  75  95 122 155 191 233 279
#     4   8  13  20  31  49  75 110 150 188 227 271
#     4   8  13  20  31  49  75 110 150 188 227 271
#     4  10  20  32  48  72  99 127 159 194 234 279
#     4  10  21  37  56  75  95 122 155 191 233 279
#     4  10  20  32  48  72  99 127 159 194 234 279
#     4   8  14  25  39  56  83 119 155 191 232 275
#     4   8  14  25  39  56  83 119 155 191 232 275
#
# _framework density 27.319303999999999
#
# number of rings (size 3 to 8) (size 9 to 14) (size 15 to 20)
#    0.000    3.000    0.000    3.000    0.000    4.500 
#    0.000    5.000    0.000    0.000    0.000    0.000 
#    0.000    1.000    0.000    3.250    0.000    6.500 
#
# Total GULP energy -178949.193777 kJ/mol
# GULP energy per Si atom -5592.162306 kJ/mol
# Density = 2.725712 g / cm^3
# Si number density = 27.319304 Si / 1000 Ang^3
#
#
#
# Elastic Constant Matrix: (Units=GPa)
#
#
# Indices 1 2 3 4 5 6 
#
# 1 134.5370 -7.4126 -4.6438 0.0000 0.0000 0.0000
# 2 -7.4126 164.7969 6.4143 0.0000 0.0000 0.0000
# 3 -4.6438 6.4143 73.2953 0.0000 0.0000 0.0000
# 4 0.0000 0.0000 0.0000 57.1222 0.0000 0.0000
# 5 0.0000 0.0000 0.0000 0.0000 24.2295 0.0000
# 6 0.0000 0.0000 0.0000 0.0000 0.0000 14.1346
#
#
#
# Elastic Compliance Matrix: (Units=1/GPa)
#
#
# Indices 1 2 3 4 5 6 
#
# 1 0.007466 0.000318 0.000445 0.000000 0.000000 0.000000
# 2 0.000318 0.006102 -0.000514 0.000000 0.000000 0.000000
# 3 0.000445 -0.000514 0.013717 0.000000 0.000000 0.000000
# 4 0.000000 0.000000 0.000000 0.017506 0.000000 0.000000
# 5 0.000000 0.000000 0.000000 0.000000 0.041272 0.000000
# 6 0.000000 0.000000 0.000000 0.000000 0.000000 0.070748
#
#
# Mechanical properties :
#
#
# Convention : Reuss Voigt Hill
#
# Bulk Modulus (GPa) = 35.99145 40.14944 38.07045
# Shear Modulus (GPa) = 30.19807 44.31536 37.25671
#
# Velocity S-wave (km/s) = 3.32832 4.03193 3.69691
# Velocity P-wave (km/s) = 5.28898 6.03354 5.67348
#
# Compressibility (1/GPa) = 0.02778437
#
# Stress axis : x y z
#
# Youngs Moduli (GPa) = 133.94393 163.86993 72.90428
#
# Poissons Ratio (x) = -0.05219 -0.03245
# Poissons Ratio (y) = -0.04266 0.03746
# Poissons Ratio (z) = -0.05962 0.08421
#
# Static dielectric constant tensor:
#      x y z
#    x 2.080140 0.000000 0.000000 
#    y 0.000000 2.029970 0.000000 
#    z 0.000000 0.000000 2.217470 
# 
# From -- ./inp_files/2028.got.cif
#   From: 2010.05.17/outbox.cif.g08.bks.cpg/sg26_2_cif.got.tgz:2028.got - 2010.06.04 01:07:29.
