data_PCOD9338614
_publ_section_title
;
Structure prediction by ZEFSAII (Michael W. Deem and Ramdas Pophale) SiO2 
 PCOD9338614
Probable space group: P M C 21
;
_chemical_formula_sum "Si O2"
_cell_formula_units_Z 32
_cell_length_a 8.620548
_cell_length_b 11.719683
_cell_length_c 16.735754
_cell_angle_alpha 90.000000
_cell_angle_beta 90.000000
_cell_angle_gamma 90.000000
_cell_volume 1690.814730
_symmetry_space_group_name_H-M "P M C 21"
_symmetry_group_IT_number 26
_symmetry_cell_setting 'orthorhombic'
loop_
_space_group_symop_operation_xyz
x,y,z
-x,-y,1/2+z
-x,y,z
x,-y,1/2+z
loop_
_atom_site_type_symbol
_atom_site_label
_atom_site_fract_x
_atom_site_fract_y
_atom_site_fract_z
Si Si1 0.183946 0.213178 0.038730
Si Si2 0.320940 0.626527 0.092164
Si Si3 0.178068 0.739874 0.805421
Si Si4 0.688148 0.186571 0.714410
Si Si5 0.314765 0.692184 0.379440
Si Si6 0.814674 0.443195 0.425121
Si Si7 0.811469 0.933580 0.690761
Si Si8 0.173686 0.425357 0.154159
O O1 0.237270 0.119977 0.104687
O O2 0.202022 0.334817 0.083554
O O3 0.000000 0.196104 0.025507
O O4 0.265946 0.227059 0.953843
O O5 0.500000 0.639229 0.069780
O O6 0.265491 0.739268 0.137035
O O7 0.299185 0.523884 0.155164
O O8 0.226436 0.582907 0.016380
O O9 0.249734 0.666877 0.876789
O O10 0.246136 0.851938 0.763213
O O11 0.172849 0.648865 0.733646
O O12 0.000000 0.768798 0.828678
O O13 0.500000 0.181724 0.715512
O O14 0.737646 0.251362 0.795744
O O15 0.755730 0.060701 0.705753
O O16 0.500000 0.683275 0.377779
O O17 0.249005 0.565027 0.395369
O O18 0.000000 0.447355 0.414194
O O19 0.000000 0.926772 0.690897
O O20 0.000000 0.474227 0.144743
#
# Coordination Sequence:
#
# PCOD9338614 Si02
#       8
#     4   4   4   4   4   4   4   4
#     4   9  18  34  58  87 114 142 184 237 285 333
#     4  11  22  36  53  77 115 152 186 229 279 334
#     4   8  17  34  57  84 110 139 177 230 281 328
#     4  10  24  42  56  79 117 158 195 235 280 337
#     4  11  22  37  58  85 118 151 190 234 284 344
#     4  11  21  35  57  86 118 146 183 232 287 343
#     4   9  19  39  63  84 109 145 193 239 280 334
#     4   9  16  31  56  82 109 139 176 222 280 337
#
# _framework density 18.925788000000001
#
# number of rings (size 3 to 8) (size 9 to 14) (size 15 to 20)
#    0.000    2.250    1.250    3.375    0.000    2.500 
#    2.250    3.750    0.000    0.000    0.000    0.000 
#    0.000    0.000    0.000    0.000    0.000    0.000 
#
# Total GULP energy -178372.577756 kJ/mol
# GULP energy per Si atom -5574.143055 kJ/mol
# Density = 1.888271 g / cm^3
# Si number density = 18.925788 Si / 1000 Ang^3
#
#
#
# Elastic Constant Matrix: (Units=GPa)
#
#
# Indices 1 2 3 4 5 6 
#
# 1 20.5086 30.7821 20.4473 0.0000 0.0000 0.0000
# 2 30.7821 136.5703 59.8090 0.0000 0.0000 0.0000
# 3 20.4473 59.8090 72.5429 0.0000 0.0000 0.0000
# 4 0.0000 0.0000 0.0000 25.0084 0.0000 0.0000
# 5 0.0000 0.0000 0.0000 0.0000 18.2366 0.0000
# 6 0.0000 0.0000 0.0000 0.0000 0.0000 -13.2406
#
#
#
# Elastic Compliance Matrix: (Units=1/GPa)
#
#
# Indices 1 2 3 4 5 6 
#
# 1 0.079850 -0.012742 -0.012002 0.000000 0.000000 0.000000
# 2 -0.012742 0.013493 -0.007533 0.000000 0.000000 0.000000
# 3 -0.012002 -0.007533 0.023379 0.000000 0.000000 0.000000
# 4 0.000000 0.000000 0.000000 0.039987 0.000000 0.000000
# 5 0.000000 0.000000 0.000000 0.000000 0.054835 0.000000
# 6 0.000000 0.000000 0.000000 0.000000 0.000000 -0.075525
#
#
# Mechanical properties :
#
#
# Convention : Reuss Voigt Hill
#
# Bulk Modulus (GPa) = 19.16861 50.18876 34.67869
# Shear Modulus (GPa) = 22.93977 13.90643 18.42310
#
# Velocity S-wave (km/s) = 3.48529 2.71364 3.12338
# Velocity P-wave (km/s) = 5.13289 6.03280 5.60095
#
# Compressibility (1/GPa) = 0.05216862
#
# Stress axis : x y z
#
# Youngs Moduli (GPa) = 12.52340 74.11141 42.77389
#
# Poissons Ratio (x) = 0.94431 0.51337
# Poissons Ratio (y) = 0.15957 0.32222
# Poissons Ratio (z) = 0.15031 0.55830
#
# Static dielectric constant tensor:
#      x y z
#    x 1.654110 0.000000 0.000000 
#    y 0.000000 1.651440 0.000000 
#    z 0.000000 0.000000 1.711500 
# 
# From -- ./inp_files/5076.got.cif
#   From: 2010.05.17/outbox.cif.g08.bks.cpg/sg26_3_cif.got.tgz:5076.got - 2010.06.04 01:07:29.
