data_PCOD9338373
_publ_section_title
;
Structure prediction by ZEFSAII (Michael W. Deem and Ramdas Pophale) SiO2 
 PCOD9338373
Probable space group: P M C 21
;
_chemical_formula_sum "Si O2"
_cell_formula_units_Z 32
_cell_length_a 9.006886
_cell_length_b 11.993695
_cell_length_c 15.575666
_cell_angle_alpha 90.000000
_cell_angle_beta 90.000000
_cell_angle_gamma 90.000000
_cell_volume 1682.574459
_symmetry_space_group_name_H-M "P M C 21"
_symmetry_group_IT_number 26
_symmetry_cell_setting 'orthorhombic'
loop_
_space_group_symop_operation_xyz
x,y,z
-x,-y,1/2+z
-x,y,z
x,-y,1/2+z
loop_
_atom_site_type_symbol
_atom_site_label
_atom_site_fract_x
_atom_site_fract_y
_atom_site_fract_z
Si Si1 0.324442 0.654681 0.937520
Si Si2 0.675124 0.003576 0.837995
Si Si3 0.326225 0.004728 0.543013
Si Si4 0.176805 0.780193 0.778216
Si Si5 0.823346 0.238859 0.792991
Si Si6 0.824358 0.224867 0.597213
Si Si7 0.676112 0.389953 0.934181
Si Si8 0.322568 0.751845 0.601030
O O1 0.500000 0.678364 0.929588
O O2 0.240473 0.710242 0.857816
O O3 0.301850 0.522001 0.937762
O O4 0.263819 0.707795 0.025072
O O5 0.500000 0.000757 0.818069
O O6 0.742231 0.123281 0.815674
O O7 0.757718 0.904742 0.788695
O O8 0.692657 0.984601 0.940325
O O9 0.500000 0.026005 0.562712
O O10 0.292268 0.878355 0.570018
O O11 0.226480 0.096343 0.589205
O O12 0.236116 0.731475 0.688733
O O13 0.000000 0.782946 0.780489
O O14 0.792672 0.265780 0.693450
O O15 0.764453 0.332569 0.857254
O O16 0.000000 0.224209 0.802648
O O17 0.000000 0.233241 0.581083
O O18 0.500000 0.367724 0.921475
O O19 0.717875 0.331160 0.023888
O O20 0.500000 0.742675 0.616086
#
# Coordination Sequence:
#
# PCOD9338373 Si02
#       8
#     4   4   4   4   4   4   4   4
#     4  11  24  43  66  89 117 160 212 262 305 355
#     4  11  21  38  64  93 125 162 205 250 300 362
#     4  10  20  36  63  92 122 159 200 248 303 360
#     4  12  25  40  61  93 128 163 201 248 309 373
#     4  11  24  40  62  95 131 163 198 246 309 371
#     4  11  24  40  60  90 128 163 200 248 304 370
#     4  10  23  44  67  90 118 159 213 260 302 356
#     4  10  21  41  65  92 123 157 201 254 304 361
#
# _framework density 19.018474999999999
#
# number of rings (size 3 to 8) (size 9 to 14) (size 15 to 20)
#    0.000    1.250    2.500    3.375    0.000    7.500 
#    0.000    3.750    0.000    0.000    0.000    0.000 
#    0.000    0.000    0.000    0.000    0.000    0.000 
#
# Total GULP energy -179004.559984 kJ/mol
# GULP energy per Si atom -5593.892500 kJ/mol
# Density = 1.897519 g / cm^3
# Si number density = 19.018475 Si / 1000 Ang^3
#
#
#
# Elastic Constant Matrix: (Units=GPa)
#
#
# Indices 1 2 3 4 5 6 
#
# 1 81.8693 42.6248 53.9962 0.0000 0.0000 0.0000
# 2 42.6248 64.7849 28.8654 0.0000 0.0000 0.0000
# 3 53.9962 28.8654 90.4100 0.0000 0.0000 0.0000
# 4 0.0000 0.0000 0.0000 -1.2219 0.0000 0.0000
# 5 0.0000 0.0000 0.0000 0.0000 31.9035 0.0000
# 6 0.0000 0.0000 0.0000 0.0000 0.0000 -1.5036
#
#
#
# Elastic Compliance Matrix: (Units=1/GPa)
#
#
# Indices 1 2 3 4 5 6 
#
# 1 0.026299 -0.012014 -0.011871 0.000000 0.000000 0.000000
# 2 -0.012014 0.023484 -0.000323 0.000000 0.000000 0.000000
# 3 -0.011871 -0.000323 0.018254 0.000000 0.000000 0.000000
# 4 0.000000 0.000000 0.000000 -0.818394 0.000000 0.000000
# 5 0.000000 0.000000 0.000000 0.000000 0.031344 0.000000
# 6 0.000000 0.000000 0.000000 0.000000 0.000000 -0.665091
#
#
# Mechanical properties :
#
#
# Convention : Reuss Voigt Hill
#
# Bulk Modulus (GPa) = 50.96500 54.22632 52.59566
# Shear Modulus (GPa) = -3.76181 13.27414 4.75616
#
# Velocity S-wave (km/s) = -1.40793 2.64476 1.58311
# Velocity P-wave (km/s) = 4.92065 6.15635 5.57286
#
# Compressibility (1/GPa) = 0.01962131
#
# Stress axis : x y z
#
# Youngs Moduli (GPa) = 38.02415 42.58225 54.78393
#
# Poissons Ratio (x) = 0.51159 0.65034
# Poissons Ratio (y) = 0.45682 0.01767
# Poissons Ratio (z) = 0.45139 0.01373
#
# Static dielectric constant tensor:
#      x y z
#    x 1.636170 0.000000 0.000000 
#    y 0.000000 1.632480 0.000000 
#    z 0.000000 0.000000 1.652890 
# 
# From -- ./inp_files/4248.got.cif
#   From: 2010.05.17/outbox.cif.g08.bks.cpg/sg26_3_cif.got.tgz:4248.got - 2010.06.04 01:07:29.
