data_PCOD9338869
_publ_section_title
;
Structure prediction by ZEFSAII (Michael W. Deem and Ramdas Pophale) SiO2 
 PCOD9338869
Probable space group: P C C 2
;
_chemical_formula_sum "Si O2"
_cell_formula_units_Z 30
_cell_length_a 7.340132
_cell_length_b 12.437289
_cell_length_c 17.302824
_cell_angle_alpha 90.000000
_cell_angle_beta 90.000000
_cell_angle_gamma 90.000000
_cell_volume 1579.598040
_symmetry_space_group_name_H-M "P C C 2"
_symmetry_group_IT_number 27
_symmetry_cell_setting 'orthorhombic'
loop_
_space_group_symop_operation_xyz
x,y,z
-x,-y,z
-x,y,1/2+z
x,-y,1/2+z
loop_
_atom_site_type_symbol
_atom_site_label
_atom_site_fract_x
_atom_site_fract_y
_atom_site_fract_z
Si Si1 0.544080 0.380365 0.428500
Si Si2 0.892070 0.609670 0.172062
Si Si3 0.667211 0.083882 0.856085
Si Si4 0.000000 0.000000 0.757126
Si Si5 0.451859 0.702069 0.765155
Si Si6 0.191032 0.794942 0.178307
Si Si7 0.740853 0.220138 0.999848
Si Si8 0.072737 0.616761 0.489585
O O1 0.500000 0.500000 0.456813
O O2 0.497557 0.372259 0.338340
O O3 0.427418 0.297397 0.478773
O O4 0.754314 0.353753 0.439336
O O5 0.702546 0.642045 0.213801
O O6 0.865741 0.604012 0.079136
O O7 0.000000 0.500000 0.195643
O O8 0.033590 0.705904 0.185245
O O9 0.620435 0.190563 0.807286
O O10 0.840368 0.038817 0.812596
O O11 0.500000 0.000000 0.855960
O O12 0.720128 0.120393 0.942328
O O13 0.098098 0.095418 0.708939
O O14 0.631392 0.744326 0.720445
O O15 0.248115 0.810165 0.089167
O O16 0.918336 0.293221 0.983027
O O17 0.000000 0.500000 0.464731
#
# Coordination Sequence:
#
# PCOD9338869 Si02
#       8
#     4   4   4   2   4   4   4   4
#     4  11  23  38  61  95 133 176 209 261 323 393
#     4  10  23  41  65  97 136 172 218 269 326 399
#     4  11  24  45  65  92 128 169 214 274 335 385
#     4  12  24  44  70  92 130 174 218 280 334 382
#     4  11  24  41  61  97 131 170 217 268 331 394
#     4  11  24  44  69  98 128 175 222 277 326 391
#     4  10  24  43  66  96 128 167 225 266 322 397
#     4  10  20  40  64  91 130 174 211 265 320 386
#
# _framework density 18.992173999999999
#
# number of rings (size 3 to 8) (size 9 to 14) (size 15 to 20)
#    0.000    1.333    4.000    0.800    3.733    0.533 
#    2.400    1.333    0.000    0.000    0.000    0.000 
#    0.000    0.000    0.000    0.000    0.000    0.000 
#
# Total GULP energy -167445.863957 kJ/mol
# GULP energy per Si atom -5581.528799 kJ/mol
# Density = 1.894895 g / cm^3
# Si number density = 18.992174 Si / 1000 Ang^3
#
#
#
# Elastic Constant Matrix: (Units=GPa)
#
#
# Indices 1 2 3 4 5 6 
#
# 1 132.0552 43.6900 66.6135 0.0000 0.0000 0.0000
# 2 43.6900 109.2698 50.1201 0.0000 0.0000 0.0000
# 3 66.6135 50.1201 76.0139 0.0000 0.0000 0.0000
# 4 0.0000 0.0000 0.0000 48.5574 0.0000 0.0000
# 5 0.0000 0.0000 0.0000 0.0000 -3.9146 0.0000
# 6 0.0000 0.0000 0.0000 0.0000 0.0000 31.7084
#
#
#
# Elastic Compliance Matrix: (Units=1/GPa)
#
#
# Indices 1 2 3 4 5 6 
#
# 1 0.013572 0.000041 -0.011921 0.000000 0.000000 0.000000
# 2 0.000041 0.013120 -0.008687 0.000000 0.000000 0.000000
# 3 -0.011921 -0.008687 0.029330 0.000000 0.000000 0.000000
# 4 0.000000 0.000000 0.000000 0.020594 0.000000 0.000000
# 5 0.000000 0.000000 0.000000 0.000000 -0.255452 0.000000
# 6 0.000000 0.000000 0.000000 0.000000 0.000000 0.031537
#
#
# Mechanical properties :
#
#
# Convention : Reuss Voigt Hill
#
# Bulk Modulus (GPa) = 67.16401 70.90955 69.03678
# Shear Modulus (GPa) = -49.40604 25.73125 -11.83739
#
# Velocity S-wave (km/s) = -5.10592 3.68480 -2.49926
# Velocity P-wave (km/s) = 0.82482 7.45124 5.30100
#
# Compressibility (1/GPa) = 0.01488893
#
# Stress axis : x y z
#
# Youngs Moduli (GPa) = 73.67889 76.22219 34.09485
#
# Poissons Ratio (x) = -0.00315 0.40645
# Poissons Ratio (y) = -0.00304 0.29617
# Poissons Ratio (z) = 0.87834 0.66211
#
# Static dielectric constant tensor:
#      x y z
#    x 1.659610 0.000000 0.000000 
#    y 0.000000 1.515060 0.000000 
#    z 0.000000 0.000000 1.662570 
# 
# From -- ./inp_files/4704.got.cif
#   From: 2010.05.17/outbox.cif.g08.bks.cpg/sg27_3_cif.got.tgz:4704.got - 2010.06.04 01:11:05.
