data_PCOD9338754
_publ_section_title
;
Structure prediction by ZEFSAII (Michael W. Deem and Ramdas Pophale) SiO2 
 PCOD9338754
Probable space group: P C C 2
;
_chemical_formula_sum "Si O2"
_cell_formula_units_Z 20
_cell_length_a 11.396304
_cell_length_b 6.945413
_cell_length_c 9.772116
_cell_angle_alpha 90.000000
_cell_angle_beta 90.000000
_cell_angle_gamma 90.000000
_cell_volume 773.482897
_symmetry_space_group_name_H-M "P C C 2"
_symmetry_group_IT_number 27
_symmetry_cell_setting 'orthorhombic'
loop_
_space_group_symop_operation_xyz
x,y,z
-x,-y,z
-x,y,1/2+z
x,-y,1/2+z
loop_
_atom_site_type_symbol
_atom_site_label
_atom_site_fract_x
_atom_site_fract_y
_atom_site_fract_z
Si Si1 0.106400 0.136336 0.701710
Si Si2 0.204276 0.503587 0.800613
Si Si3 0.419158 0.315578 0.935345
Si Si4 0.603842 0.787464 0.219775
Si Si5 0.207093 0.104174 0.425711
O O1 0.206412 0.092770 0.587985
O O2 0.326759 0.903358 0.838132
O O3 0.130490 0.054711 0.851864
O O4 0.000000 0.000000 0.651729
O O5 0.287589 0.380012 0.900293
O O6 0.305035 0.605864 0.708080
O O7 0.114410 0.365935 0.722158
O O8 0.153452 0.686060 0.883174
O O9 0.500000 0.500000 0.978923
O O10 0.481998 0.254070 0.794912
O O11 0.419137 0.170314 0.062296
#
# Coordination Sequence:
#
# PCOD9338754 Si02
#       5
#     4   4   4   4   4
#     4  12  26  48  73 102 142 185 250 315 363 428
#     4   9  22  41  73  98 140 191 236 295 366 425
#     4  10  17  34  68 103 140 190 235 280 354 438
#     4   9  21  36  68 103 142 191 233 284 355 436
#     4  10  26  44  70 105 141 188 238 304 365 430
#
# _framework density 25.85707
#
# number of rings (size 3 to 8) (size 9 to 14) (size 15 to 20)
#    1.200    0.800    0.000    3.600    5.600    0.800 
#    0.000    3.000    0.000    0.000    0.000    0.000 
#    0.000    0.000    0.000    0.000    0.000    0.000 
#
# Total GULP energy -111459.917987 kJ/mol
# GULP energy per Si atom -5572.995899 kJ/mol
# Density = 2.579822 g / cm^3
# Si number density = 25.857070 Si / 1000 Ang^3
#
#
#
# Elastic Constant Matrix: (Units=GPa)
#
#
# Indices 1 2 3 4 5 6 
#
# 1 66.7282 63.3456 4.2605 0.0000 0.0000 0.0000
# 2 63.3456 98.7588 16.0282 0.0000 0.0000 0.0000
# 3 4.2605 16.0282 124.6602 0.0000 0.0000 0.0000
# 4 0.0000 0.0000 0.0000 21.2716 0.0000 0.0000
# 5 0.0000 0.0000 0.0000 0.0000 6.1911 0.0000
# 6 0.0000 0.0000 0.0000 0.0000 0.0000 41.4385
#
#
#
# Elastic Compliance Matrix: (Units=1/GPa)
#
#
# Indices 1 2 3 4 5 6 
#
# 1 0.038759 -0.025171 0.001912 0.000000 0.000000 0.000000
# 2 -0.025171 0.026688 -0.002571 0.000000 0.000000 0.000000
# 3 0.001912 -0.002571 0.008287 0.000000 0.000000 0.000000
# 4 0.000000 0.000000 0.000000 0.047011 0.000000 0.000000
# 5 0.000000 0.000000 0.000000 0.000000 0.161523 0.000000
# 6 0.000000 0.000000 0.000000 0.000000 0.000000 0.024132
#
#
# Mechanical properties :
#
#
# Convention : Reuss Voigt Hill
#
# Bulk Modulus (GPa) = 45.30351 50.82395 48.06373
# Shear Modulus (GPa) = 13.68291 27.54776 20.61533
#
# Velocity S-wave (km/s) = 2.30288 3.26757 2.82668
# Velocity P-wave (km/s) = 4.96284 5.82532 5.41129
#
# Compressibility (1/GPa) = 0.02207335
#
# Stress axis : x y z
#
# Youngs Moduli (GPa) = 25.80024 37.46975 120.67006
#
# Poissons Ratio (x) = 0.94316 -0.23069
# Poissons Ratio (y) = 0.64942 0.31026
# Poissons Ratio (z) = -0.04932 0.09634
#
# Static dielectric constant tensor:
#      x y z
#    x 2.074670 0.000000 0.000000 
#    y 0.000000 2.163710 0.000000 
#    z 0.000000 0.000000 1.924280 
# 
# From -- ./inp_files/1337.got.cif
#   From: 2010.05.17/outbox.cif.g08.bks.cpg/sg27_1_cif.got.tgz:1337.got - 2010.06.04 01:11:05.
