data_PCOD9338891
_publ_section_title
;
Structure prediction by ZEFSAII (Michael W. Deem and Ramdas Pophale) SiO2 
 PCOD9338891
Probable space group: P C C 2
;
_chemical_formula_sum "Si O2"
_cell_formula_units_Z 24
_cell_length_a 12.056640
_cell_length_b 4.977258
_cell_length_c 17.489025
_cell_angle_alpha 90.000000
_cell_angle_beta 90.000000
_cell_angle_gamma 90.000000
_cell_volume 1049.499039
_symmetry_space_group_name_H-M "P C C 2"
_symmetry_group_IT_number 27
_symmetry_cell_setting 'orthorhombic'
loop_
_space_group_symop_operation_xyz
x,y,z
-x,-y,z
-x,y,1/2+z
x,-y,1/2+z
loop_
_atom_site_type_symbol
_atom_site_label
_atom_site_fract_x
_atom_site_fract_y
_atom_site_fract_z
Si Si1 0.577986 0.261772 0.320160
Si Si2 0.253314 0.363534 0.115164
Si Si3 0.704736 0.133078 0.463039
Si Si4 0.886606 0.101996 0.850112
Si Si5 0.178032 0.625049 0.257783
Si Si6 0.615603 0.873925 0.607676
O O1 0.500000 0.500000 0.296520
O O2 0.692650 0.304590 0.274463
O O3 0.500000 0.000000 0.312588
O O4 0.620100 0.284107 0.407652
O O5 0.168766 0.500809 0.173245
O O6 0.359374 0.563069 0.117323
O O7 0.290218 0.069699 0.143678
O O8 0.230024 0.317857 0.025073
O O9 0.787007 0.973565 0.407499
O O10 0.634919 0.938337 0.518035
O O11 0.866276 0.400702 0.818211
O O12 0.881947 0.899855 0.777715
O O13 0.000000 0.000000 0.889166
O O14 0.500000 0.000000 0.632187
#
# Coordination Sequence:
#
# PCOD9338891 Si02
#       6
#     4   4   4   4   4   4
#     4  11  23  36  61  92 132 176 219 257 318 394
#     4  10  23  38  61  90 132 173 206 270 319 381
#     4   9  24  37  65  90 130 166 215 276 313 381
#     4  11  24  45  73  94 123 174 226 279 344 401
#     4  11  24  44  64  96 136 169 220 277 334 392
#     4  10  21  34  59  91 132 175 212 245 319 384
#
# _framework density 22.868051000000001
#
# number of rings (size 3 to 8) (size 9 to 14) (size 15 to 20)
#    1.000    0.667    0.000    4.500    9.333    2.000 
#    0.000    0.833    3.667    0.000    0.000    0.000 
#    0.000    0.000    0.000    0.000    0.000    0.000 
#
# Total GULP energy -133783.864093 kJ/mol
# GULP energy per Si atom -5574.327671 kJ/mol
# Density = 2.281600 g / cm^3
# Si number density = 22.868051 Si / 1000 Ang^3
#
#
#
# Elastic Constant Matrix: (Units=GPa)
#
#
# Indices 1 2 3 4 5 6 
#
# 1 54.5052 1.2263 -5.6102 0.0000 0.0000 0.0000
# 2 1.2263 97.1609 4.8708 0.0000 0.0000 0.0000
# 3 -5.6102 4.8708 114.5573 0.0000 0.0000 0.0000
# 4 0.0000 0.0000 0.0000 27.5517 0.0000 0.0000
# 5 0.0000 0.0000 0.0000 0.0000 7.6870 0.0000
# 6 0.0000 0.0000 0.0000 0.0000 0.0000 28.9914
#
#
#
# Elastic Compliance Matrix: (Units=1/GPa)
#
#
# Indices 1 2 3 4 5 6 
#
# 1 0.018447 -0.000279 0.000915 0.000000 0.000000 0.000000
# 2 -0.000279 0.010318 -0.000452 0.000000 0.000000 0.000000
# 3 0.000915 -0.000452 0.008793 0.000000 0.000000 0.000000
# 4 0.000000 0.000000 0.000000 0.036295 0.000000 0.000000
# 5 0.000000 0.000000 0.000000 0.000000 0.130091 0.000000
# 6 0.000000 0.000000 0.000000 0.000000 0.000000 0.034493
#
#
# Mechanical properties :
#
#
# Convention : Reuss Voigt Hill
#
# Bulk Modulus (GPa) = 26.36611 29.68856 28.02733
# Shear Modulus (GPa) = 19.94319 30.56178 25.25249
#
# Velocity S-wave (km/s) = 2.95634 3.65970 3.32666
# Velocity P-wave (km/s) = 4.81746 5.55595 5.19983
#
# Compressibility (1/GPa) = 0.03792748
#
# Stress axis : x y z
#
# Youngs Moduli (GPa) = 54.20828 96.91424 113.72275
#
# Poissons Ratio (x) = 0.02701 -0.10409
# Poissons Ratio (y) = 0.01511 0.05145
# Poissons Ratio (z) = -0.04962 0.04384
#
# Static dielectric constant tensor:
#      x y z
#    x 1.909170 0.000000 0.000000 
#    y 0.000000 1.821020 0.000000 
#    z 0.000000 0.000000 1.924610 
# 
# From -- ./inp_files/4812.got.cif
#   From: 2010.05.17/outbox.cif.g08.bks.cpg/sg27_3_cif.got.tgz:4812.got - 2010.06.04 01:11:05.
