data_PCOD9338986
_publ_section_title
;
Structure prediction by ZEFSAII (Michael W. Deem and Ramdas Pophale) SiO2 
 PCOD9338986
Probable space group: P C C 2
;
_chemical_formula_sum "Si O2"
_cell_formula_units_Z 30
_cell_length_a 9.257176
_cell_length_b 12.798647
_cell_length_c 11.898491
_cell_angle_alpha 90.000000
_cell_angle_beta 90.000000
_cell_angle_gamma 90.000000
_cell_volume 1409.725216
_symmetry_space_group_name_H-M "P C C 2"
_symmetry_group_IT_number 27
_symmetry_cell_setting 'orthorhombic'
loop_
_space_group_symop_operation_xyz
x,y,z
-x,-y,z
-x,y,1/2+z
x,-y,1/2+z
loop_
_atom_site_type_symbol
_atom_site_label
_atom_site_fract_x
_atom_site_fract_y
_atom_site_fract_z
Si Si1 0.184507 0.659037 0.565980
Si Si2 0.668966 0.470776 0.174993
Si Si3 0.267331 0.254304 0.565165
Si Si4 0.017604 0.796189 0.216446
Si Si5 0.500000 0.000000 0.942803
Si Si6 0.740297 0.144217 0.827365
Si Si7 0.590930 0.811161 0.091309
Si Si8 0.109585 0.588535 0.339214
O O1 0.251500 0.579194 0.652930
O O2 0.316186 0.728630 0.519938
O O3 0.109346 0.592151 0.471690
O O4 0.075821 0.739499 0.620573
O O5 0.500000 0.500000 0.165982
O O6 0.732817 0.378860 0.093141
O O7 0.728782 0.432875 0.294911
O O8 0.162946 0.183184 0.644790
O O9 0.247335 0.223283 0.434129
O O10 0.428461 0.225768 0.600480
O O11 0.061018 0.702977 0.300064
O O12 0.906226 0.873221 0.281886
O O13 0.371133 0.944869 0.871688
O O14 0.581562 0.918638 0.024018
O O15 0.660521 0.184791 0.714938
O O16 0.000000 0.500000 0.296486
#
# Coordination Sequence:
#
# PCOD9338986 Si02
#       8
#     4   4   4   4   2   4   4   4
#     4  11  23  38  58  89 130 172 220 268 321 394
#     4  11  23  40  55  91 135 180 225 274 309 396
#     4  10  22  38  64  95 138 175 225 268 332 391
#     4  10  22  40  60  94 131 172 222 269 320 401
#     4  10  22  42  74 102 120 168 220 280 358 410
#     4  10  22  42  73  96 129 173 216 281 347 400
#     4  10  22  43  66  97 128 166 224 283 336 410
#     4  11  24  37  62  89 132 189 223 264 327 386
#
# _framework density 21.280743000000001
#
# number of rings (size 3 to 8) (size 9 to 14) (size 15 to 20)
#    0.000    1.600    2.667    1.200    5.600    4.800 
#    0.000    0.000    0.000   48.000    0.000    0.000 
#    0.000    0.000    0.000    0.000    0.000    0.000 
#
# Total GULP energy -167073.729436 kJ/mol
# GULP energy per Si atom -5569.124315 kJ/mol
# Density = 2.123231 g / cm^3
# Si number density = 21.280743 Si / 1000 Ang^3
#
#
#
# Elastic Constant Matrix: (Units=GPa)
#
#
# Indices 1 2 3 4 5 6 
#
# 1 103.5123 11.7351 15.9317 0.0000 0.0000 0.0000
# 2 11.7351 62.7458 16.7335 0.0000 0.0000 0.0000
# 3 15.9317 16.7335 58.1982 0.0000 0.0000 0.0000
# 4 0.0000 0.0000 0.0000 23.8342 0.0000 0.0000
# 5 0.0000 0.0000 0.0000 0.0000 56.5796 0.0000
# 6 0.0000 0.0000 0.0000 0.0000 0.0000 34.1730
#
#
#
# Elastic Compliance Matrix: (Units=1/GPa)
#
#
# Indices 1 2 3 4 5 6 
#
# 1 0.010176 -0.001257 -0.002424 0.000000 0.000000 0.000000
# 2 -0.001257 0.017416 -0.004664 0.000000 0.000000 0.000000
# 3 -0.002424 -0.004664 0.019187 0.000000 0.000000 0.000000
# 4 0.000000 0.000000 0.000000 0.041957 0.000000 0.000000
# 5 0.000000 0.000000 0.000000 0.000000 0.017674 0.000000
# 6 0.000000 0.000000 0.000000 0.000000 0.000000 0.029263
#
#
# Mechanical properties :
#
#
# Convention : Reuss Voigt Hill
#
# Bulk Modulus (GPa) = 33.23329 34.80630 34.01980
# Shear Modulus (GPa) = 30.78956 34.92108 32.85532
#
# Velocity S-wave (km/s) = 3.80784 4.05528 3.93351
# Velocity P-wave (km/s) = 5.91468 6.19019 6.05400
#
# Compressibility (1/GPa) = 0.03009031
#
# Stress axis : x y z
#
# Youngs Moduli (GPa) = 98.26749 57.41824 52.11794
#
# Poissons Ratio (x) = 0.07216 0.12636
# Poissons Ratio (y) = 0.12349 0.24306
# Poissons Ratio (z) = 0.23824 0.26777
#
# Static dielectric constant tensor:
#      x y z
#    x 1.852960 0.000000 0.000000 
#    y 0.000000 1.832160 0.000000 
#    z 0.000000 0.000000 1.789910 
# 
# From -- ./inp_files/2416.got.cif
#   From: 2010.05.17/outbox.cif.g08.bks.cpg/sg27_2_cif.got.tgz:2416.got - 2010.06.04 01:11:05.
