data_PCOD9338756
_publ_section_title
;
Structure prediction by ZEFSAII (Michael W. Deem and Ramdas Pophale) SiO2 
 PCOD9338756
Probable space group: P C C 2
;
_chemical_formula_sum "Si O2"
_cell_formula_units_Z 30
_cell_length_a 15.453666
_cell_length_b 10.831245
_cell_length_c 9.237507
_cell_angle_alpha 90.000000
_cell_angle_beta 90.000000
_cell_angle_gamma 90.000000
_cell_volume 1546.196485
_symmetry_space_group_name_H-M "P C C 2"
_symmetry_group_IT_number 27
_symmetry_cell_setting 'orthorhombic'
loop_
_space_group_symop_operation_xyz
x,y,z
-x,-y,z
-x,y,1/2+z
x,-y,1/2+z
loop_
_atom_site_type_symbol
_atom_site_label
_atom_site_fract_x
_atom_site_fract_y
_atom_site_fract_z
Si Si1 0.580177 0.840723 0.174410
Si Si2 0.500000 0.000000 0.929122
Si Si3 0.113944 0.310179 0.479535
Si Si4 0.446556 0.384142 0.623030
Si Si5 0.963343 0.632706 0.754277
Si Si6 0.238694 0.277629 0.243344
Si Si7 0.343518 0.489616 0.377876
Si Si8 0.179438 0.586517 0.492521
O O1 0.512799 0.727280 0.147096
O O2 0.679972 0.803428 0.194445
O O3 0.548492 0.906444 0.321551
O O4 0.565133 0.929656 0.037191
O O5 0.065345 0.275222 0.627013
O O6 0.189311 0.239967 0.391358
O O7 0.154669 0.444014 0.525034
O O8 0.038672 0.326538 0.362230
O O9 0.500000 0.500000 0.566775
O O10 0.377800 0.385081 0.491497
O O11 0.406707 0.432353 0.774409
O O12 0.879647 0.614654 0.855174
O O13 0.000000 0.500000 0.695170
O O14 0.280958 0.411461 0.274960
O O15 0.170065 0.312073 0.117916
O O16 0.281421 0.585660 0.457249
#
# Coordination Sequence:
#
# PCOD9338756 Si02
#       8
#     4   2   4   4   4   4   4   4
#     4  11  24  44  64  83 113 159 207 264 307 368
#     4  10  26  48  64  78 108 162 220 256 308 366
#     4  10  19  30  48  74 115 162 198 230 275 353
#     4  12  23  34  57  86 119 154 194 243 319 364
#     4  10  18  30  48  69 114 175 208 218 264 349
#     4  11  21  34  53  80 116 146 195 255 297 343
#     4  11  21  32  46  83 120 151 187 238 294 364
#     4  10  19  30  44  75 115 157 196 230 276 348
#
# _framework density 19.402450000000002
#
# number of rings (size 3 to 8) (size 9 to 14) (size 15 to 20)
#    0.000    1.333    2.667    5.600    5.600    0.000 
#    0.000    0.000    0.000    0.000    0.000    0.000 
#    0.000   12.800    0.000    0.000    0.000    0.000 
#
# Total GULP energy -167094.994657 kJ/mol
# GULP energy per Si atom -5569.833155 kJ/mol
# Density = 1.935829 g / cm^3
# Si number density = 19.402450 Si / 1000 Ang^3
#
#
#
# Elastic Constant Matrix: (Units=GPa)
#
#
# Indices 1 2 3 4 5 6 
#
# 1 82.5338 14.9274 46.9694 0.0000 0.0000 0.0000
# 2 14.9274 37.7432 24.2369 0.0000 0.0000 0.0000
# 3 46.9694 24.2369 124.4821 0.0000 0.0000 0.0000
# 4 0.0000 0.0000 0.0000 30.7741 0.0000 0.0000
# 5 0.0000 0.0000 0.0000 0.0000 21.9666 0.0000
# 6 0.0000 0.0000 0.0000 0.0000 0.0000 17.9727
#
#
#
# Elastic Compliance Matrix: (Units=1/GPa)
#
#
# Indices 1 2 3 4 5 6 
#
# 1 0.015674 -0.002744 -0.005380 0.000000 0.000000 0.000000
# 2 -0.002744 0.030761 -0.004954 0.000000 0.000000 0.000000
# 3 -0.005380 -0.004954 0.011028 0.000000 0.000000 0.000000
# 4 0.000000 0.000000 0.000000 0.032495 0.000000 0.000000
# 5 0.000000 0.000000 0.000000 0.000000 0.045524 0.000000
# 6 0.000000 0.000000 0.000000 0.000000 0.000000 0.055640
#
#
# Mechanical properties :
#
#
# Convention : Reuss Voigt Hill
#
# Bulk Modulus (GPa) = 31.94159 46.33630 39.13894
# Shear Modulus (GPa) = 21.95742 24.71772 23.33757
#
# Velocity S-wave (km/s) = 3.36770 3.57311 3.47193
# Velocity P-wave (km/s) = 5.62319 6.39972 6.02398
#
# Compressibility (1/GPa) = 0.03130714
#
# Stress axis : x y z
#
# Youngs Moduli (GPa) = 63.79894 32.50836 90.68074
#
# Poissons Ratio (x) = 0.08922 0.48785
# Poissons Ratio (y) = 0.17509 0.44921
# Poissons Ratio (z) = 0.34323 0.16104
#
# Static dielectric constant tensor:
#      x y z
#    x 2.055710 0.000000 0.000000 
#    y 0.000000 1.653920 0.000000 
#    z 0.000000 0.000000 1.812650 
# 
# From -- ./inp_files/1603.got.cif
#   From: 2010.05.17/outbox.cif.g08.bks.cpg/sg27_1_cif.got.tgz:1603.got - 2010.06.04 01:11:05.
