data_PCOD9338060
_publ_section_title
;
Structure prediction by ZEFSAII (Michael W. Deem and Ramdas Pophale) SiO2 
 PCOD9338060
Probable space group: P M C 21
;
_chemical_formula_sum "Si O2"
_cell_formula_units_Z 24
_cell_length_a 9.311283
_cell_length_b 7.709843
_cell_length_c 14.213962
_cell_angle_alpha 90.000000
_cell_angle_beta 90.000000
_cell_angle_gamma 90.000000
_cell_volume 1020.399438
_symmetry_space_group_name_H-M "P M C 21"
_symmetry_group_IT_number 26
_symmetry_cell_setting 'orthorhombic'
loop_
_space_group_symop_operation_xyz
x,y,z
-x,-y,1/2+z
-x,y,z
x,-y,1/2+z
loop_
_atom_site_type_symbol
_atom_site_label
_atom_site_fract_x
_atom_site_fract_y
_atom_site_fract_z
Si Si1 0.335238 0.618654 0.236550
Si Si2 0.838948 0.452907 0.076195
Si Si3 0.663117 0.249868 0.342822
Si Si4 0.330730 0.069201 0.520247
Si Si5 0.169655 0.226099 0.902322
Si Si6 0.837698 0.920797 0.684416
O O1 0.500000 0.681341 0.231181
O O2 0.274219 0.564908 0.134871
O O3 0.335871 0.438587 0.296523
O O4 0.231169 0.737384 0.299085
O O5 0.839582 0.264126 0.128517
O O6 0.000000 0.527572 0.085991
O O7 0.815791 0.397713 0.968283
O O8 0.500000 0.182055 0.331388
O O9 0.769431 0.130402 0.283287
O O10 0.695344 0.234977 0.453537
O O11 0.500000 0.046398 0.534227
O O12 0.265347 0.915893 0.455592
O O13 0.253645 0.049409 0.619728
O O14 0.000000 0.181377 0.902579
O O15 0.000000 0.981604 0.693080
#
# Coordination Sequence:
#
# PCOD9338060 Si02
#       6
#     4   4   4   4   4   4
#     4  10  19  32  52  76 100 129 165 204 247 295
#     4   8  16  31  49  69  95 129 166 202 241 289
#     4   9  19  34  52  75 101 131 167 205 246 294
#     4  10  19  33  53  75 101 133 168 207 249 293
#     4  10  20  34  52  75 102 131 166 207 249 295
#     4   9  17  30  50  74  99 131 168 203 244 296
#
# _framework density 23.520199999999999
#
# number of rings (size 3 to 8) (size 9 to 14) (size 15 to 20)
#    0.000    2.667    0.000    3.000    0.000    6.667 
#    0.000    1.667    0.000    6.000    0.000    0.000 
#    0.000    0.000    0.000    0.000    0.000    0.000 
#
# Total GULP energy -134203.404573 kJ/mol
# GULP energy per Si atom -5591.808524 kJ/mol
# Density = 2.346667 g / cm^3
# Si number density = 23.520200 Si / 1000 Ang^3
#
#
#
# Elastic Constant Matrix: (Units=GPa)
#
#
# Indices 1 2 3 4 5 6 
#
# 1 112.9027 32.8550 62.4612 0.0000 0.0000 0.0000
# 2 32.8550 59.9543 9.1310 0.0000 0.0000 0.0000
# 3 62.4612 9.1310 155.7774 0.0000 0.0000 0.0000
# 4 0.0000 0.0000 0.0000 42.8563 0.0000 0.0000
# 5 0.0000 0.0000 0.0000 0.0000 31.9977 0.0000
# 6 0.0000 0.0000 0.0000 0.0000 0.0000 6.7994
#
#
#
# Elastic Compliance Matrix: (Units=1/GPa)
#
#
# Indices 1 2 3 4 5 6 
#
# 1 0.013603 -0.006683 -0.005062 0.000000 0.000000 0.000000
# 2 -0.006683 0.020113 0.001501 0.000000 0.000000 0.000000
# 3 -0.005062 0.001501 0.008361 0.000000 0.000000 0.000000
# 4 0.000000 0.000000 0.000000 0.023334 0.000000 0.000000
# 5 0.000000 0.000000 0.000000 0.000000 0.031252 0.000000
# 6 0.000000 0.000000 0.000000 0.000000 0.000000 0.147071
#
#
# Mechanical properties :
#
#
# Convention : Reuss Voigt Hill
#
# Bulk Modulus (GPa) = 46.32331 59.72542 53.02436
# Shear Modulus (GPa) = 18.42160 31.27650 24.84905
#
# Velocity S-wave (km/s) = 2.80165 3.65056 3.25391
# Velocity P-wave (km/s) = 5.49578 6.57398 6.05891
#
# Compressibility (1/GPa) = 0.02158740
#
# Stress axis : x y z
#
# Youngs Moduli (GPa) = 73.51451 49.71843 119.59845
#
# Poissons Ratio (x) = 0.33228 0.60546
# Poissons Ratio (y) = 0.49132 -0.17950
# Poissons Ratio (z) = 0.37217 -0.07462
#
# Static dielectric constant tensor:
#      x y z
#    x 1.818180 0.000000 0.000000 
#    y 0.000000 1.938430 0.000000 
#    z 0.000000 0.000000 1.883610 
# 
# From -- ./inp_files/2795.got.cif
#   From: 2010.05.17/outbox.cif.g08.bks.cpg/sg26_2_cif.got.tgz:2795.got - 2010.06.04 01:07:29.
