data_PCOD9338058
_publ_section_title
;
Structure prediction by ZEFSAII (Michael W. Deem and Ramdas Pophale) SiO2 
 PCOD9338058
Probable space group: P M C 21
;
_chemical_formula_sum "Si O2"
_cell_formula_units_Z 32
_cell_length_a 7.602911
_cell_length_b 10.992520
_cell_length_c 14.546655
_cell_angle_alpha 90.000000
_cell_angle_beta 90.000000
_cell_angle_gamma 90.000000
_cell_volume 1215.738891
_symmetry_space_group_name_H-M "P M C 21"
_symmetry_group_IT_number 26
_symmetry_cell_setting 'orthorhombic'
loop_
_space_group_symop_operation_xyz
x,y,z
-x,-y,1/2+z
-x,y,z
x,-y,1/2+z
loop_
_atom_site_type_symbol
_atom_site_label
_atom_site_fract_x
_atom_site_fract_y
_atom_site_fract_z
Si Si1 0.796024 0.574972 0.123730
Si Si2 0.797189 0.800745 0.905893
Si Si3 0.216507 0.539793 0.917756
Si Si4 0.210368 0.309023 0.800491
Si Si5 0.713267 0.689229 0.641944
Si Si6 0.294257 0.065588 0.242212
Si Si7 0.288147 0.077965 0.579184
Si Si8 0.709829 0.164470 0.970143
O O1 0.718581 0.670912 0.197111
O O2 0.787504 0.440782 0.170156
O O3 0.000000 0.605788 0.109387
O O4 0.719081 0.548032 0.023243
O O5 0.724471 0.669789 0.877304
O O6 0.716942 0.913353 0.850433
O O7 0.000000 0.804845 0.882695
O O8 0.780431 0.814259 0.015669
O O9 0.276904 0.423643 0.861019
O O10 0.000000 0.537311 0.917981
O O11 0.245245 0.193317 0.865030
O O12 0.000000 0.319117 0.793168
O O13 0.500000 0.682329 0.645548
O O14 0.772558 0.806298 0.700670
O O15 0.769582 0.725979 0.537715
O O16 0.500000 0.062545 0.220025
O O17 0.222849 0.953220 0.182078
O O18 0.500000 0.089923 0.576301
O O19 0.230531 0.958084 0.520769
O O20 0.500000 0.161113 0.975526
#
# Coordination Sequence:
#
# PCOD9338058 Si02
#       8
#     4   4   4   4   4   4   4   4
#     4  10  19  32  51  75 109 150 179 213 272 335
#     4  11  22  37  58  84 115 150 191 236 278 332
#     4   9  19  35  51  76 115 149 175 220 280 327
#     4  10  19  32  53  79 106 143 183 214 265 332
#     4   9  17  31  53  80 106 137 181 228 268 315
#     4   9  19  37  60  83 110 147 188 233 287 339
#     4   9  20  40  61  80 109 147 184 230 289 341
#     4   9  18  34  55  77 104 135 173 226 275 317
#
# _framework density 26.321442000000001
#
# number of rings (size 3 to 8) (size 9 to 14) (size 15 to 20)
#    0.000    2.500    1.250    2.625    0.000    3.000 
#    2.250    5.000    0.000    0.000    0.000    0.000 
#    0.000    0.000    0.000    0.000    0.000    0.000 
#
# Total GULP energy -178807.686876 kJ/mol
# GULP energy per Si atom -5587.740215 kJ/mol
# Density = 2.626153 g / cm^3
# Si number density = 26.321442 Si / 1000 Ang^3
#
#
#
# Elastic Constant Matrix: (Units=GPa)
#
#
# Indices 1 2 3 4 5 6 
#
# 1 66.6760 -1.8799 -1.0207 0.0000 0.0000 0.0000
# 2 -1.8799 79.5436 2.8092 0.0000 0.0000 0.0000
# 3 -1.0207 2.8092 132.2527 0.0000 0.0000 0.0000
# 4 0.0000 0.0000 0.0000 46.3172 0.0000 0.0000
# 5 0.0000 0.0000 0.0000 0.0000 24.8650 0.0000
# 6 0.0000 0.0000 0.0000 0.0000 0.0000 17.1518
#
#
#
# Elastic Compliance Matrix: (Units=1/GPa)
#
#
# Indices 1 2 3 4 5 6 
#
# 1 0.015009 0.000351 0.000108 0.000000 0.000000 0.000000
# 2 0.000351 0.012589 -0.000265 0.000000 0.000000 0.000000
# 3 0.000108 -0.000265 0.007568 0.000000 0.000000 0.000000
# 4 0.000000 0.000000 0.000000 0.021590 0.000000 0.000000
# 5 0.000000 0.000000 0.000000 0.000000 0.040217 0.000000
# 6 0.000000 0.000000 0.000000 0.000000 0.000000 0.058303
#
#
# Mechanical properties :
#
#
# Convention : Reuss Voigt Hill
#
# Bulk Modulus (GPa) = 28.12486 30.92105 29.52295
# Shear Modulus (GPa) = 29.98689 36.23772 33.11231
#
# Velocity S-wave (km/s) = 3.37895 3.71447 3.55067
# Velocity P-wave (km/s) = 5.09229 5.49266 5.29626
#
# Compressibility (1/GPa) = 0.03555573
#
# Stress axis : x y z
#
# Youngs Moduli (GPa) = 66.62468 79.43217 132.13979
#
# Poissons Ratio (x) = -0.02787 -0.01432
# Poissons Ratio (y) = -0.02338 0.03498
# Poissons Ratio (z) = -0.00722 0.02103
#
# Static dielectric constant tensor:
#      x y z
#    x 1.942770 0.000000 0.000000 
#    y 0.000000 2.113860 0.000000 
#    z 0.000000 0.000000 2.148470 
# 
# From -- ./inp_files/4186.got.cif
#   From: 2010.05.17/outbox.cif.g08.bks.cpg/sg26_3_cif.got.tgz:4186.got - 2010.06.04 01:07:29.
