data_PCOD9338154
_publ_section_title
;
Structure prediction by ZEFSAII (Michael W. Deem and Ramdas Pophale) SiO2 
 PCOD9338154
Probable space group: P M C 21
;
_chemical_formula_sum "Si O2"
_cell_formula_units_Z 24
_cell_length_a 7.919776
_cell_length_b 13.926590
_cell_length_c 10.334925
_cell_angle_alpha 90.000000
_cell_angle_beta 90.000000
_cell_angle_gamma 90.000000
_cell_volume 1139.895444
_symmetry_space_group_name_H-M "P M C 21"
_symmetry_group_IT_number 26
_symmetry_cell_setting 'orthorhombic'
loop_
_space_group_symop_operation_xyz
x,y,z
-x,-y,1/2+z
-x,y,z
x,-y,1/2+z
loop_
_atom_site_type_symbol
_atom_site_label
_atom_site_fract_x
_atom_site_fract_y
_atom_site_fract_z
Si Si1 0.196224 0.433963 0.251760
Si Si2 0.793565 0.926566 0.594709
Si Si3 0.796333 0.216397 0.872328
Si Si4 0.206720 0.148052 0.595559
Si Si5 0.306733 0.575005 0.472550
Si Si6 0.793671 0.219645 0.316596
O O1 0.284300 0.506384 0.349567
O O2 0.260104 0.324866 0.269883
O O3 0.000000 0.435307 0.289021
O O4 0.209756 0.459315 0.100609
O O5 0.739486 0.869597 0.466277
O O6 0.739337 0.863607 0.717904
O O7 0.000000 0.927705 0.595014
O O8 0.739654 0.036765 0.598400
O O9 0.736212 0.200698 0.725989
O O10 0.748192 0.318413 0.931565
O O11 0.000000 0.212739 0.870237
O O12 0.260892 0.197329 0.462387
O O13 0.000000 0.148811 0.595456
O O14 0.500000 0.577370 0.512086
O O15 0.000000 0.218853 0.313841
#
# Coordination Sequence:
#
# PCOD9338154 Si02
#       6
#     4   4   4   4   4   4
#     4  11  23  42  66  90 118 158 206 254 301 364
#     4   9  15  28  50  82 121 153 190 246 302 346
#     4  10  19  34  57  86 118 156 200 244 297 360
#     4   9  17  27  49  87 123 151 188 246 302 345
#     4  12  26  43  62  89 123 159 199 252 313 369
#     4   9  17  30  50  82 117 149 189 240 293 346
#
# _framework density 21.054562000000001
#
# number of rings (size 3 to 8) (size 9 to 14) (size 15 to 20)
#    0.000    2.000    1.667    3.000    2.333    4.000 
#    0.000    0.000    0.000    1.000    0.000    0.000 
#    0.000    0.000    0.000    0.000    0.000    0.000 
#
# Total GULP energy -134101.980947 kJ/mol
# GULP energy per Si atom -5587.582539 kJ/mol
# Density = 2.100664 g / cm^3
# Si number density = 21.054562 Si / 1000 Ang^3
#
#
#
# Elastic Constant Matrix: (Units=GPa)
#
#
# Indices 1 2 3 4 5 6 
#
# 1 22.0391 -1.3814 2.4163 0.0000 0.0000 0.0000
# 2 -1.3814 60.3954 26.9924 0.0000 0.0000 0.0000
# 3 2.4163 26.9924 123.4637 0.0000 0.0000 0.0000
# 4 0.0000 0.0000 0.0000 40.8587 0.0000 0.0000
# 5 0.0000 0.0000 0.0000 0.0000 6.1688 0.0000
# 6 0.0000 0.0000 0.0000 0.0000 0.0000 -27.5383
#
#
#
# Elastic Compliance Matrix: (Units=1/GPa)
#
#
# Indices 1 2 3 4 5 6 
#
# 1 0.045610 0.001598 -0.001242 0.000000 0.000000 0.000000
# 2 0.001598 0.018407 -0.004055 0.000000 0.000000 0.000000
# 3 -0.001242 -0.004055 0.009010 0.000000 0.000000 0.000000
# 4 0.000000 0.000000 0.000000 0.024475 0.000000 0.000000
# 5 0.000000 0.000000 0.000000 0.000000 0.162107 0.000000
# 6 0.000000 0.000000 0.000000 0.000000 0.000000 -0.036313
#
#
# Mechanical properties :
#
#
# Convention : Reuss Voigt Hill
#
# Bulk Modulus (GPa) = 15.23715 29.10586 22.17150
# Shear Modulus (GPa) = 19.79646 15.75589 17.77617
#
# Velocity S-wave (km/s) = 3.06967 2.73854 2.90882
# Velocity P-wave (km/s) = 4.45157 4.88400 4.67279
#
# Compressibility (1/GPa) = 0.06562906
#
# Stress axis : x y z
#
# Youngs Moduli (GPa) = 21.92485 54.32838 110.98190
#
# Poissons Ratio (x) = -0.08683 0.13785
# Poissons Ratio (y) = -0.03504 0.45008
# Poissons Ratio (z) = 0.02723 0.22033
#
# Static dielectric constant tensor:
#      x y z
#    x 1.758380 0.000000 0.000000 
#    y 0.000000 1.718970 0.000000 
#    z 0.000000 0.000000 1.749560 
# 
# From -- ./inp_files/1454.got.cif
#   From: 2010.05.17/outbox.cif.g08.bks.cpg/sg26_1_cif.got.tgz:1454.got - 2010.06.04 01:07:29.
