data_PCOD9338363
_publ_section_title
;
Structure prediction by ZEFSAII (Michael W. Deem and Ramdas Pophale) SiO2 
 PCOD9338363
Probable space group: P M C 21
;
_chemical_formula_sum "Si O2"
_cell_formula_units_Z 32
_cell_length_a 8.866488
_cell_length_b 12.150869
_cell_length_c 15.763287
_cell_angle_alpha 90.000000
_cell_angle_beta 90.000000
_cell_angle_gamma 90.000000
_cell_volume 1698.266145
_symmetry_space_group_name_H-M "P M C 21"
_symmetry_group_IT_number 26
_symmetry_cell_setting 'orthorhombic'
loop_
_space_group_symop_operation_xyz
x,y,z
-x,-y,1/2+z
-x,y,z
x,-y,1/2+z
loop_
_atom_site_type_symbol
_atom_site_label
_atom_site_fract_x
_atom_site_fract_y
_atom_site_fract_z
Si Si1 0.181870 0.228819 0.762910
Si Si2 0.819324 0.638378 0.092622
Si Si3 0.680291 0.764434 0.440656
Si Si4 0.681364 0.239303 0.249043
Si Si5 0.319161 0.776735 0.938869
Si Si6 0.820573 0.991853 0.695423
Si Si7 0.682009 0.396561 0.096181
Si Si8 0.179268 0.997118 0.493831
O O1 0.221557 0.300397 0.680475
O O2 0.259539 0.269124 0.848503
O O3 0.000000 0.230986 0.772446
O O4 0.227378 0.102201 0.744285
O O5 0.758170 0.514848 0.093155
O O6 0.000000 0.640214 0.085905
O O7 0.750816 0.705029 0.013917
O O8 0.500000 0.777209 0.439489
O O9 0.718533 0.676078 0.513301
O O10 0.755695 0.880753 0.464172
O O11 0.500000 0.235759 0.245336
O O12 0.724978 0.266239 0.345503
O O13 0.740947 0.118637 0.225517
O O14 0.731524 0.327233 0.178846
O O15 0.500000 0.775717 0.945533
O O16 0.259314 0.901050 0.948423
O O17 0.795010 0.008347 0.594961
O O18 0.000000 0.979231 0.707791
O O19 0.500000 0.409510 0.099138
O O20 0.000000 0.001344 0.478106
#
# Coordination Sequence:
#
# PCOD9338363 Si02
#       8
#     4   4   4   4   4   4   4   4
#     4  10  22  41  61  88 123 157 196 247 303 361
#     4  11  24  43  64  87 118 157 204 252 302 359
#     4  11  23  39  62  92 122 159 203 247 300 360
#     4  10  22  40  61  88 122 156 197 245 295 355
#     4  11  23  39  63  93 123 159 200 246 302 360
#     4  10  20  36  60  88 121 158 195 240 299 355
#     4  10  23  43  62  84 119 158 201 251 300 355
#     4  11  21  37  61  90 126 162 198 246 299 357
#
# _framework density 18.842749000000001
#
# number of rings (size 3 to 8) (size 9 to 14) (size 15 to 20)
#    0.000    1.500    2.500    2.250    0.000    7.500 
#    0.000    3.750    0.000    0.000    0.000    0.000 
#    0.000    0.000    0.000    0.000    0.000    0.000 
#
# Total GULP energy -178890.377525 kJ/mol
# GULP energy per Si atom -5590.324298 kJ/mol
# Density = 1.879986 g / cm^3
# Si number density = 18.842749 Si / 1000 Ang^3
#
#
#
# Elastic Constant Matrix: (Units=GPa)
#
#
# Indices 1 2 3 4 5 6 
#
# 1 33.0645 31.0425 39.7068 0.0000 0.0000 0.0000
# 2 31.0425 109.5817 33.1431 0.0000 0.0000 0.0000
# 3 39.7068 33.1431 85.3743 0.0000 0.0000 0.0000
# 4 0.0000 0.0000 0.0000 0.3974 0.0000 0.0000
# 5 0.0000 0.0000 0.0000 0.0000 31.5391 0.0000
# 6 0.0000 0.0000 0.0000 0.0000 0.0000 38.7526
#
#
#
# Elastic Compliance Matrix: (Units=1/GPa)
#
#
# Indices 1 2 3 4 5 6 
#
# 1 0.082837 -0.013385 -0.033330 0.000000 0.000000 0.000000
# 2 -0.013385 0.012503 0.001372 0.000000 0.000000 0.000000
# 3 -0.033330 0.001372 0.026682 0.000000 0.000000 0.000000
# 4 0.000000 0.000000 0.000000 2.516622 0.000000 0.000000
# 5 0.000000 0.000000 0.000000 0.000000 0.031707 0.000000
# 6 0.000000 0.000000 0.000000 0.000000 0.000000 0.025805
#
#
# Mechanical properties :
#
#
# Convention : Reuss Voigt Hill
#
# Bulk Modulus (GPa) = 31.91444 48.42281 40.16862
# Shear Modulus (GPa) = 1.78745 22.41304 12.10024
#
# Velocity S-wave (km/s) = 0.97502 3.45262 2.53686
# Velocity P-wave (km/s) = 4.27102 6.45355 5.47220
#
# Compressibility (1/GPa) = 0.03133378
#
# Stress axis : x y z
#
# Youngs Moduli (GPa) = 12.07195 79.98388 37.47820
#
# Poissons Ratio (x) = 1.07061 1.24916
# Poissons Ratio (y) = 0.16159 -0.05141
# Poissons Ratio (z) = 0.40236 -0.10972
#
# Static dielectric constant tensor:
#      x y z
#    x 1.631460 0.000000 0.000000 
#    y 0.000000 1.611800 0.000000 
#    z 0.000000 0.000000 1.663660 
# 
# From -- ./inp_files/4252.got.cif
#   From: 2010.05.17/outbox.cif.g08.bks.cpg/sg26_3_cif.got.tgz:4252.got - 2010.06.04 01:07:29.
