data_PCOD9338243
_publ_section_title
;
Structure prediction by ZEFSAII (Michael W. Deem and Ramdas Pophale) SiO2 
 PCOD9338243
Probable space group: P M C 21
;
_chemical_formula_sum "Si O2"
_cell_formula_units_Z 32
_cell_length_a 8.975867
_cell_length_b 14.456572
_cell_length_c 14.278805
_cell_angle_alpha 90.000000
_cell_angle_beta 90.000000
_cell_angle_gamma 90.000000
_cell_volume 1852.821557
_symmetry_space_group_name_H-M "P M C 21"
_symmetry_group_IT_number 26
_symmetry_cell_setting 'orthorhombic'
loop_
_space_group_symop_operation_xyz
x,y,z
-x,-y,1/2+z
-x,y,z
x,-y,1/2+z
loop_
_atom_site_type_symbol
_atom_site_label
_atom_site_fract_x
_atom_site_fract_y
_atom_site_fract_z
Si Si1 0.675998 0.522416 0.439580
Si Si2 0.322880 0.849034 0.297501
Si Si3 0.178743 0.665001 0.940386
Si Si4 0.678933 0.033591 0.185709
Si Si5 0.321795 0.022244 0.971478
Si Si6 0.822028 0.860859 0.853553
Si Si7 0.323779 0.411007 0.614254
Si Si8 0.176847 0.348781 0.799026
O O1 0.500000 0.524980 0.420400
O O2 0.750085 0.428615 0.398213
O O3 0.695564 0.503799 0.551142
O O4 0.755553 0.609468 0.394389
O O5 0.500000 0.829584 0.289789
O O6 0.285415 0.930684 0.224294
O O7 0.293762 0.894145 0.399385
O O8 0.232495 0.755702 0.284586
O O9 0.217540 0.756906 0.883933
O O10 0.000000 0.656404 0.946437
O O11 0.249482 0.665121 0.044936
O O12 0.500000 0.043704 0.193788
O O13 0.722290 0.042864 0.077703
O O14 0.754607 0.106426 0.254998
O O15 0.500000 0.005009 0.969706
O O16 0.241066 0.932634 0.929945
O O17 0.000000 0.867817 0.850429
O O18 0.500000 0.394220 0.624359
O O19 0.244307 0.407923 0.713178
O O20 0.000000 0.354035 0.799656
#
# Coordination Sequence:
#
# PCOD9338243 Si02
#       8
#     4   4   4   4   4   4   4   4
#     4   9  20  37  57  79 106 141 181 225 273 324
#     4   9  19  35  54  80 112 144 187 233 273 327
#     4   9  18  34  53  79 110 136 173 220 273 323
#     4   9  19  35  55  78 105 144 188 228 270 322
#     4   9  19  36  56  78 106 144 187 230 272 318
#     4  10  20  32  51  80 111 142 174 220 276 330
#     4   9  20  36  57  81 106 139 181 224 268 321
#     4  12  23  35  57  83 114 148 181 228 281 335
#
# _framework density 17.270956000000002
#
# number of rings (size 3 to 8) (size 9 to 14) (size 15 to 20)
#    0.750    1.750    0.000    3.000    1.750    4.500 
#    0.000    1.250    0.000    4.500    0.000    0.000 
#    0.000    0.000    0.000    0.000    0.000    0.000 
#
# Total GULP energy -178258.370487 kJ/mol
# GULP energy per Si atom -5570.574078 kJ/mol
# Density = 1.723165 g / cm^3
# Si number density = 17.270956 Si / 1000 Ang^3
#
#
#
# Elastic Constant Matrix: (Units=GPa)
#
#
# Indices 1 2 3 4 5 6 
#
# 1 64.7023 17.6761 21.2772 0.0000 0.0000 0.0000
# 2 17.6761 22.8576 -1.9282 0.0000 0.0000 0.0000
# 3 21.2772 -1.9282 76.3754 0.0000 0.0000 0.0000
# 4 0.0000 0.0000 0.0000 10.4031 0.0000 0.0000
# 5 0.0000 0.0000 0.0000 0.0000 20.8923 0.0000
# 6 0.0000 0.0000 0.0000 0.0000 0.0000 20.1835
#
#
#
# Elastic Compliance Matrix: (Units=1/GPa)
#
#
# Indices 1 2 3 4 5 6 
#
# 1 0.022608 -0.018053 -0.006754 0.000000 0.000000 0.000000
# 2 -0.018053 0.058258 0.006500 0.000000 0.000000 0.000000
# 3 -0.006754 0.006500 0.015139 0.000000 0.000000 0.000000
# 4 0.000000 0.000000 0.000000 0.096125 0.000000 0.000000
# 5 0.000000 0.000000 0.000000 0.000000 0.047865 0.000000
# 6 0.000000 0.000000 0.000000 0.000000 0.000000 0.049545
#
#
# Mechanical properties :
#
#
# Convention : Reuss Voigt Hill
#
# Bulk Modulus (GPa) = 16.83748 26.44284 21.64016
# Shear Modulus (GPa) = 14.45287 18.75648 16.60467
#
# Velocity S-wave (km/s) = 2.89594 3.29905 3.10404
# Velocity P-wave (km/s) = 4.57735 5.46401 5.04022
#
# Compressibility (1/GPa) = 0.05939130
#
# Stress axis : x y z
#
# Youngs Moduli (GPa) = 44.23117 17.16493 66.05468
#
# Poissons Ratio (x) = 0.30988 0.44615
# Poissons Ratio (y) = 0.79852 -0.42937
# Poissons Ratio (z) = 0.29875 -0.11158
#
# Static dielectric constant tensor:
#      x y z
#    x 1.572830 0.000000 0.000000 
#    y 0.000000 1.572880 0.000000 
#    z 0.000000 0.000000 1.598310 
# 
# From -- ./inp_files/4339.got.cif
#   From: 2010.05.17/outbox.cif.g08.bks.cpg/sg26_3_cif.got.tgz:4339.got - 2010.06.04 01:07:29.
