data_PCOD9338858
_publ_section_title
;
Structure prediction by ZEFSAII (Michael W. Deem and Ramdas Pophale) SiO2 
 PCOD9338858
Probable space group: P C C 2
;
_chemical_formula_sum "Si O2"
_cell_formula_units_Z 16
_cell_length_a 7.143478
_cell_length_b 9.602221
_cell_length_c 8.523784
_cell_angle_alpha 90.000000
_cell_angle_beta 90.000000
_cell_angle_gamma 90.000000
_cell_volume 584.674085
_symmetry_space_group_name_H-M "P C C 2"
_symmetry_group_IT_number 27
_symmetry_cell_setting 'orthorhombic'
loop_
_space_group_symop_operation_xyz
x,y,z
-x,-y,z
-x,y,1/2+z
x,-y,1/2+z
loop_
_atom_site_type_symbol
_atom_site_label
_atom_site_fract_x
_atom_site_fract_y
_atom_site_fract_z
Si Si1 0.709303 0.708824 0.204450
Si Si2 0.313373 0.946748 0.509790
Si Si3 0.138384 0.808372 0.210199
Si Si4 0.217653 0.548795 0.012913
O O1 0.692415 0.628634 0.367135
O O2 0.918004 0.775717 0.210233
O O3 0.602916 0.842789 0.142627
O O4 0.689422 0.591349 0.072557
O O5 0.197563 0.861197 0.380962
O O6 0.500000 0.000000 0.428416
O O7 0.196155 0.072007 0.586598
O O8 0.219470 0.660121 0.154739
O O9 0.000000 0.500000 0.978313
#
# Coordination Sequence:
#
# PCOD9338858 Si02
#       4
#     4   4   4   4
#     4  11  22  41  71 104 137 178 231 289 350 416
#     4  12  26  44  66 100 145 190 234 286 345 415
#     4  11  23  41  66  99 136 184 235 288 346 414
#     4  10  20  38  69 105 136 170 228 295 349 407
#
# _framework density 27.365673000000001
#
# number of rings (size 3 to 8) (size 9 to 14) (size 15 to 20)
#    0.000    1.000    0.000    9.750    0.000    2.000 
#    0.000    2.500    0.000   18.000    0.000    0.000 
#    0.000    0.000    0.000    0.000    0.000    0.000 
#
# Total GULP energy -89788.338178 kJ/mol
# GULP energy per Si atom -5611.771136 kJ/mol
# Density = 2.730339 g / cm^3
# Si number density = 27.365673 Si / 1000 Ang^3
#
#
#
# Elastic Constant Matrix: (Units=GPa)
#
#
# Indices 1 2 3 4 5 6 
#
# 1 82.4824 37.4680 42.2827 0.0000 0.0000 0.0000
# 2 37.4680 195.4265 83.0205 0.0000 0.0000 0.0000
# 3 42.2827 83.0205 175.8722 0.0000 0.0000 0.0000
# 4 0.0000 0.0000 0.0000 76.7764 0.0000 0.0000
# 5 0.0000 0.0000 0.0000 0.0000 24.3683 0.0000
# 6 0.0000 0.0000 0.0000 0.0000 0.0000 24.3773
#
#
#
# Elastic Compliance Matrix: (Units=1/GPa)
#
#
# Indices 1 2 3 4 5 6 
#
# 1 0.014214 -0.001593 -0.002665 0.000000 0.000000 0.000000
# 2 -0.001593 0.006579 -0.002723 0.000000 0.000000 0.000000
# 3 -0.002665 -0.002723 0.007612 0.000000 0.000000 0.000000
# 4 0.000000 0.000000 0.000000 0.013025 0.000000 0.000000
# 5 0.000000 0.000000 0.000000 0.000000 0.041037 0.000000
# 6 0.000000 0.000000 0.000000 0.000000 0.000000 0.041022
#
#
# Mechanical properties :
#
#
# Convention : Reuss Voigt Hill
#
# Bulk Modulus (GPa) = 69.23765 86.59149 77.91457
# Shear Modulus (GPa) = 35.14586 44.50506 39.82546
#
# Velocity S-wave (km/s) = 3.58761 4.03713 3.81899
# Velocity P-wave (km/s) = 6.52051 7.31042 6.92674
#
# Compressibility (1/GPa) = 0.01444301
#
# Stress axis : x y z
#
# Youngs Moduli (GPa) = 70.35484 151.99779 131.37184
#
# Poissons Ratio (x) = 0.24211 0.35015
# Poissons Ratio (y) = 0.11206 0.35769
# Poissons Ratio (z) = 0.18752 0.41384
#
# Static dielectric constant tensor:
#      x y z
#    x 2.214630 0.000000 0.000000 
#    y 0.000000 2.093870 0.000000 
#    z 0.000000 0.000000 2.101650 
# 
# From -- ./inp_files/946.got.cif
#   From: 2010.05.17/outbox.cif.g08.bks.cpg/sg27_1_cif.got.tgz:946.got - 2010.06.04 01:11:05.
