data_PCOD9338223
_publ_section_title
;
Structure prediction by ZEFSAII (Michael W. Deem and Ramdas Pophale) SiO2 
 PCOD9338223
Probable space group: P M C 21
;
_chemical_formula_sum "Si O2"
_cell_formula_units_Z 32
_cell_length_a 7.567776
_cell_length_b 12.390483
_cell_length_c 15.712698
_cell_angle_alpha 90.000000
_cell_angle_beta 90.000000
_cell_angle_gamma 90.000000
_cell_volume 1473.354549
_symmetry_space_group_name_H-M "P M C 21"
_symmetry_group_IT_number 26
_symmetry_cell_setting 'orthorhombic'
loop_
_space_group_symop_operation_xyz
x,y,z
-x,-y,1/2+z
-x,y,z
x,-y,1/2+z
loop_
_atom_site_type_symbol
_atom_site_label
_atom_site_fract_x
_atom_site_fract_y
_atom_site_fract_z
Si Si1 0.293133 0.959858 0.937020
Si Si2 0.782812 0.348790 0.789010
Si Si3 0.202837 0.506262 0.445970
Si Si4 0.792636 0.103598 0.774680
Si Si5 0.786189 0.954182 0.621471
Si Si6 0.701503 0.730695 0.901847
Si Si7 0.214047 0.737420 0.709777
Si Si8 0.215587 0.495479 0.137879
O O1 0.500000 0.946168 0.918627
O O2 0.218744 0.838053 0.943875
O O3 0.221360 0.030273 0.859010
O O4 0.270278 0.016829 0.026992
O O5 0.722026 0.416671 0.872016
O O6 0.722473 0.224549 0.789070
O O7 0.727573 0.410656 0.702715
O O8 0.000000 0.351287 0.790675
O O9 0.204122 0.382905 0.414566
O O10 0.280997 0.502996 0.540810
O O11 0.000000 0.542976 0.456574
O O12 0.000000 0.118339 0.757070
O O13 0.720396 0.038167 0.693371
O O14 0.731932 0.833967 0.648086
O O15 0.000000 0.956230 0.623219
O O16 0.500000 0.714416 0.931156
O O17 0.707150 0.756568 0.802133
O O18 0.263966 0.619718 0.677283
O O19 0.000000 0.739840 0.717873
O O20 0.000000 0.502080 0.135506
#
# Coordination Sequence:
#
# PCOD9338223 Si02
#       8
#     4   4   4   4   4   4   4   4
#     4  11  25  41  58  82 118 162 195 232 293 356
#     4   9  18  33  55  86 119 146 181 233 288 338
#     4  10  20  35  60  85 112 151 188 233 287 339
#     4  10  21  38  61  89 118 149 194 247 290 338
#     4  10  22  37  61  91 114 147 197 251 292 335
#     4  11  23  39  58  82 115 154 196 240 283 339
#     4  10  19  37  63  87 110 145 195 246 293 340
#     4   9  18  32  56  88 114 142 184 232 286 341
#
# _framework density 21.719145999999999
#
# number of rings (size 3 to 8) (size 9 to 14) (size 15 to 20)
#    0.000    2.000    2.500    0.750    3.500    2.500 
#    0.000    1.250    0.000    0.000    0.000    0.000 
#    0.000    0.000    0.000    0.000    0.000    0.000 
#
# Total GULP energy -178711.015896 kJ/mol
# GULP energy per Si atom -5584.719247 kJ/mol
# Density = 2.166971 g / cm^3
# Si number density = 21.719146 Si / 1000 Ang^3
#
#
#
# Elastic Constant Matrix: (Units=GPa)
#
#
# Indices 1 2 3 4 5 6 
#
# 1 45.8819 3.1740 -6.0785 0.0000 0.0000 0.0000
# 2 3.1740 106.5839 5.8773 0.0000 0.0000 0.0000
# 3 -6.0785 5.8773 87.3961 0.0000 0.0000 0.0000
# 4 0.0000 0.0000 0.0000 38.3876 0.0000 0.0000
# 5 0.0000 0.0000 0.0000 0.0000 -12.0037 0.0000
# 6 0.0000 0.0000 0.0000 0.0000 0.0000 -28.5276
#
#
#
# Elastic Compliance Matrix: (Units=1/GPa)
#
#
# Indices 1 2 3 4 5 6 
#
# 1 0.022056 -0.000744 0.001584 0.000000 0.000000 0.000000
# 2 -0.000744 0.009442 -0.000687 0.000000 0.000000 0.000000
# 3 0.001584 -0.000687 0.011599 0.000000 0.000000 0.000000
# 4 0.000000 0.000000 0.000000 0.026050 0.000000 0.000000
# 5 0.000000 0.000000 0.000000 0.000000 -0.083308 0.000000
# 6 0.000000 0.000000 0.000000 0.000000 0.000000 -0.035054
#
#
# Mechanical properties :
#
#
# Convention : Reuss Voigt Hill
#
# Bulk Modulus (GPa) = 23.03954 27.31194 25.17574
# Shear Modulus (GPa) = -142.64241 15.36388 -63.63927
#
# Velocity S-wave (km/s) = -8.11286 2.66256 -5.41891
# Velocity P-wave (km/s) = 8.78220 4.69624 5.24749
#
# Compressibility (1/GPa) = 0.04340365
#
# Stress axis : x y z
#
# Youngs Moduli (GPa) = 45.33821 105.90633 86.21790
#
# Poissons Ratio (x) = 0.07881 -0.13658
# Poissons Ratio (y) = 0.03374 0.05921
# Poissons Ratio (z) = -0.07182 0.07273
#
# Static dielectric constant tensor:
#      x y z
#    x 1.847850 0.000000 0.000000 
#    y 0.000000 1.794940 0.000000 
#    z 0.000000 0.000000 1.757140 
# 
# From -- ./inp_files/4120.got.cif
#   From: 2010.05.17/outbox.cif.g08.bks.cpg/sg26_3_cif.got.tgz:4120.got - 2010.06.04 01:07:29.
