data_PCOD9338324
_publ_section_title
;
Structure prediction by ZEFSAII (Michael W. Deem and Ramdas Pophale) SiO2 
 PCOD9338324
Probable space group: P M C 21
;
_chemical_formula_sum "Si O2"
_cell_formula_units_Z 28
_cell_length_a 12.929724
_cell_length_b 5.852676
_cell_length_c 18.651079
_cell_angle_alpha 90.000000
_cell_angle_beta 90.000000
_cell_angle_gamma 90.000000
_cell_volume 1411.392153
_symmetry_space_group_name_H-M "P M C 21"
_symmetry_group_IT_number 26
_symmetry_cell_setting 'orthorhombic'
loop_
_space_group_symop_operation_xyz
x,y,z
-x,-y,1/2+z
-x,y,z
x,-y,1/2+z
loop_
_atom_site_type_symbol
_atom_site_label
_atom_site_fract_x
_atom_site_fract_y
_atom_site_fract_z
Si Si1 0.787240 0.321707 0.597220
Si Si2 0.885610 0.934196 0.826672
Si Si3 0.381935 0.077856 0.692100
Si Si4 0.804309 0.444362 0.436182
Si Si5 0.000000 0.144777 0.576768
Si Si6 0.000000 0.653824 0.496346
Si Si7 0.787605 0.306853 0.204360
Si Si8 0.712918 0.315063 0.816095
O O1 0.772701 0.337526 0.512129
O O2 0.887901 0.165916 0.614424
O O3 0.812332 0.572070 0.629632
O O4 0.685102 0.228604 0.636336
O O5 0.859586 0.743127 0.885926
O O6 0.875852 0.827869 0.746781
O O7 0.000000 0.025526 0.838022
O O8 0.795842 0.117885 0.829164
O O9 0.500000 0.042990 0.670481
O O10 0.314395 0.847973 0.697700
O O11 0.377905 0.199271 0.770501
O O12 0.709054 0.549999 0.390972
O O13 0.892631 0.632345 0.453121
O O14 0.000000 0.397096 0.535396
O O15 0.000000 0.900564 0.535806
O O16 0.761707 0.509564 0.259476
#
# Coordination Sequence:
#
# PCOD9338324 Si02
#       8
#     4   4   4   4   2   2   4   4
#     4  10  23  39  62  95 129 173 211 271 330 407
#     4  10  20  35  57  88 128 173 212 255 308 386
#     4  10  22  44  67  85 116 165 223 281 341 398
#     4  10  21  35  60  93 137 169 217 254 327 396
#     4  10  24  38  59  96 146 179 215 252 331 402
#     4  10  22  36  57  94 136 197 207 252 317 406
#     4   9  21  40  55  89 118 166 211 265 324 384
#     4   9  21  37  59  88 120 160 210 265 322 390
#
# _framework density 19.838569
#
# number of rings (size 3 to 8) (size 9 to 14) (size 15 to 20)
#    0.000    2.286    0.714    0.000   10.000    2.857 
#   10.286    0.714    0.000    8.571    0.000    0.000 
#    0.000    0.000    0.000    0.000    0.000    0.000 
#
# Total GULP energy -155966.983767 kJ/mol
# GULP energy per Si atom -5570.249420 kJ/mol
# Density = 1.979342 g / cm^3
# Si number density = 19.838569 Si / 1000 Ang^3
#
#
#
# Elastic Constant Matrix: (Units=GPa)
#
#
# Indices 1 2 3 4 5 6 
#
# 1 104.9653 20.4797 42.3603 0.0000 0.0000 0.0000
# 2 20.4797 52.3451 18.8666 0.0000 0.0000 0.0000
# 3 42.3603 18.8666 99.8338 0.0000 0.0000 0.0000
# 4 0.0000 0.0000 0.0000 44.4487 0.0000 0.0000
# 5 0.0000 0.0000 0.0000 0.0000 22.0285 0.0000
# 6 0.0000 0.0000 0.0000 0.0000 0.0000 10.6927
#
#
#
# Elastic Compliance Matrix: (Units=1/GPa)
#
#
# Indices 1 2 3 4 5 6 
#
# 1 0.011933 -0.003052 -0.004487 0.000000 0.000000 0.000000
# 2 -0.003052 0.021281 -0.002727 0.000000 0.000000 0.000000
# 3 -0.004487 -0.002727 0.012436 0.000000 0.000000 0.000000
# 4 0.000000 0.000000 0.000000 0.022498 0.000000 0.000000
# 5 0.000000 0.000000 0.000000 0.000000 0.045396 0.000000
# 6 0.000000 0.000000 0.000000 0.000000 0.000000 0.093522
#
#
# Mechanical properties :
#
#
# Convention : Reuss Voigt Hill
#
# Bulk Modulus (GPa) = 39.80993 46.72862 43.26927
# Shear Modulus (GPa) = 21.18934 27.12983 24.15958
#
# Velocity S-wave (km/s) = 3.27171 3.70202 3.49350
# Velocity P-wave (km/s) = 5.86367 6.47139 6.17501
#
# Compressibility (1/GPa) = 0.02511936
#
# Stress axis : x y z
#
# Youngs Moduli (GPa) = 83.80139 46.99088 80.41403
#
# Poissons Ratio (x) = 0.14340 0.36078
# Poissons Ratio (y) = 0.25573 0.21927
# Poissons Ratio (z) = 0.37598 0.12813
#
# Static dielectric constant tensor:
#      x y z
#    x 1.683910 0.000000 0.000000 
#    y 0.000000 1.766340 0.000000 
#    z 0.000000 0.000000 1.766570 
# 
# From -- ./inp_files/5418.got.cif
#   From: 2010.05.17/outbox.cif.g08.bks.cpg/sg26_3_cif.got.tgz:5418.got - 2010.06.04 01:07:29.
