data_PCOD9338654
_publ_section_title
;
Structure prediction by ZEFSAII (Michael W. Deem and Ramdas Pophale) SiO2 
 PCOD9338654
Probable space group: P M C 21
;
_chemical_formula_sum "Si O2"
_cell_formula_units_Z 20
_cell_length_a 15.045613
_cell_length_b 5.253316
_cell_length_c 10.514747
_cell_angle_alpha 90.000000
_cell_angle_beta 90.000000
_cell_angle_gamma 90.000000
_cell_volume 831.078868
_symmetry_space_group_name_H-M "P M C 21"
_symmetry_group_IT_number 26
_symmetry_cell_setting 'orthorhombic'
loop_
_space_group_symop_operation_xyz
x,y,z
-x,-y,1/2+z
-x,y,z
x,-y,1/2+z
loop_
_atom_site_type_symbol
_atom_site_label
_atom_site_fract_x
_atom_site_fract_y
_atom_site_fract_z
Si Si1 0.322939 0.439779 0.826140
Si Si2 0.757450 0.877097 0.120314
Si Si3 0.855828 0.524594 0.955453
Si Si4 0.095385 0.774628 0.703745
Si Si5 0.399048 0.953921 0.935210
O O1 0.277821 0.375732 0.691781
O O2 0.240175 0.410354 0.921885
O O3 0.390281 0.211826 0.855052
O O4 0.366260 0.712419 0.851816
O O5 0.669693 0.978652 0.051854
O O6 0.814499 0.057834 0.212437
O O7 0.830746 0.796567 0.016842
O O8 0.901771 0.576737 0.821148
O O9 0.900365 0.365267 0.067280
O O10 0.000000 0.914161 0.712563
O O11 0.500000 0.912735 0.976952
#
# Coordination Sequence:
#
# PCOD9338654 Si02
#       5
#     4   4   4   4   4
#     4  11  23  45  72 102 150 200 248 308 388 456
#     4  11  24  46  72 102 154 204 253 321 390 464
#     4  11  24  47  71 106 149 200 258 324 389 456
#     4  12  26  45  74 112 153 207 267 323 390 468
#     4  11  25  43  73 114 150 197 256 316 383 462
#
# _framework density 24.065104999999999
#
# number of rings (size 3 to 8) (size 9 to 14) (size 15 to 20)
#    0.000    0.800    4.000    3.600    0.000    3.200 
#    0.000    0.000    0.000    0.000    0.000    0.000 
#    0.000    0.000    0.000    0.000    0.000    0.000 
#
# Total GULP energy -111790.435347 kJ/mol
# GULP energy per Si atom -5589.521767 kJ/mol
# Density = 2.401033 g / cm^3
# Si number density = 24.065105 Si / 1000 Ang^3
#
#
#
# Elastic Constant Matrix: (Units=GPa)
#
#
# Indices 1 2 3 4 5 6 
#
# 1 150.0735 47.6913 10.6297 0.0000 0.0000 0.0000
# 2 47.6913 94.4549 26.0447 0.0000 0.0000 0.0000
# 3 10.6297 26.0447 94.4380 0.0000 0.0000 0.0000
# 4 0.0000 0.0000 0.0000 39.9801 0.0000 0.0000
# 5 0.0000 0.0000 0.0000 0.0000 49.2001 0.0000
# 6 0.0000 0.0000 0.0000 0.0000 0.0000 20.1023
#
#
#
# Elastic Compliance Matrix: (Units=1/GPa)
#
#
# Indices 1 2 3 4 5 6 
#
# 1 0.007941 -0.004073 0.000229 0.000000 0.000000 0.000000
# 2 -0.004073 0.013547 -0.003278 0.000000 0.000000 0.000000
# 3 0.000229 -0.003278 0.011467 0.000000 0.000000 0.000000
# 4 0.000000 0.000000 0.000000 0.025012 0.000000 0.000000
# 5 0.000000 0.000000 0.000000 0.000000 0.020325 0.000000
# 6 0.000000 0.000000 0.000000 0.000000 0.000000 0.049746
#
#
# Mechanical properties :
#
#
# Convention : Reuss Voigt Hill
#
# Bulk Modulus (GPa) = 53.43794 56.41085 54.92439
# Shear Modulus (GPa) = 33.66559 38.82988 36.24774
#
# Velocity S-wave (km/s) = 3.74430 4.02124 3.88524
# Velocity P-wave (km/s) = 6.39897 6.71210 6.55740
#
# Compressibility (1/GPa) = 0.01871330
#
# Stress axis : x y z
#
# Youngs Moduli (GPa) = 125.92088 73.81514 87.20610
#
# Poissons Ratio (x) = 0.30065 -0.02001
# Poissons Ratio (y) = 0.51288 0.28584
# Poissons Ratio (z) = -0.02889 0.24195
#
# Static dielectric constant tensor:
#      x y z
#    x 1.706790 0.000000 0.000000 
#    y 0.000000 1.988540 0.000000 
#    z 0.000000 0.000000 1.972820 
# 
# From -- ./inp_files/3473.got.cif
#   From: 2010.05.17/outbox.cif.g08.bks.cpg/sg26_2_cif.got.tgz:3473.got - 2010.06.04 01:07:29.
