data_PCOD9338364
_publ_section_title
;
Structure prediction by ZEFSAII (Michael W. Deem and Ramdas Pophale) SiO2 
 PCOD9338364
Probable space group: P M C 21
;
_chemical_formula_sum "Si O2"
_cell_formula_units_Z 24
_cell_length_a 11.075156
_cell_length_b 17.403472
_cell_length_c 5.292188
_cell_angle_alpha 90.000000
_cell_angle_beta 90.000000
_cell_angle_gamma 90.000000
_cell_volume 1020.048954
_symmetry_space_group_name_H-M "P M C 21"
_symmetry_group_IT_number 26
_symmetry_cell_setting 'orthorhombic'
loop_
_space_group_symop_operation_xyz
x,y,z
-x,-y,1/2+z
-x,y,z
x,-y,1/2+z
loop_
_atom_site_type_symbol
_atom_site_label
_atom_site_fract_x
_atom_site_fract_y
_atom_site_fract_z
Si Si1 0.367876 0.098341 0.384140
Si Si2 0.143842 0.537768 0.256891
Si Si3 0.166428 0.043251 0.078760
Si Si4 0.865279 0.310751 0.439886
Si Si5 0.209890 0.824057 0.266078
Si Si6 0.364144 0.734466 0.634080
O O1 0.500000 0.071824 0.454162
O O2 0.309332 0.053144 0.149685
O O3 0.274407 0.107637 0.612894
O O4 0.375434 0.187120 0.294910
O O5 0.193180 0.482995 0.032689
O O6 0.155468 0.623366 0.149528
O O7 0.000000 0.523520 0.280734
O O8 0.124853 0.009075 0.345838
O O9 0.140811 0.131507 0.991597
O O10 0.866253 0.228781 0.580826
O O11 0.749584 0.310571 0.254877
O O12 0.000000 0.324461 0.325109
O O13 0.314138 0.767651 0.370454
O O14 0.500000 0.700389 0.619661
#
# Coordination Sequence:
#
# PCOD9338364 Si02
#       6
#     4   4   4   4   4   4
#     4   9  18  33  51  78 114 157 207 257 315 380
#     4   9  19  36  60  93 133 171 209 263 333 394
#     4  11  21  36  52  78 116 161 209 264 324 382
#     4  10  22  38  64  99 131 168 220 278 325 385
#     4  10  20  36  60  88 124 169 215 269 322 392
#     4   9  19  35  58  88 126 172 212 259 323 393
#
# _framework density 23.528283999999999
#
# number of rings (size 3 to 8) (size 9 to 14) (size 15 to 20)
#    0.000    2.333    1.667    0.500    2.333    2.667 
#    0.000    0.000    0.000    2.000    0.000    0.000 
#    0.000    0.000    0.000    0.000    0.000    0.000 
#
# Total GULP energy -133754.700983 kJ/mol
# GULP energy per Si atom -5573.112541 kJ/mol
# Density = 2.347473 g / cm^3
# Si number density = 23.528284 Si / 1000 Ang^3
#
#
#
# Elastic Constant Matrix: (Units=GPa)
#
#
# Indices 1 2 3 4 5 6 
#
# 1 149.7471 30.9693 28.3131 0.0000 0.0000 0.0000
# 2 30.9693 81.6832 26.7654 0.0000 0.0000 0.0000
# 3 28.3131 26.7654 108.8543 0.0000 0.0000 0.0000
# 4 0.0000 0.0000 0.0000 46.0269 0.0000 0.0000
# 5 0.0000 0.0000 0.0000 0.0000 -8.8942 0.0000
# 6 0.0000 0.0000 0.0000 0.0000 0.0000 12.7907
#
#
#
# Elastic Compliance Matrix: (Units=1/GPa)
#
#
# Indices 1 2 3 4 5 6 
#
# 1 0.007423 -0.002373 -0.001347 0.000000 0.000000 0.000000
# 2 -0.002373 0.014074 -0.002843 0.000000 0.000000 0.000000
# 3 -0.001347 -0.002843 0.010236 0.000000 0.000000 0.000000
# 4 0.000000 0.000000 0.000000 0.021726 0.000000 0.000000
# 5 0.000000 0.000000 0.000000 0.000000 -0.112433 0.000000
# 6 0.000000 0.000000 0.000000 0.000000 0.000000 0.078182
#
#
# Mechanical properties :
#
#
# Convention : Reuss Voigt Hill
#
# Bulk Modulus (GPa) = 53.74590 56.93112 55.33851
# Shear Modulus (GPa) = 129.74231 26.93381 78.33806
#
# Velocity S-wave (km/s) = 7.43390 3.38707 5.77647
# Velocity P-wave (km/s) = 9.82733 6.28854 8.24992
#
# Compressibility (1/GPa) = 0.01860607
#
# Stress axis : x y z
#
# Youngs Moduli (GPa) = 134.70841 71.05402 97.69299
#
# Poissons Ratio (x) = 0.16861 0.13163
# Poissons Ratio (y) = 0.31967 0.27777
# Poissons Ratio (z) = 0.18150 0.20203
#
# Static dielectric constant tensor:
#      x y z
#    x 1.979490 0.000000 0.000000 
#    y 0.000000 1.916840 0.000000 
#    z 0.000000 0.000000 1.981470 
# 
# From -- ./inp_files/395.got.cif
#   From: 2010.05.17/outbox.cif.g08.bks.cpg/sg26_1_cif.got.tgz:395.got - 2010.06.04 01:07:29.
