data_PCOD9338380
_publ_section_title
;
Structure prediction by ZEFSAII (Michael W. Deem and Ramdas Pophale) SiO2 
 PCOD9338380
Probable space group: P M C 21
;
_chemical_formula_sum "Si O2"
_cell_formula_units_Z 30
_cell_length_a 12.272195
_cell_length_b 23.709348
_cell_length_c 5.273306
_cell_angle_alpha 90.000000
_cell_angle_beta 90.000000
_cell_angle_gamma 90.000000
_cell_volume 1534.351393
_symmetry_space_group_name_H-M "P M C 21"
_symmetry_group_IT_number 26
_symmetry_cell_setting 'orthorhombic'
loop_
_space_group_symop_operation_xyz
x,y,z
-x,-y,1/2+z
-x,y,z
x,-y,1/2+z
loop_
_atom_site_type_symbol
_atom_site_label
_atom_site_fract_x
_atom_site_fract_y
_atom_site_fract_z
Si Si1 0.874949 0.681843 0.607920
Si Si2 0.676242 0.223576 0.637440
Si Si3 0.743348 0.654509 0.108845
Si Si4 0.368909 0.534613 0.178635
Si Si5 0.628366 0.036589 0.702099
Si Si6 0.697112 0.133599 0.014274
Si Si7 0.500000 0.151229 0.326797
Si Si8 0.874397 0.807511 0.805269
O O1 0.828833 0.663786 0.336957
O O2 0.871891 0.749880 0.639559
O O3 0.000000 0.664248 0.638319
O O4 0.802164 0.657769 0.836737
O O5 0.665678 0.290528 0.629374
O O6 0.658921 0.194814 0.908862
O O7 0.594224 0.191642 0.454012
O O8 0.798908 0.208217 0.545549
O O9 0.682928 0.595858 0.146293
O O10 0.500000 0.540044 0.175516
O O11 0.337388 0.505188 0.442656
O O12 0.500000 0.054728 0.692481
O O13 0.649083 0.995259 0.940218
O O14 0.697549 0.091920 0.773630
O O15 0.597193 0.114308 0.188456
O O16 0.810220 0.143530 0.155641
O O17 0.000000 0.820026 0.865340
#
# Coordination Sequence:
#
# PCOD9338380 Si02
#       8
#     4   4   4   4   4   4   2   4
#     4  10  20  37  60  89 122 150 191 241 296 361
#     4  10  22  34  55  89 121 156 188 239 312 363
#     4  11  21  38  60  89 116 156 198 241 301 355
#     4  10  22  41  60  83 114 161 207 246 285 344
#     4  10  23  37  58  83 113 156 203 241 288 351
#     4  11  20  37  58  83 120 153 193 243 298 357
#     4  10  22  34  52  84 126 150 180 236 314 354
#     4   9  20  36  56  85 119 155 196 237 290 364
#
# _framework density 19.552235
#
# number of rings (size 3 to 8) (size 9 to 14) (size 15 to 20)
#    0.000    1.867    2.000    1.600    4.667    1.067 
#    0.000    0.000    0.000    8.800    0.000    0.000 
#    0.000    0.000    0.000    0.000    0.000    0.000 
#
# Total GULP energy -167058.112977 kJ/mol
# GULP energy per Si atom -5568.603766 kJ/mol
# Density = 1.950773 g / cm^3
# Si number density = 19.552235 Si / 1000 Ang^3
#
#
#
# Elastic Constant Matrix: (Units=GPa)
#
#
# Indices 1 2 3 4 5 6 
#
# 1 78.9178 23.6916 15.1826 0.0000 0.0000 0.0000
# 2 23.6916 55.7821 1.5800 0.0000 0.0000 0.0000
# 3 15.1826 1.5800 66.3796 0.0000 0.0000 0.0000
# 4 0.0000 0.0000 0.0000 30.5063 0.0000 0.0000
# 5 0.0000 0.0000 0.0000 0.0000 13.3664 0.0000
# 6 0.0000 0.0000 0.0000 0.0000 0.0000 14.3282
#
#
#
# Elastic Compliance Matrix: (Units=1/GPa)
#
#
# Indices 1 2 3 4 5 6 
#
# 1 0.015225 -0.006372 -0.003331 0.000000 0.000000 0.000000
# 2 -0.006372 0.020606 0.000967 0.000000 0.000000 0.000000
# 3 -0.003331 0.000967 0.015804 0.000000 0.000000 0.000000
# 4 0.000000 0.000000 0.000000 0.032780 0.000000 0.000000
# 5 0.000000 0.000000 0.000000 0.000000 0.074815 0.000000
# 6 0.000000 0.000000 0.000000 0.000000 0.000000 0.069792
#
#
# Mechanical properties :
#
#
# Convention : Reuss Voigt Hill
#
# Bulk Modulus (GPa) = 29.27134 31.33199 30.30167
# Shear Modulus (GPa) = 19.38881 22.34854 20.86867
#
# Velocity S-wave (km/s) = 3.15245 3.38452 3.27054
# Velocity P-wave (km/s) = 5.31544 5.59758 5.45833
#
# Compressibility (1/GPa) = 0.03416310
#
# Stress axis : x y z
#
# Youngs Moduli (GPa) = 65.68099 48.53005 63.27653
#
# Poissons Ratio (x) = 0.30923 0.21075
# Poissons Ratio (y) = 0.41852 -0.06119
# Poissons Ratio (z) = 0.21876 -0.04693
#
# Static dielectric constant tensor:
#      x y z
#    x 1.664640 0.000000 0.000000 
#    y 0.000000 1.731540 0.000000 
#    z 0.000000 0.000000 1.785780 
# 
# From -- ./inp_files/471.got.cif
#   From: 2010.05.17/outbox.cif.g08.bks.cpg/sg26_1_cif.got.tgz:471.got - 2010.06.04 01:07:29.
