data_PCOD9338797
_publ_section_title
;
Structure prediction by ZEFSAII (Michael W. Deem and Ramdas Pophale) SiO2 
 PCOD9338797
Probable space group: P C C 2
;
_chemical_formula_sum "Si O2"
_cell_formula_units_Z 18
_cell_length_a 7.659690
_cell_length_b 7.900522
_cell_length_c 17.352526
_cell_angle_alpha 90.000000
_cell_angle_beta 90.000000
_cell_angle_gamma 90.000000
_cell_volume 1050.097644
_symmetry_space_group_name_H-M "P C C 2"
_symmetry_group_IT_number 27
_symmetry_cell_setting 'orthorhombic'
loop_
_space_group_symop_operation_xyz
x,y,z
-x,-y,z
-x,y,1/2+z
x,-y,1/2+z
loop_
_atom_site_type_symbol
_atom_site_label
_atom_site_fract_x
_atom_site_fract_y
_atom_site_fract_z
Si Si1 0.706808 1.000000 0.236180
Si Si2 0.000000 0.000000 0.863507
Si Si3 1.000000 0.192977 0.013334
Si Si4 0.703456 0.691681 0.620551
Si Si5 0.703456 0.691681 0.120551
O O1 0.743035 0.166277 0.184325
O O2 0.500000 0.000000 0.255069
O O3 0.830628 0.000000 0.309868
O O4 0.743035 0.833722 0.184325
O O5 0.000000 0.839612 0.922022
O O6 0.170136 0.280636 0.048160
O O7 0.829864 0.280636 0.048159
O O8 0.000000 0.000000 0.044823
O O9 0.500000 0.712962 0.598959
O O10 0.727470 0.500000 0.649801
#
# Coordination Sequence:
#
# PCOD9338797 Si02
#       5
#     4   2   4   4   4
#     4  10  19  35  57  79 109 140 176 224 266 316
#     4  10  22  34  52  80 110 150 178 200 274 330
#     4  10  20  34  54  79 111 141 177 215 264 318
#     4  10  20  36  60  83 103 137 184 229 268 308
#     4  10  20  36  60  83 103 137 184 229 268 308
#
# _framework density 17.141262999999999
#
# number of rings (size 3 to 8) (size 9 to 14) (size 15 to 20)
#    0.667    1.333    2.222    2.000    0.000    1.778 
#    0.000    4.444    0.000    5.333    0.000    0.000 
#    0.000    0.000    0.000    0.000    0.000    0.000 
#
# Total GULP energy -100282.000809 kJ/mol
# GULP energy per Si atom -5571.222267 kJ/mol
# Density = 1.710225 g / cm^3
# Si number density = 17.141263 Si / 1000 Ang^3
#
#
#
# Elastic Constant Matrix: (Units=GPa)
#
#
# Indices 1 2 3 4 5 6 
#
# 1 93.3619 48.3843 88.6935 0.0000 0.0000 0.0000
# 2 48.3843 122.6241 53.7949 0.0000 0.0000 0.0000
# 3 88.6935 53.7949 132.0371 0.0000 0.0000 0.0000
# 4 0.0000 0.0000 0.0000 7.7104 0.0000 0.0000
# 5 0.0000 0.0000 0.0000 0.0000 6.4025 0.0000
# 6 0.0000 0.0000 0.0000 0.0000 0.0000 21.0850
#
#
#
# Elastic Compliance Matrix: (Units=1/GPa)
#
#
# Indices 1 2 3 4 5 6 
#
# 1 0.030966 -0.003766 -0.019266 0.000000 0.000000 0.000000
# 2 -0.003766 0.010388 -0.001702 0.000000 0.000000 0.000000
# 3 -0.019266 -0.001702 0.021209 0.000000 0.000000 0.000000
# 4 0.000000 0.000000 0.000000 0.129695 0.000000 0.000000
# 5 0.000000 0.000000 0.000000 0.000000 0.156188 0.000000
# 6 0.000000 0.000000 0.000000 0.000000 0.000000 0.047427
#
#
# Mechanical properties :
#
#
# Convention : Reuss Voigt Hill
#
# Bulk Modulus (GPa) = 76.37711 81.08538 78.73124
# Shear Modulus (GPa) = 11.11837 17.51628 14.31732
#
# Velocity S-wave (km/s) = 2.54959 3.20015 2.89321
# Velocity P-wave (km/s) = 7.30215 7.81419 7.56250
#
# Compressibility (1/GPa) = 0.01309293
#
# Stress axis : x y z
#
# Youngs Moduli (GPa) = 32.29391 96.26606 47.15010
#
# Poissons Ratio (x) = 0.36256 0.90840
# Poissons Ratio (y) = 0.12163 0.08027
# Poissons Ratio (z) = 0.62218 0.16388
#
# Static dielectric constant tensor:
#      x y z
#    x 1.588910 0.000000 0.000000 
#    y 0.000000 1.606980 0.000000 
#    z 0.000000 0.000000 1.538140 
# 
# From -- ./inp_files/4201.got.cif
#   From: 2010.05.17/outbox.cif.g08.bks.cpg/sg27_3_cif.got.tgz:4201.got - 2010.06.04 01:11:05.
