data_PCOD9338133
_publ_section_title
;
Structure prediction by ZEFSAII (Michael W. Deem and Ramdas Pophale) SiO2 
 PCOD9338133
Probable space group: P M C 21
;
_chemical_formula_sum "Si O2"
_cell_formula_units_Z 32
_cell_length_a 9.706596
_cell_length_b 8.068171
_cell_length_c 19.808797
_cell_angle_alpha 90.000000
_cell_angle_beta 90.000000
_cell_angle_gamma 90.000000
_cell_volume 1551.315564
_symmetry_space_group_name_H-M "P M C 21"
_symmetry_group_IT_number 26
_symmetry_cell_setting 'orthorhombic'
loop_
_space_group_symop_operation_xyz
x,y,z
-x,-y,1/2+z
-x,y,z
x,-y,1/2+z
loop_
_atom_site_type_symbol
_atom_site_label
_atom_site_fract_x
_atom_site_fract_y
_atom_site_fract_z
Si Si1 0.664810 0.707494 0.814540
Si Si2 0.666446 0.738599 0.655893
Si Si3 0.353788 0.797415 0.260790
Si Si4 0.149959 0.002002 0.825218
Si Si5 0.653449 0.594508 0.399169
Si Si6 0.658818 0.627656 0.121254
Si Si7 0.165392 0.044814 0.590803
Si Si8 0.148480 0.816407 0.466549
O O1 0.500000 0.701437 0.819025
O O2 0.698336 0.705047 0.735017
O O3 0.731566 0.873174 0.841842
O O4 0.720526 0.562438 0.862437
O O5 0.500000 0.764738 0.649412
O O6 0.700011 0.566048 0.616552
O O7 0.751438 0.900010 0.631712
O O8 0.500000 0.892632 0.250817
O O9 0.360423 0.716987 0.334632
O O10 0.349078 0.663942 0.202011
O O11 0.213136 0.898957 0.262107
O O12 0.000000 0.929410 0.810211
O O13 0.136625 0.116523 0.890413
O O14 0.500000 0.554391 0.423131
O O15 0.736926 0.677063 0.459218
O O16 0.500000 0.647915 0.096109
O O17 0.758507 0.776201 0.096011
O O18 0.177557 0.970136 0.515118
O O19 0.000000 0.054457 0.606695
O O20 0.000000 0.746636 0.487786
#
# Coordination Sequence:
#
# PCOD9338133 Si02
#       8
#     4   4   4   4   4   4   4   4
#     4  10  19  34  55  85 118 143 174 227 292 348
#     4  10  21  39  62  89 122 155 191 238 294 353
#     4   9  16  31  54  79 106 138 173 218 279 336
#     4  10  20  33  52  79 109 145 185 226 276 338
#     4   9  17  32  57  82 106 137 177 224 275 333
#     4  10  20  37  61  86 114 151 192 236 289 346
#     4  11  24  41  59  82 116 159 202 243 289 342
#     4   9  21  41  56  72 107 152 192 230 280 336
#
# _framework density 20.627652999999999
#
# number of rings (size 3 to 8) (size 9 to 14) (size 15 to 20)
#    0.000    2.250    1.250    1.500    0.000    6.500 
#    2.250    0.000    0.000    0.000    0.000    0.000 
#    0.000    0.000    0.000    0.000    0.000    0.000 
#
# Total GULP energy -178146.143069 kJ/mol
# GULP energy per Si atom -5567.066971 kJ/mol
# Density = 2.058070 g / cm^3
# Si number density = 20.627653 Si / 1000 Ang^3
#
#
#
# Elastic Constant Matrix: (Units=GPa)
#
#
# Indices 1 2 3 4 5 6 
#
# 1 33.3679 16.6784 18.3627 0.0000 0.0000 0.0000
# 2 16.6784 66.1513 -2.3299 0.0000 0.0000 0.0000
# 3 18.3627 -2.3299 33.9664 0.0000 0.0000 0.0000
# 4 0.0000 0.0000 0.0000 24.2800 0.0000 0.0000
# 5 0.0000 0.0000 0.0000 0.0000 22.3170 0.0000
# 6 0.0000 0.0000 0.0000 0.0000 0.0000 -81.3699
#
#
#
# Elastic Compliance Matrix: (Units=1/GPa)
#
#
# Indices 1 2 3 4 5 6 
#
# 1 0.053865 -0.014642 -0.030125 0.000000 0.000000 0.000000
# 2 -0.014642 0.019133 0.009228 0.000000 0.000000 0.000000
# 3 -0.030125 0.009228 0.046360 0.000000 0.000000 0.000000
# 4 0.000000 0.000000 0.000000 0.041186 0.000000 0.000000
# 5 0.000000 0.000000 0.000000 0.000000 0.044809 0.000000
# 6 0.000000 0.000000 0.000000 0.000000 0.000000 -0.012290
#
#
# Mechanical properties :
#
#
# Convention : Reuss Voigt Hill
#
# Bulk Modulus (GPa) = 20.71187 22.10088 21.40638
# Shear Modulus (GPa) = 17.84217 -0.23629 8.80294
#
# Velocity S-wave (km/s) = 2.94422 -0.33882 2.06804
# Velocity P-wave (km/s) = 4.64979 3.25337 4.01279
#
# Compressibility (1/GPa) = 0.04828149
#
# Stress axis : x y z
#
# Youngs Moduli (GPa) = 18.56480 52.26453 21.57044
#
# Poissons Ratio (x) = 0.76525 0.64980
# Poissons Ratio (y) = 0.27182 -0.19905
# Poissons Ratio (z) = 0.55926 -0.48230
#
# Static dielectric constant tensor:
#      x y z
#    x 1.781550 0.000000 0.000000 
#    y 0.000000 1.785190 0.000000 
#    z 0.000000 0.000000 1.749370 
# 
# From -- ./inp_files/5558.got.cif
#   From: 2010.05.17/outbox.cif.g08.bks.cpg/sg26_3_cif.got.tgz:5558.got - 2010.06.04 01:07:29.
