data_PCOD9338897
_publ_section_title
;
Structure prediction by ZEFSAII (Michael W. Deem and Ramdas Pophale) SiO2 
 PCOD9338897
Probable space group: P C C 2
;
_chemical_formula_sum "Si O2"
_cell_formula_units_Z 20
_cell_length_a 8.151718
_cell_length_b 11.093408
_cell_length_c 9.143852
_cell_angle_alpha 90.000000
_cell_angle_beta 90.000000
_cell_angle_gamma 90.000000
_cell_volume 826.881587
_symmetry_space_group_name_H-M "P C C 2"
_symmetry_group_IT_number 27
_symmetry_cell_setting 'orthorhombic'
loop_
_space_group_symop_operation_xyz
x,y,z
-x,-y,z
-x,y,1/2+z
x,-y,1/2+z
loop_
_atom_site_type_symbol
_atom_site_label
_atom_site_fract_x
_atom_site_fract_y
_atom_site_fract_z
Si Si1 0.578557 0.659710 0.079960
Si Si2 0.139219 0.916315 0.977400
Si Si3 0.662630 0.080580 0.692181
Si Si4 0.819032 0.338357 0.070469
Si Si5 0.248858 0.511774 0.323475
O O1 0.640345 0.794886 0.105712
O O2 0.381020 0.672125 0.079900
O O3 0.650198 0.574789 0.210259
O O4 0.641061 0.597592 0.930031
O O5 0.274056 0.890779 0.853955
O O6 0.092742 0.787603 0.044110
O O7 0.000000 0.000000 0.908775
O O8 0.211704 0.997401 0.105564
O O9 0.500000 0.000000 0.702413
O O10 0.860078 0.402469 0.221657
O O11 0.844578 0.425263 0.934433
#
# Coordination Sequence:
#
# PCOD9338897 Si02
#       5
#     4   4   4   4   4
#     4  11  20  37  65 108 145 177 232 302 353 426
#     4  12  28  47  68 101 149 200 240 299 372 433
#     4  12  26  45  73 105 138 191 254 303 353 429
#     4  11  20  37  65 103 144 181 235 289 365 428
#     4  10  21  35  65 110 149 180 225 303 369 422
#
# _framework density 24.187259999999998
#
# number of rings (size 3 to 8) (size 9 to 14) (size 15 to 20)
#    0.000    0.800    4.000    6.000    2.800    0.000 
#    0.000    0.000    0.000    7.200    0.000    0.000 
#    0.000    0.000    0.000    0.000    0.000    0.000 
#
# Total GULP energy -112068.029650 kJ/mol
# GULP energy per Si atom -5603.401482 kJ/mol
# Density = 2.413221 g / cm^3
# Si number density = 24.187260 Si / 1000 Ang^3
#
#
#
# Elastic Constant Matrix: (Units=GPa)
#
#
# Indices 1 2 3 4 5 6 
#
# 1 55.9902 33.4710 21.1535 0.0000 0.0000 0.0000
# 2 33.4710 198.1497 58.9309 0.0000 0.0000 0.0000
# 3 21.1535 58.9309 153.4758 0.0000 0.0000 0.0000
# 4 0.0000 0.0000 0.0000 26.8151 0.0000 0.0000
# 5 0.0000 0.0000 0.0000 0.0000-2848.2689 0.0000
# 6 0.0000 0.0000 0.0000 0.0000 0.0000 27.2727
#
#
#
# Elastic Compliance Matrix: (Units=1/GPa)
#
#
# Indices 1 2 3 4 5 6 
#
# 1 0.020237 -0.002923 -0.001667 0.000000 0.000000 0.000000
# 2 -0.002923 0.006119 -0.001947 0.000000 0.000000 0.000000
# 3 -0.001667 -0.001947 0.007493 0.000000 0.000000 0.000000
# 4 0.000000 0.000000 0.000000 0.037292 0.000000 0.000000
# 5 0.000000 0.000000 0.000000 0.000000 -0.000351 0.000000
# 6 0.000000 0.000000 0.000000 0.000000 0.000000 0.036667
#
#
# Mechanical properties :
#
#
# Convention : Reuss Voigt Hill
#
# Bulk Modulus (GPa) = 48.13131 70.52516 59.32823
# Shear Modulus (GPa) = 39.22910 -539.23221 -250.00155
#
# Velocity S-wave (km/s) = 4.03164 -14.94739 -10.17768
# Velocity P-wave (km/s) = 6.45095 16.39141 10.65512
#
# Compressibility (1/GPa) = 0.02077650
#
# Stress axis : x y z
#
# Youngs Moduli (GPa) = 49.41383 163.41520 133.45779
#
# Poissons Ratio (x) = 0.47760 0.22248
# Poissons Ratio (y) = 0.14442 0.25982
# Poissons Ratio (z) = 0.08238 0.31815
#
# Static dielectric constant tensor:
#      x y z
#    x 10.736860 0.000000 0.000000 
#    y 0.000000 1.931880 0.000000 
#    z 0.000000 0.000000 1.874490 
# 
# From -- ./inp_files/1059.got.cif
#   From: 2010.05.17/outbox.cif.g08.bks.cpg/sg27_1_cif.got.tgz:1059.got - 2010.06.04 01:11:05.
