data_PCOD9338251
_publ_section_title
;
Structure prediction by ZEFSAII (Michael W. Deem and Ramdas Pophale) SiO2 
 PCOD9338251
Probable space group: P M C 21
;
_chemical_formula_sum "Si O2"
_cell_formula_units_Z 32
_cell_length_a 7.640383
_cell_length_b 12.844674
_cell_length_c 12.875473
_cell_angle_alpha 90.000000
_cell_angle_beta 90.000000
_cell_angle_gamma 90.000000
_cell_volume 1263.576116
_symmetry_space_group_name_H-M "P M C 21"
_symmetry_group_IT_number 26
_symmetry_cell_setting 'orthorhombic'
loop_
_space_group_symop_operation_xyz
x,y,z
-x,-y,1/2+z
-x,y,z
x,-y,1/2+z
loop_
_atom_site_type_symbol
_atom_site_label
_atom_site_fract_x
_atom_site_fract_y
_atom_site_fract_z
Si Si1 0.285915 0.158498 0.190200
Si Si2 0.797467 0.112700 0.508454
Si Si3 0.800142 0.611348 0.258137
Si Si4 0.713734 0.070689 0.742636
Si Si5 0.698937 0.884406 0.460524
Si Si6 0.792991 0.668926 0.033077
Si Si7 0.712192 0.381374 0.201232
Si Si8 0.296693 0.442651 0.974144
O O1 0.500000 0.158731 0.186535
O O2 0.229882 0.267897 0.238393
O O3 0.235108 0.051580 0.245216
O O4 0.223057 0.151774 0.069951
O O5 0.785867 0.112162 0.634350
O O6 0.695805 0.010563 0.472569
O O7 0.722841 0.226307 0.480210
O O8 0.000000 0.099650 0.476899
O O9 0.718259 0.652038 0.150351
O O10 0.789244 0.485657 0.248303
O O11 0.726819 0.627237 0.372730
O O12 0.000000 0.644152 0.259601
O O13 0.500000 0.076086 0.739694
O O14 0.775978 0.129849 0.845798
O O15 0.500000 0.844093 0.458382
O O16 0.777762 0.559822 0.973784
O O17 0.000000 0.688205 0.044170
O O18 0.500000 0.388435 0.211991
O O19 0.762824 0.388142 0.079546
O O20 0.500000 0.461200 0.986610
#
# Coordination Sequence:
#
# PCOD9338251 Si02
#       8
#     4   4   4   4   4   4   4   4
#     4   8  15  30  50  72 100 130 161 201 246 290
#     4  10  20  34  52  75 103 133 169 212 251 292
#     4  10  20  35  53  72 100 134 164 201 251 307
#     4   9  18  33  53  75 101 134 168 202 246 301
#     4   9  18  33  52  75 102 134 170 204 247 301
#     4   9  20  37  53  72 102 139 172 203 248 303
#     4   9  18  33  51  72  99 130 167 210 248 287
#     4  10  20  33  52  77 101 128 167 213 253 291
#
# _framework density 25.324947000000002
#
# number of rings (size 3 to 8) (size 9 to 14) (size 15 to 20)
#    0.000    2.750    0.000    1.875    0.000    4.500 
#    0.000    5.000    0.000    0.000    0.000    0.000 
#    0.000    0.000    0.000    0.000    0.000    0.000 
#
# Total GULP energy -178742.674308 kJ/mol
# GULP energy per Si atom -5585.708572 kJ/mol
# Density = 2.526731 g / cm^3
# Si number density = 25.324947 Si / 1000 Ang^3
#
#
#
# Elastic Constant Matrix: (Units=GPa)
#
#
# Indices 1 2 3 4 5 6 
#
# 1 56.1055 3.4000 -6.5343 0.0000 0.0000 0.0000
# 2 3.4000 115.3865 -26.1384 0.0000 0.0000 0.0000
# 3 -6.5343 -26.1384 93.0994 0.0000 0.0000 0.0000
# 4 0.0000 0.0000 0.0000 -14.9683 0.0000 0.0000
# 5 0.0000 0.0000 0.0000 0.0000 20.4410 0.0000
# 6 0.0000 0.0000 0.0000 0.0000 0.0000 14.8153
#
#
#
# Elastic Compliance Matrix: (Units=1/GPa)
#
#
# Indices 1 2 3 4 5 6 
#
# 1 0.017978 -0.000260 0.001189 0.000000 0.000000 0.000000
# 2 -0.000260 0.009259 0.002581 0.000000 0.000000 0.000000
# 3 0.001189 0.002581 0.011549 0.000000 0.000000 0.000000
# 4 0.000000 0.000000 0.000000 -0.066808 0.000000 0.000000
# 5 0.000000 0.000000 0.000000 0.000000 0.048921 0.000000
# 6 0.000000 0.000000 0.000000 0.000000 0.000000 0.067498
#
#
# Mechanical properties :
#
#
# Convention : Reuss Voigt Hill
#
# Bulk Modulus (GPa) = 21.83173 22.89401 22.36287
# Shear Modulus (GPa) = 51.73491 23.64855 37.69173
#
# Velocity S-wave (km/s) = 4.52469 3.05914 3.86207
# Velocity P-wave (km/s) = 5.99470 4.64085 5.36068
#
# Compressibility (1/GPa) = 0.04580489
#
# Stress axis : x y z
#
# Youngs Moduli (GPa) = 55.62422 108.00393 86.58502
#
# Poissons Ratio (x) = 0.02813 -0.10292
# Poissons Ratio (y) = 0.01449 -0.22350
# Poissons Ratio (z) = -0.06612 -0.27878
#
# Static dielectric constant tensor:
#      x y z
#    x 1.914670 0.000000 0.000000 
#    y 0.000000 2.031020 0.000000 
#    z 0.000000 0.000000 2.025350 
# 
# From -- ./inp_files/4338.got.cif
#   From: 2010.05.17/outbox.cif.g08.bks.cpg/sg26_3_cif.got.tgz:4338.got - 2010.06.04 01:07:29.
