data_PCOD9338166
_publ_section_title
;
Structure prediction by ZEFSAII (Michael W. Deem and Ramdas Pophale) SiO2 
 PCOD9338166
Probable space group: P M C 21
;
_chemical_formula_sum "Si O2"
_cell_formula_units_Z 32
_cell_length_a 11.664070
_cell_length_b 14.393761
_cell_length_c 9.779395
_cell_angle_alpha 90.000000
_cell_angle_beta 90.000000
_cell_angle_gamma 90.000000
_cell_volume 1641.861021
_symmetry_space_group_name_H-M "P M C 21"
_symmetry_group_IT_number 26
_symmetry_cell_setting 'orthorhombic'
loop_
_space_group_symop_operation_xyz
x,y,z
-x,-y,1/2+z
-x,y,z
x,-y,1/2+z
loop_
_atom_site_type_symbol
_atom_site_label
_atom_site_fract_x
_atom_site_fract_y
_atom_site_fract_z
Si Si1 0.868268 0.186417 0.156940
Si Si2 0.634113 0.901349 0.011580
Si Si3 0.873418 0.832173 0.338158
Si Si4 0.365302 0.426909 0.458565
Si Si5 0.628771 0.631646 0.410474
Si Si6 0.744109 0.987448 0.746073
Si Si7 0.738782 0.279792 0.653222
Si Si8 0.370918 0.283377 0.212046
O O1 0.845986 0.077829 0.190187
O O2 0.753907 0.233443 0.221897
O O3 0.000000 0.211807 0.198884
O O4 0.860117 0.203285 0.993395
O O5 0.500000 0.886558 0.011450
O O6 0.690796 0.805538 0.063654
O O7 0.666675 0.982348 0.118476
O O8 0.677974 0.933197 0.864459
O O9 0.857539 0.756048 0.218106
O O10 0.000000 0.872307 0.329594
O O11 0.787468 0.916086 0.309659
O O12 0.500000 0.431873 0.508422
O O13 0.317615 0.529499 0.427529
O O14 0.285582 0.371652 0.565479
O O15 0.368396 0.366562 0.320832
O O16 0.500000 0.609658 0.366521
O O17 0.674289 0.700671 0.296005
O O18 0.627797 0.678634 0.557959
O O19 0.500000 0.237660 0.231652
#
# Coordination Sequence:
#
# PCOD9338166 Si02
#       8
#     4   4   4   4   4   4   4   4
#     4  11  22  40  63  86 118 160 202 248 298 356
#     4  11  23  37  58  87 128 163 198 254 313 366
#     4  10  22  41  61  83 114 154 204 253 299 354
#     4  10  20  35  58  88 124 155 191 251 306 360
#     4  10  19  34  59  87 118 158 200 240 300 369
#     4  11  22  41  59  89 114 159 212 248 300 354
#     4  11  21  37  58  86 117 156 202 248 307 359
#     4  10  21  37  58  90 122 155 196 246 302 356
#
# _framework density 19.490079000000001
#
# number of rings (size 3 to 8) (size 9 to 14) (size 15 to 20)
#    0.000    1.500    2.500    3.375    0.000    4.000 
#    0.000    3.750    0.000    4.500    0.000    0.000 
#    0.000    0.000    0.000    0.000    0.000    0.000 
#
# Total GULP energy -178246.848713 kJ/mol
# GULP energy per Si atom -5570.214022 kJ/mol
# Density = 1.944572 g / cm^3
# Si number density = 19.490079 Si / 1000 Ang^3
#
#
#
# Elastic Constant Matrix: (Units=GPa)
#
#
# Indices 1 2 3 4 5 6 
#
# 1 70.8305 12.1364 2.6382 0.0000 0.0000 0.0000
# 2 12.1364 50.2261 -0.9310 0.0000 0.0000 0.0000
# 3 2.6382 -0.9310 62.1524 0.0000 0.0000 0.0000
# 4 0.0000 0.0000 0.0000 21.1505 0.0000 0.0000
# 5 0.0000 0.0000 0.0000 0.0000 1.3640 0.0000
# 6 0.0000 0.0000 0.0000 0.0000 0.0000 106.6677
#
#
#
# Elastic Compliance Matrix: (Units=1/GPa)
#
#
# Indices 1 2 3 4 5 6 
#
# 1 0.014757 -0.003578 -0.000680 0.000000 0.000000 0.000000
# 2 -0.003578 0.020783 0.000463 0.000000 0.000000 0.000000
# 3 -0.000680 0.000463 0.016125 0.000000 0.000000 0.000000
# 4 0.000000 0.000000 0.000000 0.047280 0.000000 0.000000
# 5 0.000000 0.000000 0.000000 0.000000 0.733126 0.000000
# 6 0.000000 0.000000 0.000000 0.000000 0.000000 0.009375
#
#
# Mechanical properties :
#
#
# Convention : Reuss Voigt Hill
#
# Bulk Modulus (GPa) = 22.68863 23.43291 23.06077
# Shear Modulus (GPa) = 5.78886 37.12748 21.45817
#
# Velocity S-wave (km/s) = 1.72528 4.36930 3.32170
# Velocity P-wave (km/s) = 3.95414 6.12401 5.15454
#
# Compressibility (1/GPa) = 0.04407494
#
# Stress axis : x y z
#
# Youngs Moduli (GPa) = 67.76595 48.11579 62.01437
#
# Poissons Ratio (x) = 0.17218 0.04217
# Poissons Ratio (y) = 0.24249 -0.02873
# Poissons Ratio (z) = 0.04608 -0.02229
#
# Static dielectric constant tensor:
#      x y z
#    x 1.694640 0.000000 0.000000 
#    y 0.000000 1.739770 0.000000 
#    z 0.000000 0.000000 1.686730 
# 
# From -- ./inp_files/1967.got.cif
#   From: 2010.05.17/outbox.cif.g08.bks.cpg/sg26_1_cif.got.tgz:1967.got - 2010.06.04 01:07:29.
