data_PCOD9338636
_publ_section_title
;
Structure prediction by ZEFSAII (Michael W. Deem and Ramdas Pophale) SiO2 
 PCOD9338636
Probable space group: P M C 21
;
_chemical_formula_sum "Si O2"
_cell_formula_units_Z 32
_cell_length_a 9.070886
_cell_length_b 7.141727
_cell_length_c 28.965701
_cell_angle_alpha 90.000000
_cell_angle_beta 90.000000
_cell_angle_gamma 90.000000
_cell_volume 1876.450002
_symmetry_space_group_name_H-M "P M C 21"
_symmetry_group_IT_number 26
_symmetry_cell_setting 'orthorhombic'
loop_
_space_group_symop_operation_xyz
x,y,z
-x,-y,1/2+z
-x,y,z
x,-y,1/2+z
loop_
_atom_site_type_symbol
_atom_site_label
_atom_site_fract_x
_atom_site_fract_y
_atom_site_fract_z
Si Si1 0.324502 0.704558 0.869650
Si Si2 0.823889 0.979368 0.547331
Si Si3 0.176111 0.020660 0.440364
Si Si4 0.176429 0.022003 0.189911
Si Si5 0.324502 0.704582 0.618043
Si Si6 0.825259 0.304334 0.619768
Si Si7 0.176429 0.977975 0.797784
Si Si8 0.825259 0.304310 0.867929
O O1 0.500000 0.710874 0.869582
O O2 0.260724 0.814748 0.914021
O O3 0.266013 0.493364 0.869082
O O4 0.260286 0.816963 0.825667
O O5 0.784172 0.000020 0.493848
O O6 0.796202 0.170192 0.575834
O O7 0.000000 0.942681 0.550476
O O8 0.739276 0.814768 0.573672
O O9 0.000000 0.057346 0.437219
O O10 0.203798 0.829827 0.411864
O O11 0.208048 0.825978 0.164114
O O12 0.212765 0.017408 0.243848
O O13 0.000000 0.053429 0.184999
O O14 0.260286 0.183007 0.162026
O O15 0.500000 0.710898 0.618111
O O16 0.266012 0.493389 0.618614
O O17 0.000000 0.348452 0.620343
O O18 0.208047 0.173992 0.823585
O O19 0.000000 0.946545 0.802695
O O20 0.000000 0.348428 0.867355
#
# Coordination Sequence:
#
# PCOD9338636 Si02
#       8
#     4   4   4   4   4   4   4   4
#     4  11  22  34  51  78 112 143 169 206 260 317
#     4   9  19  37  59  79 100 133 179 224 260 299
#     4   9  19  37  59  79 100 133 179 224 260 299
#     4   9  19  37  59  79 100 133 179 224 260 299
#     4  11  22  34  51  78 112 143 169 206 260 317
#     4   9  18  34  55  78 104 135 174 216 256 303
#     4   9  19  37  59  79 100 133 179 224 260 299
#     4   9  18  34  55  78 104 135 174 216 256 303
#
# _framework density 17.053478999999999
#
# number of rings (size 3 to 8) (size 9 to 14) (size 15 to 20)
#    0.000    2.500    0.000    3.750    0.000    7.000 
#    0.000    7.500    0.000    0.000    0.000    0.000 
#    0.000    0.000    0.000    0.000    0.000    0.000 
#
# Total GULP energy -178568.561809 kJ/mol
# GULP energy per Si atom -5580.267557 kJ/mol
# Density = 1.701466 g / cm^3
# Si number density = 17.053479 Si / 1000 Ang^3
#
#
#
# Elastic Constant Matrix: (Units=GPa)
#
#
# Indices 1 2 3 4 5 6 
#
# 1 73.9911 82.0866 68.6793 0.0000 0.0000 0.0000
# 2 82.0866 137.8422 77.7502 0.0000 0.0000 0.0000
# 3 68.6793 77.7502 170.2750 0.0000 0.0000 0.0000
# 4 0.0000 0.0000 0.0000 3.8716 0.0000 0.0000
# 5 0.0000 0.0000 0.0000 0.0000 13.9730 0.0000
# 6 0.0000 0.0000 0.0000 0.0000 0.0000 -27.1457
#
#
#
# Elastic Compliance Matrix: (Units=1/GPa)
#
#
# Indices 1 2 3 4 5 6 
#
# 1 0.047290 -0.023440 -0.008371 0.000000 0.000000 0.000000
# 2 -0.023440 0.021390 -0.000313 0.000000 0.000000 0.000000
# 3 -0.008371 -0.000313 0.009392 0.000000 0.000000 0.000000
# 4 0.000000 0.000000 0.000000 0.258290 0.000000 0.000000
# 5 0.000000 0.000000 0.000000 0.000000 0.071567 0.000000
# 6 0.000000 0.000000 0.000000 0.000000 0.000000 -0.036838
#
#
# Mechanical properties :
#
#
# Convention : Reuss Voigt Hill
#
# Bulk Modulus (GPa) = 72.33527 93.23781 82.78654
# Shear Modulus (GPa) = 11.36505 8.37926 9.87216
#
# Velocity S-wave (km/s) = 2.58434 2.21905 2.40863
# Velocity P-wave (km/s) = 7.17035 7.83314 7.50906
#
# Compressibility (1/GPa) = 0.01382451
#
# Stress axis : x y z
#
# Youngs Moduli (GPa) = 21.14628 46.75149 106.47439
#
# Poissons Ratio (x) = 1.09585 0.89129
# Poissons Ratio (y) = 0.49567 0.03328
# Poissons Ratio (z) = 0.17701 0.01461
#
# Static dielectric constant tensor:
#      x y z
#    x 1.561710 0.000000 0.000000 
#    y 0.000000 1.545360 0.000000 
#    z 0.000000 0.000000 1.569750 
# 
# From -- ./inp_files/5667.got.cif
#   From: 2010.05.17/outbox.cif.g08.bks.cpg/sg26_3_cif.got.tgz:5667.got - 2010.06.04 01:07:29.
