data_PCOD9338369
_publ_section_title
;
Structure prediction by ZEFSAII (Michael W. Deem and Ramdas Pophale) SiO2 
 PCOD9338369
Probable space group: P M C 21
;
_chemical_formula_sum "Si O2"
_cell_formula_units_Z 30
_cell_length_a 12.310743
_cell_length_b 13.013183
_cell_length_c 10.106274
_cell_angle_alpha 90.000000
_cell_angle_beta 90.000000
_cell_angle_gamma 90.000000
_cell_volume 1619.044817
_symmetry_space_group_name_H-M "P M C 21"
_symmetry_group_IT_number 26
_symmetry_cell_setting 'orthorhombic'
loop_
_space_group_symop_operation_xyz
x,y,z
-x,-y,1/2+z
-x,y,z
x,-y,1/2+z
loop_
_atom_site_type_symbol
_atom_site_label
_atom_site_fract_x
_atom_site_fract_y
_atom_site_fract_z
Si Si1 0.626127 0.292768 0.157230
Si Si2 0.126147 0.413664 0.750753
Si Si3 0.375427 0.069215 0.032626
Si Si4 0.243322 0.003965 0.775931
Si Si5 0.803458 0.433408 0.038276
Si Si6 0.000000 0.672028 0.692391
Si Si7 0.875070 0.808616 0.142989
Si Si8 0.194745 0.777423 0.852040
O O1 0.500000 0.315487 0.182139
O O2 0.631961 0.189993 0.067090
O O3 0.691620 0.381092 0.081432
O O4 0.693986 0.266866 0.290080
O O5 0.177537 0.463563 0.621242
O O6 0.129279 0.291565 0.735969
O O7 0.000000 0.451336 0.755892
O O8 0.185225 0.449638 0.882618
O O9 0.500000 0.043665 0.001257
O O10 0.335745 0.012927 0.165401
O O11 0.297444 0.038007 0.913106
O O12 0.165613 0.091998 0.720370
O O13 0.185017 0.894186 0.796197
O O14 0.903425 0.360884 0.085333
O O15 0.095956 0.709654 0.796963
O O16 0.000000 0.822848 0.101478
O O17 0.807870 0.786685 0.009884
#
# Coordination Sequence:
#
# PCOD9338369 Si02
#       8
#     4   4   4   4   4   2   4   4
#     4   9  21  40  63  89 119 159 206 254 306 366
#     4  11  23  38  61  95 122 158 203 252 307 367
#     4  10  20  37  62  86 116 158 208 255 297 360
#     4  11  21  39  56  90 121 160 203 244 313 364
#     4  11  22  39  65  91 119 160 199 256 306 370
#     4  10  20  36  62  86 116 152 206 242 312 358
#     4  11  24  38  57  88 131 159 202 255 302 367
#     4  10  21  37  61  88 120 164 200 254 305 369
#
# _framework density 18.529444000000002
#
# number of rings (size 3 to 8) (size 9 to 14) (size 15 to 20)
#    0.000    1.600    3.333    1.200    4.667    0.533 
#    0.000    0.667    0.000    2.400    0.000    0.000 
#    0.000    0.000    0.000    0.000    0.000    0.000 
#
# Total GULP energy -167010.831499 kJ/mol
# GULP energy per Si atom -5567.027717 kJ/mol
# Density = 1.848727 g / cm^3
# Si number density = 18.529444 Si / 1000 Ang^3
#
#
#
# Elastic Constant Matrix: (Units=GPa)
#
#
# Indices 1 2 3 4 5 6 
#
# 1 90.0775 15.5627 0.0853 0.0000 0.0000 0.0000
# 2 15.5627 32.4127 1.1921 0.0000 0.0000 0.0000
# 3 0.0853 1.1921 71.3865 0.0000 0.0000 0.0000
# 4 0.0000 0.0000 0.0000 21.3108 0.0000 0.0000
# 5 0.0000 0.0000 0.0000 0.0000 20.4022 0.0000
# 6 0.0000 0.0000 0.0000 0.0000 0.0000 19.3861
#
#
#
# Elastic Compliance Matrix: (Units=1/GPa)
#
#
# Indices 1 2 3 4 5 6 
#
# 1 0.012106 -0.005816 0.000083 0.000000 0.000000 0.000000
# 2 -0.005816 0.033665 -0.000555 0.000000 0.000000 0.000000
# 3 0.000083 -0.000555 0.014017 0.000000 0.000000 0.000000
# 4 0.000000 0.000000 0.000000 0.046925 0.000000 0.000000
# 5 0.000000 0.000000 0.000000 0.000000 0.049014 0.000000
# 6 0.000000 0.000000 0.000000 0.000000 0.000000 0.051583
#
#
# Mechanical properties :
#
#
# Convention : Reuss Voigt Hill
#
# Bulk Modulus (GPa) = 21.18111 25.28411 23.23261
# Shear Modulus (GPa) = 21.22018 24.02226 22.62122
#
# Velocity S-wave (km/s) = 3.38777 3.60451 3.49782
# Velocity P-wave (km/s) = 5.17287 5.56762 5.37387
#
# Compressibility (1/GPa) = 0.04721188
#
# Stress axis : x y z
#
# Youngs Moduli (GPa) = 82.60185 29.70453 71.33979
#
# Poissons Ratio (x) = 0.17275 -0.00590
# Poissons Ratio (y) = 0.48039 0.03961
# Poissons Ratio (z) = -0.00683 0.01649
#
# Static dielectric constant tensor:
#      x y z
#    x 1.605540 0.000000 0.000000 
#    y 0.000000 1.684740 0.000000 
#    z 0.000000 0.000000 1.628230 
# 
# From -- ./inp_files/1963.got.cif
#   From: 2010.05.17/outbox.cif.g08.bks.cpg/sg26_1_cif.got.tgz:1963.got - 2010.06.04 01:07:29.
