data_PCOD9338909
_publ_section_title
;
Structure prediction by ZEFSAII (Michael W. Deem and Ramdas Pophale) SiO2 
 PCOD9338909
Probable space group: P C C 2
;
_chemical_formula_sum "Si O2"
_cell_formula_units_Z 24
_cell_length_a 22.583207
_cell_length_b 7.595725
_cell_length_c 5.494881
_cell_angle_alpha 90.000000
_cell_angle_beta 90.000000
_cell_angle_gamma 90.000000
_cell_volume 942.568973
_symmetry_space_group_name_H-M "P C C 2"
_symmetry_group_IT_number 27
_symmetry_cell_setting 'orthorhombic'
loop_
_space_group_symop_operation_xyz
x,y,z
-x,-y,z
-x,y,1/2+z
x,-y,1/2+z
loop_
_atom_site_type_symbol
_atom_site_label
_atom_site_fract_x
_atom_site_fract_y
_atom_site_fract_z
Si Si1 0.523385 0.199884 0.958770
Si Si2 0.745129 0.978746 0.575442
Si Si3 0.023312 0.699979 0.691971
Si Si4 0.131143 0.103036 0.079467
Si Si5 0.229574 0.592188 0.080860
Si Si6 0.627294 0.594381 0.592568
O O1 0.509916 0.279377 0.693802
O O2 0.500000 0.000000 0.939491
O O3 0.591925 0.228490 0.026300
O O4 0.782776 0.799120 0.573320
O O5 0.710779 0.002913 0.325934
O O6 0.797554 0.122839 0.579246
O O7 0.091914 0.724194 0.623661
O O8 0.000000 0.500000 0.712405
O O9 0.989783 0.779401 0.457585
O O10 0.116706 0.981765 0.316204
O O11 0.210621 0.503164 0.333072
O O12 0.301689 0.601697 0.083528
O O13 0.611661 0.466304 0.365660
#
# Coordination Sequence:
#
# PCOD9338909 Si02
#       6
#     4   4   4   4   4   4
#     4  10  21  37  53  80 122 158 198 249 305 354
#     4  10  21  40  65  94 125 163 208 254 315 372
#     4  10  21  37  60  89 122 160 202 245 292 353
#     4  10  21  37  63  86 122 162 197 245 300 360
#     4  10  21  40  66  93 128 160 206 262 316 373
#     4  10  21  37  59  88 117 160 203 247 303 370
#
# _framework density 25.462326000000001
#
# number of rings (size 3 to 8) (size 9 to 14) (size 15 to 20)
#    0.000    2.000    0.000    3.000    0.000    4.000 
#    6.000    0.000   88.000    0.000    0.000    0.000 
#    0.000    0.000    0.000    0.000    0.000    0.000 
#
# Total GULP energy -133957.561304 kJ/mol
# GULP energy per Si atom -5581.565054 kJ/mol
# Density = 2.540437 g / cm^3
# Si number density = 25.462326 Si / 1000 Ang^3
#
#
#
# Elastic Constant Matrix: (Units=GPa)
#
#
# Indices 1 2 3 4 5 6 
#
# 1 49.5788 3.2495 19.7892 0.0000 0.0000 0.0000
# 2 3.2495 67.8743 35.2601 0.0000 0.0000 0.0000
# 3 19.7892 35.2601 277.9227 0.0000 0.0000 0.0000
# 4 0.0000 0.0000 0.0000 35.5411 0.0000 0.0000
# 5 0.0000 0.0000 0.0000 0.0000 26.5550 0.0000
# 6 0.0000 0.0000 0.0000 0.0000 0.0000 37.7853
#
#
#
# Elastic Compliance Matrix: (Units=1/GPa)
#
#
# Indices 1 2 3 4 5 6 
#
# 1 0.020764 -0.000242 -0.001448 0.000000 0.000000 0.000000
# 2 -0.000242 0.015775 -0.001984 0.000000 0.000000 0.000000
# 3 -0.001448 -0.001984 0.003953 0.000000 0.000000 0.000000
# 4 0.000000 0.000000 0.000000 0.028136 0.000000 0.000000
# 5 0.000000 0.000000 0.000000 0.000000 0.037658 0.000000
# 6 0.000000 0.000000 0.000000 0.000000 0.000000 0.026465
#
#
# Mechanical properties :
#
#
# Convention : Reuss Voigt Hill
#
# Bulk Modulus (GPa) = 30.17120 56.88593 43.52857
# Shear Modulus (GPa) = 33.08028 42.44807 37.76418
#
# Velocity S-wave (km/s) = 3.60833 4.08743 3.85533
# Velocity P-wave (km/s) = 5.40695 6.68325 6.07869
#
# Compressibility (1/GPa) = 0.03314419
#
# Stress axis : x y z
#
# Youngs Moduli (GPa) = 48.16115 63.38952 252.97586
#
# Poissons Ratio (x) = 0.01534 0.36625
# Poissons Ratio (y) = 0.01165 0.50196
# Poissons Ratio (z) = 0.06973 0.12578
#
# Static dielectric constant tensor:
#      x y z
#    x 1.993970 0.000000 0.000000 
#    y 0.000000 1.928490 0.000000 
#    z 0.000000 0.000000 2.071510 
# 
# From -- ./inp_files/168.got.cif
#   From: 2010.05.17/outbox.cif.g08.bks.cpg/sg27_1_cif.got.tgz:168.got - 2010.06.04 01:11:05.
