data_PCOD9338996
_publ_section_title
;
Structure prediction by ZEFSAII (Michael W. Deem and Ramdas Pophale) SiO2 
 PCOD9338996
Probable space group: P C C 2
;
_chemical_formula_sum "Si O2"
_cell_formula_units_Z 30
_cell_length_a 18.075710
_cell_length_b 6.615023
_cell_length_c 10.833666
_cell_angle_alpha 90.000000
_cell_angle_beta 90.000000
_cell_angle_gamma 90.000000
_cell_volume 1295.394849
_symmetry_space_group_name_H-M "P C C 2"
_symmetry_group_IT_number 27
_symmetry_cell_setting 'orthorhombic'
loop_
_space_group_symop_operation_xyz
x,y,z
-x,-y,z
-x,y,1/2+z
x,-y,1/2+z
loop_
_atom_site_type_symbol
_atom_site_label
_atom_site_fract_x
_atom_site_fract_y
_atom_site_fract_z
Si Si1 0.066547 0.623044 0.129990
Si Si2 0.881603 0.276897 0.785410
Si Si3 0.341732 0.542898 0.620626
Si Si4 0.769636 0.083452 0.643677
Si Si5 0.000000 0.000000 0.269924
Si Si6 0.652151 0.849769 0.764889
Si Si7 0.419968 0.905153 0.532456
Si Si8 0.778857 0.711897 0.492333
O O1 0.081876 0.483217 0.248857
O O2 0.036136 0.831786 0.182010
O O3 0.146688 0.641770 0.065794
O O4 0.000000 0.500000 0.561409
O O5 0.852051 0.160068 0.665297
O O6 0.938627 0.122270 0.847683
O O7 0.805952 0.316140 0.855278
O O8 0.284016 0.725592 0.639606
O O9 0.354530 0.389086 0.733888
O O10 0.412849 0.669116 0.574614
O O11 0.296186 0.403681 0.524356
O O12 0.736675 0.925553 0.744708
O O13 0.767956 0.946126 0.522959
O O14 0.621674 0.908694 0.899227
O O15 0.611270 0.964052 0.649549
O O16 0.500000 0.000000 0.510232
#
# Coordination Sequence:
#
# PCOD9338996 Si02
#       8
#     4   4   4   4   2   4   4   4
#     4  10  22  40  58  88 130 170 227 287 346 426
#     4  11  23  38  64  88 128 173 228 282 347 417
#     4  10  24  42  66 105 139 183 236 291 353 431
#     4  10  22  41  63  97 135 173 227 289 346 415
#     4  10  22  42  56  88 134 172 224 292 350 424
#     4  10  25  44  74 108 147 190 239 296 357 438
#     4  11  25  48  76 109 150 190 235 294 365 443
#     4  11  23  39  66  95 128 180 224 286 359 415
#
# _framework density 23.15896
#
# number of rings (size 3 to 8) (size 9 to 14) (size 15 to 20)
#    0.000    1.600    2.667    0.400    7.467    4.800 
#    0.000    1.333    0.000    0.000    0.000    0.000 
#    0.000    0.000    0.000    0.000    0.000    0.000 
#
# Total GULP energy -167262.063016 kJ/mol
# GULP energy per Si atom -5575.402101 kJ/mol
# Density = 2.310625 g / cm^3
# Si number density = 23.158960 Si / 1000 Ang^3
#
#
#
# Elastic Constant Matrix: (Units=GPa)
#
#
# Indices 1 2 3 4 5 6 
#
# 1 76.9352 40.5553 17.3359 0.0000 0.0000 0.0000
# 2 40.5553 151.2494 33.6893 0.0000 0.0000 0.0000
# 3 17.3359 33.6893 79.5719 0.0000 0.0000 0.0000
# 4 0.0000 0.0000 0.0000 17.2642 0.0000 0.0000
# 5 0.0000 0.0000 0.0000 0.0000 30.4460 0.0000
# 6 0.0000 0.0000 0.0000 0.0000 0.0000 47.9593
#
#
#
# Elastic Compliance Matrix: (Units=1/GPa)
#
#
# Indices 1 2 3 4 5 6 
#
# 1 0.015360 -0.003724 -0.001770 0.000000 0.000000 0.000000
# 2 -0.003724 0.008203 -0.002662 0.000000 0.000000 0.000000
# 3 -0.001770 -0.002662 0.014080 0.000000 0.000000 0.000000
# 4 0.000000 0.000000 0.000000 0.057923 0.000000 0.000000
# 5 0.000000 0.000000 0.000000 0.000000 0.032845 0.000000
# 6 0.000000 0.000000 0.000000 0.000000 0.000000 0.020851
#
#
# Mechanical properties :
#
#
# Convention : Reuss Voigt Hill
#
# Bulk Modulus (GPa) = 46.87891 54.54639 50.71265
# Shear Modulus (GPa) = 28.95467 33.54563 31.25015
#
# Velocity S-wave (km/s) = 3.53973 3.81004 3.67737
# Velocity P-wave (km/s) = 6.08214 6.55434 6.32265
#
# Compressibility (1/GPa) = 0.02133155
#
# Stress axis : x y z
#
# Youngs Moduli (GPa) = 65.10441 121.90530 71.02450
#
# Poissons Ratio (x) = 0.45402 0.12568
# Poissons Ratio (y) = 0.24247 0.18904
# Poissons Ratio (z) = 0.11521 0.32447
#
# Static dielectric constant tensor:
#      x y z
#    x 1.983980 0.000000 0.000000 
#    y 0.000000 1.887370 0.000000 
#    z 0.000000 0.000000 1.928440 
# 
# From -- ./inp_files/2857.got.cif
#   From: 2010.05.17/outbox.cif.g08.bks.cpg/sg27_2_cif.got.tgz:2857.got - 2010.06.04 01:11:05.
