data_PCOD9338700
_publ_section_title
;
Structure prediction by ZEFSAII (Michael W. Deem and Ramdas Pophale) SiO2 
 PCOD9338700
Probable space group: P M C 21
;
_chemical_formula_sum "Si O2"
_cell_formula_units_Z 32
_cell_length_a 9.000000
_cell_length_b 12.000000
_cell_length_c 15.000000
_cell_angle_alpha 90.000000
_cell_angle_beta 90.000000
_cell_angle_gamma 90.000000
_cell_volume 1620.000000
_symmetry_space_group_name_H-M "P M C 21"
_symmetry_group_IT_number 26
_symmetry_cell_setting 'orthorhombic'
loop_
_space_group_symop_operation_xyz
x,y,z
-x,-y,1/2+z
-x,y,z
x,-y,1/2+z
loop_
_atom_site_type_symbol
_atom_site_label
_atom_site_fract_x
_atom_site_fract_y
_atom_site_fract_z
Si Si1 0.172488 0.093291 0.415240
Si Si2 0.326427 0.240260 0.714918
Si Si3 0.323446 0.142117 0.893472
Si Si4 0.831608 0.951028 0.127450
Si Si5 0.327295 0.596465 0.697265
Si Si6 0.823303 0.410138 0.580179
Si Si7 0.320840 0.332087 0.394415
Si Si8 0.670487 0.831214 0.599628
O O1 0.177733 0.083616 0.523319
O O2 0.260288 0.204961 0.388932
O O3 0.000000 0.102588 0.388737
O O4 0.240799 0.976216 0.382124
O O5 0.500000 0.269242 0.706598
O O6 0.282535 0.233160 0.818772
O O7 0.291841 0.116782 0.680197
O O8 0.229345 0.315866 0.650090
O O9 0.500000 0.121830 0.882637
O O10 0.299469 0.184998 0.994090
O O11 0.000000 0.928928 0.158366
O O12 0.788583 0.079628 0.133248
O O13 0.500000 0.557885 0.694376
O O14 0.231029 0.520587 0.631444
O O15 0.282600 0.604467 0.801618
O O16 0.322728 0.719896 0.656400
O O17 0.746837 0.387226 0.484119
O O18 0.000000 0.407395 0.568405
O O19 0.500000 0.329814 0.401360
O O20 0.500000 0.875070 0.605450
#
# Coordination Sequence:
#
# PCOD9338700 Si02
#       8
#     4   4   4   4   4   4   4   4
#     4  10  20  35  57  88 127 165 205 253 309 370
#     4  11  22  37  60  89 122 166 214 257 305 369
#     4   9  20  36  58  89 125 166 209 252 307 372
#     4  10  20  34  55  87 124 161 201 252 312 370
#     4  10  24  44  67  94 121 162 216 263 315 375
#     4  12  26  44  65  92 127 165 210 264 323 379
#     4  11  23  41  66  92 122 163 211 262 309 373
#     4   9  19  39  62  87 122 160 202 255 308 370
#
# _framework density 19.753086
#
# number of rings (size 3 to 8) (size 9 to 14) (size 15 to 20)
#    0.000    1.750    1.250    2.625    1.750    4.500 
#    0.000    2.500    0.000    0.000    0.000    0.000 
#    0.000    0.000    0.000    0.000    0.000    0.000 
#
# Total GULP energy -178706.544266 kJ/mol
# GULP energy per Si atom -5584.579508 kJ/mol
# Density = 1.970813 g / cm^3
# Si number density = 19.753086 Si / 1000 Ang^3
#
#
#
# Elastic Constant Matrix: (Units=GPa)
#
#
# Indices 1 2 3 4 5 6 
#
# 1 73.7438 25.4942 29.4879 0.0000 0.0000 0.0000
# 2 25.4942 51.0100 36.1181 0.0000 0.0000 0.0000
# 3 29.4879 36.1181 63.9647 0.0000 0.0000 0.0000
# 4 0.0000 0.0000 0.0000 15.4901 0.0000 0.0000
# 5 0.0000 0.0000 0.0000 0.0000 17.7122 0.0000
# 6 0.0000 0.0000 0.0000 0.0000 0.0000 -0.9973
#
#
#
# Elastic Compliance Matrix: (Units=1/GPa)
#
#
# Indices 1 2 3 4 5 6 
#
# 1 0.017363 -0.005015 -0.005172 0.000000 0.000000 0.000000
# 2 -0.005015 0.034112 -0.016949 0.000000 0.000000 0.000000
# 3 -0.005172 -0.016949 0.027589 0.000000 0.000000 0.000000
# 4 0.000000 0.000000 0.000000 0.064557 0.000000 0.000000
# 5 0.000000 0.000000 0.000000 0.000000 0.056458 0.000000
# 6 0.000000 0.000000 0.000000 0.000000 0.000000 -1.002696
#
#
# Mechanical properties :
#
#
# Convention : Reuss Voigt Hill
#
# Bulk Modulus (GPa) = 40.34040 41.21322 40.77681
# Shear Modulus (GPa) = -6.75602 12.94888 3.09643
#
# Velocity S-wave (km/s) = -1.85139 2.56312 1.25338
# Velocity P-wave (km/s) = 3.98703 5.44692 4.77312
#
# Compressibility (1/GPa) = 0.02478905
#
# Stress axis : x y z
#
# Youngs Moduli (GPa) = 57.59521 29.31535 36.24687
#
# Poissons Ratio (x) = 0.14703 0.18748
# Poissons Ratio (y) = 0.28886 0.61436
# Poissons Ratio (z) = 0.29789 0.49688
#
# Static dielectric constant tensor:
#      x y z
#    x 1.679240 0.000000 0.000000 
#    y 0.000000 1.715160 0.000000 
#    z 0.000000 0.000000 1.712400 
# 
# From -- ./inp_files/4125.got.cif
#   From: 2010.05.17/outbox.ucp.g08.bks.cvg/sg26_3_cif.got.tgz:4125.got - 2010.06.11 15:23:25.
