data_PCOD9338497
_publ_section_title
;
Structure prediction by ZEFSAII (Michael W. Deem and Ramdas Pophale) SiO2 
 PCOD9338497
Probable space group: P M C 21
;
_chemical_formula_sum "Si O2"
_cell_formula_units_Z 24
_cell_length_a 15.206780
_cell_length_b 9.104179
_cell_length_c 8.051261
_cell_angle_alpha 90.000000
_cell_angle_beta 90.000000
_cell_angle_gamma 90.000000
_cell_volume 1114.658819
_symmetry_space_group_name_H-M "P M C 21"
_symmetry_group_IT_number 26
_symmetry_cell_setting 'orthorhombic'
loop_
_space_group_symop_operation_xyz
x,y,z
-x,-y,1/2+z
-x,y,z
x,-y,1/2+z
loop_
_atom_site_type_symbol
_atom_site_label
_atom_site_fract_x
_atom_site_fract_y
_atom_site_fract_z
Si Si1 0.396971 0.084800 0.959860
Si Si2 0.899297 0.774156 0.819991
Si Si3 0.249961 0.426346 0.444676
Si Si4 0.101549 0.067366 0.676874
Si Si5 0.602419 0.778025 0.826344
Si Si6 0.249151 0.727727 0.302489
O O1 0.500000 0.093033 0.911087
O O2 0.334934 0.176532 0.839193
O O3 0.371986 0.913034 0.948041
O O4 0.387874 0.152395 0.143044
O O5 0.833264 0.641628 0.847312
O O6 0.000000 0.726972 0.790638
O O7 0.872096 0.896386 0.685598
O O8 0.895951 0.866227 0.992657
O O9 0.336567 0.361225 0.356419
O O10 0.243653 0.600836 0.439909
O O11 0.252374 0.360705 0.629293
O O12 0.166372 0.164551 0.787011
O O13 0.000000 0.074613 0.734896
O O14 0.500000 0.741661 0.851811
#
# Coordination Sequence:
#
# PCOD9338497 Si02
#       6
#     4   4   4   4   4   4
#     4  10  21  38  60  84 110 142 181 225 272 323
#     4   9  19  36  57  81 108 140 180 224 270 321
#     4  11  23  37  55  80 112 148 184 225 273 325
#     4   9  19  36  57  81 108 140 180 224 270 321
#     4  10  21  38  60  84 110 142 181 225 272 323
#     4  11  23  37  55  80 112 148 184 225 273 325
#
# _framework density 21.531251999999999
#
# number of rings (size 3 to 8) (size 9 to 14) (size 15 to 20)
#    0.000    2.000    0.000    3.000    0.000    8.667 
#    0.000    0.000    0.000    0.000    0.000    0.000 
#    0.000    0.000    0.000    0.000    0.000    0.000 
#
# Total GULP energy -134227.529928 kJ/mol
# GULP energy per Si atom -5592.813747 kJ/mol
# Density = 2.148225 g / cm^3
# Si number density = 21.531252 Si / 1000 Ang^3
#
#
#
# Elastic Constant Matrix: (Units=GPa)
#
#
# Indices 1 2 3 4 5 6 
#
# 1 42.0379 22.7959 14.0263 0.0000 0.0000 0.0000
# 2 22.7959 50.8825 -2.2426 0.0000 0.0000 0.0000
# 3 14.0263 -2.2426 50.2356 0.0000 0.0000 0.0000
# 4 0.0000 0.0000 0.0000 36.0801 0.0000 0.0000
# 5 0.0000 0.0000 0.0000 0.0000 22.4151 0.0000
# 6 0.0000 0.0000 0.0000 0.0000 0.0000 5.2182
#
#
#
# Elastic Compliance Matrix: (Units=1/GPa)
#
#
# Indices 1 2 3 4 5 6 
#
# 1 0.036605 -0.016883 -0.010974 0.000000 0.000000 0.000000
# 2 -0.016883 0.027479 0.005941 0.000000 0.000000 0.000000
# 3 -0.010974 0.005941 0.023235 0.000000 0.000000 0.000000
# 4 0.000000 0.000000 0.000000 0.027716 0.000000 0.000000
# 5 0.000000 0.000000 0.000000 0.000000 0.044613 0.000000
# 6 0.000000 0.000000 0.000000 0.000000 0.000000 0.191637
#
#
# Mechanical properties :
#
#
# Convention : Reuss Voigt Hill
#
# Bulk Modulus (GPa) = 22.99592 23.59056 23.29324
# Shear Modulus (GPa) = 12.20665 19.98112 16.09389
#
# Velocity S-wave (km/s) = 2.38361 3.04962 2.73695
# Velocity P-wave (km/s) = 4.27538 4.83534 4.56395
#
# Compressibility (1/GPa) = 0.04348598
#
# Stress axis : x y z
#
# Youngs Moduli (GPa) = 27.31884 36.39187 43.03765
#
# Poissons Ratio (x) = 0.61440 0.47230
# Poissons Ratio (y) = 0.46122 -0.25567
# Poissons Ratio (z) = 0.29980 -0.21619
#
# Static dielectric constant tensor:
#      x y z
#    x 1.753600 0.000000 0.000000 
#    y 0.000000 1.730590 0.000000 
#    z 0.000000 0.000000 1.831050 
# 
# From -- ./inp_files/2108.got.cif
#   From: 2010.05.17/outbox.cif.g08.bks.cpg/sg26_2_cif.got.tgz:2108.got - 2010.06.04 01:07:29.
