data_PCOD9338423
_publ_section_title
;
Structure prediction by ZEFSAII (Michael W. Deem and Ramdas Pophale) SiO2 
 PCOD9338423
Probable space group: P M C 21
;
_chemical_formula_sum "Si O2"
_cell_formula_units_Z 32
_cell_length_a 8.824021
_cell_length_b 12.115001
_cell_length_c 15.428108
_cell_angle_alpha 90.000000
_cell_angle_beta 90.000000
_cell_angle_gamma 90.000000
_cell_volume 1649.311388
_symmetry_space_group_name_H-M "P M C 21"
_symmetry_group_IT_number 26
_symmetry_cell_setting 'orthorhombic'
loop_
_space_group_symop_operation_xyz
x,y,z
-x,-y,1/2+z
-x,y,z
x,-y,1/2+z
loop_
_atom_site_type_symbol
_atom_site_label
_atom_site_fract_x
_atom_site_fract_y
_atom_site_fract_z
Si Si1 0.680706 0.149217 0.164060
Si Si2 0.822156 0.460065 0.487699
Si Si3 0.818319 0.606233 0.653840
Si Si4 0.180594 0.998646 0.817378
Si Si5 0.177501 0.997943 0.017233
Si Si6 0.323789 0.230091 0.773906
Si Si7 0.679698 0.528588 0.312828
Si Si8 0.172753 0.244266 0.598795
O O1 0.500000 0.152347 0.167501
O O2 0.746470 0.272772 0.161672
O O3 0.742430 0.082777 0.248071
O O4 0.733757 0.083026 0.078100
O O5 0.778106 0.546195 0.563283
O O6 0.724858 0.471382 0.401939
O O7 0.808423 0.338182 0.527474
O O8 0.000000 0.478598 0.466845
O O9 0.762927 0.529244 0.732647
O O10 0.000000 0.614961 0.657283
O O11 0.223860 0.123721 0.793477
O O12 0.000000 0.981909 0.811753
O O13 0.228691 0.986011 0.917688
O O14 0.185818 0.877553 0.060237
O O15 0.000000 0.031847 0.015984
O O16 0.500000 0.204834 0.790399
O O17 0.278834 0.342078 0.822403
O O18 0.294779 0.258187 0.673638
O O19 0.500000 0.523684 0.297050
O O20 0.000000 0.257263 0.634144
#
# Coordination Sequence:
#
# PCOD9338423 Si02
#       8
#     4   4   4   4   4   4   4   4
#     4  12  26  43  64  94 132 168 206 259 325 381
#     4  10  23  41  66  96 123 164 216 263 312 374
#     4  11  24  44  67  92 126 170 219 262 309 374
#     4  11  24  42  66  94 126 167 215 263 309 370
#     4  10  23  42  66  95 125 165 214 260 310 372
#     4  11  23  40  63  93 127 165 207 257 319 377
#     4  11  25  42  63  95 132 168 207 261 323 377
#     4  10  20  40  67  93 121 159 210 265 315 367
#
# _framework density 19.402035999999999
#
# number of rings (size 3 to 8) (size 9 to 14) (size 15 to 20)
#    0.000    1.250    2.500    2.625    3.500    4.000 
#    0.000    0.000    0.000    0.000    0.000    0.000 
#    0.000    0.000    0.000    0.000    0.000    0.000 
#
# Total GULP energy -178858.513952 kJ/mol
# GULP energy per Si atom -5589.328561 kJ/mol
# Density = 1.935788 g / cm^3
# Si number density = 19.402036 Si / 1000 Ang^3
#
#
#
# Elastic Constant Matrix: (Units=GPa)
#
#
# Indices 1 2 3 4 5 6 
#
# 1 47.7949 19.3361 17.8675 0.0000 0.0000 0.0000
# 2 19.3361 70.1781 -7.9145 0.0000 0.0000 0.0000
# 3 17.8675 -7.9145 55.6671 0.0000 0.0000 0.0000
# 4 0.0000 0.0000 0.0000 19.0824 0.0000 0.0000
# 5 0.0000 0.0000 0.0000 0.0000 93.4881 0.0000
# 6 0.0000 0.0000 0.0000 0.0000 0.0000 23.8693
#
#
#
# Elastic Compliance Matrix: (Units=1/GPa)
#
#
# Indices 1 2 3 4 5 6 
#
# 1 0.028466 -0.009018 -0.010419 0.000000 0.000000 0.000000
# 2 -0.009018 0.017339 0.005360 0.000000 0.000000 0.000000
# 3 -0.010419 0.005360 0.022070 0.000000 0.000000 0.000000
# 4 0.000000 0.000000 0.000000 0.052404 0.000000 0.000000
# 5 0.000000 0.000000 0.000000 0.000000 0.010697 0.000000
# 6 0.000000 0.000000 0.000000 0.000000 0.000000 0.041895
#
#
# Mechanical properties :
#
#
# Convention : Reuss Voigt Hill
#
# Bulk Modulus (GPa) = 25.17623 25.80202 25.48912
# Shear Modulus (GPa) = 23.33552 36.91136 30.12344
#
# Velocity S-wave (km/s) = 3.47181 4.36644 3.94457
# Velocity P-wave (km/s) = 5.39217 6.22483 5.82340
#
# Compressibility (1/GPa) = 0.03972001
#
# Stress axis : x y z
#
# Youngs Moduli (GPa) = 35.12940 57.67442 45.31012
#
# Poissons Ratio (x) = 0.52012 0.47208
# Poissons Ratio (y) = 0.31681 -0.24285
# Poissons Ratio (z) = 0.36601 -0.30912
#
# Static dielectric constant tensor:
#      x y z
#    x 1.666730 0.000000 0.000000 
#    y 0.000000 1.666440 0.000000 
#    z 0.000000 0.000000 1.675100 
# 
# From -- ./inp_files/4255.got.cif
#   From: 2010.05.17/outbox.cif.g08.bks.cpg/sg26_3_cif.got.tgz:4255.got - 2010.06.04 01:07:29.
