data_PCOD9338513
_publ_section_title
;
Structure prediction by ZEFSAII (Michael W. Deem and Ramdas Pophale) SiO2 
 PCOD9338513
Probable space group: P M C 21
;
_chemical_formula_sum "Si O2"
_cell_formula_units_Z 20
_cell_length_a 25.862221
_cell_length_b 7.318467
_cell_length_c 4.976611
_cell_angle_alpha 90.000000
_cell_angle_beta 90.000000
_cell_angle_gamma 90.000000
_cell_volume 941.932176
_symmetry_space_group_name_H-M "P M C 21"
_symmetry_group_IT_number 26
_symmetry_cell_setting 'orthorhombic'
loop_
_space_group_symop_operation_xyz
x,y,z
-x,-y,1/2+z
-x,y,z
x,-y,1/2+z
loop_
_atom_site_type_symbol
_atom_site_label
_atom_site_fract_x
_atom_site_fract_y
_atom_site_fract_z
Si Si1 0.000000 0.124251 0.724571
Si Si2 0.288891 0.625416 0.349221
Si Si3 0.500000 0.885015 0.191125
Si Si4 0.901977 0.623686 0.353336
Si Si5 0.591771 0.622168 0.357541
Si Si6 0.194486 0.121738 0.719849
O O1 0.050183 0.245040 0.787037
O O2 0.000000 0.050122 0.422057
O O3 0.280526 0.456432 0.144878
O O4 0.348768 0.683573 0.323129
O O5 0.249319 0.783643 0.276251
O O6 0.550468 0.770981 0.272065
O O7 0.500000 0.063791 0.379251
O O8 0.904193 0.550548 0.656034
O O9 0.849720 0.733522 0.293081
O O10 0.584558 0.448931 0.159625
O O11 0.189196 0.051611 0.416919
#
# Coordination Sequence:
#
# PCOD9338513 Si02
#       6
#     2   4   2   4   4   4
#     4  12  24  42  64  92 124 152 192 246 298 342
#     4  10  21  39  61  85 112 151 195 237 282 343
#     4  12  24  36  56  86 118 146 186 240 292 336
#     4  12  24  42  64  88 119 159 201 237 281 346
#     4  10  21  39  61  81 111 153 195 231 281 347
#     4  12  24  39  60  89 121 154 190 240 295 339
#
# _framework density 21.232951
#
# number of rings (size 3 to 8) (size 9 to 14) (size 15 to 20)
#    0.000    0.800    0.000    8.400    0.000    1.600 
#    0.000    0.000    0.000    0.000    0.000    0.000 
#    0.000    0.000    0.000    0.000    0.000    0.000 
#
# Total GULP energy -112006.715727 kJ/mol
# GULP energy per Si atom -5600.335786 kJ/mol
# Density = 2.118462 g / cm^3
# Si number density = 21.232951 Si / 1000 Ang^3
#
#
#
# Elastic Constant Matrix: (Units=GPa)
#
#
# Indices 1 2 3 4 5 6 
#
# 1 93.7131 37.8650 -5.4162 0.0000 0.0000 0.0000
# 2 37.8650 43.0749 -16.3522 0.0000 0.0000 0.0000
# 3 -5.4162 -16.3522 52.3886 0.0000 0.0000 0.0000
# 4 0.0000 0.0000 0.0000 49.0219 0.0000 0.0000
# 5 0.0000 0.0000 0.0000 0.0000 24.1820 0.0000
# 6 0.0000 0.0000 0.0000 0.0000 0.0000 138.3861
#
#
#
# Elastic Compliance Matrix: (Units=1/GPa)
#
#
# Indices 1 2 3 4 5 6 
#
# 1 0.017039 -0.016233 -0.003305 0.000000 0.000000 0.000000
# 2 -0.016233 0.041801 0.011369 0.000000 0.000000 0.000000
# 3 -0.003305 0.011369 0.022295 0.000000 0.000000 0.000000
# 4 0.000000 0.000000 0.000000 0.020399 0.000000 0.000000
# 5 0.000000 0.000000 0.000000 0.000000 0.041353 0.000000
# 6 0.000000 0.000000 0.000000 0.000000 0.000000 0.007226
#
#
# Mechanical properties :
#
#
# Convention : Reuss Voigt Hill
#
# Bulk Modulus (GPa) = 15.43275 24.59665 20.01470
# Shear Modulus (GPa) = 26.58882 53.85667 40.22275
#
# Velocity S-wave (km/s) = 3.54254 5.04180 4.35714
# Velocity P-wave (km/s) = 4.90070 6.74554 5.89573
#
# Compressibility (1/GPa) = 0.06479726
#
# Stress axis : x y z
#
# Youngs Moduli (GPa) = 58.69010 23.92306 44.85285
#
# Poissons Ratio (x) = 0.38833 0.14825
# Poissons Ratio (y) = 0.95269 -0.50994
# Poissons Ratio (z) = 0.19398 -0.27199
#
# Static dielectric constant tensor:
#      x y z
#    x 1.728650 0.000000 0.000000 
#    y 0.000000 1.733240 0.000000 
#    z 0.000000 0.000000 1.724400 
# 
# From -- ./inp_files/1015.got.cif
#   From: 2010.05.17/outbox.cif.g08.bks.cpg/sg26_1_cif.got.tgz:1015.got - 2010.06.04 01:07:29.
