data_PCOD9338999
_publ_section_title
;
Structure prediction by ZEFSAII (Michael W. Deem and Ramdas Pophale) SiO2 
 PCOD9338999
Probable space group: P C C 2
;
_chemical_formula_sum "Si O2"
_cell_formula_units_Z 26
_cell_length_a 9.235779
_cell_length_b 4.960319
_cell_length_c 24.776136
_cell_angle_alpha 90.000000
_cell_angle_beta 90.000000
_cell_angle_gamma 90.000000
_cell_volume 1135.054502
_symmetry_space_group_name_H-M "P C C 2"
_symmetry_group_IT_number 27
_symmetry_cell_setting 'orthorhombic'
loop_
_space_group_symop_operation_xyz
x,y,z
-x,-y,z
-x,y,1/2+z
x,-y,1/2+z
loop_
_atom_site_type_symbol
_atom_site_label
_atom_site_fract_x
_atom_site_fract_y
_atom_site_fract_z
Si Si1 0.163510 0.589351 0.350250
Si Si2 0.653827 0.900600 0.195459
Si Si3 0.594398 0.767091 0.383937
Si Si4 0.293246 0.213478 0.502978
Si Si5 0.166596 0.389028 0.730813
Si Si6 0.864243 0.288060 0.470948
Si Si7 0.500000 0.000000 0.592721
O O1 0.258740 0.320382 0.355668
O O2 0.188629 0.718370 0.292204
O O3 0.177714 0.742973 0.407339
O O4 0.000000 0.500000 0.348475
O O5 0.728129 0.643106 0.221757
O O6 0.599858 0.833227 0.134632
O O7 0.500000 0.000000 0.221092
O O8 0.771305 0.143798 0.194932
O O9 0.500000 0.500000 0.382161
O O10 0.626087 0.831069 0.446230
O O11 0.500000 0.000000 0.358400
O O12 0.251687 0.525733 0.501130
O O13 0.156611 0.005603 0.497653
O O14 0.392307 0.156305 0.553612
O O15 0.000000 0.500000 0.723163
O O16 0.000000 0.500000 0.471000
#
# Coordination Sequence:
#
# PCOD9338999 Si02
#       7
#     4   4   4   4   4   4   2
#     4   9  22  40  64  93 136 178 204 248 324 388
#     4  10  25  45  67  96 124 170 221 280 323 377
#     4  11  22  38  60 100 132 167 214 260 299 377
#     4  11  22  39  65  90 125 172 208 257 315 381
#     4  11  23  45  69  96 130 172 215 267 327 385
#     4  10  22  40  61  96 134 164 206 251 305 386
#     4  10  26  44  70  84 130 162 226 256 352 360
#
# _framework density 22.906386999999999
#
# number of rings (size 3 to 8) (size 9 to 14) (size 15 to 20)
#    0.462    1.231    0.769    3.231    0.000    8.000 
#    0.000   16.154    0.000    0.000    0.000    0.000 
#    0.000    0.000    0.000    0.000    0.000    0.000 
#
# Total GULP energy -145027.415715 kJ/mol
# GULP energy per Si atom -5577.977527 kJ/mol
# Density = 2.285425 g / cm^3
# Si number density = 22.906387 Si / 1000 Ang^3
#
#
#
# Elastic Constant Matrix: (Units=GPa)
#
#
# Indices 1 2 3 4 5 6 
#
# 1 120.3446 41.7788 35.6628 0.0000 0.0000 0.0000
# 2 41.7788 91.1608 10.1064 0.0000 0.0000 0.0000
# 3 35.6628 10.1064 105.1220 0.0000 0.0000 0.0000
# 4 0.0000 0.0000 0.0000 20.8623 0.0000 0.0000
# 5 0.0000 0.0000 0.0000 0.0000 28.8334 0.0000
# 6 0.0000 0.0000 0.0000 0.0000 0.0000 8.5141
#
#
#
# Elastic Compliance Matrix: (Units=1/GPa)
#
#
# Indices 1 2 3 4 5 6 
#
# 1 0.010877 -0.004625 -0.003245 0.000000 0.000000 0.000000
# 2 -0.004625 0.013054 0.000314 0.000000 0.000000 0.000000
# 3 -0.003245 0.000314 0.010584 0.000000 0.000000 0.000000
# 4 0.000000 0.000000 0.000000 0.047933 0.000000 0.000000
# 5 0.000000 0.000000 0.000000 0.000000 0.034682 0.000000
# 6 0.000000 0.000000 0.000000 0.000000 0.000000 0.117452
#
#
# Mechanical properties :
#
#
# Convention : Reuss Voigt Hill
#
# Bulk Modulus (GPa) = 51.54082 54.63594 53.08838
# Shear Modulus (GPa) = 19.51886 26.91392 23.21639
#
# Velocity S-wave (km/s) = 2.92227 3.43148 3.18706
# Velocity P-wave (km/s) = 5.82543 6.29314 6.06380
#
# Compressibility (1/GPa) = 0.01940210
#
# Stress axis : x y z
#
# Youngs Moduli (GPa) = 91.93866 76.60214 94.48627
#
# Poissons Ratio (x) = 0.35429 0.30664
# Poissons Ratio (y) = 0.42522 -0.02967
# Poissons Ratio (z) = 0.29837 -0.02405
#
# Static dielectric constant tensor:
#      x y z
#    x 1.920040 0.000000 0.000000 
#    y 0.000000 1.840720 0.000000 
#    z 0.000000 0.000000 1.831250 
# 
# From -- ./inp_files/5267.got.cif
#   From: 2010.05.17/outbox.cif.g08.bks.cpg/sg27_3_cif.got.tgz:5267.got - 2010.06.04 01:11:05.
