data_PCOD9338882
_publ_section_title
;
Structure prediction by ZEFSAII (Michael W. Deem and Ramdas Pophale) SiO2 
 PCOD9338882
Probable space group: P C C 2
;
_chemical_formula_sum "Si O2"
_cell_formula_units_Z 18
_cell_length_a 5.338239
_cell_length_b 5.291867
_cell_length_c 25.126183
_cell_angle_alpha 90.000000
_cell_angle_beta 90.000000
_cell_angle_gamma 90.000000
_cell_volume 709.795845
_symmetry_space_group_name_H-M "P C C 2"
_symmetry_group_IT_number 27
_symmetry_cell_setting 'orthorhombic'
loop_
_space_group_symop_operation_xyz
x,y,z
-x,-y,z
-x,y,1/2+z
x,-y,1/2+z
loop_
_atom_site_type_symbol
_atom_site_label
_atom_site_fract_x
_atom_site_fract_y
_atom_site_fract_z
Si Si1 0.746552 0.646903 0.316570
Si Si2 0.250438 0.170167 0.434757
Si Si3 0.248990 0.171437 0.549243
Si Si4 0.000000 0.000000 0.744200
Si Si5 0.339516 0.262407 0.665699
O O1 0.500000 0.500000 0.301245
O O2 0.742894 0.678381 0.380252
O O3 0.783311 0.903552 0.283721
O O4 0.000000 0.500000 0.304267
O O5 0.246176 0.310260 0.491988
O O6 0.500000 0.000000 0.433950
O O7 0.000000 0.000000 0.432729
O O8 0.258062 0.317406 0.604748
O O9 0.500000 0.000000 0.548524
O O10 0.000000 0.000000 0.551158
O O11 0.891750 0.791668 0.704100
O O12 0.500000 0.500000 0.683448
O O13 0.500000 0.000000 0.665764
#
# Coordination Sequence:
#
# PCOD9338882 Si02
#       5
#     4   4   4   2   4
#     4  12  29  47  76 111 151 205 265 324 402 474
#     4  10  20  42  74 107 153 194 249 323 397 473
#     4   9  19  42  73 110 150 196 250 324 397 477
#     4  12  30  50  74 108 162 212 270 344 386 486
#     4  11  27  49  79 112 156 209 268 328 404 476
#
# _framework density 25.359407000000001
#
# number of rings (size 3 to 8) (size 9 to 14) (size 15 to 20)
#    0.000    1.333    2.222    1.333    6.222    0.889 
#    0.000    4.444    0.000    0.000    0.000    0.000 
#    0.000    0.000    0.000    0.000    0.000    0.000 
#
# Total GULP energy -100864.614266 kJ/mol
# GULP energy per Si atom -5603.589681 kJ/mol
# Density = 2.530169 g / cm^3
# Si number density = 25.359407 Si / 1000 Ang^3
#
#
#
# Elastic Constant Matrix: (Units=GPa)
#
#
# Indices 1 2 3 4 5 6 
#
# 1 195.5978 50.7307 40.7375 0.0000 0.0000 0.0000
# 2 50.7307 81.1119 39.8616 0.0000 0.0000 0.0000
# 3 40.7375 39.8616 252.2256 0.0000 0.0000 0.0000
# 4 0.0000 0.0000 0.0000 -159.4189 0.0000 0.0000
# 5 0.0000 0.0000 0.0000 0.0000 12.5712 0.0000
# 6 0.0000 0.0000 0.0000 0.0000 0.0000 58.5492
#
#
#
# Elastic Compliance Matrix: (Units=1/GPa)
#
#
# Indices 1 2 3 4 5 6 
#
# 1 0.006143 -0.003637 -0.000417 0.000000 0.000000 0.000000
# 2 -0.003637 0.015520 -0.001865 0.000000 0.000000 0.000000
# 3 -0.000417 -0.001865 0.004327 0.000000 0.000000 0.000000
# 4 0.000000 0.000000 0.000000 -0.006273 0.000000 0.000000
# 5 0.000000 0.000000 0.000000 0.000000 0.079547 0.000000
# 6 0.000000 0.000000 0.000000 0.000000 0.000000 0.017080
#
#
# Mechanical properties :
#
#
# Convention : Reuss Voigt Hill
#
# Bulk Modulus (GPa) = 70.66877 87.95496 79.31186
# Shear Modulus (GPa) = 37.62254 8.84735 23.23495
#
# Velocity S-wave (km/s) = 3.85590 1.86985 3.03021
# Velocity P-wave (km/s) = 6.91023 6.27857 6.60196
#
# Compressibility (1/GPa) = 0.01415052
#
# Stress axis : x y z
#
# Youngs Moduli (GPa) = 162.79476 64.43311 231.11139
#
# Poissons Ratio (x) = 0.23433 0.09646
# Poissons Ratio (y) = 0.59205 0.43111
# Poissons Ratio (z) = 0.06794 0.12019
#
# Static dielectric constant tensor:
#      x y z
#    x 2.003070 0.000000 0.000000 
#    y 0.000000 2.198720 0.000000 
#    z 0.000000 0.000000 2.001660 
# 
# From -- ./inp_files/4906.got.cif
#   From: 2010.05.17/outbox.cif.g08.bks.cpg/sg27_3_cif.got.tgz:4906.got - 2010.06.04 01:11:05.
