data_PCOD9338354
_publ_section_title
;
Structure prediction by ZEFSAII (Michael W. Deem and Ramdas Pophale) SiO2 
 PCOD9338354
Probable space group: P M C 21
;
_chemical_formula_sum "Si O2"
_cell_formula_units_Z 32
_cell_length_a 11.404138
_cell_length_b 10.294237
_cell_length_c 14.726020
_cell_angle_alpha 90.000000
_cell_angle_beta 90.000000
_cell_angle_gamma 90.000000
_cell_volume 1728.789088
_symmetry_space_group_name_H-M "P M C 21"
_symmetry_group_IT_number 26
_symmetry_cell_setting 'orthorhombic'
loop_
_space_group_symop_operation_xyz
x,y,z
-x,-y,1/2+z
-x,y,z
x,-y,1/2+z
loop_
_atom_site_type_symbol
_atom_site_label
_atom_site_fract_x
_atom_site_fract_y
_atom_site_fract_z
Si Si1 0.362074 0.406785 0.264460
Si Si2 0.862431 0.176998 0.494436
Si Si3 0.634336 0.211014 0.098805
Si Si4 0.866803 0.013107 0.840832
Si Si5 0.864990 0.563718 0.898101
Si Si6 0.717494 0.066650 0.660543
Si Si7 0.201438 0.274834 0.928992
Si Si8 0.627080 0.694737 0.259562
O O1 0.500000 0.392426 0.299965
O O2 0.345186 0.297469 0.188626
O O3 0.249362 0.410483 0.332962
O O4 0.359158 0.550617 0.219696
O O5 0.850342 0.330333 0.477753
O O6 0.800175 0.120427 0.581647
O O7 0.000000 0.147247 0.501372
O O8 0.818905 0.101780 0.404491
O O9 0.500000 0.232756 0.069312
O O10 0.652240 0.060776 0.125395
O O11 0.723731 0.249366 0.019255
O O12 0.790588 0.030662 0.750862
O O13 0.867544 0.143715 0.902559
O O14 0.000000 0.982832 0.813810
O O15 0.860880 0.414863 0.932348
O O16 0.000000 0.585281 0.860587
O O17 0.639384 0.189138 0.689291
O O18 0.282748 0.289221 0.840512
O O19 0.500000 0.701503 0.303140
#
# Coordination Sequence:
#
# PCOD9338354 Si02
#       8
#     4   4   4   4   4   4   4   4
#     4   9  20  39  61  86 119 157 197 245 302 360
#     4  10  21  37  56  83 119 151 192 246 299 352
#     4  11  22  37  58  87 120 154 198 248 296 358
#     4  10  20  37  58  81 111 152 194 238 296 358
#     4  10  21  39  61  87 121 157 200 250 295 353
#     4  11  21  35  58  84 114 153 194 243 294 352
#     4  10  20  36  59  82 117 152 195 240 294 350
#     4   9  19  36  57  80 110 150 192 238 289 347
#
# _framework density 18.510065999999998
#
# number of rings (size 3 to 8) (size 9 to 14) (size 15 to 20)
#    0.000    2.000    1.250    2.250    1.750    0.500 
#    0.000    3.750    0.000    0.000    0.000    0.000 
#    0.000    0.000    0.000    0.000    0.000    0.000 
#
# Total GULP energy -178174.863987 kJ/mol
# GULP energy per Si atom -5567.964500 kJ/mol
# Density = 1.846794 g / cm^3
# Si number density = 18.510066 Si / 1000 Ang^3
#
#
#
# Elastic Constant Matrix: (Units=GPa)
#
#
# Indices 1 2 3 4 5 6 
#
# 1 79.6604 15.1248 28.9332 0.0000 0.0000 0.0000
# 2 15.1248 105.8881 19.6839 0.0000 0.0000 0.0000
# 3 28.9332 19.6839 55.4470 0.0000 0.0000 0.0000
# 4 0.0000 0.0000 0.0000 25.2104 0.0000 0.0000
# 5 0.0000 0.0000 0.0000 0.0000 88.1429 0.0000
# 6 0.0000 0.0000 0.0000 0.0000 0.0000 30.5924
#
#
#
# Elastic Compliance Matrix: (Units=1/GPa)
#
#
# Indices 1 2 3 4 5 6 
#
# 1 0.015546 -0.000763 -0.007841 0.000000 0.000000 0.000000
# 2 -0.000763 0.010149 -0.003205 0.000000 0.000000 0.000000
# 3 -0.007841 -0.003205 0.023265 0.000000 0.000000 0.000000
# 4 0.000000 0.000000 0.000000 0.039666 0.000000 0.000000
# 5 0.000000 0.000000 0.000000 0.000000 0.011345 0.000000
# 6 0.000000 0.000000 0.000000 0.000000 0.000000 0.032688
#
#
# Mechanical properties :
#
#
# Convention : Reuss Voigt Hill
#
# Bulk Modulus (GPa) = 39.46105 40.94215 40.20160
# Shear Modulus (GPa) = 30.35381 40.60605 35.47993
#
# Velocity S-wave (km/s) = 4.05390 4.68881 4.38287
# Velocity P-wave (km/s) = 6.57854 7.17496 6.88321
#
# Compressibility (1/GPa) = 0.02534144
#
# Stress axis : x y z
#
# Youngs Moduli (GPa) = 64.32436 98.53537 42.98356
#
# Poissons Ratio (x) = 0.07517 0.33705
# Poissons Ratio (y) = 0.04907 0.13775
# Poissons Ratio (z) = 0.50440 0.31578
#
# Static dielectric constant tensor:
#      x y z
#    x 1.540030 0.000000 0.000000 
#    y 0.000000 1.668040 0.000000 
#    z 0.000000 0.000000 1.597960 
# 
# From -- ./inp_files/4570.got.cif
#   From: 2010.05.17/outbox.cif.g08.bks.cpg/sg26_3_cif.got.tgz:4570.got - 2010.06.04 01:07:29.
