data_PCOD9338710
_publ_section_title
;
Structure prediction by ZEFSAII (Michael W. Deem and Ramdas Pophale) SiO2 
 PCOD9338710
Probable space group: P M C 21
;
_chemical_formula_sum "Si O2"
_cell_formula_units_Z 32
_cell_length_a 9.000000
_cell_length_b 15.000000
_cell_length_c 12.000000
_cell_angle_alpha 90.000000
_cell_angle_beta 90.000000
_cell_angle_gamma 90.000000
_cell_volume 1620.000000
_symmetry_space_group_name_H-M "P M C 21"
_symmetry_group_IT_number 26
_symmetry_cell_setting 'orthorhombic'
loop_
_space_group_symop_operation_xyz
x,y,z
-x,-y,1/2+z
-x,y,z
x,-y,1/2+z
loop_
_atom_site_type_symbol
_atom_site_label
_atom_site_fract_x
_atom_site_fract_y
_atom_site_fract_z
Si Si1 0.822467 0.132944 0.907820
Si Si2 0.679184 0.834115 0.638309
Si Si3 0.171617 0.546651 0.130175
Si Si4 0.323251 0.042775 0.349575
Si Si5 0.326441 0.366820 0.180398
Si Si6 0.164675 0.350204 0.398064
Si Si7 0.180943 0.724979 0.236440
Si Si8 0.827711 0.164058 0.521304
O O1 0.778762 0.226928 0.850806
O O2 0.000000 0.128417 0.911126
O O3 0.759170 0.050900 0.836968
O O4 0.753473 0.125688 0.029512
O O5 0.500000 0.834861 0.627670
O O6 0.715332 0.890637 0.748412
O O7 0.730473 0.731287 0.647387
O O8 0.251903 0.452862 0.127635
O O9 0.233825 0.624510 0.211943
O O10 0.000000 0.531436 0.161265
O O11 0.174630 0.591550 0.009018
O O12 0.500000 0.030238 0.351396
O O13 0.268927 0.088045 0.464543
O O14 0.500000 0.368785 0.158335
O O15 0.290506 0.373399 0.311287
O O16 0.174350 0.248292 0.437458
O O17 0.000000 0.364196 0.348004
O O18 0.000000 0.720655 0.228837
O O19 0.225747 0.792559 0.137095
O O20 0.000000 0.135110 0.533955
#
# Coordination Sequence:
#
# PCOD9338710 Si02
#       8
#     4   4   4   4   4   4   4   4
#     4  11  24  40  62  90 120 157 202 251 298 355
#     4  10  24  44  60  83 124 164 198 241 298 360
#     4   9  19  37  60  86 117 156 201 247 301 359
#     4  11  23  40  60  85 119 157 195 242 300 362
#     4  11  22  37  58  86 121 158 199 247 296 356
#     4   9  18  34  57  83 112 149 196 249 300 350
#     4   8  18  38  60  86 119 150 190 247 303 349
#     4   9  17  34  61  87 110 143 193 248 294 347
#
# _framework density 19.753086
#
# number of rings (size 3 to 8) (size 9 to 14) (size 15 to 20)
#    0.000    2.250    1.250    2.625    1.750    3.500 
#    0.000    7.500    0.000    0.000    0.000    0.000 
#    0.000    0.000    0.000    0.000    0.000    0.000 
#
# Total GULP energy -178502.470355 kJ/mol
# GULP energy per Si atom -5578.202199 kJ/mol
# Density = 1.970813 g / cm^3
# Si number density = 19.753086 Si / 1000 Ang^3
#
#
#
# Elastic Constant Matrix: (Units=GPa)
#
#
# Indices 1 2 3 4 5 6 
#
# 1 19.9605 36.9483 20.2589 0.0000 0.0000 0.0000
# 2 36.9483 120.9880 24.5798 0.0000 0.0000 0.0000
# 3 20.2589 24.5798 44.4590 0.0000 0.0000 0.0000
# 4 0.0000 0.0000 0.0000 16.8340 0.0000 0.0000
# 5 0.0000 0.0000 0.0000 0.0000 24.4107 0.0000
# 6 0.0000 0.0000 0.0000 0.0000 0.0000 29.3136
#
#
#
# Elastic Compliance Matrix: (Units=1/GPa)
#
#
# Indices 1 2 3 4 5 6 
#
# 1 0.219482 -0.052619 -0.070922 0.000000 0.000000 0.000000
# 2 -0.052619 0.021926 0.011855 0.000000 0.000000 0.000000
# 3 -0.070922 0.011855 0.048256 0.000000 0.000000 0.000000
# 4 0.000000 0.000000 0.000000 0.059404 0.000000 0.000000
# 5 0.000000 0.000000 0.000000 0.000000 0.040966 0.000000
# 6 0.000000 0.000000 0.000000 0.000000 0.000000 0.034114
#
#
# Mechanical properties :
#
#
# Convention : Reuss Voigt Hill
#
# Bulk Modulus (GPa) = 15.08455 38.77571 26.93013
# Shear Modulus (GPa) = 7.46697 21.01969 14.24333
#
# Velocity S-wave (km/s) = 1.94637 3.26563 2.68818
# Velocity P-wave (km/s) = 3.56431 5.82168 4.82681
#
# Compressibility (1/GPa) = 0.06629302
#
# Stress axis : x y z
#
# Youngs Moduli (GPa) = 4.55617 45.60799 20.72293
#
# Poissons Ratio (x) = 2.39984 1.46971
# Poissons Ratio (y) = 0.23974 -0.24567
# Poissons Ratio (z) = 0.32313 -0.54068
#
# Static dielectric constant tensor:
#      x y z
#    x 1.659780 0.000000 0.000000 
#    y 0.000000 1.715480 0.000000 
#    z 0.000000 0.000000 1.699850 
# 
# From -- ./inp_files/3001.got.cif
#   From: 2010.05.17/outbox.ucp.g08.bks.cvg/sg26_2_cif.got.tgz:3001.got - 2010.06.11 15:23:25.
