data_PCOD9338555
_publ_section_title
;
Structure prediction by ZEFSAII (Michael W. Deem and Ramdas Pophale) SiO2 
 PCOD9338555
Probable space group: P M C 21
;
_chemical_formula_sum "Si O2"
_cell_formula_units_Z 24
_cell_length_a 8.773456
_cell_length_b 12.178804
_cell_length_c 12.295605
_cell_angle_alpha 90.000000
_cell_angle_beta 90.000000
_cell_angle_gamma 90.000000
_cell_volume 1313.787866
_symmetry_space_group_name_H-M "P M C 21"
_symmetry_group_IT_number 26
_symmetry_cell_setting 'orthorhombic'
loop_
_space_group_symop_operation_xyz
x,y,z
-x,-y,1/2+z
-x,y,z
x,-y,1/2+z
loop_
_atom_site_type_symbol
_atom_site_label
_atom_site_fract_x
_atom_site_fract_y
_atom_site_fract_z
Si Si1 0.815704 0.165195 0.152630
Si Si2 0.682341 0.212417 0.388388
Si Si3 0.183710 0.920802 0.083554
Si Si4 0.183682 0.710759 0.224625
Si Si5 0.815805 0.341055 0.970261
Si Si6 0.682429 0.576710 0.030033
O O1 0.749602 0.197192 0.269187
O O2 0.000000 0.166106 0.159414
O O3 0.768708 0.042248 0.118610
O O4 0.769054 0.251987 0.060327
O O5 0.500000 0.207276 0.384871
O O6 0.744750 0.120240 0.470912
O O7 0.726544 0.329414 0.442302
O O8 0.224508 0.829470 0.174224
O O9 0.000000 0.920232 0.071979
O O10 0.231146 0.695326 0.349093
O O11 0.255717 0.620163 0.145397
O O12 0.000000 0.701129 0.219262
O O13 0.000000 0.346674 0.971482
O O14 0.750401 0.459820 0.998851
O O15 0.500000 0.570784 0.033613
#
# Coordination Sequence:
#
# PCOD9338555 Si02
#       6
#     4   4   4   4   4   4
#     4  10  22  37  60  89 116 147 188 236 283 335
#     4  10  22  39  58  83 117 153 190 231 281 340
#     4   9  19  37  63  87 112 147 188 233 283 336
#     4   9  19  37  60  85 112 145 187 234 282 334
#     4  10  22  37  57  87 116 144 188 238 283 331
#     4  10  22  39  58  81 113 152 191 230 282 340
#
# _framework density 18.267790000000002
#
# number of rings (size 3 to 8) (size 9 to 14) (size 15 to 20)
#    0.000    2.333    0.000    1.000    4.667    4.000 
#    0.000    0.000    0.000    0.000    0.000    0.000 
#    0.000    0.000    0.000    0.000    0.000    0.000 
#
# Total GULP energy -134008.273687 kJ/mol
# GULP energy per Si atom -5583.678070 kJ/mol
# Density = 1.822621 g / cm^3
# Si number density = 18.267790 Si / 1000 Ang^3
#
#
#
# Elastic Constant Matrix: (Units=GPa)
#
#
# Indices 1 2 3 4 5 6 
#
# 1 13.6976 35.7314 44.7816 0.0000 0.0000 0.0000
# 2 35.7314 149.4918 117.5024 0.0000 0.0000 0.0000
# 3 44.7816 117.5024 216.5875 0.0000 0.0000 0.0000
# 4 0.0000 0.0000 0.0000 14.2571 0.0000 0.0000
# 5 0.0000 0.0000 0.0000 0.0000 7.4381 0.0000
# 6 0.0000 0.0000 0.0000 0.0000 0.0000 14.1760
#
#
#
# Elastic Compliance Matrix: (Units=1/GPa)
#
#
# Indices 1 2 3 4 5 6 
#
# 1 0.343274 -0.045786 -0.046136 0.000000 0.000000 0.000000
# 2 -0.045786 0.017769 -0.000174 0.000000 0.000000 0.000000
# 3 -0.046136 -0.000174 0.014250 0.000000 0.000000 0.000000
# 4 0.000000 0.000000 0.000000 0.070141 0.000000 0.000000
# 5 0.000000 0.000000 0.000000 0.000000 0.134442 0.000000
# 6 0.000000 0.000000 0.000000 0.000000 0.000000 0.070542
#
#
# Mechanical properties :
#
#
# Convention : Reuss Voigt Hill
#
# Bulk Modulus (GPa) = 5.23276 86.20085 45.71681
# Shear Modulus (GPa) = 5.56601 19.29168 12.42884
#
# Velocity S-wave (km/s) = 1.74743 3.25322 2.61122
# Velocity P-wave (km/s) = 2.63478 7.83588 5.84564
#
# Compressibility (1/GPa) = 0.19110370
#
# Stress axis : x y z
#
# Youngs Moduli (GPa) = 2.91312 56.27644 70.17421
#
# Poissons Ratio (x) = 2.57666 3.23754
# Poissons Ratio (y) = 0.13338 0.01218
# Poissons Ratio (z) = 0.13440 0.00977
#
# Static dielectric constant tensor:
#      x y z
#    x 1.611860 0.000000 0.000000 
#    y 0.000000 1.608160 0.000000 
#    z 0.000000 0.000000 1.598970 
# 
# From -- ./inp_files/2790.got.cif
#   From: 2010.05.17/outbox.cif.g08.bks.cpg/sg26_2_cif.got.tgz:2790.got - 2010.06.04 01:07:29.
