data_PCOD9338633
_publ_section_title
;
Structure prediction by ZEFSAII (Michael W. Deem and Ramdas Pophale) SiO2 
 PCOD9338633
Probable space group: P M C 21
;
_chemical_formula_sum "Si O2"
_cell_formula_units_Z 20
_cell_length_a 10.023250
_cell_length_b 5.825387
_cell_length_c 15.770131
_cell_angle_alpha 90.000000
_cell_angle_beta 90.000000
_cell_angle_gamma 90.000000
_cell_volume 920.807072
_symmetry_space_group_name_H-M "P M C 21"
_symmetry_group_IT_number 26
_symmetry_cell_setting 'orthorhombic'
loop_
_space_group_symop_operation_xyz
x,y,z
-x,-y,1/2+z
-x,y,z
x,-y,1/2+z
loop_
_atom_site_type_symbol
_atom_site_label
_atom_site_fract_x
_atom_site_fract_y
_atom_site_fract_z
Si Si1 0.500000 0.781388 0.972501
Si Si2 0.500000 0.625902 0.551965
Si Si3 0.730927 0.315359 0.753934
Si Si4 0.272029 0.148987 0.948657
Si Si5 0.000000 0.111550 0.052219
Si Si6 0.000000 0.387849 0.651589
Si Si7 0.500000 0.357427 0.298609
Si Si8 0.500000 0.025516 0.690276
O O1 0.500000 0.597745 0.897499
O O2 0.367357 0.927763 0.959216
O O3 0.500000 0.649087 0.061756
O O4 0.638845 0.673032 0.502957
O O5 0.500000 0.812267 0.626316
O O6 0.745380 0.218450 0.850031
O O7 0.868814 0.376863 0.710319
O O8 0.632569 0.532523 0.761308
O O9 0.643288 0.146979 0.694972
O O10 0.131402 0.115897 0.993762
O O11 0.000000 0.360523 0.103453
O O12 0.000000 0.860682 0.100665
O O13 0.500000 0.088850 0.284574
#
# Coordination Sequence:
#
# PCOD9338633 Si02
#       8
#     2   2   4   4   2   2   2   2
#     4  11  21  42  75 110 143 183 251 309 366 456
#     4  11  23  39  71 108 143 186 231 310 375 434
#     4  11  24  46  72 105 142 199 248 306 371 455
#     4  11  24  46  72 105 144 194 250 300 371 448
#     4  12  31  50  71 108 150 197 247 314 373 440
#     4  12  31  50  71 106 154 193 251 310 377 438
#     4  11  21  40  76 106 141 181 244 308 365 447
#     4  11  23  41  70 106 147 182 244 305 378 435
#
# _framework density 21.720075000000001
#
# number of rings (size 3 to 8) (size 9 to 14) (size 15 to 20)
#    0.000    0.800    4.000    3.000    8.400    3.200 
#    0.000    3.000    0.000    0.000    0.000    0.000 
#    0.000    0.000    0.000    0.000    0.000    0.000 
#
# Total GULP energy -111537.604706 kJ/mol
# GULP energy per Si atom -5576.880235 kJ/mol
# Density = 2.167064 g / cm^3
# Si number density = 21.720075 Si / 1000 Ang^3
#
#
#
# Elastic Constant Matrix: (Units=GPa)
#
#
# Indices 1 2 3 4 5 6 
#
# 1 235.5049 58.5999 84.6206 0.0000 0.0000 0.0000
# 2 58.5999 81.1974 37.7672 0.0000 0.0000 0.0000
# 3 84.6206 37.7672 120.7184 0.0000 0.0000 0.0000
# 4 0.0000 0.0000 0.0000 41.1765 0.0000 0.0000
# 5 0.0000 0.0000 0.0000 0.0000 60.7706 0.0000
# 6 0.0000 0.0000 0.0000 0.0000 0.0000 124.4738
#
#
#
# Elastic Compliance Matrix: (Units=1/GPa)
#
#
# Indices 1 2 3 4 5 6 
#
# 1 0.006199 -0.002870 -0.003447 0.000000 0.000000 0.000000
# 2 -0.002870 0.015742 -0.002913 0.000000 0.000000 0.000000
# 3 -0.003447 -0.002913 0.011612 0.000000 0.000000 0.000000
# 4 0.000000 0.000000 0.000000 0.024286 0.000000 0.000000
# 5 0.000000 0.000000 0.000000 0.000000 0.016455 0.000000
# 6 0.000000 0.000000 0.000000 0.000000 0.000000 0.008034
#
#
# Mechanical properties :
#
#
# Convention : Reuss Voigt Hill
#
# Bulk Modulus (GPa) = 66.26287 88.82178 77.54232
# Shear Modulus (GPa) = 47.25021 62.37971 54.81496
#
# Velocity S-wave (km/s) = 4.66920 5.36490 5.02909
# Velocity P-wave (km/s) = 7.72285 8.90836 8.33671
#
# Compressibility (1/GPa) = 0.01509141
#
# Stress axis : x y z
#
# Youngs Moduli (GPa) = 161.31252 63.52392 86.12067
#
# Poissons Ratio (x) = 0.18234 0.29690
# Poissons Ratio (y) = 0.46303 0.25086
# Poissons Ratio (z) = 0.55611 0.18504
#
# Static dielectric constant tensor:
#      x y z
#    x 1.704330 0.000000 0.000000 
#    y 0.000000 1.927200 0.000000 
#    z 0.000000 0.000000 1.884260 
# 
# From -- ./inp_files/4817.got.cif
#   From: 2010.05.17/outbox.cif.g08.bks.cpg/sg26_3_cif.got.tgz:4817.got - 2010.06.04 01:07:29.
