data_PCOD9338682
_publ_section_title
;
Structure prediction by ZEFSAII (Michael W. Deem and Ramdas Pophale) SiO2 
 PCOD9338682
Probable space group: P M C 21
;
_chemical_formula_sum "Si O2"
_cell_formula_units_Z 32
_cell_length_a 9.000000
_cell_length_b 15.000000
_cell_length_c 12.000000
_cell_angle_alpha 90.000000
_cell_angle_beta 90.000000
_cell_angle_gamma 90.000000
_cell_volume 1620.000000
_symmetry_space_group_name_H-M "P M C 21"
_symmetry_group_IT_number 26
_symmetry_cell_setting 'orthorhombic'
loop_
_space_group_symop_operation_xyz
x,y,z
-x,-y,1/2+z
-x,y,z
x,-y,1/2+z
loop_
_atom_site_type_symbol
_atom_site_label
_atom_site_fract_x
_atom_site_fract_y
_atom_site_fract_z
Si Si1 0.671715 0.156384 0.734890
Si Si2 0.177264 0.247605 0.546244
Si Si3 0.180408 0.449230 0.600542
Si Si4 0.326541 0.992446 0.412146
Si Si5 0.676768 0.162486 0.087848
Si Si6 0.829973 0.723097 0.414807
Si Si7 0.827301 0.483905 0.853265
Si Si8 0.174694 0.163683 0.327823
O O1 0.500000 0.184198 0.739190
O O2 0.734788 0.171394 0.612651
O O3 0.678960 0.060742 0.794151
O O4 0.769767 0.218575 0.813649
O O5 0.212922 0.343411 0.599442
O O6 0.211491 0.243051 0.414516
O O7 0.000000 0.233183 0.557889
O O8 0.232201 0.479330 0.474597
O O9 0.229703 0.491491 0.722165
O O10 0.000000 0.460553 0.600268
O O11 0.500000 0.018213 0.430404
O O12 0.282648 0.923292 0.510267
O O13 0.220276 0.075441 0.395697
O O14 0.500000 0.162899 0.091971
O O15 0.741133 0.162340 0.211241
O O16 0.734256 0.248916 0.021342
O O17 0.823631 0.621449 0.377779
O O18 0.000000 0.746300 0.439528
O O19 0.000000 0.514906 0.848343
O O20 0.000000 0.165674 0.305453
#
# Coordination Sequence:
#
# PCOD9338682 Si02
#       8
#     4   4   4   4   4   4   4   4
#     4  10  20  35  58  83 108 148 193 230 281 349
#     4  10  21  37  56  83 117 150 190 243 293 342
#     4   9  17  32  53  83 118 152 193 242 299 358
#     4   9  21  39  57  79 107 147 193 236 281 344
#     4  10  22  40  58  80 113 153 193 233 285 355
#     4  10  18  33  58  86 111 142 188 240 290 334
#     4   9  17  29  53  85 116 150 190 242 299 352
#     4  11  24  37  55  85 116 148 188 244 300 342
#
# _framework density 19.753086
#
# number of rings (size 3 to 8) (size 9 to 14) (size 15 to 20)
#    0.000    2.250    1.250    2.250    1.750    5.000 
#    0.000    3.750    0.000    1.500    0.000    0.000 
#    0.000    0.000    0.000    0.000    0.000    0.000 
#
# Total GULP energy -178253.363329 kJ/mol
# GULP energy per Si atom -5570.417604 kJ/mol
# Density = 1.970813 g / cm^3
# Si number density = 19.753086 Si / 1000 Ang^3
#
#
#
# Elastic Constant Matrix: (Units=GPa)
#
#
# Indices 1 2 3 4 5 6 
#
# 1 16.9083 9.4280 25.1994 0.0000 0.0000 0.0000
# 2 9.4280 19.1780 20.5207 0.0000 0.0000 0.0000
# 3 25.1994 20.5207 164.6343 0.0000 0.0000 0.0000
# 4 0.0000 0.0000 0.0000 15.5779 0.0000 0.0000
# 5 0.0000 0.0000 0.0000 0.0000 25.0324 0.0000
# 6 0.0000 0.0000 0.0000 0.0000 0.0000 174.5142
#
#
#
# Elastic Compliance Matrix: (Units=1/GPa)
#
#
# Indices 1 2 3 4 5 6 
#
# 1 0.093695 -0.035443 -0.009924 0.000000 0.000000 0.000000
# 2 -0.035443 0.073575 -0.003746 0.000000 0.000000 0.000000
# 3 -0.009924 -0.003746 0.008060 0.000000 0.000000 0.000000
# 4 0.000000 0.000000 0.000000 0.064194 0.000000 0.000000
# 5 0.000000 0.000000 0.000000 0.000000 0.039948 0.000000
# 6 0.000000 0.000000 0.000000 0.000000 0.000000 0.005730
#
#
# Mechanical properties :
#
#
# Convention : Reuss Voigt Hill
#
# Bulk Modulus (GPa) = 12.96917 34.55741 23.76329
# Shear Modulus (GPa) = 12.22113 52.72973 32.47543
#
# Velocity S-wave (km/s) = 2.49006 5.17227 4.05911
# Velocity P-wave (km/s) = 3.85319 7.29400 5.83308
#
# Compressibility (1/GPa) = 0.07710592
#
# Stress axis : x y z
#
# Youngs Moduli (GPa) = 10.67291 13.59161 124.07158
#
# Poissons Ratio (x) = 0.48172 1.23123
# Poissons Ratio (y) = 0.37828 0.46473
# Poissons Ratio (z) = 0.10591 0.05091
#
# Static dielectric constant tensor:
#      x y z
#    x 1.659210 0.000000 0.000000 
#    y 0.000000 1.715440 0.000000 
#    z 0.000000 0.000000 1.750120 
# 
# From -- ./inp_files/3034.got.cif
#   From: 2010.05.17/outbox.ucp.g08.bks.cvg/sg26_2_cif.got.tgz:3034.got - 2010.06.11 15:23:25.
