data_PCOD9338024
_publ_section_title
;
Structure prediction by ZEFSAII (Michael W. Deem and Ramdas Pophale) SiO2 
 PCOD9338024
Probable space group: P M C 21
;
_chemical_formula_sum "Si O2"
_cell_formula_units_Z 24
_cell_length_a 8.532664
_cell_length_b 7.649758
_cell_length_c 14.684527
_cell_angle_alpha 90.000000
_cell_angle_beta 90.000000
_cell_angle_gamma 90.000000
_cell_volume 958.500410
_symmetry_space_group_name_H-M "P M C 21"
_symmetry_group_IT_number 26
_symmetry_cell_setting 'orthorhombic'
loop_
_space_group_symop_operation_xyz
x,y,z
-x,-y,1/2+z
-x,y,z
x,-y,1/2+z
loop_
_atom_site_type_symbol
_atom_site_label
_atom_site_fract_x
_atom_site_fract_y
_atom_site_fract_z
Si Si1 0.831239 0.155717 0.091380
Si Si2 0.168456 0.759466 0.143601
Si Si3 0.500000 0.620551 0.168009
Si Si4 0.500000 0.382633 0.446283
Si Si5 0.500000 0.749325 0.665359
Si Si6 0.167627 0.359499 0.430768
Si Si7 0.832154 0.040058 0.881866
Si Si8 0.500000 0.984371 0.838536
O O1 0.664915 0.244194 0.111790
O O2 0.000000 0.245544 0.112660
O O3 0.831143 0.969968 0.142988
O O4 0.834870 0.103451 0.985937
O O5 0.331334 0.702225 0.186208
O O6 0.000000 0.693943 0.178574
O O7 0.171136 0.696599 0.037452
O O8 0.500000 0.434057 0.215289
O O9 0.500000 0.604036 0.056312
O O10 0.331971 0.454356 0.413637
O O11 0.500000 0.175948 0.414106
O O12 0.500000 0.899701 0.739349
O O13 0.167922 0.173179 0.378673
O O14 0.000000 0.448857 0.413220
O O15 0.660245 0.088328 0.849384
O O16 0.000000 0.094928 0.841452
#
# Coordination Sequence:
#
# PCOD9338024 Si02
#       8
#     4   4   2   2   2   4   4   2
#     4   9  18  34  56  80 107 141 183 228 272 327
#     4   8  14  28  51  71  88 126 184 225 244 291
#     4  10  19  30  48  74 106 142 177 218 268 326
#     4   8  14  27  44  59  83 128 176 204 230 293
#     4  12  24  31  44  83 128 146 156 216 314 355
#     4   7  10  18  38  68  85  94 140 213 251 257
#     4   8  14  28  51  71  89 127 182 224 250 299
#     4  10  19  30  48  76 107 138 177 228 278 324
#
# _framework density 25.039113
#
# number of rings (size 3 to 8) (size 9 to 14) (size 15 to 20)
#    0.000    3.333    0.000    4.000    0.000    2.667 
#    0.000    0.000    0.000    4.000    0.000    0.000 
#    0.000    0.000    0.000    0.000    0.000    0.000 
#
# Total GULP energy -133864.600038 kJ/mol
# GULP energy per Si atom -5577.691668 kJ/mol
# Density = 2.498212 g / cm^3
# Si number density = 25.039113 Si / 1000 Ang^3
#
#
#
# Elastic Constant Matrix: (Units=GPa)
#
#
# Indices 1 2 3 4 5 6 
#
# 1 363.0785 40.0329 33.5657 0.0000 0.0000 0.0000
# 2 40.0329 35.3325 8.4037 0.0000 0.0000 0.0000
# 3 33.5657 8.4037 44.6273 0.0000 0.0000 0.0000
# 4 0.0000 0.0000 0.0000 8.9659 0.0000 0.0000
# 5 0.0000 0.0000 0.0000 0.0000 -51.4522 0.0000
# 6 0.0000 0.0000 0.0000 0.0000 0.0000 -14.4198
#
#
#
# Elastic Compliance Matrix: (Units=1/GPa)
#
#
# Indices 1 2 3 4 5 6 
#
# 1 0.003288 -0.003284 -0.001854 0.000000 0.000000 0.000000
# 2 -0.003284 0.032910 -0.003727 0.000000 0.000000 0.000000
# 3 -0.001854 -0.003727 0.024504 0.000000 0.000000 0.000000
# 4 0.000000 0.000000 0.000000 0.111533 0.000000 0.000000
# 5 0.000000 0.000000 0.000000 0.000000 -0.019436 0.000000
# 6 0.000000 0.000000 0.000000 0.000000 0.000000 -0.069349
#
#
# Mechanical properties :
#
#
# Convention : Reuss Voigt Hill
#
# Bulk Modulus (GPa) = 23.27160 67.44922 45.36041
# Shear Modulus (GPa) = 43.28782 12.68785 27.98783
#
# Velocity S-wave (km/s) = 4.16240 2.25349 3.34693
# Velocity P-wave (km/s) = 5.69343 5.81094 5.75248
#
# Compressibility (1/GPa) = 0.04297083
#
# Stress axis : x y z
#
# Youngs Moduli (GPa) = 304.15824 30.38591 40.80896
#
# Poissons Ratio (x) = 0.09979 0.07568
# Poissons Ratio (y) = 0.99888 0.15210
# Poissons Ratio (z) = 0.56403 0.11325
#
# Static dielectric constant tensor:
#      x y z
#    x 2.054370 0.000000 0.000000 
#    y 0.000000 1.928280 0.000000 
#    z 0.000000 0.000000 1.955990 
# 
# From -- ./inp_files/4907.got.cif
#   From: 2010.05.17/outbox.cif.g08.bks.cpg/sg26_3_cif.got.tgz:4907.got - 2010.06.04 01:07:29.
