data_PCOD9338549
_publ_section_title
;
Structure prediction by ZEFSAII (Michael W. Deem and Ramdas Pophale) SiO2 
 PCOD9338549
Probable space group: P M C 21
;
_chemical_formula_sum "Si O2"
_cell_formula_units_Z 24
_cell_length_a 18.161274
_cell_length_b 5.880877
_cell_length_c 8.875172
_cell_angle_alpha 90.000000
_cell_angle_beta 90.000000
_cell_angle_gamma 90.000000
_cell_volume 947.905810
_symmetry_space_group_name_H-M "P M C 21"
_symmetry_group_IT_number 26
_symmetry_cell_setting 'orthorhombic'
loop_
_space_group_symop_operation_xyz
x,y,z
-x,-y,1/2+z
-x,y,z
x,-y,1/2+z
loop_
_atom_site_type_symbol
_atom_site_label
_atom_site_fract_x
_atom_site_fract_y
_atom_site_fract_z
Si Si1 0.219721 0.849337 0.601030
Si Si2 0.875153 0.149297 0.367115
Si Si3 0.346015 0.544010 0.447333
Si Si4 0.500000 0.964512 0.211179
Si Si5 0.000000 0.447958 0.522713
Si Si6 0.660619 0.817344 0.162470
Si Si7 0.500000 0.429868 0.111635
Si Si8 0.000000 0.815098 0.309719
O O1 0.171278 0.735369 0.732609
O O2 0.278371 0.684039 0.520515
O O3 0.172257 0.995291 0.482082
O O4 0.268159 0.036151 0.688223
O O5 0.927285 0.325762 0.455075
O O6 0.929482 0.970095 0.287208
O O7 0.338326 0.282657 0.494326
O O8 0.342691 0.601375 0.272479
O O9 0.427378 0.614789 0.508685
O O10 0.588705 0.962747 0.193186
O O11 0.500000 0.686235 0.169453
O O12 0.500000 0.242588 0.243446
O O13 0.000000 0.397242 0.698551
O O14 0.000000 0.709863 0.476609
#
# Coordination Sequence:
#
# PCOD9338549 Si02
#       8
#     4   4   4   2   2   4   2   2
#     4  12  24  44  68  99 139 181 226 291 352 427
#     4  11  26  46  68 102 140 175 225 284 348 424
#     4  11  25  43  67 100 139 188 242 300 365 428
#     4  10  21  44  70 103 143 192 258 310 375 435
#     4  11  26  46  73 101 135 177 225 275 346 424
#     4  11  25  43  67 101 138 189 242 299 364 431
#     4  10  21  44  70 103 141 196 252 320 367 443
#     4  11  26  46  73 103 133 179 225 275 344 428
#
# _framework density 25.318971000000001
#
# number of rings (size 3 to 8) (size 9 to 14) (size 15 to 20)
#    0.000    1.000    5.000    0.500    4.667    2.667 
#    0.000    1.667    0.000    0.000    0.000    0.000 
#    0.000    0.000    0.000    0.000    0.000    0.000 
#
# Total GULP energy -133933.683729 kJ/mol
# GULP energy per Si atom -5580.570155 kJ/mol
# Density = 2.526134 g / cm^3
# Si number density = 25.318971 Si / 1000 Ang^3
#
#
#
# Elastic Constant Matrix: (Units=GPa)
#
#
# Indices 1 2 3 4 5 6 
#
# 1 152.5727 10.8890 37.8519 0.0000 0.0000 0.0000
# 2 10.8890 90.6466 -6.3847 0.0000 0.0000 0.0000
# 3 37.8519 -6.3847 80.4339 0.0000 0.0000 0.0000
# 4 0.0000 0.0000 0.0000 57.2518 0.0000 0.0000
# 5 0.0000 0.0000 0.0000 0.0000 20.3029 0.0000
# 6 0.0000 0.0000 0.0000 0.0000 0.0000 28.4204
#
#
#
# Elastic Compliance Matrix: (Units=1/GPa)
#
#
# Indices 1 2 3 4 5 6 
#
# 1 0.007540 -0.001162 -0.003641 0.000000 0.000000 0.000000
# 2 -0.001162 0.011273 0.001442 0.000000 0.000000 0.000000
# 3 -0.003641 0.001442 0.014260 0.000000 0.000000 0.000000
# 4 0.000000 0.000000 0.000000 0.017467 0.000000 0.000000
# 5 0.000000 0.000000 0.000000 0.000000 0.049254 0.000000
# 6 0.000000 0.000000 0.000000 0.000000 0.000000 0.035186
#
#
# Mechanical properties :
#
#
# Convention : Reuss Voigt Hill
#
# Bulk Modulus (GPa) = 37.94869 45.37395 41.66132
# Shear Modulus (GPa) = 33.22550 39.94814 36.58682
#
# Velocity S-wave (km/s) = 3.62647 3.97646 3.80549
# Velocity P-wave (km/s) = 5.70577 6.24842 5.98325
#
# Compressibility (1/GPa) = 0.02635137
#
# Stress axis : x y z
#
# Youngs Moduli (GPa) = 132.61819 88.70740 70.12449
#
# Poissons Ratio (x) = 0.10310 0.25531
# Poissons Ratio (y) = 0.15413 -0.10110
# Poissons Ratio (z) = 0.48283 -0.12790
#
# Static dielectric constant tensor:
#      x y z
#    x 2.039310 0.000000 0.000000 
#    y 0.000000 1.842430 0.000000 
#    z 0.000000 0.000000 2.023850 
# 
# From -- ./inp_files/3660.got.cif
#   From: 2010.05.17/outbox.cif.g08.bks.cpg/sg26_2_cif.got.tgz:3660.got - 2010.06.04 01:07:29.
