data_PCOD9338499
_publ_section_title
;
Structure prediction by ZEFSAII (Michael W. Deem and Ramdas Pophale) SiO2 
 PCOD9338499
Probable space group: P M C 21
;
_chemical_formula_sum "Si O2"
_cell_formula_units_Z 20
_cell_length_a 14.232960
_cell_length_b 5.617005
_cell_length_c 9.408266
_cell_angle_alpha 90.000000
_cell_angle_beta 90.000000
_cell_angle_gamma 90.000000
_cell_volume 752.158949
_symmetry_space_group_name_H-M "P M C 21"
_symmetry_group_IT_number 26
_symmetry_cell_setting 'orthorhombic'
loop_
_space_group_symop_operation_xyz
x,y,z
-x,-y,1/2+z
-x,y,z
x,-y,1/2+z
loop_
_atom_site_type_symbol
_atom_site_label
_atom_site_fract_x
_atom_site_fract_y
_atom_site_fract_z
Si Si1 0.199345 0.196395 0.589140
Si Si2 0.664834 0.813931 0.618829
Si Si3 0.500000 0.069665 0.498976
Si Si4 0.500000 0.422619 0.969482
Si Si5 0.000000 0.985288 0.005274
Si Si6 0.000000 0.694718 0.739830
Si Si7 0.791615 0.523794 0.823867
O O1 0.250374 0.954823 0.542640
O O2 0.091046 0.139327 0.568970
O O3 0.217443 0.425831 0.490033
O O4 0.226998 0.273153 0.747843
O O5 0.588929 0.029399 0.601552
O O6 0.596125 0.607028 0.559285
O O7 0.716578 0.708271 0.755855
O O8 0.500000 0.312610 0.411750
O O9 0.500000 0.836351 0.396141
O O10 0.000000 0.936295 0.837579
O O11 0.000000 0.247770 0.072034
O O12 0.900160 0.578980 0.780398
#
# Coordination Sequence:
#
# PCOD9338499 Si02
#       7
#     4   4   2   2   2   2   4
#     4  11  23  39  62  95 132 179 226 281 341 409
#     4   9  20  37  66  88 130 165 224 271 342 402
#     4   8  18  36  64  96 130 171 220 280 349 414
#     4   8  18  36  64  96 130 171 220 280 349 414
#     4  10  21  38  60  89 129 175 227 277 338 403
#     4  10  21  38  60  89 129 175 227 277 338 403
#     4  11  23  39  62  95 132 179 226 281 341 409
#
# _framework density 26.590122999999998
#
# number of rings (size 3 to 8) (size 9 to 14) (size 15 to 20)
#    1.200    0.800    2.000    1.800    0.000    3.200 
#    0.000    4.000    0.000    2.400    0.000    0.000 
#    0.000    0.000    0.000    0.000    0.000    0.000 
#
# Total GULP energy -111443.061103 kJ/mol
# GULP energy per Si atom -5572.153055 kJ/mol
# Density = 2.652960 g / cm^3
# Si number density = 26.590123 Si / 1000 Ang^3
#
#
#
# Elastic Constant Matrix: (Units=GPa)
#
#
# Indices 1 2 3 4 5 6 
#
# 1 148.8969 28.8675 19.4714 0.0000 0.0000 0.0000
# 2 28.8675 132.9257 18.8622 0.0000 0.0000 0.0000
# 3 19.4714 18.8622 76.3931 0.0000 0.0000 0.0000
# 4 0.0000 0.0000 0.0000 31.2284 0.0000 0.0000
# 5 0.0000 0.0000 0.0000 0.0000 -6.6227 0.0000
# 6 0.0000 0.0000 0.0000 0.0000 0.0000 22.2222
#
#
#
# Elastic Compliance Matrix: (Units=1/GPa)
#
#
# Indices 1 2 3 4 5 6 
#
# 1 0.007173 -0.001345 -0.001496 0.000000 0.000000 0.000000
# 2 -0.001345 0.008049 -0.001644 0.000000 0.000000 0.000000
# 3 -0.001496 -0.001644 0.013877 0.000000 0.000000 0.000000
# 4 0.000000 0.000000 0.000000 0.032022 0.000000 0.000000
# 5 0.000000 0.000000 0.000000 0.000000 -0.150996 0.000000
# 6 0.000000 0.000000 0.000000 0.000000 0.000000 0.045000
#
#
# Mechanical properties :
#
#
# Convention : Reuss Voigt Hill
#
# Bulk Modulus (GPa) = 49.68417 54.73533 52.20975
# Shear Modulus (GPa) = -171.26207 28.76655 -71.24776
#
# Velocity S-wave (km/s) = -8.03418 3.29272 -5.18199
# Velocity P-wave (km/s) = 8.20599 5.92330 4.01576
#
# Compressibility (1/GPa) = 0.02012713
#
# Stress axis : x y z
#
# Youngs Moduli (GPa) = 139.42093 124.24667 72.05913
#
# Poissons Ratio (x) = 0.16716 0.10780
# Poissons Ratio (y) = 0.18757 0.11849
# Poissons Ratio (z) = 0.20857 0.20430
#
# Static dielectric constant tensor:
#      x y z
#    x 2.044580 0.000000 0.000000 
#    y 0.000000 2.155320 0.000000 
#    z 0.000000 0.000000 2.028000 
# 
# From -- ./inp_files/3517.got.cif
#   From: 2010.05.17/outbox.cif.g08.bks.cpg/sg26_2_cif.got.tgz:3517.got - 2010.06.04 01:07:29.
