data_PCOD9338246
_publ_section_title
;
Structure prediction by ZEFSAII (Michael W. Deem and Ramdas Pophale) SiO2 
 PCOD9338246
Probable space group: P M C 21
;
_chemical_formula_sum "Si O2"
_cell_formula_units_Z 32
_cell_length_a 7.573639
_cell_length_b 10.857610
_cell_length_c 17.412512
_cell_angle_alpha 90.000000
_cell_angle_beta 90.000000
_cell_angle_gamma 90.000000
_cell_volume 1431.859045
_symmetry_space_group_name_H-M "P M C 21"
_symmetry_group_IT_number 26
_symmetry_cell_setting 'orthorhombic'
loop_
_space_group_symop_operation_xyz
x,y,z
-x,-y,1/2+z
-x,y,z
x,-y,1/2+z
loop_
_atom_site_type_symbol
_atom_site_label
_atom_site_fract_x
_atom_site_fract_y
_atom_site_fract_z
Si Si1 0.707824 0.496272 0.245360
Si Si2 0.294211 0.292526 0.360912
Si Si3 0.788604 0.029296 0.322176
Si Si4 0.794474 0.499045 0.076986
Si Si5 0.213761 0.013011 0.003228
Si Si6 0.212912 0.762942 0.303062
Si Si7 0.216451 0.724478 0.479340
Si Si8 0.798021 0.755793 0.034299
O O1 0.500000 0.473048 0.241781
O O2 0.775586 0.411428 0.315242
O O3 0.786943 0.456718 0.164380
O O4 0.736875 0.641959 0.256250
O O5 0.500000 0.311731 0.379573
O O6 0.200496 0.268766 0.442268
O O7 0.280290 0.167590 0.309842
O O8 0.749675 0.004020 0.412438
O O9 0.726730 0.902104 0.281755
O O10 0.000000 0.036431 0.312779
O O11 0.000000 0.512789 0.054423
O O12 0.717752 0.397631 0.020330
O O13 0.713182 0.634771 0.070086
O O14 0.272967 0.150294 0.022431
O O15 0.000000 0.010377 0.010344
O O16 0.283034 0.891172 0.044860
O O17 0.269944 0.734211 0.390661
O O18 0.000000 0.768619 0.302802
O O19 0.000000 0.723923 0.480132
O O20 0.000000 0.764017 0.063369
#
# Coordination Sequence:
#
# PCOD9338246 Si02
#       8
#     4   4   4   4   4   4   4   4
#     4  11  24  37  47  67 104 144 175 206 247 296
#     4  10  20  33  51  75 103 137 173 205 245 301
#     4   8  15  29  52  80 103 124 158 208 259 300
#     4  10  20  33  50  71  95 129 171 210 250 295
#     4   7  11  23  45  73 100 118 140 189 251 298
#     4   9  17  33  58  82 101 125 164 213 260 304
#     4   8  14  27  50  77  98 118 152 201 251 294
#     4   9  17  31  53  77  98 123 161 210 257 298
#
# _framework density 22.348569999999999
#
# number of rings (size 3 to 8) (size 9 to 14) (size 15 to 20)
#    0.000    3.000    0.000    3.750    0.000    4.000 
#    0.000    1.875    0.000    6.000    0.000    0.000 
#    0.000    0.000    0.000    0.000    0.000    0.000 
#
# Total GULP energy -178341.644576 kJ/mol
# GULP energy per Si atom -5573.176393 kJ/mol
# Density = 2.229770 g / cm^3
# Si number density = 22.348570 Si / 1000 Ang^3
#
#
#
# Elastic Constant Matrix: (Units=GPa)
#
#
# Indices 1 2 3 4 5 6 
#
# 1 50.4853 4.9341 -9.0392 0.0000 0.0000 0.0000
# 2 4.9341 92.6216 13.7321 0.0000 0.0000 0.0000
# 3 -9.0392 13.7321 24.4217 0.0000 0.0000 0.0000
# 4 0.0000 0.0000 0.0000 0.9484 0.0000 0.0000
# 5 0.0000 0.0000 0.0000 0.0000 75.9428 0.0000
# 6 0.0000 0.0000 0.0000 0.0000 0.0000-3245.5332
#
#
#
# Elastic Compliance Matrix: (Units=1/GPa)
#
#
# Indices 1 2 3 4 5 6 
#
# 1 0.021759 -0.002567 0.009497 0.000000 0.000000 0.000000
# 2 -0.002567 0.012081 -0.007743 0.000000 0.000000 0.000000
# 3 0.009497 -0.007743 0.048817 0.000000 0.000000 0.000000
# 4 0.000000 0.000000 0.000000 1.054425 0.000000 0.000000
# 5 0.000000 0.000000 0.000000 0.000000 0.013168 0.000000
# 6 0.000000 0.000000 0.000000 0.000000 0.000000 -0.000308
#
#
# Mechanical properties :
#
#
# Convention : Reuss Voigt Hill
#
# Bulk Modulus (GPa) = 12.34110 20.75362 16.54736
# Shear Modulus (GPa) = 4.24240 -623.20165 -309.47963
#
# Velocity S-wave (km/s) = 1.37928 -16.71708 -11.78045
# Velocity P-wave (km/s) = 2.84089 19.06063 13.32736
#
# Compressibility (1/GPa) = 0.08103003
#
# Stress axis : x y z
#
# Youngs Moduli (GPa) = 45.95784 82.77165 20.48486
#
# Poissons Ratio (x) = 0.21249 -0.19455
# Poissons Ratio (y) = 0.11798 0.15862
# Poissons Ratio (z) = -0.43647 0.64094
#
# Static dielectric constant tensor:
#      x y z
#    x 1.825280 0.000000 0.000000 
#    y 0.000000 1.907880 0.000000 
#    z 0.000000 0.000000 1.805090 
# 
# From -- ./inp_files/5090.got.cif
#   From: 2010.05.17/outbox.cif.g08.bks.cpg/sg26_3_cif.got.tgz:5090.got - 2010.06.04 01:07:29.
