data_PCOD9338702
_publ_section_title
;
Structure prediction by ZEFSAII (Michael W. Deem and Ramdas Pophale) SiO2 
 PCOD9338702
Probable space group: P M C 21
;
_chemical_formula_sum "Si O2"
_cell_formula_units_Z 32
_cell_length_a 9.000000
_cell_length_b 9.000000
_cell_length_c 21.000000
_cell_angle_alpha 90.000000
_cell_angle_beta 90.000000
_cell_angle_gamma 90.000000
_cell_volume 1701.000000
_symmetry_space_group_name_H-M "P M C 21"
_symmetry_group_IT_number 26
_symmetry_cell_setting 'orthorhombic'
loop_
_space_group_symop_operation_xyz
x,y,z
-x,-y,1/2+z
-x,y,z
x,-y,1/2+z
loop_
_atom_site_type_symbol
_atom_site_label
_atom_site_fract_x
_atom_site_fract_y
_atom_site_fract_z
Si Si1 0.330198 0.161207 0.593260
Si Si2 0.670380 0.195888 0.081637
Si Si3 0.829008 0.818808 0.966040
Si Si4 0.178998 0.353778 0.340300
Si Si5 0.674744 0.324259 0.839341
Si Si6 0.828403 0.697404 0.211257
Si Si7 0.831298 0.174846 0.954495
Si Si8 0.173544 0.341020 0.200074
O O1 0.500000 0.205498 0.604848
O O2 0.272826 0.220754 0.525629
O O3 0.227208 0.219995 0.649065
O O4 0.322377 0.982316 0.590342
O O5 0.500000 0.235784 0.068325
O O6 0.728538 0.272598 0.145007
O O7 0.772147 0.235670 0.021514
O O8 0.779917 0.746377 0.900059
O O9 0.000000 0.773158 0.978784
O O10 0.828671 0.996559 0.959047
O O11 0.250035 0.514937 0.347098
O O12 0.219868 0.290298 0.270927
O O13 0.000000 0.370121 0.339048
O O14 0.500000 0.340613 0.837671
O O15 0.733014 0.260434 0.772640
O O16 0.727150 0.225512 0.897794
O O17 0.814206 0.519933 0.200855
O O18 0.000000 0.729684 0.224422
O O19 0.000000 0.223861 0.942391
O O20 0.000000 0.302693 0.189755
#
# Coordination Sequence:
#
# PCOD9338702 Si02
#       8
#     4   4   4   4   4   4   4   4
#     4  10  21  36  54  80 112 142 175 219 269 318
#     4  10  21  36  54  79 110 142 177 220 269 318
#     4   9  19  36  58  81 105 139 182 223 263 312
#     4   9  19  37  57  79 108 139 176 220 264 315
#     4  11  22  36  55  81 111 141 175 217 267 318
#     4  10  21  38  58  79 105 140 181 221 263 314
#     4  10  20  36  57  80 107 142 182 221 263 313
#     4   9  19  35  55  79 106 139 178 221 266 314
#
# _framework density 18.812463000000001
#
# number of rings (size 3 to 8) (size 9 to 14) (size 15 to 20)
#    0.000    2.250    0.000    3.375    0.000    7.000 
#    0.000    2.500    0.000    0.000    0.000    0.000 
#    0.000    0.000    0.000    0.000    0.000    0.000 
#
# Total GULP energy -178592.248649 kJ/mol
# GULP energy per Si atom -5581.007770 kJ/mol
# Density = 1.876965 g / cm^3
# Si number density = 18.812463 Si / 1000 Ang^3
#
#
#
# Elastic Constant Matrix: (Units=GPa)
#
#
# Indices 1 2 3 4 5 6 
#
# 1 1.6647 9.9776 19.5241 0.0000 0.0000 0.0000
# 2 9.9776 -4.2252 13.9858 0.0000 0.0000 0.0000
# 3 19.5241 13.9858 97.7607 0.0000 0.0000 0.0000
# 4 0.0000 0.0000 0.0000 26.1579 0.0000 0.0000
# 5 0.0000 0.0000 0.0000 0.0000 60.6416 0.0000
# 6 0.0000 0.0000 0.0000 0.0000 0.0000 26.9552
#
#
#
# Elastic Compliance Matrix: (Units=1/GPa)
#
#
# Indices 1 2 3 4 5 6 
#
# 1 0.165130 0.190549 -0.060239 0.000000 0.000000 0.000000
# 2 0.190549 0.059265 -0.046534 0.000000 0.000000 0.000000
# 3 -0.060239 -0.046534 0.028917 0.000000 0.000000 0.000000
# 4 0.000000 0.000000 0.000000 0.038229 0.000000 0.000000
# 5 0.000000 0.000000 0.000000 0.000000 0.016490 0.000000
# 6 0.000000 0.000000 0.000000 0.000000 0.000000 0.037099
#
#
# Mechanical properties :
#
#
# Convention : Reuss Voigt Hill
#
# Bulk Modulus (GPa) = 2.37606 20.24168 11.30887
# Shear Modulus (GPa) = 15.72992 26.19846 20.96419
#
# Velocity S-wave (km/s) = 2.89475 3.73582 3.34185
# Velocity P-wave (km/s) = 3.52683 5.42140 4.57330
#
# Compressibility (1/GPa) = 0.42086526
#
# Stress axis : x y z
#
# Youngs Moduli (GPa) = 6.05583 16.87330 34.58198
#
# Poissons Ratio (x) = -3.21520 2.08318
# Poissons Ratio (y) = -1.15394 1.60923
# Poissons Ratio (z) = 0.36480 0.78518
#
# Static dielectric constant tensor:
#      x y z
#    x 1.629990 0.000000 0.000000 
#    y 0.000000 1.628260 0.000000 
#    z 0.000000 0.000000 1.640670 
# 
# From -- ./inp_files/5345.got.cif
#   From: 2010.05.17/outbox.ucp.g08.bks.cvg/sg26_3_cif.got.tgz:5345.got - 2010.06.11 15:23:25.
