data_PCOD9338279
_publ_section_title
;
Structure prediction by ZEFSAII (Michael W. Deem and Ramdas Pophale) SiO2 
 PCOD9338279
Probable space group: P M C 21
;
_chemical_formula_sum "Si O2"
_cell_formula_units_Z 32
_cell_length_a 7.600622
_cell_length_b 15.109275
_cell_length_c 12.851613
_cell_angle_alpha 90.000000
_cell_angle_beta 90.000000
_cell_angle_gamma 90.000000
_cell_volume 1475.877797
_symmetry_space_group_name_H-M "P M C 21"
_symmetry_group_IT_number 26
_symmetry_cell_setting 'orthorhombic'
loop_
_space_group_symop_operation_xyz
x,y,z
-x,-y,1/2+z
-x,y,z
x,-y,1/2+z
loop_
_atom_site_type_symbol
_atom_site_label
_atom_site_fract_x
_atom_site_fract_y
_atom_site_fract_z
Si Si1 0.703941 0.049085 0.019040
Si Si2 0.791446 0.254007 0.619848
Si Si3 0.716151 0.172336 0.209015
Si Si4 0.709848 0.130966 0.439560
Si Si5 0.287057 0.337842 0.917075
Si Si6 0.714023 0.368231 0.154055
Si Si7 0.710452 0.559253 0.219318
Si Si8 0.199209 0.844943 0.320394
O O1 0.500000 0.038413 0.048484
O O2 0.775843 0.114438 0.108850
O O3 0.710891 0.089666 0.902353
O O4 0.784224 0.951716 0.005394
O O5 0.738991 0.219108 0.506960
O O6 0.746363 0.355846 0.645642
O O7 0.719328 0.186819 0.709998
O O8 0.000000 0.247826 0.629963
O O9 0.500000 0.173227 0.206505
O O10 0.774117 0.135269 0.320900
O O11 0.773171 0.274856 0.201548
O O12 0.500000 0.118090 0.431738
O O13 0.500000 0.324809 0.910692
O O14 0.233017 0.410341 0.833461
O O15 0.199670 0.246936 0.883514
O O16 0.243515 0.363573 0.032727
O O17 0.500000 0.368594 0.163904
O O18 0.781527 0.462413 0.193941
O O19 0.500000 0.551241 0.219978
O O20 0.000000 0.877175 0.303857
#
# Coordination Sequence:
#
# PCOD9338279 Si02
#       8
#     4   4   4   4   4   4   4   4
#     4  10  20  35  58  85 112 143 181 229 280 329
#     4  10  22  39  55  76 113 152 184 228 280 326
#     4   9  18  34  54  84 117 141 177 231 285 329
#     4  10  22  36  58  86 113 148 186 229 279 337
#     4   9  16  30  51  76 105 140 180 226 278 326
#     4   9  16  29  53  81 110 141 177 230 287 329
#     4   9  18  31  53  82 105 139 191 231 271 334
#     4  10  20  34  54  78 105 142 186 230 272 320
#
# _framework density 21.682012
#
# number of rings (size 3 to 8) (size 9 to 14) (size 15 to 20)
#    0.000    2.500    1.250    0.750    1.750    3.000 
#    0.000    5.000    0.000    3.000    0.000    0.000 
#    0.000    0.000    0.000    0.000    0.000    0.000 
#
# Total GULP energy -178451.546671 kJ/mol
# GULP energy per Si atom -5576.610833 kJ/mol
# Density = 2.163266 g / cm^3
# Si number density = 21.682012 Si / 1000 Ang^3
#
#
#
# Elastic Constant Matrix: (Units=GPa)
#
#
# Indices 1 2 3 4 5 6 
#
# 1 38.4961 0.7730 2.9220 0.0000 0.0000 0.0000
# 2 0.7730 122.4612 65.0652 0.0000 0.0000 0.0000
# 3 2.9220 65.0652 83.3899 0.0000 0.0000 0.0000
# 4 0.0000 0.0000 0.0000 17.1495 0.0000 0.0000
# 5 0.0000 0.0000 0.0000 0.0000 -9.4466 0.0000
# 6 0.0000 0.0000 0.0000 0.0000 0.0000 14.8976
#
#
#
# Elastic Compliance Matrix: (Units=1/GPa)
#
#
# Indices 1 2 3 4 5 6 
#
# 1 0.026067 0.000548 -0.001341 0.000000 0.000000 0.000000
# 2 0.000548 0.013960 -0.010911 0.000000 0.000000 0.000000
# 3 -0.001341 -0.010911 0.020552 0.000000 0.000000 0.000000
# 4 0.000000 0.000000 0.000000 0.058311 0.000000 0.000000
# 5 0.000000 0.000000 0.000000 0.000000 -0.105858 0.000000
# 6 0.000000 0.000000 0.000000 0.000000 0.000000 0.067125
#
#
# Mechanical properties :
#
#
# Convention : Reuss Voigt Hill
#
# Bulk Modulus (GPa) = 26.90273 42.42974 34.66624
# Shear Modulus (GPa) = 43.11976 16.22589 29.67282
#
# Velocity S-wave (km/s) = 4.46436 2.73858 3.70340
# Velocity P-wave (km/s) = 6.24570 5.44163 5.85748
#
# Compressibility (1/GPa) = 0.03717095
#
# Stress axis : x y z
#
# Youngs Moduli (GPa) = 38.36201 71.63476 48.65611
#
# Poissons Ratio (x) = -0.03925 0.06524
# Poissons Ratio (y) = -0.02102 0.53090
# Poissons Ratio (z) = 0.05144 0.78163
#
# Static dielectric constant tensor:
#      x y z
#    x 1.820990 0.000000 0.000000 
#    y 0.000000 1.804250 0.000000 
#    z 0.000000 0.000000 1.804310 
# 
# From -- ./inp_files/3107.got.cif
#   From: 2010.05.17/outbox.cif.g08.bks.cpg/sg26_2_cif.got.tgz:3107.got - 2010.06.04 01:07:29.
