data_PCOD9338336
_publ_section_title
;
Structure prediction by ZEFSAII (Michael W. Deem and Ramdas Pophale) SiO2 
 PCOD9338336
Probable space group: P M C 21
;
_chemical_formula_sum "Si O2"
_cell_formula_units_Z 24
_cell_length_a 8.960670
_cell_length_b 14.366077
_cell_length_c 7.830279
_cell_angle_alpha 90.000000
_cell_angle_beta 90.000000
_cell_angle_gamma 90.000000
_cell_volume 1007.989272
_symmetry_space_group_name_H-M "P M C 21"
_symmetry_group_IT_number 26
_symmetry_cell_setting 'orthorhombic'
loop_
_space_group_symop_operation_xyz
x,y,z
-x,-y,1/2+z
-x,y,z
x,-y,1/2+z
loop_
_atom_site_type_symbol
_atom_site_label
_atom_site_fract_x
_atom_site_fract_y
_atom_site_fract_z
Si Si1 0.827989 0.646699 0.068780
Si Si2 0.822934 0.864376 0.787968
Si Si3 0.667823 0.191994 0.749300
Si Si4 0.328822 0.697600 0.613978
Si Si5 0.321360 0.975958 0.478397
Si Si6 0.823439 0.466136 0.923959
O O1 0.763349 0.745637 0.122420
O O2 0.814390 0.584171 0.241869
O O3 0.000000 0.662814 0.026861
O O4 0.764740 0.572214 0.933235
O O5 0.766225 0.760479 0.744475
O O6 0.776626 0.923464 0.619241
O O7 0.000000 0.866988 0.815153
O O8 0.734191 0.920937 0.933622
O O9 0.500000 0.194256 0.683611
O O10 0.670730 0.245330 0.933361
O O11 0.702180 0.087187 0.807447
O O12 0.500000 0.690923 0.671525
O O13 0.260040 0.599958 0.557306
O O14 0.500000 0.971949 0.517285
O O15 0.000000 0.468455 0.968243
#
# Coordination Sequence:
#
# PCOD9338336 Si02
#       6
#     4   4   4   4   4   4
#     4   9  17  29  47  68  93 123 156 196 243 289
#     4  11  21  34  54  80 105 133 171 215 257 304
#     4   8  16  30  49  70  93 124 164 201 237 289
#     4   9  17  31  50  71  95 129 167 203 244 296
#     4  10  20  36  55  76 104 138 172 211 257 307
#     4   9  17  30  47  69  94 123 158 198 242 291
#
# _framework density 23.809778000000001
#
# number of rings (size 3 to 8) (size 9 to 14) (size 15 to 20)
#    0.000    2.667    0.000    3.500    0.000    5.333 
#    0.000    1.667    0.000    6.000    0.000    0.000 
#    0.000    0.000    0.000    0.000    0.000    0.000 
#
# Total GULP energy -134167.745569 kJ/mol
# GULP energy per Si atom -5590.322732 kJ/mol
# Density = 2.375559 g / cm^3
# Si number density = 23.809778 Si / 1000 Ang^3
#
#
#
# Elastic Constant Matrix: (Units=GPa)
#
#
# Indices 1 2 3 4 5 6 
#
# 1 76.0524 31.5474 13.4371 0.0000 0.0000 0.0000
# 2 31.5474 162.3301 -1.7277 0.0000 0.0000 0.0000
# 3 13.4371 -1.7277 64.5885 0.0000 0.0000 0.0000
# 4 0.0000 0.0000 0.0000 51.8192 0.0000 0.0000
# 5 0.0000 0.0000 0.0000 0.0000 18.1845 0.0000
# 6 0.0000 0.0000 0.0000 0.0000 0.0000 34.7027
#
#
#
# Elastic Compliance Matrix: (Units=1/GPa)
#
#
# Indices 1 2 3 4 5 6 
#
# 1 0.014929 -0.002935 -0.003184 0.000000 0.000000 0.000000
# 2 -0.002935 0.006739 0.000791 0.000000 0.000000 0.000000
# 3 -0.003184 0.000791 0.016166 0.000000 0.000000 0.000000
# 4 0.000000 0.000000 0.000000 0.019298 0.000000 0.000000
# 5 0.000000 0.000000 0.000000 0.000000 0.054992 0.000000
# 6 0.000000 0.000000 0.000000 0.000000 0.000000 0.028816
#
#
# Mechanical properties :
#
#
# Convention : Reuss Voigt Hill
#
# Bulk Modulus (GPa) = 36.79574 43.27608 40.03591
# Shear Modulus (GPa) = 31.12228 38.25557 34.68893
#
# Velocity S-wave (km/s) = 3.61934 4.01274 3.82110
# Velocity P-wave (km/s) = 5.74053 6.29957 6.02654
#
# Compressibility (1/GPa) = 0.02717706
#
# Stress axis : x y z
#
# Youngs Moduli (GPa) = 66.98371 148.38694 61.85721
#
# Poissons Ratio (x) = 0.43555 0.19698
# Poissons Ratio (y) = 0.19661 -0.04892
# Poissons Ratio (z) = 0.21330 -0.11736
#
# Static dielectric constant tensor:
#      x y z
#    x 1.803870 0.000000 0.000000 
#    y 0.000000 1.955730 0.000000 
#    z 0.000000 0.000000 2.016860 
# 
# From -- ./inp_files/1434.got.cif
#   From: 2010.05.17/outbox.cif.g08.bks.cpg/sg26_1_cif.got.tgz:1434.got - 2010.06.04 01:07:29.
