data_PCOD9338159
_publ_section_title
;
Structure prediction by ZEFSAII (Michael W. Deem and Ramdas Pophale) SiO2 
 PCOD9338159
Probable space group: P M C 21
;
_chemical_formula_sum "Si O2"
_cell_formula_units_Z 32
_cell_length_a 8.942096
_cell_length_b 11.792474
_cell_length_c 16.142966
_cell_angle_alpha 90.000000
_cell_angle_beta 90.000000
_cell_angle_gamma 90.000000
_cell_volume 1702.266637
_symmetry_space_group_name_H-M "P M C 21"
_symmetry_group_IT_number 26
_symmetry_cell_setting 'orthorhombic'
loop_
_space_group_symop_operation_xyz
x,y,z
-x,-y,1/2+z
-x,y,z
x,-y,1/2+z
loop_
_atom_site_type_symbol
_atom_site_label
_atom_site_fract_x
_atom_site_fract_y
_atom_site_fract_z
Si Si1 0.676305 0.049460 0.050390
Si Si2 0.819478 0.424712 0.279419
Si Si3 0.820967 0.689458 0.264873
Si Si4 0.168512 0.766572 0.659913
Si Si5 0.833073 0.912045 0.826416
Si Si6 0.322451 0.721159 0.925659
Si Si7 0.675623 0.124237 0.861487
Si Si8 0.179585 0.805795 0.089682
O O1 0.500000 0.029919 0.061974
O O2 0.729307 0.160438 0.100014
O O3 0.760463 0.934467 0.077741
O O4 0.703444 0.082053 0.954747
O O5 0.785836 0.556252 0.266539
O O6 0.775105 0.352108 0.197869
O O7 0.744951 0.370928 0.361526
O O8 0.000000 0.410245 0.287496
O O9 0.737102 0.753129 0.338983
O O10 0.779663 0.750294 0.178176
O O11 0.000000 0.701495 0.274918
O O12 0.157092 0.842858 0.742203
O O13 0.000000 0.752452 0.625346
O O14 0.721276 0.841976 0.884362
O O15 0.000000 0.917376 0.863684
O O16 0.769670 0.035126 0.807737
O O17 0.500000 0.709316 0.931876
O O18 0.247153 0.728852 0.015706
O O19 0.500000 0.116983 0.844500
O O20 0.000000 0.807386 0.083344
#
# Coordination Sequence:
#
# PCOD9338159 Si02
#       8
#     4   4   4   4   4   4   4   4
#     4  11  23  37  55  86 124 156 192 238 296 362
#     4   9  20  42  64  84 114 153 203 251 291 348
#     4  10  23  42  63  87 116 156 206 252 297 350
#     4   9  19  35  58  85 111 145 191 241 291 344
#     4  10  19  34  58  85 114 150 193 238 289 347
#     4  11  21  35  59  90 120 153 193 240 295 356
#     4  11  23  37  55  83 123 159 192 240 298 355
#     4  11  22  38  62  90 120 154 198 250 299 354
#
# _framework density 18.798466000000001
#
# number of rings (size 3 to 8) (size 9 to 14) (size 15 to 20)
#    0.000    1.750    1.250    4.125    0.000    8.500 
#    2.250    0.000    0.000    0.000    0.000    0.000 
#    0.000    0.000    0.000    0.000    0.000    0.000 
#
# Total GULP energy -178592.672284 kJ/mol
# GULP energy per Si atom -5581.021009 kJ/mol
# Density = 1.875568 g / cm^3
# Si number density = 18.798466 Si / 1000 Ang^3
#
#
#
# Elastic Constant Matrix: (Units=GPa)
#
#
# Indices 1 2 3 4 5 6 
#
# 1 67.8966 56.7594 45.0679 0.0000 0.0000 0.0000
# 2 56.7594 143.6301 44.4003 0.0000 0.0000 0.0000
# 3 45.0679 44.4003 59.0426 0.0000 0.0000 0.0000
# 4 0.0000 0.0000 0.0000 22.9667 0.0000 0.0000
# 5 0.0000 0.0000 0.0000 0.0000 109.6532 0.0000
# 6 0.0000 0.0000 0.0000 0.0000 0.0000 15.2609
#
#
#
# Elastic Compliance Matrix: (Units=1/GPa)
#
#
# Indices 1 2 3 4 5 6 
#
# 1 0.034780 -0.007215 -0.021123 0.000000 0.000000 0.000000
# 2 -0.007215 0.010568 -0.002440 0.000000 0.000000 0.000000
# 3 -0.021123 -0.002440 0.034895 0.000000 0.000000 0.000000
# 4 0.000000 0.000000 0.000000 0.043541 0.000000 0.000000
# 5 0.000000 0.000000 0.000000 0.000000 0.009120 0.000000
# 6 0.000000 0.000000 0.000000 0.000000 0.000000 0.065527
#
#
# Mechanical properties :
#
#
# Convention : Reuss Voigt Hill
#
# Bulk Modulus (GPa) = 53.50939 62.55830 58.03385
# Shear Modulus (GPa) = 18.78186 37.86560 28.32373
#
# Velocity S-wave (km/s) = 3.16431 4.49296 3.88584
# Velocity P-wave (km/s) = 6.47125 7.76313 7.14644
#
# Compressibility (1/GPa) = 0.01868831
#
# Stress axis : x y z
#
# Youngs Moduli (GPa) = 28.75205 94.62837 28.65759
#
# Poissons Ratio (x) = 0.68272 0.60532
# Poissons Ratio (y) = 0.20744 0.06992
# Poissons Ratio (z) = 0.60732 0.23088
#
# Static dielectric constant tensor:
#      x y z
#    x 1.620580 0.000000 0.000000 
#    y 0.000000 1.666300 0.000000 
#    z 0.000000 0.000000 1.680630 
# 
# From -- ./inp_files/4189.got.cif
#   From: 2010.05.17/outbox.cif.g08.bks.cpg/sg26_3_cif.got.tgz:4189.got - 2010.06.04 01:07:29.
