data_PCOD9338419
_publ_section_title
;
Structure prediction by ZEFSAII (Michael W. Deem and Ramdas Pophale) SiO2 
 PCOD9338419
Probable space group: P M C 21
;
_chemical_formula_sum "Si O2"
_cell_formula_units_Z 16
_cell_length_a 11.528340
_cell_length_b 6.882497
_cell_length_c 7.619254
_cell_angle_alpha 90.000000
_cell_angle_beta 90.000000
_cell_angle_gamma 90.000000
_cell_volume 604.540302
_symmetry_space_group_name_H-M "P M C 21"
_symmetry_group_IT_number 26
_symmetry_cell_setting 'orthorhombic'
loop_
_space_group_symop_operation_xyz
x,y,z
-x,-y,1/2+z
-x,y,z
x,-y,1/2+z
loop_
_atom_site_type_symbol
_atom_site_label
_atom_site_fract_x
_atom_site_fract_y
_atom_site_fract_z
Si Si1 0.500000 0.429178 0.804670
Si Si2 0.866414 0.283920 0.234852
Si Si3 0.132317 0.259931 0.647140
Si Si4 0.693134 0.159323 0.936737
Si Si5 0.500000 0.827303 0.950102
O O1 0.612360 0.348791 0.906064
O O2 0.500000 0.663039 0.798471
O O3 0.500000 0.306973 0.623582
O O4 0.860258 0.515110 0.203003
O O5 0.000000 0.229579 0.192973
O O6 0.778156 0.846890 0.271016
O O7 0.774288 0.196136 0.102256
O O8 0.000000 0.198773 0.680391
O O9 0.155040 0.244171 0.440006
O O10 0.608600 0.973704 0.945946
#
# Coordination Sequence:
#
# PCOD9338419 Si02
#       5
#     2   4   4   4   2
#     4  11  30  56  82 119 163 219 286 361 433 523
#     4  10  20  39  79 133 183 231 285 342 425 513
#     4  10  20  39  79 135 181 232 284 343 425 511
#     4  11  25  52  85 127 171 219 287 361 425 511
#     4  11  30  60  82 127 161 221 298 359 445 513
#
# _framework density 26.466393
#
# number of rings (size 3 to 8) (size 9 to 14) (size 15 to 20)
#    0.000    1.500    2.500    0.750    3.500    4.000 
#   13.500    1.250    0.000   12.000    0.000    7.000 
#    0.000    0.000    0.000    0.000    0.000    0.000 
#
# Total GULP energy -89945.882545 kJ/mol
# GULP energy per Si atom -5621.617659 kJ/mol
# Density = 2.640615 g / cm^3
# Si number density = 26.466393 Si / 1000 Ang^3
#
#
#
# Elastic Constant Matrix: (Units=GPa)
#
#
# Indices 1 2 3 4 5 6 
#
# 1 244.8492 88.9266 139.6204 0.0000 0.0000 0.0000
# 2 88.9266 206.8566 61.4369 0.0000 0.0000 0.0000
# 3 139.6204 61.4369 169.3258 0.0000 0.0000 0.0000
# 4 0.0000 0.0000 0.0000 49.9455 0.0000 0.0000
# 5 0.0000 0.0000 0.0000 0.0000 147.0007 0.0000
# 6 0.0000 0.0000 0.0000 0.0000 0.0000 77.5390
#
#
#
# Elastic Compliance Matrix: (Units=1/GPa)
#
#
# Indices 1 2 3 4 5 6 
#
# 1 0.008211 -0.001702 -0.006153 0.000000 0.000000 0.000000
# 2 -0.001702 0.005771 -0.000690 0.000000 0.000000 0.000000
# 3 -0.006153 -0.000690 0.011230 0.000000 0.000000 0.000000
# 4 0.000000 0.000000 0.000000 0.020022 0.000000 0.000000
# 5 0.000000 0.000000 0.000000 0.000000 0.006803 0.000000
# 6 0.000000 0.000000 0.000000 0.000000 0.000000 0.012897
#
#
# Mechanical properties :
#
#
# Convention : Reuss Voigt Hill
#
# Bulk Modulus (GPa) = 123.13975 133.44436 128.29206
# Shear Modulus (GPa) = 59.01054 76.96687 67.98871
#
# Velocity S-wave (km/s) = 4.72703 5.39853 5.07390
# Velocity P-wave (km/s) = 8.74191 9.45455 9.10520
#
# Compressibility (1/GPa) = 0.00812085
#
# Stress axis : x y z
#
# Youngs Moduli (GPa) = 121.78846 173.27641 89.05077
#
# Poissons Ratio (x) = 0.29500 0.54791
# Poissons Ratio (y) = 0.20734 0.06146
# Poissons Ratio (z) = 0.74934 0.11959
#
# Static dielectric constant tensor:
#      x y z
#    x 1.987830 0.000000 0.000000 
#    y 0.000000 2.072620 0.000000 
#    z 0.000000 0.000000 2.067390 
# 
# From -- ./inp_files/3397.got.cif
#   From: 2010.05.17/outbox.cif.g08.bks.cpg/sg26_2_cif.got.tgz:3397.got - 2010.06.04 01:07:29.
