data_PCOD9338220
_publ_section_title
;
Structure prediction by ZEFSAII (Michael W. Deem and Ramdas Pophale) SiO2 
 PCOD9338220
Probable space group: P M C 21
;
_chemical_formula_sum "Si O2"
_cell_formula_units_Z 32
_cell_length_a 9.028615
_cell_length_b 16.222813
_cell_length_c 11.251008
_cell_angle_alpha 90.000000
_cell_angle_beta 90.000000
_cell_angle_gamma 90.000000
_cell_volume 1647.929885
_symmetry_space_group_name_H-M "P M C 21"
_symmetry_group_IT_number 26
_symmetry_cell_setting 'orthorhombic'
loop_
_space_group_symop_operation_xyz
x,y,z
-x,-y,1/2+z
-x,y,z
x,-y,1/2+z
loop_
_atom_site_type_symbol
_atom_site_label
_atom_site_fract_x
_atom_site_fract_y
_atom_site_fract_z
Si Si1 0.832888 0.150496 0.054300
Si Si2 0.324383 0.845155 0.925632
Si Si3 0.174625 0.845661 0.177947
Si Si4 0.679450 0.442181 0.928934
Si Si5 0.320403 0.455154 0.196023
Si Si6 0.830468 0.284906 0.265548
Si Si7 0.325081 0.256187 0.867689
Si Si8 0.825751 0.972779 0.752847
O O1 0.835653 0.218350 0.159165
O O2 0.798403 0.065294 0.121233
O O3 0.000000 0.145812 0.002223
O O4 0.716587 0.185535 0.961883
O O5 0.500000 0.838898 0.921951
O O6 0.251484 0.762879 0.870846
O O7 0.270173 0.921740 0.845517
O O8 0.263720 0.855078 0.057177
O O9 0.235242 0.768289 0.250824
O O10 0.000000 0.839033 0.154348
O O11 0.198680 0.930141 0.251535
O O12 0.500000 0.446658 0.928816
O O13 0.728321 0.487858 0.807570
O O14 0.719385 0.345582 0.918243
O O15 0.726784 0.475953 0.059379
O O16 0.500000 0.454208 0.196118
O O17 0.258255 0.364737 0.224348
O O18 0.000000 0.305864 0.296491
O O19 0.500000 0.257456 0.844157
O O20 0.000000 0.956310 0.777823
#
# Coordination Sequence:
#
# PCOD9338220 Si02
#       8
#     4   4   4   4   4   4   4   4
#     4   9  18  35  59  84 110 149 196 241 292 358
#     4  11  23  39  60  88 120 153 197 254 305 358
#     4  11  24  41  60  84 120 163 202 246 304 370
#     4   9  20  36  59  88 123 159 207 257 316 376
#     4  10  19  37  61  88 118 161 206 256 311 372
#     4  10  20  37  61  88 116 152 197 243 298 365
#     4  11  22  37  57  88 122 157 201 253 303 359
#     4   9  21  40  61  84 115 158 202 244 299 362
#
# _framework density 19.418303999999999
#
# number of rings (size 3 to 8) (size 9 to 14) (size 15 to 20)
#    0.000    2.000    1.250    3.000    1.750    4.000 
#    0.000    4.375    0.000    0.000    0.000    0.000 
#    0.000    0.000    0.000    0.000    0.000    0.000 
#
# Total GULP energy -178593.162818 kJ/mol
# GULP energy per Si atom -5581.036338 kJ/mol
# Density = 1.937411 g / cm^3
# Si number density = 19.418304 Si / 1000 Ang^3
#
#
#
# Elastic Constant Matrix: (Units=GPa)
#
#
# Indices 1 2 3 4 5 6 
#
# 1 48.3519 12.7465 34.5689 0.0000 0.0000 0.0000
# 2 12.7465 59.3297 35.2174 0.0000 0.0000 0.0000
# 3 34.5689 35.2174 96.7474 0.0000 0.0000 0.0000
# 4 0.0000 0.0000 0.0000 24.8764 0.0000 0.0000
# 5 0.0000 0.0000 0.0000 0.0000 28.6659 0.0000
# 6 0.0000 0.0000 0.0000 0.0000 0.0000 24.0737
#
#
#
# Elastic Compliance Matrix: (Units=1/GPa)
#
#
# Indices 1 2 3 4 5 6 
#
# 1 0.027778 -0.000097 -0.009890 0.000000 0.000000 0.000000
# 2 -0.000097 0.021501 -0.007792 0.000000 0.000000 0.000000
# 3 -0.009890 -0.007792 0.016706 0.000000 0.000000 0.000000
# 4 0.000000 0.000000 0.000000 0.040199 0.000000 0.000000
# 5 0.000000 0.000000 0.000000 0.000000 0.034885 0.000000
# 6 0.000000 0.000000 0.000000 0.000000 0.000000 0.041539
#
#
# Mechanical properties :
#
#
# Convention : Reuss Voigt Hill
#
# Bulk Modulus (GPa) = 32.86543 41.05496 36.96019
# Shear Modulus (GPa) = 21.90015 23.64961 22.77488
#
# Velocity S-wave (km/s) = 3.36193 3.49363 3.42841
# Velocity P-wave (km/s) = 5.65967 6.12064 5.89466
#
# Compressibility (1/GPa) = 0.03042711
#
# Stress axis : x y z
#
# Youngs Moduli (GPa) = 35.99953 46.50934 59.85745
#
# Poissons Ratio (x) = 0.00453 0.59199
# Poissons Ratio (y) = 0.00350 0.46640
# Poissons Ratio (z) = 0.35604 0.36240
#
# Static dielectric constant tensor:
#      x y z
#    x 1.658910 0.000000 0.000000 
#    y 0.000000 1.658640 0.000000 
#    z 0.000000 0.000000 1.717460 
# 
# From -- ./inp_files/3024.got.cif
#   From: 2010.05.17/outbox.cif.g08.bks.cpg/sg26_2_cif.got.tgz:3024.got - 2010.06.04 01:07:29.
