data_PCOD9338016
_publ_section_title
;
Structure prediction by ZEFSAII (Michael W. Deem and Ramdas Pophale) SiO2 
 PCOD9338016
Probable space group: P M C 21
;
_chemical_formula_sum "Si O2"
_cell_formula_units_Z 18
_cell_length_a 12.618906
_cell_length_b 17.811777
_cell_length_c 5.193189
_cell_angle_alpha 90.000000
_cell_angle_beta 90.000000
_cell_angle_gamma 90.000000
_cell_volume 1167.247851
_symmetry_space_group_name_H-M "P M C 21"
_symmetry_group_IT_number 26
_symmetry_cell_setting 'orthorhombic'
loop_
_space_group_symop_operation_xyz
x,y,z
-x,-y,1/2+z
-x,y,z
x,-y,1/2+z
loop_
_atom_site_type_symbol
_atom_site_label
_atom_site_fract_x
_atom_site_fract_y
_atom_site_fract_z
Si Si1 0.731425 0.448283 0.328800
Si Si2 0.871485 0.213355 0.731410
Si Si3 0.872214 0.694855 0.730788
Si Si4 0.870838 0.044813 0.853611
Si Si5 0.500000 0.451356 0.235556
O O1 0.740991 0.489049 0.604139
O O2 0.817095 0.383904 0.287963
O O3 0.612699 0.414126 0.296045
O O4 0.842346 0.246106 0.454293
O O5 0.834444 0.129064 0.791063
O O6 0.000000 0.210357 0.736135
O O7 0.839993 0.270743 0.956373
O O8 0.000000 0.686403 0.733795
O O9 0.000000 0.046623 0.854078
O O10 0.838375 0.987418 0.629294
O O11 0.500000 0.521233 0.439465
#
# Coordination Sequence:
#
# PCOD9338016 Si02
#       5
#     4   4   4   4   2
#     4  10  19  31  46  62  80 105 139 174 206 241
#     4   9  17  28  39  55  82 112 139 165 200 243
#     4  10  19  29  41  58  83 114 139 164 202 242
#     4   9  15  23  37  55  74 102 139 170 193 226
#     4   8  16  30  46  62  78  98 128 170 216 248
#
# _framework density 15.42089
#
# number of rings (size 3 to 8) (size 9 to 14) (size 15 to 20)
#    0.000    2.667    0.000    2.667    0.000    6.222 
#    0.000    0.000    0.000    0.000    0.000    0.000 
#    0.000    0.000    0.000   20.000    0.000    8.889 
#
# Total GULP energy -100236.315806 kJ/mol
# GULP energy per Si atom -5568.684211 kJ/mol
# Density = 1.538579 g / cm^3
# Si number density = 15.420890 Si / 1000 Ang^3
#
#
#
# Elastic Constant Matrix: (Units=GPa)
#
#
# Indices 1 2 3 4 5 6 
#
# 1 26.9211 10.1846 -4.3146 0.0000 0.0000 0.0000
# 2 10.1846 31.9282 -21.0690 0.0000 0.0000 0.0000
# 3 -4.3146 -21.0690 46.7419 0.0000 0.0000 0.0000
# 4 0.0000 0.0000 0.0000 23.2827 0.0000 0.0000
# 5 0.0000 0.0000 0.0000 0.0000 9.8895 0.0000
# 6 0.0000 0.0000 0.0000 0.0000 0.0000 -1.2942
#
#
#
# Elastic Compliance Matrix: (Units=1/GPa)
#
#
# Indices 1 2 3 4 5 6 
#
# 1 0.042560 -0.015634 -0.003118 0.000000 0.000000 0.000000
# 2 -0.015634 0.050323 0.021240 0.000000 0.000000 0.000000
# 3 -0.003118 0.021240 0.030680 0.000000 0.000000 0.000000
# 4 0.000000 0.000000 0.000000 0.042950 0.000000 0.000000
# 5 0.000000 0.000000 0.000000 0.000000 0.101117 0.000000
# 6 0.000000 0.000000 0.000000 0.000000 0.000000 -0.772704
#
#
# Mechanical properties :
#
#
# Convention : Reuss Voigt Hill
#
# Bulk Modulus (GPa) = 7.77969 8.35480 8.06724
# Shear Modulus (GPa) = -10.70201 14.42830 1.86314
#
# Velocity S-wave (km/s) = -2.63724 3.06213 1.10037
# Velocity P-wave (km/s) = 2.05365 4.23460 2.61862
#
# Compressibility (1/GPa) = 0.12853990
#
# Stress axis : x y z
#
# Youngs Moduli (GPa) = 23.49608 19.87154 32.59426
#
# Poissons Ratio (x) = 0.31067 0.10164
# Poissons Ratio (y) = 0.36733 -0.69231
# Poissons Ratio (z) = 0.07327 -0.42207
#
# Static dielectric constant tensor:
#      x y z
#    x 1.508460 0.000000 0.000000 
#    y 0.000000 1.496830 0.000000 
#    z 0.000000 0.000000 1.527230 
# 
# From -- ./inp_files/317.got.cif
#   From: 2010.05.17/outbox.cif.g08.bks.cpg/sg26_1_cif.got.tgz:317.got - 2010.06.04 01:07:29.
