data_PCOD9338834
_publ_section_title
;
Structure prediction by ZEFSAII (Michael W. Deem and Ramdas Pophale) SiO2 
 PCOD9338834
Probable space group: P C C 2
;
_chemical_formula_sum "Si O2"
_cell_formula_units_Z 28
_cell_length_a 5.276177
_cell_length_b 12.170355
_cell_length_c 20.748046
_cell_angle_alpha 90.000000
_cell_angle_beta 90.000000
_cell_angle_gamma 90.000000
_cell_volume 1332.293181
_symmetry_space_group_name_H-M "P C C 2"
_symmetry_group_IT_number 27
_symmetry_cell_setting 'orthorhombic'
loop_
_space_group_symop_operation_xyz
x,y,z
-x,-y,z
-x,y,1/2+z
x,-y,1/2+z
loop_
_atom_site_type_symbol
_atom_site_label
_atom_site_fract_x
_atom_site_fract_y
_atom_site_fract_z
Si Si1 0.311945 0.641416 0.904910
Si Si2 0.468772 0.874644 0.142757
Si Si3 0.976780 0.127171 0.726153
Si Si4 0.253866 0.932754 0.420425
Si Si5 0.250935 0.464699 0.019018
Si Si6 0.563814 0.771133 0.011672
Si Si7 0.816025 0.716359 0.836995
O O1 0.271309 0.538450 0.953682
O O2 0.554440 0.649293 0.855388
O O3 0.056008 0.652984 0.865468
O O4 0.351843 0.740881 0.957588
O O5 0.187101 0.871526 0.170751
O O6 0.484285 0.788499 0.084658
O O7 0.692940 0.857725 0.196655
O O8 0.500000 0.000000 0.119475
O O9 0.076650 0.227396 0.771166
O O10 0.000000 0.000000 0.754239
O O11 0.302286 0.882514 0.490685
O O12 0.229125 0.826637 0.377008
O O13 0.500000 0.000000 0.399997
O O14 0.000000 0.000000 0.417832
O O15 0.500000 0.500000 0.056918
O O16 0.000000 0.500000 0.053826
O O17 0.259556 0.336183 0.005750
#
# Coordination Sequence:
#
# PCOD9338834 Si02
#       7
#     4   4   4   4   4   4   4
#     4  10  21  36  59  91 112 140 190 251 304 349
#     4  10  22  37  55  83 122 162 201 240 276 335
#     4  10  22  38  56  81 117 165 207 236 275 338
#     4  11  22  33  51  82 117 148 183 234 292 354
#     4  10  20  36  57  86 114 142 186 236 295 358
#     4  10  22  37  58  86 118 155 191 234 303 357
#     4  11  21  37  58  83 118 150 190 237 293 347
#
# _framework density 21.016397000000001
#
# number of rings (size 3 to 8) (size 9 to 14) (size 15 to 20)
#    0.000    1.714    0.000    6.000    0.000   10.286 
#    0.000    0.000    0.000    0.000    0.000  108.000 
#    0.000    0.000    0.000    0.000    0.000    0.000 
#
# Total GULP energy -155936.289922 kJ/mol
# GULP energy per Si atom -5569.153212 kJ/mol
# Density = 2.096856 g / cm^3
# Si number density = 21.016397 Si / 1000 Ang^3
#
#
#
# Elastic Constant Matrix: (Units=GPa)
#
#
# Indices 1 2 3 4 5 6 
#
# 1 137.0177 11.0176 -4.4483 0.0000 0.0000 0.0000
# 2 11.0176 49.0118 13.9449 0.0000 0.0000 0.0000
# 3 -4.4483 13.9449 43.9787 0.0000 0.0000 0.0000
# 4 0.0000 0.0000 0.0000 8.1970 0.0000 0.0000
# 5 0.0000 0.0000 0.0000 0.0000 4.5322 0.0000
# 6 0.0000 0.0000 0.0000 0.0000 0.0000 28.1690
#
#
#
# Elastic Compliance Matrix: (Units=1/GPa)
#
#
# Indices 1 2 3 4 5 6 
#
# 1 0.007513 -0.002094 0.001424 0.000000 0.000000 0.000000
# 2 -0.002094 0.023010 -0.007508 0.000000 0.000000 0.000000
# 3 0.001424 -0.007508 0.025263 0.000000 0.000000 0.000000
# 4 0.000000 0.000000 0.000000 0.121996 0.000000 0.000000
# 5 0.000000 0.000000 0.000000 0.000000 0.220646 0.000000
# 6 0.000000 0.000000 0.000000 0.000000 0.000000 0.035500
#
#
# Mechanical properties :
#
#
# Convention : Reuss Voigt Hill
#
# Bulk Modulus (GPa) = 25.36146 30.11519 27.73833
# Shear Modulus (GPa) = 10.78920 22.14590 16.46755
#
# Velocity S-wave (km/s) = 2.26823 3.24966 2.80225
# Velocity P-wave (km/s) = 4.35356 5.33300 4.86798
#
# Compressibility (1/GPa) = 0.03942990
#
# Stress axis : x y z
#
# Youngs Moduli (GPa) = 133.10386 43.45913 39.58373
#
# Poissons Ratio (x) = 0.09100 -0.05636
# Poissons Ratio (y) = 0.27872 0.29719
# Poissons Ratio (z) = -0.18952 0.32629
#
# Static dielectric constant tensor:
#      x y z
#    x 1.845330 0.000000 0.000000 
#    y 0.000000 1.838650 0.000000 
#    z 0.000000 0.000000 1.801300 
# 
# From -- ./inp_files/4656.got.cif
#   From: 2010.05.17/outbox.cif.g08.bks.cpg/sg27_3_cif.got.tgz:4656.got - 2010.06.04 01:11:05.
