data_PCOD9338969
_publ_section_title
;
Structure prediction by ZEFSAII (Michael W. Deem and Ramdas Pophale) SiO2 
 PCOD9338969
Probable space group: P C C 2
;
_chemical_formula_sum "Si O2"
_cell_formula_units_Z 18
_cell_length_a 5.377377
_cell_length_b 5.311565
_cell_length_c 25.330284
_cell_angle_alpha 90.000000
_cell_angle_beta 90.000000
_cell_angle_gamma 90.000000
_cell_volume 723.490853
_symmetry_space_group_name_H-M "P C C 2"
_symmetry_group_IT_number 27
_symmetry_cell_setting 'orthorhombic'
loop_
_space_group_symop_operation_xyz
x,y,z
-x,-y,z
-x,y,1/2+z
x,-y,1/2+z
loop_
_atom_site_type_symbol
_atom_site_label
_atom_site_fract_x
_atom_site_fract_y
_atom_site_fract_z
Si Si1 0.252228 0.328394 0.641780
Si Si2 0.751845 0.339973 0.026878
Si Si3 0.346807 0.733668 0.797843
Si Si4 0.000000 0.000000 0.223177
Si Si5 0.245470 0.152122 0.408035
O O1 0.500000 0.500000 0.647240
O O2 0.263348 0.200205 0.583195
O O3 0.000000 0.500000 0.644682
O O4 0.210800 0.117988 0.685785
O O5 0.500000 0.500000 0.024015
O O6 0.000000 0.500000 0.032533
O O7 0.780332 0.224647 0.969055
O O8 0.500000 0.500000 0.776329
O O9 0.272831 0.662694 0.858267
O O10 0.500000 0.000000 0.798612
O O11 0.113382 0.790222 0.761301
O O12 0.500000 0.000000 0.407728
O O13 0.000000 0.000000 0.394017
#
# Coordination Sequence:
#
# PCOD9338969 Si02
#       5
#     4   4   4   2   4
#     4  10  26  47  74 110 154 201 266 324 399 474
#     4  10  21  43  70 106 147 198 251 323 394 476
#     4  11  28  50  77 114 156 209 270 327 403 477
#     4  12  28  48  78 108 156 222 260 346 386 490
#     4  11  23  44  72 111 152 197 253 325 397 479
#
# _framework density 24.879373000000001
#
# number of rings (size 3 to 8) (size 9 to 14) (size 15 to 20)
#    0.000    1.333    1.111    2.000    7.778    1.778 
#    0.000    0.000    0.000    0.000    0.000    0.000 
#    0.000    0.000    0.000    0.000    0.000    0.000 
#
# Total GULP energy -100680.941983 kJ/mol
# GULP energy per Si atom -5593.385666 kJ/mol
# Density = 2.482275 g / cm^3
# Si number density = 24.879373 Si / 1000 Ang^3
#
#
#
# Elastic Constant Matrix: (Units=GPa)
#
#
# Indices 1 2 3 4 5 6 
#
# 1 172.4124 41.6711 27.5627 0.0000 0.0000 0.0000
# 2 41.6711 70.3918 38.2207 0.0000 0.0000 0.0000
# 3 27.5627 38.2207 218.9086 0.0000 0.0000 0.0000
# 4 0.0000 0.0000 0.0000 37.2043 0.0000 0.0000
# 5 0.0000 0.0000 0.0000 0.0000 40.2352 0.0000
# 6 0.0000 0.0000 0.0000 0.0000 0.0000 55.9137
#
#
#
# Elastic Compliance Matrix: (Units=1/GPa)
#
#
# Indices 1 2 3 4 5 6 
#
# 1 0.006774 -0.003919 -0.000169 0.000000 0.000000 0.000000
# 2 -0.003919 0.017961 -0.002643 0.000000 0.000000 0.000000
# 3 -0.000169 -0.002643 0.005051 0.000000 0.000000 0.000000
# 4 0.000000 0.000000 0.000000 0.026879 0.000000 0.000000
# 5 0.000000 0.000000 0.000000 0.000000 0.024854 0.000000
# 6 0.000000 0.000000 0.000000 0.000000 0.000000 0.017885
#
#
# Mechanical properties :
#
#
# Convention : Reuss Voigt Hill
#
# Bulk Modulus (GPa) = 61.25216 75.18020 68.21618
# Shear Modulus (GPa) = 42.26383 50.28785 46.27584
#
# Velocity S-wave (km/s) = 4.12606 4.50073 4.31746
# Velocity P-wave (km/s) = 6.88275 7.56916 7.23410
#
# Compressibility (1/GPa) = 0.01632596
#
# Stress axis : x y z
#
# Youngs Moduli (GPa) = 147.62058 55.67692 197.99094
#
# Poissons Ratio (x) = 0.21817 0.03341
# Poissons Ratio (y) = 0.57846 0.52319
# Poissons Ratio (z) = 0.02491 0.14713
#
# Static dielectric constant tensor:
#      x y z
#    x 1.925030 0.000000 0.000000 
#    y 0.000000 1.998040 0.000000 
#    z 0.000000 0.000000 2.052110 
# 
# From -- ./inp_files/4902.got.cif
#   From: 2010.05.17/outbox.cif.g08.bks.cpg/sg27_3_cif.got.tgz:4902.got - 2010.06.04 01:11:05.
