data_PCOD9338938
_publ_section_title
;
Structure prediction by ZEFSAII (Michael W. Deem and Ramdas Pophale) SiO2 
 PCOD9338938
Probable space group: P C C 2
;
_chemical_formula_sum "Si O2"
_cell_formula_units_Z 28
_cell_length_a 12.778093
_cell_length_b 4.894704
_cell_length_c 23.587722
_cell_angle_alpha 90.000000
_cell_angle_beta 90.000000
_cell_angle_gamma 90.000000
_cell_volume 1475.293670
_symmetry_space_group_name_H-M "P C C 2"
_symmetry_group_IT_number 27
_symmetry_cell_setting 'orthorhombic'
loop_
_space_group_symop_operation_xyz
x,y,z
-x,-y,z
-x,y,1/2+z
x,-y,1/2+z
loop_
_atom_site_type_symbol
_atom_site_label
_atom_site_fract_x
_atom_site_fract_y
_atom_site_fract_z
Si Si1 0.427556 0.757477 0.758600
Si Si2 0.125263 0.993141 0.293732
Si Si3 0.749785 0.848554 0.905882
Si Si4 0.791929 0.526378 0.228146
Si Si5 0.076695 0.238768 0.997378
Si Si6 0.074119 0.754903 0.625867
Si Si7 0.609124 0.335084 0.885075
O O1 0.500000 0.500000 0.764125
O O2 0.326574 0.637055 0.727283
O O3 0.399048 0.817109 0.824093
O O4 0.500000 0.000000 0.734725
O O5 0.172433 0.935285 0.355327
O O6 0.180397 0.784141 0.247596
O O7 0.155991 0.298502 0.277604
O O8 0.000000 0.000000 0.291923
O O9 0.821283 0.756805 0.958512
O O10 0.688513 0.586037 0.882791
O O11 0.666283 0.092191 0.920621
O O12 0.843463 0.638085 0.170484
O O13 0.000000 0.500000 0.994927
O O14 0.111122 0.172453 0.062458
O O15 0.000000 0.000000 0.977463
O O16 0.000000 0.500000 0.616492
O O17 0.000000 0.000000 0.648121
O O18 0.500000 0.500000 0.899489
#
# Coordination Sequence:
#
# PCOD9338938 Si02
#       7
#     4   4   4   4   4   4   4
#     4  11  21  36  56  80 112 149 191 234 279 343
#     4  12  23  34  52  85 122 149 179 231 296 356
#     4  12  21  38  57  86 118 155 192 239 295 350
#     4  12  22  37  56  84 115 151 188 236 291 345
#     4  10  22  39  60  84 114 155 198 233 278 350
#     4  10  21  39  59  82 112 153 198 234 277 347
#     4  11  22  37  58  83 117 153 199 240 287 352
#
# _framework density 18.979272000000002
#
# number of rings (size 3 to 8) (size 9 to 14) (size 15 to 20)
#    0.000    0.857    2.857    6.857    0.000    1.143 
#    0.000    0.000    0.000    2.571    0.000    0.000 
#    0.000    0.000    0.000    0.000    0.000    0.000 
#
# Total GULP energy -155988.755789 kJ/mol
# GULP energy per Si atom -5571.026992 kJ/mol
# Density = 1.893607 g / cm^3
# Si number density = 18.979272 Si / 1000 Ang^3
#
#
#
# Elastic Constant Matrix: (Units=GPa)
#
#
# Indices 1 2 3 4 5 6 
#
# 1 99.5945 2.4864 36.1678 0.0000 0.0000 0.0000
# 2 2.4864 77.6090 -12.2660 0.0000 0.0000 0.0000
# 3 36.1678 -12.2660 67.1794 0.0000 0.0000 0.0000
# 4 0.0000 0.0000 0.0000 23.4553 0.0000 0.0000
# 5 0.0000 0.0000 0.0000 0.0000 3.7300 0.0000
# 6 0.0000 0.0000 0.0000 0.0000 0.0000 37.1289
#
#
#
# Elastic Compliance Matrix: (Units=1/GPa)
#
#
# Indices 1 2 3 4 5 6 
#
# 1 0.012654 -0.001526 -0.007091 0.000000 0.000000 0.000000
# 2 -0.001526 0.013452 0.003278 0.000000 0.000000 0.000000
# 3 -0.007091 0.003278 0.019302 0.000000 0.000000 0.000000
# 4 0.000000 0.000000 0.000000 0.042634 0.000000 0.000000
# 5 0.000000 0.000000 0.000000 0.000000 0.268094 0.000000
# 6 0.000000 0.000000 0.000000 0.000000 0.000000 0.026933
#
#
# Mechanical properties :
#
#
# Convention : Reuss Voigt Hill
#
# Bulk Modulus (GPa) = 28.79473 33.01768 30.90621
# Shear Modulus (GPa) = 12.33580 27.39584 19.86582
#
# Velocity S-wave (km/s) = 2.55220 3.80341 3.23880
# Velocity P-wave (km/s) = 4.88770 6.05990 5.50509
#
# Compressibility (1/GPa) = 0.03472858
#
# Stress axis : x y z
#
# Youngs Moduli (GPa) = 79.02632 74.33807 51.80874
#
# Poissons Ratio (x) = 0.11345 0.36739
# Poissons Ratio (y) = 0.12061 -0.16982
# Poissons Ratio (z) = 0.56040 -0.24367
#
# Static dielectric constant tensor:
#      x y z
#    x 1.792740 0.000000 0.000000 
#    y 0.000000 1.637350 0.000000 
#    z 0.000000 0.000000 1.698510 
# 
# From -- ./inp_files/4832.got.cif
#   From: 2010.05.17/outbox.cif.g08.bks.cpg/sg27_3_cif.got.tgz:4832.got - 2010.06.04 01:11:05.
