data_PCOD9338686
_publ_section_title
;
Structure prediction by ZEFSAII (Michael W. Deem and Ramdas Pophale) SiO2 
 PCOD9338686
Probable space group: P M C 21
;
_chemical_formula_sum "Si O2"
_cell_formula_units_Z 32
_cell_length_a 9.000000
_cell_length_b 12.000000
_cell_length_c 15.000000
_cell_angle_alpha 90.000000
_cell_angle_beta 90.000000
_cell_angle_gamma 90.000000
_cell_volume 1620.000000
_symmetry_space_group_name_H-M "P M C 21"
_symmetry_group_IT_number 26
_symmetry_cell_setting 'orthorhombic'
loop_
_space_group_symop_operation_xyz
x,y,z
-x,-y,1/2+z
-x,y,z
x,-y,1/2+z
loop_
_atom_site_type_symbol
_atom_site_label
_atom_site_fract_x
_atom_site_fract_y
_atom_site_fract_z
Si Si1 0.668806 0.054425 0.065800
Si Si2 0.678928 0.428132 0.276203
Si Si3 0.675612 0.683077 0.267350
Si Si4 0.165772 0.750936 0.658360
Si Si5 0.837284 0.907071 0.830264
Si Si6 0.325928 0.731241 0.939138
Si Si7 0.665475 0.106770 0.859427
Si Si8 0.824153 0.819896 0.109210
O O1 0.500000 0.046062 0.099377
O O2 0.738706 0.171991 0.094214
O O3 0.755493 0.943328 0.095091
O O4 0.667898 0.063094 0.959453
O O5 0.500000 0.421423 0.266154
O O6 0.727007 0.556509 0.276611
O O7 0.755037 0.358406 0.197133
O O8 0.712986 0.367381 0.370305
O O9 0.500000 0.677315 0.245809
O O10 0.692089 0.761451 0.353948
O O11 0.757462 0.755026 0.193052
O O12 0.151473 0.833753 0.742609
O O13 0.000000 0.726665 0.624432
O O14 0.710920 0.844322 0.885784
O O15 0.000000 0.906484 0.875433
O O16 0.786606 0.031746 0.810189
O O17 0.500000 0.725146 0.961957
O O18 0.226253 0.743216 0.025849
O O19 0.500000 0.087184 0.821393
O O20 0.000000 0.829502 0.114700
#
# Coordination Sequence:
#
# PCOD9338686 Si02
#       8
#     4   4   4   4   4   4   4   4
#     4  11  22  37  58  88 121 155 197 243 295 356
#     4   9  20  40  64  86 113 153 204 249 291 346
#     4  10  22  42  63  86 116 157 205 253 297 348
#     4  10  21  36  57  86 119 153 191 238 292 350
#     4  10  19  32  54  83 114 149 187 232 291 351
#     4  10  19  35  60  88 115 150 195 244 292 346
#     4  10  21  36  57  83 116 152 192 242 296 350
#     4  12  24  38  59  90 124 157 195 243 302 365
#
# _framework density 19.753086
#
# number of rings (size 3 to 8) (size 9 to 14) (size 15 to 20)
#    0.000    1.750    1.250    3.375    0.000    5.500 
#    2.250    0.000    0.000    0.000    0.000    0.000 
#    0.000    0.000    0.000    0.000    0.000    0.000 
#
# Total GULP energy -178425.996715 kJ/mol
# GULP energy per Si atom -5575.812397 kJ/mol
# Density = 1.970813 g / cm^3
# Si number density = 19.753086 Si / 1000 Ang^3
#
#
#
# Elastic Constant Matrix: (Units=GPa)
#
#
# Indices 1 2 3 4 5 6 
#
# 1 67.2880 50.5086 18.3725 0.0000 0.0000 0.0000
# 2 50.5086 160.5732 32.5407 0.0000 0.0000 0.0000
# 3 18.3725 32.5407 45.6685 0.0000 0.0000 0.0000
# 4 0.0000 0.0000 0.0000 23.6221 0.0000 0.0000
# 5 0.0000 0.0000 0.0000 0.0000 6.4805 0.0000
# 6 0.0000 0.0000 0.0000 0.0000 0.0000 1.8798
#
#
#
# Elastic Compliance Matrix: (Units=1/GPa)
#
#
# Indices 1 2 3 4 5 6 
#
# 1 0.020118 -0.005479 -0.004189 0.000000 0.000000 0.000000
# 2 -0.005479 0.008771 -0.004045 0.000000 0.000000 0.000000
# 3 -0.004189 -0.004045 0.026465 0.000000 0.000000 0.000000
# 4 0.000000 0.000000 0.000000 0.042333 0.000000 0.000000
# 5 0.000000 0.000000 0.000000 0.000000 0.154310 0.000000
# 6 0.000000 0.000000 0.000000 0.000000 0.000000 0.531976
#
#
# Mechanical properties :
#
#
# Convention : Reuss Voigt Hill
#
# Bulk Modulus (GPa) = 35.80889 52.93037 44.36963
# Shear Modulus (GPa) = 6.09228 17.87032 11.98130
#
# Velocity S-wave (km/s) = 1.75810 3.01106 2.46550
# Velocity P-wave (km/s) = 4.72110 6.24042 5.53316
#
# Compressibility (1/GPa) = 0.02792602
#
# Stress axis : x y z
#
# Youngs Moduli (GPa) = 49.70604 114.01188 37.78592
#
# Poissons Ratio (x) = 0.62470 0.15830
# Poissons Ratio (y) = 0.27235 0.15286
# Poissons Ratio (z) = 0.20824 0.46123
#
# Static dielectric constant tensor:
#      x y z
#    x 1.728040 0.000000 0.000000 
#    y 0.000000 1.676150 0.000000 
#    z 0.000000 0.000000 1.798190 
# 
# From -- ./inp_files/4200.got.cif
#   From: 2010.05.17/outbox.ucp.g08.bks.cvg/sg26_3_cif.got.tgz:4200.got - 2010.06.11 15:23:25.
