data_PCOD9338794
_publ_section_title
;
Structure prediction by ZEFSAII (Michael W. Deem and Ramdas Pophale) SiO2 
 PCOD9338794
Probable space group: P C C 2
;
_chemical_formula_sum "Si O2"
_cell_formula_units_Z 30
_cell_length_a 9.086247
_cell_length_b 9.277976
_cell_length_c 18.755087
_cell_angle_alpha 90.000000
_cell_angle_beta 90.000000
_cell_angle_gamma 90.000000
_cell_volume 1581.090999
_symmetry_space_group_name_H-M "P C C 2"
_symmetry_group_IT_number 27
_symmetry_cell_setting 'orthorhombic'
loop_
_space_group_symop_operation_xyz
x,y,z
-x,-y,z
-x,y,1/2+z
x,-y,1/2+z
loop_
_atom_site_type_symbol
_atom_site_label
_atom_site_fract_x
_atom_site_fract_y
_atom_site_fract_z
Si Si1 0.830748 0.159159 0.348370
Si Si2 0.502503 0.332820 0.643737
Si Si3 0.683074 0.852617 0.535107
Si Si4 0.000000 0.000000 0.226357
Si Si5 0.782326 0.855158 0.111984
Si Si6 0.003621 0.825378 0.489709
Si Si7 0.371896 0.099845 0.378150
Si Si8 0.463044 0.664368 0.310002
O O1 0.935232 0.214528 0.412025
O O2 0.688419 0.263909 0.340219
O O3 0.770580 0.000030 0.372161
O O4 0.919300 0.118843 0.276572
O O5 0.500000 0.500000 0.623119
O O6 0.398149 0.245711 0.591166
O O7 0.660901 0.255983 0.638863
O O8 0.449389 0.324110 0.725060
O O9 0.597637 0.869396 0.460836
O O10 0.838701 0.784485 0.510569
O O11 0.707745 0.008273 0.571708
O O12 0.881577 0.921846 0.175167
O O13 0.885366 0.781689 0.052362
O O14 0.000000 0.000000 0.492657
O O15 0.393982 0.245305 0.335388
O O16 0.500000 0.000000 0.346847
O O17 0.500000 0.500000 0.329594
#
# Coordination Sequence:
#
# PCOD9338794 Si02
#       8
#     4   4   4   2   4   4   4   4
#     4  11  20  36  65  92 123 160 202 263 314 372
#     4  11  25  42  61  88 126 168 209 254 301 364
#     4  11  20  38  65  92 122 159 200 254 314 362
#     4  12  20  32  66 100 120 156 212 260 324 374
#     4  11  21  38  64  94 122 156 202 260 310 366
#     4  10  19  37  59  92 127 150 193 258 316 361
#     4  10  19  34  60  91 116 155 203 256 303 359
#     4  10  24  41  58  86 129 165 211 255 303 367
#
# _framework density 18.974240999999999
#
# number of rings (size 3 to 8) (size 9 to 14) (size 15 to 20)
#    0.000    1.333    5.333    2.800    1.867    2.667 
#    0.000    0.667    0.000    5.600    0.000    0.000 
#    0.000    0.000    0.000    0.000    0.000    0.000 
#
# Total GULP energy -167342.806360 kJ/mol
# GULP energy per Si atom -5578.093545 kJ/mol
# Density = 1.893105 g / cm^3
# Si number density = 18.974241 Si / 1000 Ang^3
#
#
#
# Elastic Constant Matrix: (Units=GPa)
#
#
# Indices 1 2 3 4 5 6 
#
# 1 85.7340 37.3837 17.2360 0.0000 0.0000 0.0000
# 2 37.3837 92.1944 31.9599 0.0000 0.0000 0.0000
# 3 17.2360 31.9599 63.1070 0.0000 0.0000 0.0000
# 4 0.0000 0.0000 0.0000 15.5649 0.0000 0.0000
# 5 0.0000 0.0000 0.0000 0.0000 46.2616 0.0000
# 6 0.0000 0.0000 0.0000 0.0000 0.0000 15.3380
#
#
#
# Elastic Compliance Matrix: (Units=1/GPa)
#
#
# Indices 1 2 3 4 5 6 
#
# 1 0.014240 -0.005368 -0.001171 0.000000 0.000000 0.000000
# 2 -0.005368 0.015180 -0.006222 0.000000 0.000000 0.000000
# 3 -0.001171 -0.006222 0.019317 0.000000 0.000000 0.000000
# 4 0.000000 0.000000 0.000000 0.064247 0.000000 0.000000
# 5 0.000000 0.000000 0.000000 0.000000 0.021616 0.000000
# 6 0.000000 0.000000 0.000000 0.000000 0.000000 0.065198
#
#
# Mechanical properties :
#
#
# Convention : Reuss Voigt Hill
#
# Bulk Modulus (GPa) = 43.07392 46.02162 44.54777
# Shear Modulus (GPa) = 21.45388 25.72994 23.59191
#
# Velocity S-wave (km/s) = 3.36621 3.68645 3.52996
# Velocity P-wave (km/s) = 6.15297 6.51362 6.33587
#
# Compressibility (1/GPa) = 0.02321590
#
# Stress axis : x y z
#
# Youngs Moduli (GPa) = 70.22377 65.87502 51.76869
#
# Poissons Ratio (x) = 0.35365 0.06060
# Poissons Ratio (y) = 0.37699 0.32209
# Poissons Ratio (z) = 0.08220 0.40985
#
# Static dielectric constant tensor:
#      x y z
#    x 1.732400 0.000000 0.000000 
#    y 0.000000 1.620750 0.000000 
#    z 0.000000 0.000000 1.662250 
# 
# From -- ./inp_files/4776.got.cif
#   From: 2010.05.17/outbox.cif.g08.bks.cpg/sg27_3_cif.got.tgz:4776.got - 2010.06.04 01:11:05.
