data_PCOD9338900
_publ_section_title
;
Structure prediction by ZEFSAII (Michael W. Deem and Ramdas Pophale) SiO2 
 PCOD9338900
Probable space group: P C C 2
;
_chemical_formula_sum "Si O2"
_cell_formula_units_Z 32
_cell_length_a 13.510294
_cell_length_b 12.044527
_cell_length_c 9.252715
_cell_angle_alpha 90.000000
_cell_angle_beta 90.000000
_cell_angle_gamma 90.000000
_cell_volume 1505.648982
_symmetry_space_group_name_H-M "P C C 2"
_symmetry_group_IT_number 27
_symmetry_cell_setting 'orthorhombic'
loop_
_space_group_symop_operation_xyz
x,y,z
-x,-y,z
-x,y,1/2+z
x,-y,1/2+z
loop_
_atom_site_type_symbol
_atom_site_label
_atom_site_fract_x
_atom_site_fract_y
_atom_site_fract_z
Si Si1 0.222160 0.962061 0.744900
Si Si2 0.607439 0.447976 0.969681
Si Si3 0.199055 0.204218 0.628637
Si Si4 0.871001 0.608438 0.210191
Si Si5 0.693711 0.748186 0.325837
Si Si6 0.905942 0.926127 0.989034
Si Si7 0.733063 0.413003 0.255194
Si Si8 0.006627 0.290069 0.474016
O O1 0.233547 0.080911 0.669027
O O2 0.311489 0.875338 0.769789
O O3 0.147159 0.897822 0.638686
O O4 0.164880 0.999136 0.889269
O O5 0.500000 0.500000 0.978781
O O6 0.606694 0.337340 0.867356
O O7 0.684302 0.533375 0.895386
O O8 0.652411 0.425224 0.127281
O O9 0.253684 0.237540 0.480623
O O10 0.235575 0.285687 0.755038
O O11 0.086306 0.232013 0.582939
O O12 0.769614 0.679941 0.224868
O O13 0.831543 0.483063 0.216890
O O14 0.936613 0.643790 0.348949
O O15 0.933245 0.634574 0.067805
O O16 0.000000 0.000000 0.024614
O O17 0.944455 0.814858 0.913612
#
# Coordination Sequence:
#
# PCOD9338900 Si02
#       8
#     4   4   4   4   4   4   4   4
#     4  12  20  35  55  80 119 168 208 255 310 342
#     4  10  21  42  73  97 116 146 198 264 332 405
#     4  10  21  36  54  82 121 169 211 255 301 352
#     4  10  21  37  56  80 120 169 213 263 305 351
#     4   9  19  38  57  88 123 153 200 262 312 368
#     4  12  22  30  52  78 116 170 229 265 289 339
#     4  10  23  42  63  89 126 156 203 260 328 386
#     4  11  21  35  53  81 119 172 230 262 293 348
#
# _framework density 21.253294
#
# number of rings (size 3 to 8) (size 9 to 14) (size 15 to 20)
#    0.000    1.500    3.750    3.000    0.000    2.500 
#    0.000    5.000    0.000    0.750    0.000    3.500 
#    0.000    0.000    0.000    0.000    0.000    0.000 
#
# Total GULP energy -178670.250432 kJ/mol
# GULP energy per Si atom -5583.445326 kJ/mol
# Density = 2.120492 g / cm^3
# Si number density = 21.253294 Si / 1000 Ang^3
#
#
#
# Elastic Constant Matrix: (Units=GPa)
#
#
# Indices 1 2 3 4 5 6 
#
# 1 63.6189 31.7597 7.0698 0.0000 0.0000 0.0000
# 2 31.7597 102.2154 -5.8694 0.0000 0.0000 0.0000
# 3 7.0698 -5.8694 36.1663 0.0000 0.0000 0.0000
# 4 0.0000 0.0000 0.0000 22.3062 0.0000 0.0000
# 5 0.0000 0.0000 0.0000 0.0000 16.6539 0.0000
# 6 0.0000 0.0000 0.0000 0.0000 0.0000 -20.1551
#
#
#
# Elastic Compliance Matrix: (Units=1/GPa)
#
#
# Indices 1 2 3 4 5 6 
#
# 1 0.019401 -0.006305 -0.004816 0.000000 0.000000 0.000000
# 2 -0.006305 0.011924 0.003168 0.000000 0.000000 0.000000
# 3 -0.004816 0.003168 0.029106 0.000000 0.000000 0.000000
# 4 0.000000 0.000000 0.000000 0.044831 0.000000 0.000000
# 5 0.000000 0.000000 0.000000 0.000000 0.060046 0.000000
# 6 0.000000 0.000000 0.000000 0.000000 0.000000 -0.049615
#
#
# Mechanical properties :
#
#
# Convention : Reuss Voigt Hill
#
# Bulk Modulus (GPa) = 22.45924 29.76896 26.11410
# Shear Modulus (GPa) = 34.14379 15.03038 24.58708
#
# Velocity S-wave (km/s) = 4.01249 2.66221 3.40495
# Velocity P-wave (km/s) = 5.66190 4.84634 5.26992
#
# Compressibility (1/GPa) = 0.04452511
#
# Stress axis : x y z
#
# Youngs Moduli (GPa) = 51.54315 83.86361 34.35775
#
# Poissons Ratio (x) = 0.52874 0.16546
# Poissons Ratio (y) = 0.32497 -0.10883
# Poissons Ratio (z) = 0.24822 -0.26565
#
# Static dielectric constant tensor:
#      x y z
#    x 1.745010 0.000000 0.000000 
#    y 0.000000 1.880150 0.000000 
#    z 0.000000 0.000000 1.819100 
# 
# From -- ./inp_files/1621.got.cif
#   From: 2010.05.17/outbox.cif.g08.bks.cpg/sg27_1_cif.got.tgz:1621.got - 2010.06.04 01:11:05.
