data_PCOD9338793
_publ_section_title
;
Structure prediction by ZEFSAII (Michael W. Deem and Ramdas Pophale) SiO2 
 PCOD9338793
Probable space group: P C C 2
;
_chemical_formula_sum "Si O2"
_cell_formula_units_Z 32
_cell_length_a 5.542305
_cell_length_b 18.572743
_cell_length_c 13.377097
_cell_angle_alpha 90.000000
_cell_angle_beta 90.000000
_cell_angle_gamma 90.000000
_cell_volume 1376.982267
_symmetry_space_group_name_H-M "P C C 2"
_symmetry_group_IT_number 27
_symmetry_cell_setting 'orthorhombic'
loop_
_space_group_symop_operation_xyz
x,y,z
-x,-y,z
-x,y,1/2+z
x,-y,1/2+z
loop_
_atom_site_type_symbol
_atom_site_label
_atom_site_fract_x
_atom_site_fract_y
_atom_site_fract_z
Si Si1 0.247905 0.513026 0.907240
Si Si2 0.770572 0.326469 0.826642
Si Si3 0.529398 0.768863 0.957828
Si Si4 0.950500 0.923511 0.314106
Si Si5 0.750382 0.458866 0.187803
Si Si6 0.558591 0.686324 0.632592
Si Si7 0.151859 0.223574 0.757858
Si Si8 0.549483 0.076120 0.439843
O O1 0.500000 0.500000 0.959758
O O2 0.236721 0.594655 0.870189
O O3 0.248714 0.459218 0.810646
O O4 0.000000 0.500000 0.962893
O O5 0.588058 0.326161 0.733909
O O6 0.010638 0.297238 0.777926
O O7 0.709968 0.267757 0.912018
O O8 0.605635 0.708845 0.038631
O O9 0.520655 0.849677 0.999142
O O10 0.683662 0.780302 0.856946
O O11 0.995707 0.849093 0.255092
O O12 0.176932 0.925815 0.394163
O O13 0.677598 0.921192 0.359622
O O14 0.000000 0.000000 0.259325
O O15 0.500000 0.500000 0.168810
O O16 0.722570 0.384596 0.126792
O O17 0.000000 0.500000 0.168051
O O18 0.708950 0.758735 0.656432
O O19 0.500000 0.000000 0.493294
#
# Coordination Sequence:
#
# PCOD9338793 Si02
#       8
#     4   4   4   4   4   4   4   4
#     4  10  19  34  60  84 114 160 203 246 310 378
#     4  11  21  39  64  89 121 163 211 264 319 378
#     4  10  23  39  60  95 126 160 218 262 318 390
#     4   9  17  33  61  91 121 165 211 250 306 382
#     4  10  19  37  59  85 119 165 206 247 315 385
#     4  11  23  39  63  91 126 169 209 273 323 379
#     4  10  21  38  63  91 127 167 211 265 325 381
#     4   9  17  35  61  87 123 168 206 252 313 378
#
# _framework density 23.239225999999999
#
# number of rings (size 3 to 8) (size 9 to 14) (size 15 to 20)
#    0.000    2.000    3.750    1.500    1.750    1.000 
#    0.000    1.250    2.750    0.000    0.000    0.000 
#    0.000    0.000    0.000    0.000    0.000    0.000 
#
# Total GULP energy -178204.090882 kJ/mol
# GULP energy per Si atom -5568.877840 kJ/mol
# Density = 2.318633 g / cm^3
# Si number density = 23.239226 Si / 1000 Ang^3
#
#
#
# Elastic Constant Matrix: (Units=GPa)
#
#
# Indices 1 2 3 4 5 6 
#
# 1 120.5837 22.1219 2.7951 0.0000 0.0000 0.0000
# 2 22.1219 120.6918 3.0724 0.0000 0.0000 0.0000
# 3 2.7951 3.0724 50.3381 0.0000 0.0000 0.0000
# 4 0.0000 0.0000 0.0000 10.7326 0.0000 0.0000
# 5 0.0000 0.0000 0.0000 0.0000 -31.7848 0.0000
# 6 0.0000 0.0000 0.0000 0.0000 0.0000 31.2584
#
#
#
# Elastic Compliance Matrix: (Units=1/GPa)
#
#
# Indices 1 2 3 4 5 6 
#
# 1 0.008589 -0.001565 -0.000381 0.000000 0.000000 0.000000
# 2 -0.001565 0.008583 -0.000437 0.000000 0.000000 0.000000
# 3 -0.000381 -0.000437 0.019914 0.000000 0.000000 0.000000
# 4 0.000000 0.000000 0.000000 0.093174 0.000000 0.000000
# 5 0.000000 0.000000 0.000000 0.000000 -0.031462 0.000000
# 6 0.000000 0.000000 0.000000 0.000000 0.000000 0.031991
#
#
# Mechanical properties :
#
#
# Convention : Reuss Voigt Hill
#
# Bulk Modulus (GPa) = 30.94074 38.62137 34.78106
# Shear Modulus (GPa) = 34.16961 19.61618 26.89290
#
# Velocity S-wave (km/s) = 3.83866 2.90849 3.40548
# Velocity P-wave (km/s) = 5.74370 5.28528 5.51925
#
# Compressibility (1/GPa) = 0.03231984
#
# Stress axis : x y z
#
# Youngs Moduli (GPa) = 116.42982 116.50304 50.21715
#
# Poissons Ratio (x) = 0.18228 0.01915
# Poissons Ratio (y) = 0.18216 0.02195
# Poissons Ratio (z) = 0.04441 0.05091
#
# Static dielectric constant tensor:
#      x y z
#    x 1.958230 0.000000 0.000000 
#    y 0.000000 1.975860 0.000000 
#    z 0.000000 0.000000 1.899810 
# 
# From -- ./inp_files/3151.got.cif
#   From: 2010.05.17/outbox.cif.g08.bks.cpg/sg27_2_cif.got.tgz:3151.got - 2010.06.04 01:11:05.
