data_PCOD9338087
_publ_section_title
;
Structure prediction by ZEFSAII (Michael W. Deem and Ramdas Pophale) SiO2 
 PCOD9338087
Probable space group: P M C 21
;
_chemical_formula_sum "Si O2"
_cell_formula_units_Z 32
_cell_length_a 8.959351
_cell_length_b 14.668882
_cell_length_c 14.337501
_cell_angle_alpha 90.000000
_cell_angle_beta 90.000000
_cell_angle_gamma 90.000000
_cell_volume 1884.286894
_symmetry_space_group_name_H-M "P M C 21"
_symmetry_group_IT_number 26
_symmetry_cell_setting 'orthorhombic'
loop_
_space_group_symop_operation_xyz
x,y,z
-x,-y,1/2+z
-x,y,z
x,-y,1/2+z
loop_
_atom_site_type_symbol
_atom_site_label
_atom_site_fract_x
_atom_site_fract_y
_atom_site_fract_z
Si Si1 0.821364 0.352911 0.252620
Si Si2 0.320290 0.015592 0.864085
Si Si3 0.678128 0.968285 0.577660
Si Si4 0.676446 0.489604 0.117960
Si Si5 0.178329 0.859396 0.742755
Si Si6 0.177650 0.674767 0.117702
Si Si7 0.676660 0.400489 0.444270
Si Si8 0.677064 0.147569 0.697181
O O1 0.754402 0.402962 0.162454
O O2 0.780375 0.246181 0.254942
O O3 0.752969 0.399626 0.344626
O O4 0.000000 0.360669 0.252909
O O5 0.500000 0.004395 0.860866
O O6 0.283508 0.099087 0.794862
O O7 0.248013 0.924871 0.821347
O O8 0.275950 0.034070 0.970146
O O9 0.500000 0.951072 0.584015
O O10 0.761636 0.897979 0.644604
O O11 0.703361 0.068986 0.620101
O O12 0.500000 0.488588 0.137023
O O13 0.751745 0.581647 0.159138
O O14 0.696354 0.507751 0.006812
O O15 0.000000 0.866803 0.745806
O O16 0.231439 0.762950 0.172683
O O17 0.000000 0.668312 0.113437
O O18 0.246801 0.674149 0.012705
O O19 0.500000 0.383344 0.436390
O O20 0.500000 0.168761 0.697350
#
# Coordination Sequence:
#
# PCOD9338087 Si02
#       8
#     4   4   4   4   4   4   4   4
#     4  11  22  36  57  84 114 147 183 227 280 331
#     4   9  19  35  55  78 105 144 189 228 268 322
#     4   9  19  36  56  78 106 144 186 228 272 320
#     4   9  20  37  56  79 107 141 181 224 273 325
#     4  10  22  36  52  83 116 145 182 225 276 334
#     4  10  19  33  53  78 108 137 173 221 273 325
#     4   9  20  36  56  81 107 138 181 224 268 322
#     4   9  17  31  51  77 107 138 179 227 272 323
#
# _framework density 16.982551000000001
#
# number of rings (size 3 to 8) (size 9 to 14) (size 15 to 20)
#    0.750    1.750    0.000    3.000    1.750    4.500 
#    0.000    1.250    0.000    4.500    0.000    0.000 
#    0.000    0.000    0.000    0.000    0.000    0.000 
#
# Total GULP energy -178264.606652 kJ/mol
# GULP energy per Si atom -5570.768958 kJ/mol
# Density = 1.694390 g / cm^3
# Si number density = 16.982551 Si / 1000 Ang^3
#
#
#
# Elastic Constant Matrix: (Units=GPa)
#
#
# Indices 1 2 3 4 5 6 
#
# 1 57.7176 25.3665 21.8680 0.0000 0.0000 0.0000
# 2 25.3665 40.0866 12.7481 0.0000 0.0000 0.0000
# 3 21.8680 12.7481 86.6553 0.0000 0.0000 0.0000
# 4 0.0000 0.0000 0.0000 9.2345 0.0000 0.0000
# 5 0.0000 0.0000 0.0000 0.0000 21.7900 0.0000
# 6 0.0000 0.0000 0.0000 0.0000 0.0000 29.4685
#
#
#
# Elastic Compliance Matrix: (Units=1/GPa)
#
#
# Indices 1 2 3 4 5 6 
#
# 1 0.025407 -0.014727 -0.004245 0.000000 0.000000 0.000000
# 2 -0.014727 0.034707 -0.001389 0.000000 0.000000 0.000000
# 3 -0.004245 -0.001389 0.012816 0.000000 0.000000 0.000000
# 4 0.000000 0.000000 0.000000 0.108290 0.000000 0.000000
# 5 0.000000 0.000000 0.000000 0.000000 0.045893 0.000000
# 6 0.000000 0.000000 0.000000 0.000000 0.000000 0.033935
#
#
# Mechanical properties :
#
#
# Convention : Reuss Voigt Hill
#
# Bulk Modulus (GPa) = 31.04983 33.82497 32.43740
# Shear Modulus (GPa) = 15.99979 20.39707 18.19843
#
# Velocity S-wave (km/s) = 3.07275 3.46939 3.27708
# Velocity P-wave (km/s) = 5.55986 6.00080 5.78454
#
# Compressibility (1/GPa) = 0.03220630
#
# Stress axis : x y z
#
# Youngs Moduli (GPa) = 39.35996 28.81261 78.02992
#
# Poissons Ratio (x) = 0.42433 0.33123
# Poissons Ratio (y) = 0.57966 0.10841
# Poissons Ratio (z) = 0.16708 0.04003
#
# Static dielectric constant tensor:
#      x y z
#    x 1.565330 0.000000 0.000000 
#    y 0.000000 1.558950 0.000000 
#    z 0.000000 0.000000 1.580400 
# 
# From -- ./inp_files/4344.got.cif
#   From: 2010.05.17/outbox.cif.g08.bks.cpg/sg26_3_cif.got.tgz:4344.got - 2010.06.04 01:07:29.
