data_PCOD9338977
_publ_section_title
;
Structure prediction by ZEFSAII (Michael W. Deem and Ramdas Pophale) SiO2 
 PCOD9338977
Probable space group: P C C 2
;
_chemical_formula_sum "Si O2"
_cell_formula_units_Z 16
_cell_length_a 12.987309
_cell_length_b 4.461796
_cell_length_c 10.690152
_cell_angle_alpha 90.000000
_cell_angle_beta 90.000000
_cell_angle_gamma 90.000000
_cell_volume 619.459280
_symmetry_space_group_name_H-M "P C C 2"
_symmetry_group_IT_number 27
_symmetry_cell_setting 'orthorhombic'
loop_
_space_group_symop_operation_xyz
x,y,z
-x,-y,z
-x,y,1/2+z
x,-y,1/2+z
loop_
_atom_site_type_symbol
_atom_site_label
_atom_site_fract_x
_atom_site_fract_y
_atom_site_fract_z
Si Si1 0.718927 0.750000 0.801730
Si Si2 0.113166 0.430610 0.465694
Si Si3 0.573191 0.250000 0.801730
Si Si4 0.113166 0.069390 0.137766
O O1 0.647403 0.494454 0.735103
O O2 0.792230 0.946028 0.714208
O O3 0.647403 0.005546 0.868357
O O4 0.792230 0.553972 0.889252
O O5 0.117385 0.083644 0.500055
O O6 0.000000 0.500000 0.412522
O O7 0.117385 0.583644 0.603405
O O8 0.500000 0.500000 0.870025
O O9 0.500000 0.000000 0.733436
O O10 0.000000 0.000000 0.190938
#
# Coordination Sequence:
#
# PCOD9338977 Si02
#       4
#     4   4   4   4
#     4  11  20  37  66  82 112 165 192 227 300 352
#     4  10  22  37  56  89 124 150 188 234 276 345
#     4   9  20  37  60  86 110 147 200 253 294 330
#     4  10  22  37  56  89 124 150 188 234 276 345
#
# _framework density 25.828980999999999
#
# number of rings (size 3 to 8) (size 9 to 14) (size 15 to 20)
#    0.000    2.000    0.000    3.000    0.000    8.000 
#    0.000    0.000    0.000  105.000    0.000    0.000 
#    0.000    0.000    0.000    0.000    0.000    0.000 
#
# Total GULP energy -89075.178982 kJ/mol
# GULP energy per Si atom -5567.198686 kJ/mol
# Density = 2.577019 g / cm^3
# Si number density = 25.828981 Si / 1000 Ang^3
#
#
#
# Elastic Constant Matrix: (Units=GPa)
#
#
# Indices 1 2 3 4 5 6 
#
# 1 153.4272 83.9670 23.3448 0.0000 0.0000 0.0000
# 2 83.9670 179.3133 20.1694 0.0000 0.0000 0.0000
# 3 23.3448 20.1694 30.3556 0.0000 0.0000 0.0000
# 4 0.0000 0.0000 0.0000 36.4684 0.0000 0.0000
# 5 0.0000 0.0000 0.0000 0.0000 10.5103 0.0000
# 6 0.0000 0.0000 0.0000 0.0000 0.0000 88.0355
#
#
#
# Elastic Compliance Matrix: (Units=1/GPa)
#
#
# Indices 1 2 3 4 5 6 
#
# 1 0.009326 -0.003848 -0.004615 0.000000 0.000000 0.000000
# 2 -0.003848 0.007615 -0.002100 0.000000 0.000000 0.000000
# 3 -0.004615 -0.002100 0.037888 0.000000 0.000000 0.000000
# 4 0.000000 0.000000 0.000000 0.027421 0.000000 0.000000
# 5 0.000000 0.000000 0.000000 0.000000 0.095144 0.000000
# 6 0.000000 0.000000 0.000000 0.000000 0.000000 0.011359
#
#
# Mechanical properties :
#
#
# Convention : Reuss Voigt Hill
#
# Bulk Modulus (GPa) = 29.67244 68.67316 49.17280
# Shear Modulus (GPa) = 22.61276 42.71050 32.66163
#
# Velocity S-wave (km/s) = 2.96206 4.07085 3.55989
# Velocity P-wave (km/s) = 4.81782 6.98148 5.99802
#
# Compressibility (1/GPa) = 0.03370131
#
# Stress axis : x y z
#
# Youngs Moduli (GPa) = 107.22896 131.32081 26.39371
#
# Poissons Ratio (x) = 0.50531 0.12181
# Poissons Ratio (y) = 0.41260 0.05544
# Poissons Ratio (z) = 0.49489 0.27584
#
# Static dielectric constant tensor:
#      x y z
#    x 2.166090 0.000000 0.000000 
#    y 0.000000 1.976170 0.000000 
#    z 0.000000 0.000000 2.025740 
# 
# From -- ./inp_files/2500.got.cif
#   From: 2010.05.17/outbox.cif.g08.bks.cpg/sg27_2_cif.got.tgz:2500.got - 2010.06.04 01:11:05.
