data_PCOD9338760
_publ_section_title
;
Structure prediction by ZEFSAII (Michael W. Deem and Ramdas Pophale) SiO2 
 PCOD9338760
Probable space group: P C C 2
;
_chemical_formula_sum "Si O2"
_cell_formula_units_Z 32
_cell_length_a 17.262577
_cell_length_b 14.638231
_cell_length_c 5.297413
_cell_angle_alpha 90.000000
_cell_angle_beta 90.000000
_cell_angle_gamma 90.000000
_cell_volume 1338.622308
_symmetry_space_group_name_H-M "P C C 2"
_symmetry_group_IT_number 27
_symmetry_cell_setting 'orthorhombic'
loop_
_space_group_symop_operation_xyz
x,y,z
-x,-y,z
-x,y,1/2+z
x,-y,1/2+z
loop_
_atom_site_type_symbol
_atom_site_label
_atom_site_fract_x
_atom_site_fract_y
_atom_site_fract_z
Si Si1 0.328183 0.553335 0.130780
Si Si2 0.316622 0.291981 0.006567
Si Si3 0.047165 0.251761 0.539034
Si Si4 0.716244 0.852073 0.634657
Si Si5 0.540560 0.125061 0.152414
Si Si6 0.792631 0.666762 0.408925
Si Si7 0.123057 0.054106 0.599296
Si Si8 0.523464 0.671196 0.222333
O O1 0.350524 0.482780 0.352545
O O2 0.347894 0.648540 0.270236
O O3 0.238839 0.580683 0.065676
O O4 0.295112 0.190948 0.915617
O O5 0.241098 0.339976 0.125246
O O6 0.387897 0.297333 0.198436
O O7 0.118523 0.315572 0.458831
O O8 0.079568 0.148066 0.535805
O O9 0.017250 0.265245 0.823509
O O10 0.629910 0.886340 0.571555
O O11 0.749542 0.762300 0.490512
O O12 0.784460 0.924732 0.606003
O O13 0.517048 0.092389 0.431738
O O14 0.524349 0.233876 0.189136
O O15 0.103740 0.983468 0.376699
O O16 0.503048 0.619052 0.474038
#
# Coordination Sequence:
#
# PCOD9338760 Si02
#       8
#     4   4   4   4   4   4   4   4
#     4  11  23  40  61  94 127 171 212 258 315 388
#     4  11  21  36  67  94 126 166 222 284 319 375
#     4  11  26  44  71 101 131 163 207 262 316 379
#     4  10  22  35  63  94 124 162 224 277 317 369
#     4  10  18  31  52  86 118 156 203 273 325 371
#     4  10  23  39  68  96 127 162 217 268 322 372
#     4  11  26  44  65  93 132 176 211 251 314 388
#     4  10  19  31  51  89 118 156 211 275 327 374
#
# _framework density 23.905175
#
# number of rings (size 3 to 8) (size 9 to 14) (size 15 to 20)
#    0.000    1.500    3.750    2.250   10.500    1.500 
#    0.000    0.000    0.000    6.750    0.000    0.000 
#    0.000    0.000    0.000    0.000    0.000    0.000 
#
# Total GULP energy -178556.864948 kJ/mol
# GULP energy per Si atom -5579.902030 kJ/mol
# Density = 2.385077 g / cm^3
# Si number density = 23.905175 Si / 1000 Ang^3
#
#
#
# Elastic Constant Matrix: (Units=GPa)
#
#
# Indices 1 2 3 4 5 6 
#
# 1 79.3330 7.6616 10.0271 0.0000 0.0000 0.0000
# 2 7.6616 53.8010 4.9306 0.0000 0.0000 0.0000
# 3 10.0271 4.9306 148.3060 0.0000 0.0000 0.0000
# 4 0.0000 0.0000 0.0000 218.7560 0.0000 0.0000
# 5 0.0000 0.0000 0.0000 0.0000 34.9994 0.0000
# 6 0.0000 0.0000 0.0000 0.0000 0.0000 25.4829
#
#
#
# Elastic Compliance Matrix: (Units=1/GPa)
#
#
# Indices 1 2 3 4 5 6 
#
# 1 0.012878 -0.001759 -0.000812 0.000000 0.000000 0.000000
# 2 -0.001759 0.018884 -0.000509 0.000000 0.000000 0.000000
# 3 -0.000812 -0.000509 0.006815 0.000000 0.000000 0.000000
# 4 0.000000 0.000000 0.000000 0.004571 0.000000 0.000000
# 5 0.000000 0.000000 0.000000 0.000000 0.028572 0.000000
# 6 0.000000 0.000000 0.000000 0.000000 0.000000 0.039242
#
#
# Mechanical properties :
#
#
# Convention : Reuss Voigt Hill
#
# Bulk Modulus (GPa) = 30.84939 36.29762 33.57350
# Shear Modulus (GPa) = 39.08454 73.10237 56.09346
#
# Velocity S-wave (km/s) = 4.04788 5.53593 4.84932
# Velocity P-wave (km/s) = 5.89746 7.48859 6.74014
#
# Compressibility (1/GPa) = 0.03241555
#
# Stress axis : x y z
#
# Youngs Moduli (GPa) = 77.65382 52.95432 146.74275
#
# Poissons Ratio (x) = 0.09317 0.11918
# Poissons Ratio (y) = 0.13663 0.07467
# Poissons Ratio (z) = 0.06307 0.02695
#
# Static dielectric constant tensor:
#      x y z
#    x 1.957550 0.000000 0.000000 
#    y 0.000000 1.688120 0.000000 
#    z 0.000000 0.000000 2.136710 
# 
# From -- ./inp_files/511.got.cif
#   From: 2010.05.17/outbox.cif.g08.bks.cpg/sg27_1_cif.got.tgz:511.got - 2010.06.04 01:11:05.
