data_PCOD9338788
_publ_section_title
;
Structure prediction by ZEFSAII (Michael W. Deem and Ramdas Pophale) SiO2 
 PCOD9338788
Probable space group: P C C 2
;
_chemical_formula_sum "Si O2"
_cell_formula_units_Z 24
_cell_length_a 11.082776
_cell_length_b 5.571066
_cell_length_c 14.982966
_cell_angle_alpha 90.000000
_cell_angle_beta 90.000000
_cell_angle_gamma 90.000000
_cell_volume 925.091420
_symmetry_space_group_name_H-M "P C C 2"
_symmetry_group_IT_number 27
_symmetry_cell_setting 'orthorhombic'
loop_
_space_group_symop_operation_xyz
x,y,z
-x,-y,z
-x,y,1/2+z
x,-y,1/2+z
loop_
_atom_site_type_symbol
_atom_site_label
_atom_site_fract_x
_atom_site_fract_y
_atom_site_fract_z
Si Si1 0.766691 0.996386 0.243440
Si Si2 0.993858 0.247536 0.573388
Si Si3 0.500000 0.000000 0.327363
Si Si4 0.282962 0.498637 0.175088
Si Si5 0.210525 0.836187 0.932775
Si Si6 0.500000 0.500000 0.315850
Si Si7 0.265150 0.665736 0.486723
O O1 0.622172 0.995434 0.267991
O O2 0.787925 0.750256 0.191120
O O3 0.829312 0.953887 0.338876
O O4 0.783273 0.247458 0.192327
O O5 0.875116 0.284802 0.512651
O O6 0.000000 0.500000 0.622816
O O7 0.104156 0.210731 0.503197
O O8 0.000000 0.000000 0.626960
O O9 0.496467 0.741477 0.372693
O O10 0.389117 0.500740 0.246929
O O11 0.325037 0.458057 0.073496
O O12 0.262044 0.562594 0.918523
O O13 0.298619 0.054093 0.967067
#
# Coordination Sequence:
#
# PCOD9338788 Si02
#       7
#     4   4   2   4   4   2   4
#     4  10  19  33  53  77 104 137 179 221 261 314
#     4   8  16  30  50  68  92 128 166 194 244 312
#     4   8  16  30  48  70 102 140 170 208 268 320
#     4  10  19  33  53  77 104 137 179 221 261 314
#     4  10  19  33  53  76 102 137 174 212 264 321
#     4   8  16  30  48  70 102 140 170 208 268 320
#     4  10  19  33  53  76 102 137 174 212 264 321
#
# _framework density 25.943382
#
# number of rings (size 3 to 8) (size 9 to 14) (size 15 to 20)
#    0.000    2.667    0.000    2.000    0.000    0.000 
#    0.000    1.667    0.000   36.000    0.000    0.000 
#    0.000    0.000    0.000    0.000    0.000    0.000 
#
# Total GULP energy -133706.405410 kJ/mol
# GULP energy per Si atom -5571.100225 kJ/mol
# Density = 2.588433 g / cm^3
# Si number density = 25.943382 Si / 1000 Ang^3
#
#
#
# Elastic Constant Matrix: (Units=GPa)
#
#
# Indices 1 2 3 4 5 6 
#
# 1 86.1708 26.4744 6.2040 0.0000 0.0000 0.0000
# 2 26.4744 328.8076 24.9112 0.0000 0.0000 0.0000
# 3 6.2040 24.9112 88.7013 0.0000 0.0000 0.0000
# 4 0.0000 0.0000 0.0000 42.2262 0.0000 0.0000
# 5 0.0000 0.0000 0.0000 0.0000 21.5176 0.0000
# 6 0.0000 0.0000 0.0000 0.0000 0.0000 39.4819
#
#
#
# Elastic Compliance Matrix: (Units=1/GPa)
#
#
# Indices 1 2 3 4 5 6 
#
# 1 0.011928 -0.000917 -0.000577 0.000000 0.000000 0.000000
# 2 -0.000917 0.003178 -0.000828 0.000000 0.000000 0.000000
# 3 -0.000577 -0.000828 0.011547 0.000000 0.000000 0.000000
# 4 0.000000 0.000000 0.000000 0.023682 0.000000 0.000000
# 5 0.000000 0.000000 0.000000 0.000000 0.046474 0.000000
# 6 0.000000 0.000000 0.000000 0.000000 0.000000 0.025328
#
#
# Mechanical properties :
#
#
# Convention : Reuss Voigt Hill
#
# Bulk Modulus (GPa) = 45.43622 68.76210 57.09916
# Shear Modulus (GPa) = 37.28104 50.38448 43.83276
#
# Velocity S-wave (km/s) = 3.79491 4.41170 4.11488
# Velocity P-wave (km/s) = 6.06246 7.24659 6.68081
#
# Compressibility (1/GPa) = 0.02200887
#
# Stress axis : x y z
#
# Youngs Moduli (GPa) = 83.83618 314.67712 86.60424
#
# Poissons Ratio (x) = 0.28846 0.04996
# Poissons Ratio (y) = 0.07685 0.07174
# Poissons Ratio (z) = 0.04836 0.26067
#
# Static dielectric constant tensor:
#      x y z
#    x 2.156160 0.000000 0.000000 
#    y 0.000000 2.196150 0.000000 
#    z 0.000000 0.000000 2.055800 
# 
# From -- ./inp_files/3085.got.cif
#   From: 2010.05.17/outbox.cif.g08.bks.cpg/sg27_2_cif.got.tgz:3085.got - 2010.06.04 01:11:05.
