data_PCOD9338012
_publ_section_title
;
Structure prediction by ZEFSAII (Michael W. Deem and Ramdas Pophale) SiO2 
 PCOD9338012
Probable space group: P M C 21
;
_chemical_formula_sum "Si O2"
_cell_formula_units_Z 32
_cell_length_a 13.677170
_cell_length_b 9.091823
_cell_length_c 12.722266
_cell_angle_alpha 90.000000
_cell_angle_beta 90.000000
_cell_angle_gamma 90.000000
_cell_volume 1582.018978
_symmetry_space_group_name_H-M "P M C 21"
_symmetry_group_IT_number 26
_symmetry_cell_setting 'orthorhombic'
loop_
_space_group_symop_operation_xyz
x,y,z
-x,-y,1/2+z
-x,y,z
x,-y,1/2+z
loop_
_atom_site_type_symbol
_atom_site_label
_atom_site_fract_x
_atom_site_fract_y
_atom_site_fract_z
Si Si1 0.257316 0.505643 0.631570
Si Si2 0.237076 0.938560 0.954500
Si Si3 0.610145 0.423908 0.938465
Si Si4 0.667923 0.298021 0.302007
Si Si5 0.114247 0.971722 0.265040
Si Si6 0.889240 0.727297 0.102080
Si Si7 0.614490 0.750432 0.231664
Si Si8 0.306891 0.062542 0.156610
O O1 0.309523 0.573644 0.529723
O O2 0.253612 0.607702 0.734455
O O3 0.154257 0.434524 0.604934
O O4 0.325821 0.367132 0.663377
O O5 0.299403 0.827485 0.882893
O O6 0.161756 0.024223 0.879968
O O7 0.174739 0.829519 0.027245
O O8 0.300806 0.039708 0.031873
O O9 0.500000 0.411061 0.981553
O O10 0.614405 0.576316 0.869442
O O11 0.627465 0.296767 0.852632
O O12 0.630496 0.196486 0.204765
O O13 0.116842 0.809160 0.214620
O O14 0.192473 0.067739 0.196272
O O15 0.000000 0.019663 0.262464
O O16 0.000000 0.729636 0.066352
O O17 0.500000 0.738137 0.206912
O O18 0.651882 0.912214 0.206023
#
# Coordination Sequence:
#
# PCOD9338012 Si02
#       8
#     4   4   4   4   4   4   4   4
#     4  11  20  38  57  86 121 159 195 242 286 357
#     4  10  18  36  57  84 117 160 197 243 301 346
#     4  10  21  38  62  86 114 154 197 237 296 362
#     4  10  22  36  60  86 119 156 193 243 298 353
#     4   9  18  32  56  85 116 155 201 242 288 353
#     4  10  19  35  59  86 117 160 202 245 299 354
#     4  10  20  36  60  85 114 154 196 243 300 356
#     4  10  20  37  59  88 118 150 195 253 298 351
#
# _framework density 20.227315000000001
#
# number of rings (size 3 to 8) (size 9 to 14) (size 15 to 20)
#    0.000    2.000    3.750    0.750    0.000    3.500 
#    0.000    3.125    0.000    4.500    0.000    0.000 
#    0.000    0.000    0.000    0.000    0.000    0.000 
#
# Total GULP energy -178305.571246 kJ/mol
# GULP energy per Si atom -5572.049101 kJ/mol
# Density = 2.018128 g / cm^3
# Si number density = 20.227315 Si / 1000 Ang^3
#
#
#
# Elastic Constant Matrix: (Units=GPa)
#
#
# Indices 1 2 3 4 5 6 
#
# 1 31.5469 -5.0507 7.4573 0.0000 0.0000 0.0000
# 2 -5.0507 46.5893 18.8118 0.0000 0.0000 0.0000
# 3 7.4573 18.8118 84.8241 0.0000 0.0000 0.0000
# 4 0.0000 0.0000 0.0000 38.4573 0.0000 0.0000
# 5 0.0000 0.0000 0.0000 0.0000 21.5570 0.0000
# 6 0.0000 0.0000 0.0000 0.0000 0.0000 9.1927
#
#
#
# Elastic Compliance Matrix: (Units=1/GPa)
#
#
# Indices 1 2 3 4 5 6 
#
# 1 0.033522 0.005298 -0.004122 0.000000 0.000000 0.000000
# 2 0.005298 0.024413 -0.005880 0.000000 0.000000 0.000000
# 3 -0.004122 -0.005880 0.013456 0.000000 0.000000 0.000000
# 4 0.000000 0.000000 0.000000 0.026003 0.000000 0.000000
# 5 0.000000 0.000000 0.000000 0.000000 0.046389 0.000000
# 6 0.000000 0.000000 0.000000 0.000000 0.000000 0.108782
#
#
# Mechanical properties :
#
#
# Convention : Reuss Voigt Hill
#
# Bulk Modulus (GPa) = 16.13352 22.82189 19.47771
# Shear Modulus (GPa) = 17.69090 23.29087 20.49088
#
# Velocity S-wave (km/s) = 2.96058 3.39699 3.18627
# Velocity P-wave (km/s) = 4.43623 5.16655 4.81526
#
# Compressibility (1/GPa) = 0.06198274
#
# Stress axis : x y z
#
# Youngs Moduli (GPa) = 29.83153 40.96220 74.31896
#
# Poissons Ratio (x) = -0.21704 0.30635
# Poissons Ratio (y) = -0.15806 0.43699
# Poissons Ratio (z) = 0.12297 0.24086
#
# Static dielectric constant tensor:
#      x y z
#    x 1.720710 0.000000 0.000000 
#    y 0.000000 1.744070 0.000000 
#    z 0.000000 0.000000 1.766360 
# 
# From -- ./inp_files/3611.got.cif
#   From: 2010.05.17/outbox.cif.g08.bks.cpg/sg26_2_cif.got.tgz:3611.got - 2010.06.04 01:07:29.
