data_PCOD9338506
_publ_section_title
;
Structure prediction by ZEFSAII (Michael W. Deem and Ramdas Pophale) SiO2 
 PCOD9338506
Probable space group: P M C 21
;
_chemical_formula_sum "Si O2"
_cell_formula_units_Z 24
_cell_length_a 11.830116
_cell_length_b 4.973390
_cell_length_c 16.179566
_cell_angle_alpha 90.000000
_cell_angle_beta 90.000000
_cell_angle_gamma 90.000000
_cell_volume 951.937396
_symmetry_space_group_name_H-M "P M C 21"
_symmetry_group_IT_number 26
_symmetry_cell_setting 'orthorhombic'
loop_
_space_group_symop_operation_xyz
x,y,z
-x,-y,1/2+z
-x,y,z
x,-y,1/2+z
loop_
_atom_site_type_symbol
_atom_site_label
_atom_site_fract_x
_atom_site_fract_y
_atom_site_fract_z
Si Si1 0.626340 0.256963 0.410510
Si Si2 0.873669 0.134812 0.556496
Si Si3 0.824175 0.381471 0.954963
Si Si4 0.125197 0.718394 0.271770
Si Si5 0.628849 0.906600 0.091855
Si Si6 0.732795 0.202430 0.237481
O O1 0.500000 0.341951 0.393599
O O2 0.697795 0.517973 0.436338
O O3 0.626267 0.065533 0.491656
O O4 0.674002 0.136289 0.325520
O O5 0.879694 0.334515 0.478241
O O6 0.753925 0.235885 0.596437
O O7 0.000000 0.144125 0.592854
O O8 0.848118 0.830997 0.527171
O O9 0.870771 0.260052 0.870806
O O10 0.218746 0.498899 0.247665
O O11 0.000000 0.625240 0.249714
O O12 0.159521 0.004220 0.233948
O O13 0.500000 0.800094 0.110275
O O14 0.651820 0.142235 0.159242
#
# Coordination Sequence:
#
# PCOD9338506 Si02
#       6
#     4   4   4   4   4   4
#     4   9  20  41  67  94 127 171 220 268 323 386
#     4  11  22  38  64  97 132 170 215 267 323 384
#     4  10  21  38  63  97 131 169 215 266 323 384
#     4  11  22  39  64  93 130 172 215 266 324 386
#     4  10  23  44  68  96 131 171 216 267 324 385
#     4  11  24  42  64  95 129 167 215 268 323 381
#
# _framework density 25.211741
#
# number of rings (size 3 to 8) (size 9 to 14) (size 15 to 20)
#    0.000    1.667    0.000    5.500    0.000    4.667 
#    0.000   16.667    0.000    0.000    0.000    0.000 
#    0.000    0.000    0.000    0.000    0.000    0.000 
#
# Total GULP energy -133750.944166 kJ/mol
# GULP energy per Si atom -5572.956007 kJ/mol
# Density = 2.515436 g / cm^3
# Si number density = 25.211741 Si / 1000 Ang^3
#
#
#
# Elastic Constant Matrix: (Units=GPa)
#
#
# Indices 1 2 3 4 5 6 
#
# 1 217.0118 7.9596 34.2597 0.0000 0.0000 0.0000
# 2 7.9596 73.0620 17.9758 0.0000 0.0000 0.0000
# 3 34.2597 17.9758 142.4208 0.0000 0.0000 0.0000
# 4 0.0000 0.0000 0.0000 35.4131 0.0000 0.0000
# 5 0.0000 0.0000 0.0000 0.0000 7.5955 0.0000
# 6 0.0000 0.0000 0.0000 0.0000 0.0000 -1.5198
#
#
#
# Elastic Compliance Matrix: (Units=1/GPa)
#
#
# Indices 1 2 3 4 5 6 
#
# 1 0.004794 -0.000246 -0.001122 0.000000 0.000000 0.000000
# 2 -0.000246 0.014138 -0.001725 0.000000 0.000000 0.000000
# 3 -0.001122 -0.001725 0.007509 0.000000 0.000000 0.000000
# 4 0.000000 0.000000 0.000000 0.028238 0.000000 0.000000
# 5 0.000000 0.000000 0.000000 0.000000 0.131657 0.000000
# 6 0.000000 0.000000 0.000000 0.000000 0.000000 -0.657994
#
#
# Mechanical properties :
#
#
# Convention : Reuss Voigt Hill
#
# Bulk Modulus (GPa) = 49.37203 61.43165 55.40184
# Shear Modulus (GPa) = -10.89994 33.11772 11.10889
#
# Velocity S-wave (km/s) = -2.08152 3.62827 2.10138
# Velocity P-wave (km/s) = 3.72135 6.47855 5.28300
#
# Compressibility (1/GPa) = 0.02025438
#
# Stress axis : x y z
#
# Youngs Moduli (GPa) = 208.58387 70.72984 133.17087
#
# Poissons Ratio (x) = 0.01741 0.14944
# Poissons Ratio (y) = 0.05135 0.22975
# Poissons Ratio (z) = 0.23407 0.12203
#
# Static dielectric constant tensor:
#      x y z
#    x 2.044020 0.000000 0.000000 
#    y 0.000000 1.919810 0.000000 
#    z 0.000000 0.000000 2.114690 
# 
# From -- ./inp_files/5117.got.cif
#   From: 2010.05.17/outbox.cif.g08.bks.cpg/sg26_3_cif.got.tgz:5117.got - 2010.06.04 01:07:29.
