data_PCOD9338554
_publ_section_title
;
Structure prediction by ZEFSAII (Michael W. Deem and Ramdas Pophale) SiO2 
 PCOD9338554
Probable space group: P M C 21
;
_chemical_formula_sum "Si O2"
_cell_formula_units_Z 26
_cell_length_a 7.882823
_cell_length_b 10.175513
_cell_length_c 14.206168
_cell_angle_alpha 90.000000
_cell_angle_beta 90.000000
_cell_angle_gamma 90.000000
_cell_volume 1139.501851
_symmetry_space_group_name_H-M "P M C 21"
_symmetry_group_IT_number 26
_symmetry_cell_setting 'orthorhombic'
loop_
_space_group_symop_operation_xyz
x,y,z
-x,-y,1/2+z
-x,y,z
x,-y,1/2+z
loop_
_atom_site_type_symbol
_atom_site_label
_atom_site_fract_x
_atom_site_fract_y
_atom_site_fract_z
Si Si1 0.685215 0.798335 0.837560
Si Si2 0.500000 0.570331 0.609086
Si Si3 0.195477 0.803095 0.300160
Si Si4 0.202562 0.369278 0.617710
Si Si5 0.802815 0.935494 0.669908
Si Si6 0.500000 0.442551 0.334415
Si Si7 0.500000 0.271845 0.927841
Si Si8 0.194514 0.893051 0.016695
O O1 0.500000 0.855127 0.859648
O O2 0.664581 0.645428 0.862274
O O3 0.718736 0.820475 0.728662
O O4 0.805269 0.878816 0.905582
O O5 0.327048 0.487051 0.591150
O O6 0.500000 0.572944 0.722265
O O7 0.500000 0.694833 0.538919
O O8 0.219748 0.681543 0.226191
O O9 0.215342 0.934166 0.235979
O O10 0.333189 0.795609 0.382583
O O11 0.000000 0.800186 0.333693
O O12 0.264409 0.242594 0.557940
O O13 0.000000 0.393609 0.601485
O O14 0.730330 0.981594 0.569655
O O15 0.000000 0.898445 0.662793
O O16 0.500000 0.582499 0.380093
O O17 0.000000 0.893297 0.049718
#
# Coordination Sequence:
#
# PCOD9338554 Si02
#       8
#     4   2   4   4   4   2   2   4
#     4  10  22  37  55  82 127 155 189 238 293 359
#     4  12  22  38  59  81 126 158 193 244 287 371
#     4   9  19  37  61  87 112 143 202 255 293 347
#     4   9  18  35  61  86 110 151 200 253 295 334
#     4   9  19  38  61  86 114 149 198 252 295 345
#     4  10  24  41  50  89 121 155 200 235 286 378
#     4  12  22  37  63  84 119 161 191 243 309 337
#     4   9  18  35  61  90 111 147 207 248 292 349
#
# _framework density 22.816987000000001
#
# number of rings (size 3 to 8) (size 9 to 14) (size 15 to 20)
#    0.462    1.846    1.538    3.231    2.154    1.231 
#    2.769    3.077    0.000    0.000    0.000    0.000 
#    0.000    0.000    0.000    0.000    0.000    0.000 
#
# Total GULP energy -144914.869071 kJ/mol
# GULP energy per Si atom -5573.648810 kJ/mol
# Density = 2.276505 g / cm^3
# Si number density = 22.816987 Si / 1000 Ang^3
#
#
#
# Elastic Constant Matrix: (Units=GPa)
#
#
# Indices 1 2 3 4 5 6 
#
# 1 75.4412 9.9072 2.0826 0.0000 0.0000 0.0000
# 2 9.9072 35.5831 0.4079 0.0000 0.0000 0.0000
# 3 2.0826 0.4079 91.5072 0.0000 0.0000 0.0000
# 4 0.0000 0.0000 0.0000 34.6129 0.0000 0.0000
# 5 0.0000 0.0000 0.0000 0.0000 23.2415 0.0000
# 6 0.0000 0.0000 0.0000 0.0000 0.0000 23.9686
#
#
#
# Elastic Compliance Matrix: (Units=1/GPa)
#
#
# Indices 1 2 3 4 5 6 
#
# 1 0.013766 -0.003829 -0.000296 0.000000 0.000000 0.000000
# 2 -0.003829 0.029170 -0.000043 0.000000 0.000000 0.000000
# 3 -0.000296 -0.000043 0.010935 0.000000 0.000000 0.000000
# 4 0.000000 0.000000 0.000000 0.028891 0.000000 0.000000
# 5 0.000000 0.000000 0.000000 0.000000 0.043026 0.000000
# 6 0.000000 0.000000 0.000000 0.000000 0.000000 0.041721
#
#
# Mechanical properties :
#
#
# Convention : Reuss Voigt Hill
#
# Bulk Modulus (GPa) = 21.96152 25.25854 23.61003
# Shear Modulus (GPa) = 26.17452 29.04018 27.60735
#
# Velocity S-wave (km/s) = 3.39064 3.57142 3.48220
# Velocity P-wave (km/s) = 4.99745 5.30102 5.15147
#
# Compressibility (1/GPa) = 0.04553419
#
# Stress axis : x y z
#
# Youngs Moduli (GPa) = 72.64048 34.28185 91.44919
#
# Poissons Ratio (x) = 0.13128 0.02709
# Poissons Ratio (y) = 0.27818 0.00392
# Poissons Ratio (z) = 0.02152 0.00147
#
# Static dielectric constant tensor:
#      x y z
#    x 1.819020 0.000000 0.000000 
#    y 0.000000 1.881740 0.000000 
#    z 0.000000 0.000000 1.894700 
# 
# From -- ./inp_files/4064.got.cif
#   From: 2010.05.17/outbox.cif.g08.bks.cpg/sg26_3_cif.got.tgz:4064.got - 2010.06.04 01:07:29.
