data_PCOD9338170
_publ_section_title
;
Structure prediction by ZEFSAII (Michael W. Deem and Ramdas Pophale) SiO2 
 PCOD9338170
Probable space group: P M C 21
;
_chemical_formula_sum "Si O2"
_cell_formula_units_Z 24
_cell_length_a 8.249506
_cell_length_b 14.193568
_cell_length_c 7.874787
_cell_angle_alpha 90.000000
_cell_angle_beta 90.000000
_cell_angle_gamma 90.000000
_cell_volume 922.058214
_symmetry_space_group_name_H-M "P M C 21"
_symmetry_group_IT_number 26
_symmetry_cell_setting 'orthorhombic'
loop_
_space_group_symop_operation_xyz
x,y,z
-x,-y,1/2+z
-x,y,z
x,-y,1/2+z
loop_
_atom_site_type_symbol
_atom_site_label
_atom_site_fract_x
_atom_site_fract_y
_atom_site_fract_z
Si Si1 0.304842 0.527595 0.094020
Si Si2 0.688908 0.139213 0.165830
Si Si3 0.816986 0.032460 0.478986
Si Si4 0.315422 0.184680 0.703272
Si Si5 0.189517 0.352775 0.913092
Si Si6 0.688943 0.688027 0.860123
O O1 0.500000 0.537805 0.114890
O O2 0.219247 0.581155 0.247274
O O3 0.251975 0.587474 0.926808
O O4 0.265758 0.418354 0.060119
O O5 0.500000 0.149900 0.123818
O O6 0.700076 0.076986 0.338866
O O7 0.763369 0.239952 0.222910
O O8 0.775846 0.073787 0.029371
O O9 0.794901 0.097340 0.647345
O O10 0.000000 0.042309 0.416869
O O11 0.500000 0.151563 0.722635
O O12 0.268794 0.253588 0.858036
O O13 0.308545 0.252067 0.536614
O O14 0.000000 0.340464 0.940906
O O15 0.500000 0.676517 0.814254
#
# Coordination Sequence:
#
# PCOD9338170 Si02
#       6
#     4   4   4   4   4   4
#     4  10  19  35  56  78 104 140 180 217 259 318
#     4  10  19  35  56  78 104 140 180 217 259 318
#     4  11  21  34  53  81 110 137 173 224 270 306
#     4   9  17  33  54  75 100 139 180 212 254 320
#     4  11  21  34  53  81 110 137 173 224 270 306
#     4   7  14  29  52  75  96 127 174 216 248 298
#
# _framework density 26.028724
#
# number of rings (size 3 to 8) (size 9 to 14) (size 15 to 20)
#    0.000    2.333    0.000    6.500    0.000    0.000 
#    0.000    4.167    0.000    2.000    0.000    0.000 
#    0.000    0.000    0.000    0.000    0.000    0.000 
#
# Total GULP energy -134346.821532 kJ/mol
# GULP energy per Si atom -5597.784231 kJ/mol
# Density = 2.596948 g / cm^3
# Si number density = 26.028724 Si / 1000 Ang^3
#
#
#
# Elastic Constant Matrix: (Units=GPa)
#
#
# Indices 1 2 3 4 5 6 
#
# 1 105.4488 12.2305 -3.3470 0.0000 0.0000 0.0000
# 2 12.2305 173.9086 2.0470 0.0000 0.0000 0.0000
# 3 -3.3470 2.0470 89.4048 0.0000 0.0000 0.0000
# 4 0.0000 0.0000 0.0000 58.9356 0.0000 0.0000
# 5 0.0000 0.0000 0.0000 0.0000 28.1554 0.0000
# 6 0.0000 0.0000 0.0000 0.0000 0.0000 24.3844
#
#
#
# Elastic Compliance Matrix: (Units=1/GPa)
#
#
# Indices 1 2 3 4 5 6 
#
# 1 0.009574 -0.000678 0.000374 0.000000 0.000000 0.000000
# 2 -0.000678 0.005800 -0.000158 0.000000 0.000000 0.000000
# 3 0.000374 -0.000158 0.011203 0.000000 0.000000 0.000000
# 4 0.000000 0.000000 0.000000 0.016968 0.000000 0.000000
# 5 0.000000 0.000000 0.000000 0.000000 0.035517 0.000000
# 6 0.000000 0.000000 0.000000 0.000000 0.000000 0.041010
#
#
# Mechanical properties :
#
#
# Convention : Reuss Voigt Hill
#
# Bulk Modulus (GPa) = 38.98295 43.40260 41.19277
# Shear Modulus (GPa) = 38.59651 46.15052 42.37352
#
# Velocity S-wave (km/s) = 3.85495 4.21534 4.03917
# Velocity P-wave (km/s) = 5.90115 6.35635 6.13298
#
# Compressibility (1/GPa) = 0.02565224
#
# Stress axis : x y z
#
# Youngs Moduli (GPa) = 104.45236 172.42366 89.26416
#
# Poissons Ratio (x) = 0.11685 -0.03338
# Poissons Ratio (y) = 0.07079 0.01412
# Poissons Ratio (z) = -0.03906 0.02727
#
# Static dielectric constant tensor:
#      x y z
#    x 1.872770 0.000000 0.000000 
#    y 0.000000 2.073020 0.000000 
#    z 0.000000 0.000000 2.224930 
# 
# From -- ./inp_files/1447.got.cif
#   From: 2010.05.17/outbox.cif.g08.bks.cpg/sg26_1_cif.got.tgz:1447.got - 2010.06.04 01:07:29.
