data_PCOD9338689
_publ_section_title
;
Structure prediction by ZEFSAII (Michael W. Deem and Ramdas Pophale) SiO2 
 PCOD9338689
Probable space group: P M C 21
;
_chemical_formula_sum "Si O2"
_cell_formula_units_Z 32
_cell_length_a 9.000000
_cell_length_b 12.000000
_cell_length_c 15.000000
_cell_angle_alpha 90.000000
_cell_angle_beta 90.000000
_cell_angle_gamma 90.000000
_cell_volume 1620.000000
_symmetry_space_group_name_H-M "P M C 21"
_symmetry_group_IT_number 26
_symmetry_cell_setting 'orthorhombic'
loop_
_space_group_symop_operation_xyz
x,y,z
-x,-y,1/2+z
-x,y,z
x,-y,1/2+z
loop_
_atom_site_type_symbol
_atom_site_label
_atom_site_fract_x
_atom_site_fract_y
_atom_site_fract_z
Si Si1 0.825898 0.418479 0.232320
Si Si2 0.820624 0.858900 0.143302
Si Si3 0.822062 0.941960 0.328675
Si Si4 0.321386 0.321993 0.061403
Si Si5 0.675309 0.296346 0.507015
Si Si6 0.321305 0.478677 0.902688
Si Si7 0.819692 0.914676 0.534472
Si Si8 0.171895 0.192312 0.344454
O O1 0.741592 0.403746 0.138596
O O2 0.756457 0.500910 0.307182
O O3 0.814880 0.295370 0.277564
O O4 0.000000 0.443824 0.218796
O O5 0.766218 0.869902 0.245486
O O6 0.000000 0.853579 0.142671
O O7 0.757184 0.751364 0.093159
O O8 0.780395 0.972524 0.088702
O O9 0.771242 0.924217 0.430295
O O10 0.000000 0.925270 0.331795
O O11 0.797900 0.071708 0.303880
O O12 0.500000 0.317877 0.068839
O O13 0.283716 0.371354 0.962976
O O14 0.251276 0.199186 0.071275
O O15 0.500000 0.297668 0.522358
O O16 0.719460 0.416403 0.466837
O O17 0.720336 0.213532 0.426892
O O18 0.500000 0.481976 0.889469
O O19 0.000000 0.905568 0.538150
O O20 0.000000 0.190422 0.377625
#
# Coordination Sequence:
#
# PCOD9338689 Si02
#       8
#     4   4   4   4   4   4   4   4
#     4  10  20  35  62  93 114 142 193 248 289 336
#     4  10  19  34  56  81 112 149 183 225 288 348
#     4   9  17  31  53  79 108 146 183 219 275 340
#     4  11  23  40  60  82 117 160 197 233 287 351
#     4  10  19  33  54  79 106 137 183 233 275 327
#     4   9  21  41  60  80 112 155 193 234 287 343
#     4  10  20  36  57  82 116 150 189 239 282 337
#     4   9  16  32  56  80 107 143 183 225 279 332
#
# _framework density 19.753086
#
# number of rings (size 3 to 8) (size 9 to 14) (size 15 to 20)
#    0.000    2.250    1.250    1.875    0.000    4.500 
#    2.250    1.250    0.000    0.000    0.000    0.000 
#    0.000    0.000    0.000    0.000    0.000    0.000 
#
# Total GULP energy -178576.270706 kJ/mol
# GULP energy per Si atom -5580.508460 kJ/mol
# Density = 1.970813 g / cm^3
# Si number density = 19.753086 Si / 1000 Ang^3
#
#
#
# Elastic Constant Matrix: (Units=GPa)
#
#
# Indices 1 2 3 4 5 6 
#
# 1 33.7277 6.2075 16.4006 0.0000 0.0000 0.0000
# 2 6.2075 19.5259 -13.9542 0.0000 0.0000 0.0000
# 3 16.4006 -13.9542 76.7834 0.0000 0.0000 0.0000
# 4 0.0000 0.0000 0.0000 25.0260 0.0000 0.0000
# 5 0.0000 0.0000 0.0000 0.0000 27.3418 0.0000
# 6 0.0000 0.0000 0.0000 0.0000 0.0000 21.9627
#
#
#
# Elastic Compliance Matrix: (Units=1/GPa)
#
#
# Indices 1 2 3 4 5 6 
#
# 1 0.039595 -0.021413 -0.012349 0.000000 0.000000 0.000000
# 2 -0.021413 0.070438 0.017375 0.000000 0.000000 0.000000
# 3 -0.012349 0.017375 0.018819 0.000000 0.000000 0.000000
# 4 0.000000 0.000000 0.000000 0.039958 0.000000 0.000000
# 5 0.000000 0.000000 0.000000 0.000000 0.036574 0.000000
# 6 0.000000 0.000000 0.000000 0.000000 0.000000 0.045532
#
#
# Mechanical properties :
#
#
# Convention : Reuss Voigt Hill
#
# Bulk Modulus (GPa) = 10.40818 16.37167 13.38992
# Shear Modulus (GPa) = 15.83704 22.95829 19.39767
#
# Velocity S-wave (km/s) = 2.83459 3.41290 3.13710
# Velocity P-wave (km/s) = 3.99922 4.88228 4.46265
#
# Compressibility (1/GPa) = 0.09607826
#
# Stress axis : x y z
#
# Youngs Moduli (GPa) = 25.25576 14.19690 53.13822
#
# Poissons Ratio (x) = 0.30399 0.65619
# Poissons Ratio (y) = 0.54079 -0.92326
# Poissons Ratio (z) = 0.31188 -0.24667
#
# Static dielectric constant tensor:
#      x y z
#    x 1.661690 0.000000 0.000000 
#    y 0.000000 1.703530 0.000000 
#    z 0.000000 0.000000 1.718330 
# 
# From -- ./inp_files/4159.got.cif
#   From: 2010.05.17/outbox.ucp.g08.bks.cvg/sg26_3_cif.got.tgz:4159.got - 2010.06.11 15:23:25.
