data_PCOD9338183
_publ_section_title
;
Structure prediction by ZEFSAII (Michael W. Deem and Ramdas Pophale) SiO2 
 PCOD9338183
Probable space group: P M C 21
;
_chemical_formula_sum "Si O2"
_cell_formula_units_Z 32
_cell_length_a 7.661734
_cell_length_b 11.080565
_cell_length_c 14.355941
_cell_angle_alpha 90.000000
_cell_angle_beta 90.000000
_cell_angle_gamma 90.000000
_cell_volume 1218.766871
_symmetry_space_group_name_H-M "P M C 21"
_symmetry_group_IT_number 26
_symmetry_cell_setting 'orthorhombic'
loop_
_space_group_symop_operation_xyz
x,y,z
-x,-y,1/2+z
-x,y,z
x,-y,1/2+z
loop_
_atom_site_type_symbol
_atom_site_label
_atom_site_fract_x
_atom_site_fract_y
_atom_site_fract_z
Si Si1 0.201510 0.701502 0.197560
Si Si2 0.788008 0.159952 0.868267
Si Si3 0.209849 0.711004 0.551550
Si Si4 0.204731 0.073769 0.477929
Si Si5 0.293415 0.207114 0.311273
Si Si6 0.705907 0.467252 0.310896
Si Si7 0.302410 0.951391 0.659389
Si Si8 0.787260 0.446294 0.528762
O O1 0.277922 0.803869 0.266115
O O2 0.204849 0.580536 0.261931
O O3 0.000000 0.734360 0.180211
O O4 0.276528 0.658727 0.098507
O O5 0.000000 0.152071 0.862849
O O6 0.720408 0.041553 0.921284
O O7 0.749853 0.265567 0.942477
O O8 0.294166 0.821685 0.606157
O O9 0.261455 0.575340 0.574882
O O10 0.000000 0.724422 0.561956
O O11 0.273820 0.187141 0.421335
O O12 0.000000 0.076987 0.463748
O O13 0.230096 0.047915 0.586575
O O14 0.500000 0.208896 0.292495
O O15 0.221705 0.335932 0.279861
O O16 0.215548 0.091937 0.255836
O O17 0.500000 0.476478 0.289970
O O18 0.726030 0.457342 0.422748
O O19 0.500000 0.986748 0.675799
O O20 0.000000 0.439791 0.526073
#
# Coordination Sequence:
#
# PCOD9338183 Si02
#       8
#     4   4   4   4   4   4   4   4
#     4  10  19  35  59  84 115 152 190 233 287 347
#     4   8  15  31  53  77 108 138 173 233 286 322
#     4   9  16  30  52  79 112 145 188 239 277 327
#     4  10  21  38  61  86 113 147 192 247 292 336
#     4  10  23  42  59  81 118 160 194 235 289 344
#     4  11  23  38  57  84 122 157 192 239 284 342
#     4  10  20  36  60  86 114 151 194 238 289 346
#     4  10  20  34  55  83 116 156 193 232 288 344
#
# _framework density 26.256046999999999
#
# number of rings (size 3 to 8) (size 9 to 14) (size 15 to 20)
#    0.000    2.250    1.250    2.625    0.000    3.000 
#    2.250    0.625    0.000    0.000    0.000    0.000 
#    0.000    0.000    0.000    0.000    0.000    0.000 
#
# Total GULP energy -178895.011620 kJ/mol
# GULP energy per Si atom -5590.469113 kJ/mol
# Density = 2.619629 g / cm^3
# Si number density = 26.256047 Si / 1000 Ang^3
#
#
#
# Elastic Constant Matrix: (Units=GPa)
#
#
# Indices 1 2 3 4 5 6 
#
# 1 65.0016 6.1332 1.2102 0.0000 0.0000 0.0000
# 2 6.1332 79.6222 25.5422 0.0000 0.0000 0.0000
# 3 1.2102 25.5422 151.8205 0.0000 0.0000 0.0000
# 4 0.0000 0.0000 0.0000 59.6864 0.0000 0.0000
# 5 0.0000 0.0000 0.0000 0.0000 29.2543 0.0000
# 6 0.0000 0.0000 0.0000 0.0000 0.0000 13.7498
#
#
#
# Elastic Compliance Matrix: (Units=1/GPa)
#
#
# Indices 1 2 3 4 5 6 
#
# 1 0.015498 -0.001220 0.000082 0.000000 0.000000 0.000000
# 2 -0.001220 0.013372 -0.002240 0.000000 0.000000 0.000000
# 3 0.000082 -0.002240 0.006963 0.000000 0.000000 0.000000
# 4 0.000000 0.000000 0.000000 0.016754 0.000000 0.000000
# 5 0.000000 0.000000 0.000000 0.000000 0.034183 0.000000
# 6 0.000000 0.000000 0.000000 0.000000 0.000000 0.072728
#
#
# Mechanical properties :
#
#
# Convention : Reuss Voigt Hill
#
# Bulk Modulus (GPa) = 34.39244 40.24614 37.31929
# Shear Modulus (GPa) = 28.41771 38.10868 33.26319
#
# Velocity S-wave (km/s) = 3.29345 3.81389 3.56318
# Velocity P-wave (km/s) = 5.25259 5.89542 5.58326
#
# Compressibility (1/GPa) = 0.02907616
#
# Stress axis : x y z
#
# Youngs Moduli (GPa) = 64.52519 74.78404 143.61785
#
# Poissons Ratio (x) = 0.09124 -0.01174
# Poissons Ratio (y) = 0.07872 0.32170
# Poissons Ratio (z) = -0.00527 0.16751
#
# Static dielectric constant tensor:
#      x y z
#    x 1.888670 0.000000 0.000000 
#    y 0.000000 2.105060 0.000000 
#    z 0.000000 0.000000 2.130360 
# 
# From -- ./inp_files/4279.got.cif
#   From: 2010.05.17/outbox.cif.g08.bks.cpg/sg26_3_cif.got.tgz:4279.got - 2010.06.04 01:07:29.
