data_PCOD9338148
_publ_section_title
;
Structure prediction by ZEFSAII (Michael W. Deem and Ramdas Pophale) SiO2 
 PCOD9338148
Probable space group: P M C 21
;
_chemical_formula_sum "Si O2"
_cell_formula_units_Z 32
_cell_length_a 7.690527
_cell_length_b 11.938269
_cell_length_c 16.415808
_cell_angle_alpha 90.000000
_cell_angle_beta 90.000000
_cell_angle_gamma 90.000000
_cell_volume 1507.161271
_symmetry_space_group_name_H-M "P M C 21"
_symmetry_group_IT_number 26
_symmetry_cell_setting 'orthorhombic'
loop_
_space_group_symop_operation_xyz
x,y,z
-x,-y,1/2+z
-x,y,z
x,-y,1/2+z
loop_
_atom_site_type_symbol
_atom_site_label
_atom_site_fract_x
_atom_site_fract_y
_atom_site_fract_z
Si Si1 0.711093 0.929411 0.985550
Si Si2 0.794649 0.233781 0.339033
Si Si3 0.298583 0.177980 0.019073
Si Si4 0.709378 0.432094 0.726947
Si Si5 0.702846 0.324550 0.168203
Si Si6 0.789725 0.592292 0.976010
Si Si7 0.793385 0.633668 0.408757
Si Si8 0.695400 0.247316 0.613965
O O1 0.500000 0.926064 0.987727
O O2 0.757877 0.870767 0.899462
O O3 0.775563 0.853784 0.061860
O O4 0.774722 0.055406 0.999602
O O5 0.712719 0.249134 0.250323
O O6 0.744644 0.341853 0.393296
O O7 0.000000 0.237243 0.325741
O O8 0.500000 0.158569 0.041603
O O9 0.220739 0.253150 0.092649
O O10 0.290171 0.251840 0.937518
O O11 0.500000 0.431158 0.715711
O O12 0.775740 0.550968 0.690563
O O13 0.746054 0.416506 0.821717
O O14 0.780929 0.317131 0.686565
O O15 0.500000 0.343516 0.149049
O O16 0.741991 0.463468 0.971823
O O17 0.000000 0.602537 0.986664
O O18 0.691530 0.655142 0.046607
O O19 0.000000 0.647277 0.411930
O O20 0.500000 0.212545 0.638548
#
# Coordination Sequence:
#
# PCOD9338148 Si02
#       8
#     4   4   4   4   4   4   4   4
#     4   9  19  38  60  81 109 146 191 235 278 330
#     4  10  19  34  57  83 114 148 186 230 275 333
#     4  10  22  40  59  82 113 151 193 238 284 332
#     4  10  20  34  54  83 116 146 183 231 282 338
#     4  10  20  35  57  85 115 148 190 236 284 338
#     4   9  18  32  51  78 109 143 178 219 275 331
#     4  11  22  36  54  79 115 151 185 226 279 342
#     4   9  18  33  56  83 107 139 182 229 275 324
#
# _framework density 21.231968999999999
#
# number of rings (size 3 to 8) (size 9 to 14) (size 15 to 20)
#    0.000    2.250    1.250    1.500    0.000    4.000 
#    2.250    0.000    0.000    0.000    0.000    0.000 
#    0.000    0.000    0.000    0.000    0.000    0.000 
#
# Total GULP energy -178392.501999 kJ/mol
# GULP energy per Si atom -5574.765687 kJ/mol
# Density = 2.118364 g / cm^3
# Si number density = 21.231969 Si / 1000 Ang^3
#
#
#
# Elastic Constant Matrix: (Units=GPa)
#
#
# Indices 1 2 3 4 5 6 
#
# 1 33.9781 -2.0069 -6.5840 0.0000 0.0000 0.0000
# 2 -2.0069 150.1379 36.3402 0.0000 0.0000 0.0000
# 3 -6.5840 36.3402 60.1418 0.0000 0.0000 0.0000
# 4 0.0000 0.0000 0.0000 26.6533 0.0000 0.0000
# 5 0.0000 0.0000 0.0000 0.0000 43.0120 0.0000
# 6 0.0000 0.0000 0.0000 0.0000 0.0000 1.1744
#
#
#
# Elastic Compliance Matrix: (Units=1/GPa)
#
#
# Indices 1 2 3 4 5 6 
#
# 1 0.030096 -0.000463 0.003574 0.000000 0.000000 0.000000
# 2 -0.000463 0.007809 -0.004769 0.000000 0.000000 0.000000
# 3 0.003574 -0.004769 0.019900 0.000000 0.000000 0.000000
# 4 0.000000 0.000000 0.000000 0.037519 0.000000 0.000000
# 5 0.000000 0.000000 0.000000 0.000000 0.023249 0.000000
# 6 0.000000 0.000000 0.000000 0.000000 0.000000 0.851530
#
#
# Mechanical properties :
#
#
# Convention : Reuss Voigt Hill
#
# Bulk Modulus (GPa) = 18.35199 33.30629 25.82914
# Shear Modulus (GPa) = 5.04245 28.60183 16.82214
#
# Velocity S-wave (km/s) = 1.54275 3.67428 2.81784
# Velocity P-wave (km/s) = 3.44032 5.80701 4.77269
#
# Compressibility (1/GPa) = 0.05449000
#
# Stress axis : x y z
#
# Youngs Moduli (GPa) = 33.22705 128.06278 50.25052
#
# Poissons Ratio (x) = 0.05928 -0.17962
# Poissons Ratio (y) = 0.01538 0.23964
# Poissons Ratio (z) = -0.11877 0.61073
#
# Static dielectric constant tensor:
#      x y z
#    x 1.772480 0.000000 0.000000 
#    y 0.000000 1.781440 0.000000 
#    z 0.000000 0.000000 1.849340 
# 
# From -- ./inp_files/4151.got.cif
#   From: 2010.05.17/outbox.cif.g08.bks.cpg/sg26_3_cif.got.tgz:4151.got - 2010.06.04 01:07:29.
