data_PCOD9338536
_publ_section_title
;
Structure prediction by ZEFSAII (Michael W. Deem and Ramdas Pophale) SiO2 
 PCOD9338536
Probable space group: P M C 21
;
_chemical_formula_sum "Si O2"
_cell_formula_units_Z 20
_cell_length_a 7.967837
_cell_length_b 13.218878
_cell_length_c 7.842922
_cell_angle_alpha 90.000000
_cell_angle_beta 90.000000
_cell_angle_gamma 90.000000
_cell_volume 826.062546
_symmetry_space_group_name_H-M "P M C 21"
_symmetry_group_IT_number 26
_symmetry_cell_setting 'orthorhombic'
loop_
_space_group_symop_operation_xyz
x,y,z
-x,-y,1/2+z
-x,y,z
x,-y,1/2+z
loop_
_atom_site_type_symbol
_atom_site_label
_atom_site_fract_x
_atom_site_fract_y
_atom_site_fract_z
Si Si1 0.184556 0.349788 0.790980
Si Si2 0.813404 0.231144 0.151531
Si Si3 0.301569 0.961328 0.460034
Si Si4 0.500000 0.460907 0.649496
Si Si5 0.500000 0.335509 0.299533
Si Si6 0.302069 0.158381 0.606190
O O1 0.333820 0.425414 0.749269
O O2 0.203105 0.258712 0.654056
O O3 0.000000 0.396611 0.778676
O O4 0.201257 0.297936 0.976681
O O5 0.787695 0.117089 0.085312
O O6 0.665379 0.267851 0.274598
O O7 0.000000 0.246285 0.221032
O O8 0.500000 0.963310 0.506117
O O9 0.289899 0.911590 0.275516
O O10 0.242336 0.077203 0.467457
O O11 0.500000 0.402958 0.469478
O O12 0.500000 0.581506 0.647727
O O13 0.500000 0.184574 0.585723
#
# Coordination Sequence:
#
# PCOD9338536 Si02
#       6
#     4   4   4   2   2   4
#     4  10  21  40  65  91 122 160 202 248 299 355
#     4  10  21  40  65  91 122 160 202 248 299 355
#     4   9  17  31  53  83 121 161 201 242 289 346
#     4  12  26  44  67  90 119 154 195 248 306 364
#     4  12  26  44  67  90 119 154 195 248 306 364
#     4   9  17  31  53  83 121 161 201 242 289 346
#
# _framework density 24.211241000000001
#
# number of rings (size 3 to 8) (size 9 to 14) (size 15 to 20)
#    0.000    2.000    2.000    1.800    0.000    4.000 
#    0.000    0.000    0.000    0.000    0.000    0.000 
#    0.000    0.000    0.000    0.000    0.000    0.000 
#
# Total GULP energy -111982.228644 kJ/mol
# GULP energy per Si atom -5599.111432 kJ/mol
# Density = 2.415614 g / cm^3
# Si number density = 24.211241 Si / 1000 Ang^3
#
#
#
# Elastic Constant Matrix: (Units=GPa)
#
#
# Indices 1 2 3 4 5 6 
#
# 1 146.3351 39.2886 29.8272 0.0000 0.0000 0.0000
# 2 39.2886 95.2450 -2.2890 0.0000 0.0000 0.0000
# 3 29.8272 -2.2890 85.2689 0.0000 0.0000 0.0000
# 4 0.0000 0.0000 0.0000 39.5652 0.0000 0.0000
# 5 0.0000 0.0000 0.0000 0.0000 16.8832 0.0000
# 6 0.0000 0.0000 0.0000 0.0000 0.0000 7.5893
#
#
#
# Elastic Compliance Matrix: (Units=1/GPa)
#
#
# Indices 1 2 3 4 5 6 
#
# 1 0.008402 -0.003539 -0.003034 0.000000 0.000000 0.000000
# 2 -0.003539 0.011996 0.001560 0.000000 0.000000 0.000000
# 3 -0.003034 0.001560 0.012831 0.000000 0.000000 0.000000
# 4 0.000000 0.000000 0.000000 0.025275 0.000000 0.000000
# 5 0.000000 0.000000 0.000000 0.000000 0.059231 0.000000
# 6 0.000000 0.000000 0.000000 0.000000 0.000000 0.131765
#
#
# Mechanical properties :
#
#
# Convention : Reuss Voigt Hill
#
# Bulk Modulus (GPa) = 43.09696 51.16697 47.13196
# Shear Modulus (GPa) = 18.70837 30.14236 24.42536
#
# Velocity S-wave (km/s) = 2.78279 3.53225 3.17968
# Velocity P-wave (km/s) = 5.30700 6.14940 5.74367
#
# Compressibility (1/GPa) = 0.02320349
#
# Stress axis : x y z
#
# Youngs Moduli (GPa) = 119.01682 83.35774 77.93743
#
# Poissons Ratio (x) = 0.29499 0.23647
# Poissons Ratio (y) = 0.42118 -0.12158
# Poissons Ratio (z) = 0.36111 -0.13003
#
# Static dielectric constant tensor:
#      x y z
#    x 1.875630 0.000000 0.000000 
#    y 0.000000 1.902730 0.000000 
#    z 0.000000 0.000000 2.017740 
# 
# From -- ./inp_files/1373.got.cif
#   From: 2010.05.17/outbox.cif.g08.bks.cpg/sg26_1_cif.got.tgz:1373.got - 2010.06.04 01:07:29.
