data_PCOD9338195
_publ_section_title
;
Structure prediction by ZEFSAII (Michael W. Deem and Ramdas Pophale) SiO2 
 PCOD9338195
Probable space group: P M C 21
;
_chemical_formula_sum "Si O2"
_cell_formula_units_Z 32
_cell_length_a 8.249432
_cell_length_b 14.821481
_cell_length_c 12.688286
_cell_angle_alpha 90.000000
_cell_angle_beta 90.000000
_cell_angle_gamma 90.000000
_cell_volume 1551.381499
_symmetry_space_group_name_H-M "P M C 21"
_symmetry_group_IT_number 26
_symmetry_cell_setting 'orthorhombic'
loop_
_space_group_symop_operation_xyz
x,y,z
-x,-y,1/2+z
-x,y,z
x,-y,1/2+z
loop_
_atom_site_type_symbol
_atom_site_label
_atom_site_fract_x
_atom_site_fract_y
_atom_site_fract_z
Si Si1 0.809569 0.140210 0.919190
Si Si2 0.693023 0.831217 0.647428
Si Si3 0.190967 0.560492 0.116291
Si Si4 0.308925 0.043639 0.340917
Si Si5 0.309521 0.368682 0.185319
Si Si6 0.316899 0.335115 0.430378
Si Si7 0.197423 0.739514 0.235176
Si Si8 0.814026 0.161965 0.526286
O O1 0.747628 0.223899 0.848205
O O2 0.000000 0.152090 0.938807
O O3 0.781352 0.051090 0.849757
O O4 0.725829 0.129636 0.032154
O O5 0.500000 0.823451 0.665120
O O6 0.752228 0.892742 0.744936
O O7 0.756708 0.728303 0.647693
O O8 0.222122 0.458496 0.148328
O O9 0.243088 0.637962 0.200775
O O10 0.000000 0.574158 0.098247
O O11 0.286428 0.584097 0.010368
O O12 0.500000 0.027637 0.325295
O O13 0.281910 0.093026 0.453080
O O14 0.500000 0.375686 0.155894
O O15 0.298662 0.364303 0.311313
O O16 0.500000 0.298830 0.443683
O O17 0.195434 0.256102 0.462624
O O18 0.000000 0.742664 0.235545
O O19 0.249080 0.808322 0.141535
O O20 0.000000 0.130970 0.535764
#
# Coordination Sequence:
#
# PCOD9338195 Si02
#       8
#     4   4   4   4   4   4   4   4
#     4  11  24  41  62  90 124 163 205 253 311 369
#     4  10  23  44  63  87 125 162 204 252 306 371
#     4  10  21  37  59  89 122 160 206 257 310 367
#     4  11  23  41  62  88 120 159 203 252 306 369
#     4  10  21  39  61  86 119 160 205 254 304 366
#     4  10  19  36  58  84 117 157 202 250 306 364
#     4   8  19  39  58  83 122 157 194 247 304 361
#     4  10  19  35  61  89 115 150 199 255 307 359
#
# _framework density 20.626778000000002
#
# number of rings (size 3 to 8) (size 9 to 14) (size 15 to 20)
#    0.000    2.000    1.250    2.625    1.750    3.500 
#    0.000    9.375    0.000    0.000    0.000    0.000 
#    0.000    0.000    0.000    0.000    0.000    0.000 
#
# Total GULP energy -178597.687939 kJ/mol
# GULP energy per Si atom -5581.177748 kJ/mol
# Density = 2.057983 g / cm^3
# Si number density = 20.626778 Si / 1000 Ang^3
#
#
#
# Elastic Constant Matrix: (Units=GPa)
#
#
# Indices 1 2 3 4 5 6 
#
# 1 16.4155 -1.5789 2.4067 0.0000 0.0000 0.0000
# 2 -1.5789 92.3018 33.2266 0.0000 0.0000 0.0000
# 3 2.4067 33.2266 59.6693 0.0000 0.0000 0.0000
# 4 0.0000 0.0000 0.0000 6.3928 0.0000 0.0000
# 5 0.0000 0.0000 0.0000 0.0000 28.7363 0.0000
# 6 0.0000 0.0000 0.0000 0.0000 0.0000 25.0318
#
#
#
# Elastic Compliance Matrix: (Units=1/GPa)
#
#
# Indices 1 2 3 4 5 6 
#
# 1 0.061717 0.002441 -0.003849 0.000000 0.000000 0.000000
# 2 0.002441 0.013647 -0.007698 0.000000 0.000000 0.000000
# 3 -0.003849 -0.007698 0.021201 0.000000 0.000000 0.000000
# 4 0.000000 0.000000 0.000000 0.156427 0.000000 0.000000
# 5 0.000000 0.000000 0.000000 0.000000 0.034799 0.000000
# 6 0.000000 0.000000 0.000000 0.000000 0.000000 0.039949
#
#
# Mechanical properties :
#
#
# Convention : Reuss Voigt Hill
#
# Bulk Modulus (GPa) = 12.76254 26.27729 19.51992
# Shear Modulus (GPa) = 13.43841 20.98765 17.21303
#
# Velocity S-wave (km/s) = 2.55522 3.19328 2.89190
# Velocity P-wave (km/s) = 3.86088 5.13450 4.54255
#
# Compressibility (1/GPa) = 0.07835429
#
# Stress axis : x y z
#
# Youngs Moduli (GPa) = 16.20295 73.27755 47.16838
#
# Poissons Ratio (x) = -0.17888 0.18154
# Poissons Ratio (y) = -0.03955 0.36308
# Poissons Ratio (z) = 0.06236 0.56406
#
# Static dielectric constant tensor:
#      x y z
#    x 1.724760 0.000000 0.000000 
#    y 0.000000 1.752060 0.000000 
#    z 0.000000 0.000000 1.738460 
# 
# From -- ./inp_files/2981.got.cif
#   From: 2010.05.17/outbox.cif.g08.bks.cpg/sg26_2_cif.got.tgz:2981.got - 2010.06.04 01:07:29.
