data_PCOD9338003
_publ_section_title
;
Structure prediction by ZEFSAII (Michael W. Deem and Ramdas Pophale) SiO2 
 PCOD9338003
Probable space group: P M C 21
;
_chemical_formula_sum "Si O2"
_cell_formula_units_Z 24
_cell_length_a 7.920154
_cell_length_b 10.270306
_cell_length_c 14.649253
_cell_angle_alpha 90.000000
_cell_angle_beta 90.000000
_cell_angle_gamma 90.000000
_cell_volume 1191.605473
_symmetry_space_group_name_H-M "P M C 21"
_symmetry_group_IT_number 26
_symmetry_cell_setting 'orthorhombic'
loop_
_space_group_symop_operation_xyz
x,y,z
-x,-y,1/2+z
-x,y,z
x,-y,1/2+z
loop_
_atom_site_type_symbol
_atom_site_label
_atom_site_fract_x
_atom_site_fract_y
_atom_site_fract_z
Si Si1 0.796159 0.124830 0.895230
Si Si2 0.198074 0.641345 0.904285
Si Si3 0.206552 0.981767 0.590730
Si Si4 0.204220 0.284898 0.603991
Si Si5 0.794743 0.871748 0.777395
Si Si6 0.693430 0.389222 0.800877
O O1 0.720099 0.256816 0.857238
O O2 0.000000 0.140484 0.895854
O O3 0.756431 0.006005 0.828302
O O4 0.740355 0.079657 0.995153
O O5 0.271046 0.752247 0.837382
O O6 0.211157 0.504435 0.853179
O O7 0.000000 0.673432 0.914328
O O8 0.263919 0.650790 0.008356
O O9 0.263750 0.891520 0.674170
O O10 0.000000 0.984790 0.590347
O O11 0.258850 0.132642 0.603230
O O12 0.257824 0.358017 0.696239
O O13 0.000000 0.284972 0.606300
O O14 0.000000 0.860121 0.773534
O O15 0.500000 0.428672 0.802334
#
# Coordination Sequence:
#
# PCOD9338003 Si02
#       6
#     4   4   4   4   4   4
#     4  10  18  34  61  89 115 146 193 248 293 343
#     4  10  21  38  62  90 116 152 200 250 298 348
#     4   9  16  29  59  96 118 139 181 245 302 340
#     4  10  19  37  65  89 112 148 199 254 304 348
#     4   9  16  30  58  91 117 139 183 248 302 341
#     4  12  26  40  55  83 126 168 196 231 291 362
#
# _framework density 20.140896000000001
#
# number of rings (size 3 to 8) (size 9 to 14) (size 15 to 20)
#    0.000    2.000    3.333    1.500    0.000    2.000 
#    0.000    5.000    0.000    0.000    0.000    0.000 
#    0.000    0.000    0.000    0.000    0.000    0.000 
#
# Total GULP energy -133939.370889 kJ/mol
# GULP energy per Si atom -5580.807120 kJ/mol
# Density = 2.009505 g / cm^3
# Si number density = 20.140896 Si / 1000 Ang^3
#
#
#
# Elastic Constant Matrix: (Units=GPa)
#
#
# Indices 1 2 3 4 5 6 
#
# 1 15.9557 -16.1152 -5.6306 0.0000 0.0000 0.0000
# 2 -16.1152 56.0916 21.4642 0.0000 0.0000 0.0000
# 3 -5.6306 21.4642 148.4292 0.0000 0.0000 0.0000
# 4 0.0000 0.0000 0.0000 29.7149 0.0000 0.0000
# 5 0.0000 0.0000 0.0000 0.0000 -20.6783 0.0000
# 6 0.0000 0.0000 0.0000 0.0000 0.0000 -77.9016
#
#
#
# Elastic Compliance Matrix: (Units=1/GPa)
#
#
# Indices 1 2 3 4 5 6 
#
# 1 0.088310 0.025501 -0.000338 0.000000 0.000000 0.000000
# 2 0.025501 0.026236 -0.002827 0.000000 0.000000 0.000000
# 3 -0.000338 -0.002827 0.007133 0.000000 0.000000 0.000000
# 4 0.000000 0.000000 0.000000 0.033653 0.000000 0.000000
# 5 0.000000 0.000000 0.000000 0.000000 -0.048360 0.000000
# 6 0.000000 0.000000 0.000000 0.000000 0.000000 -0.012837
#
#
# Mechanical properties :
#
#
# Convention : Reuss Voigt Hill
#
# Bulk Modulus (GPa) = 6.01136 24.43482 15.22309
# Shear Modulus (GPa) = 47.65847 0.94420 24.30134
#
# Velocity S-wave (km/s) = 4.86969 0.68543 3.47734
# Velocity P-wave (km/s) = 5.88300 3.57557 4.86798
#
# Compressibility (1/GPa) = 0.16635173
#
# Stress axis : x y z
#
# Youngs Moduli (GPa) = 11.32378 38.11564 140.19026
#
# Poissons Ratio (x) = -0.97197 0.04733
# Poissons Ratio (y) = -0.28876 0.39626
# Poissons Ratio (z) = 0.00382 0.10774
#
# Static dielectric constant tensor:
#      x y z
#    x 1.752360 0.000000 0.000000 
#    y 0.000000 1.667550 0.000000 
#    z 0.000000 0.000000 1.723990 
# 
# From -- ./inp_files/3926.got.cif
#   From: 2010.05.17/outbox.cif.g08.bks.cpg/sg26_2_cif.got.tgz:3926.got - 2010.06.04 01:07:29.
