data_PCOD9338836
_publ_section_title
;
Structure prediction by ZEFSAII (Michael W. Deem and Ramdas Pophale) SiO2 
 PCOD9338836
Probable space group: P C C 2
;
_chemical_formula_sum "Si O2"
_cell_formula_units_Z 16
_cell_length_a 8.008209
_cell_length_b 5.052120
_cell_length_c 19.766999
_cell_angle_alpha 90.000000
_cell_angle_beta 90.000000
_cell_angle_gamma 90.000000
_cell_volume 799.741802
_symmetry_space_group_name_H-M "P C C 2"
_symmetry_group_IT_number 27
_symmetry_cell_setting 'orthorhombic'
loop_
_space_group_symop_operation_xyz
x,y,z
-x,-y,z
-x,y,1/2+z
x,-y,1/2+z
loop_
_atom_site_type_symbol
_atom_site_label
_atom_site_fract_x
_atom_site_fract_y
_atom_site_fract_z
Si Si1 0.315640 0.882725 0.119870
Si Si2 0.810850 0.613221 0.194109
Si Si3 0.122420 0.750815 0.986880
Si Si4 0.122121 0.749707 0.838178
O O1 0.300829 0.631894 0.169708
O O2 0.500000 0.000000 0.115523
O O3 0.205655 0.129540 0.146839
O O4 0.250104 0.777586 0.048052
O O5 0.771963 0.708038 0.270513
O O6 0.000000 0.500000 0.192005
O O7 0.205299 0.758162 0.912110
O O8 0.000000 0.500000 0.994823
O O9 0.000000 0.000000 0.988883
O O10 0.000000 0.500000 0.842332
O O11 0.000000 0.000000 0.828716
#
# Coordination Sequence:
#
# PCOD9338836 Si02
#       4
#     4   4   4   4
#     4  12  24  37  56  88 123 153 186 234 287 340
#     4  11  21  38  62  85 111 152 197 236 281 339
#     4  10  20  36  59  84 111 148 194 238 283 337
#     4   9  18  33  57  87 111 139 191 248 283 324
#
# _framework density 20.006457000000001
#
# number of rings (size 3 to 8) (size 9 to 14) (size 15 to 20)
#    0.000    1.500    0.000    8.250    0.000    0.000 
#    0.000    1.250    0.000   12.000    0.000    0.000 
#    0.000    0.000    0.000    0.000    0.000    0.000 
#
# Total GULP energy -89350.793610 kJ/mol
# GULP energy per Si atom -5584.424601 kJ/mol
# Density = 1.996092 g / cm^3
# Si number density = 20.006457 Si / 1000 Ang^3
#
#
#
# Elastic Constant Matrix: (Units=GPa)
#
#
# Indices 1 2 3 4 5 6 
#
# 1 60.9187 27.1154 59.5254 0.0000 0.0000 0.0000
# 2 27.1154 162.6251 60.6651 0.0000 0.0000 0.0000
# 3 59.5254 60.6651 202.4693 0.0000 0.0000 0.0000
# 4 0.0000 0.0000 0.0000 34.2987 0.0000 0.0000
# 5 0.0000 0.0000 0.0000 0.0000 -6.2761 0.0000
# 6 0.0000 0.0000 0.0000 0.0000 0.0000 30.0523
#
#
#
# Elastic Compliance Matrix: (Units=1/GPa)
#
#
# Indices 1 2 3 4 5 6 
#
# 1 0.023352 -0.001500 -0.006416 0.000000 0.000000 0.000000
# 2 -0.001500 0.007019 -0.001662 0.000000 0.000000 0.000000
# 3 -0.006416 -0.001662 0.007323 0.000000 0.000000 0.000000
# 4 0.000000 0.000000 0.000000 0.029156 0.000000 0.000000
# 5 0.000000 0.000000 0.000000 0.000000 -0.159335 0.000000
# 6 0.000000 0.000000 0.000000 0.000000 0.000000 0.033275
#
#
# Mechanical properties :
#
#
# Convention : Reuss Voigt Hill
#
# Bulk Modulus (GPa) = 53.94252 80.06942 67.00597
# Shear Modulus (GPa) = -147.60873 30.19546 -58.70663
#
# Velocity S-wave (km/s) = -8.59888 3.88917 -5.42287
# Velocity P-wave (km/s) = 8.45970 7.76377 2.37596
#
# Compressibility (1/GPa) = 0.01853825
#
# Stress axis : x y z
#
# Youngs Moduli (GPa) = 42.82220 142.46481 136.55024
#
# Poissons Ratio (x) = 0.21373 0.87611
# Poissons Ratio (y) = 0.06424 0.22696
# Poissons Ratio (z) = 0.27475 0.23679
#
# Static dielectric constant tensor:
#      x y z
#    x 1.676570 0.000000 0.000000 
#    y 0.000000 1.681140 0.000000 
#    z 0.000000 0.000000 1.800140 
# 
# From -- ./inp_files/3852.got.cif
#   From: 2010.05.17/outbox.cif.g08.bks.cpg/sg27_2_cif.got.tgz:3852.got - 2010.06.04 01:11:05.
