data_PCOD9338132
_publ_section_title
;
Structure prediction by ZEFSAII (Michael W. Deem and Ramdas Pophale) SiO2 
 PCOD9338132
Probable space group: P M C 21
;
_chemical_formula_sum "Si O2"
_cell_formula_units_Z 24
_cell_length_a 7.557711
_cell_length_b 15.072105
_cell_length_c 8.623670
_cell_angle_alpha 90.000000
_cell_angle_beta 90.000000
_cell_angle_gamma 90.000000
_cell_volume 982.327542
_symmetry_space_group_name_H-M "P M C 21"
_symmetry_group_IT_number 26
_symmetry_cell_setting 'orthorhombic'
loop_
_space_group_symop_operation_xyz
x,y,z
-x,-y,1/2+z
-x,y,z
x,-y,1/2+z
loop_
_atom_site_type_symbol
_atom_site_label
_atom_site_fract_x
_atom_site_fract_y
_atom_site_fract_z
Si Si1 0.708440 0.465453 0.742960
Si Si2 0.284852 0.877041 0.230216
Si Si3 0.283075 0.296534 0.564443
Si Si4 0.200319 0.629867 0.562711
Si Si5 0.717055 0.047626 0.058396
Si Si6 0.701991 0.790906 0.751461
O O1 0.500000 0.479096 0.719077
O O2 0.776794 0.392596 0.620060
O O3 0.791216 0.559990 0.704702
O O4 0.732116 0.422776 0.912158
O O5 0.500000 0.876132 0.232943
O O6 0.231153 0.777691 0.189935
O O7 0.224173 0.915517 0.393532
O O8 0.231220 0.947798 0.099159
O O9 0.500000 0.302234 0.560009
O O10 0.219713 0.258774 0.400049
O O11 0.299123 0.719071 0.612783
O O12 0.000000 0.655933 0.532742
O O13 0.500000 0.049533 0.057844
O O14 0.778253 0.117332 0.189082
O O15 0.500000 0.812135 0.796768
#
# Coordination Sequence:
#
# PCOD9338132 Si02
#       6
#     4   4   4   4   4   4
#     4  11  22  39  61  84 111 149 191 234 282 342
#     4   9  15  25  41  72 112 145 178 228 286 335
#     4   9  18  31  52  80 110 141 182 232 283 335
#     4  12  25  40  58  84 115 148 185 234 288 340
#     4   9  16  25  44  73 110 148 184 228 281 335
#     4  10  19  34  55  81 110 147 190 232 278 337
#
# _framework density 24.431771999999999
#
# number of rings (size 3 to 8) (size 9 to 14) (size 15 to 20)
#    0.000    2.000    0.000    5.000    0.000    8.000 
#    0.000    0.833    0.000    0.000    0.000   11.667 
#    0.000    0.000    0.000    0.000    0.000    0.000 
#
# Total GULP energy -134250.069952 kJ/mol
# GULP energy per Si atom -5593.752915 kJ/mol
# Density = 2.437616 g / cm^3
# Si number density = 24.431772 Si / 1000 Ang^3
#
#
#
# Elastic Constant Matrix: (Units=GPa)
#
#
# Indices 1 2 3 4 5 6 
#
# 1 66.3852 -5.7333 -6.4291 0.0000 0.0000 0.0000
# 2 -5.7333 86.6712 -18.9677 0.0000 0.0000 0.0000
# 3 -6.4291 -18.9677 58.5507 0.0000 0.0000 0.0000
# 4 0.0000 0.0000 0.0000 41.3500 0.0000 0.0000
# 5 0.0000 0.0000 0.0000 0.0000 -4.8165 0.0000
# 6 0.0000 0.0000 0.0000 0.0000 0.0000 -94.7273
#
#
#
# Elastic Compliance Matrix: (Units=1/GPa)
#
#
# Indices 1 2 3 4 5 6 
#
# 1 0.015403 0.001495 0.002176 0.000000 0.000000 0.000000
# 2 0.001495 0.012563 0.004234 0.000000 0.000000 0.000000
# 3 0.002176 0.004234 0.018690 0.000000 0.000000 0.000000
# 4 0.000000 0.000000 0.000000 0.024184 0.000000 0.000000
# 5 0.000000 0.000000 0.000000 0.000000 -0.207618 0.000000
# 6 0.000000 0.000000 0.000000 0.000000 0.000000 -0.010557
#
#
# Mechanical properties :
#
#
# Convention : Reuss Voigt Hill
#
# Bulk Modulus (GPa) = 16.00860 16.59408 16.30134
# Shear Modulus (GPa) = -35.13172 4.54372 -15.29400
#
# Velocity S-wave (km/s) = -3.79615 1.36521 -2.50469
# Velocity P-wave (km/s) = 3.55636 3.04825 1.29536
#
# Compressibility (1/GPa) = 0.06246643
#
# Stress axis : x y z
#
# Youngs Moduli (GPa) = 64.92059 79.59637 53.50522
#
# Poissons Ratio (x) = -0.11900 -0.11641
# Poissons Ratio (y) = -0.09706 -0.22655
# Poissons Ratio (z) = -0.14125 -0.33702
#
# Static dielectric constant tensor:
#      x y z
#    x 1.958070 0.000000 0.000000 
#    y 0.000000 1.877350 0.000000 
#    z 0.000000 0.000000 1.963680 
# 
# From -- ./inp_files/1428.got.cif
#   From: 2010.05.17/outbox.cif.g08.bks.cpg/sg26_1_cif.got.tgz:1428.got - 2010.06.04 01:07:29.
