data_PCOD9338744
_publ_section_title
;
Structure prediction by ZEFSAII (Michael W. Deem and Ramdas Pophale) SiO2 
 PCOD9338744
Probable space group: P C C 2
;
_chemical_formula_sum "Si O2"
_cell_formula_units_Z 30
_cell_length_a 8.938826
_cell_length_b 19.145953
_cell_length_c 9.609147
_cell_angle_alpha 90.000000
_cell_angle_beta 90.000000
_cell_angle_gamma 90.000000
_cell_volume 1644.531927
_symmetry_space_group_name_H-M "P C C 2"
_symmetry_group_IT_number 27
_symmetry_cell_setting 'orthorhombic'
loop_
_space_group_symop_operation_xyz
x,y,z
-x,-y,z
-x,y,1/2+z
x,-y,1/2+z
loop_
_atom_site_type_symbol
_atom_site_label
_atom_site_fract_x
_atom_site_fract_y
_atom_site_fract_z
Si Si1 0.500000 0.500000 0.679790
Si Si2 0.176375 0.144255 0.448284
Si Si3 0.172582 0.159049 0.971199
Si Si4 0.338410 0.093569 0.710013
Si Si5 0.352172 0.266112 0.334160
Si Si6 0.627505 0.717100 0.005932
Si Si7 0.685351 0.068718 0.715048
Si Si8 0.426383 0.404519 0.434442
O O1 0.405823 0.452832 0.569823
O O2 0.575683 0.447861 0.791314
O O3 0.285631 0.139074 0.579671
O O4 0.223345 0.210974 0.357015
O O5 0.214915 0.078541 0.351745
O O6 0.003971 0.149336 0.485726
O O7 0.221960 0.240682 0.971779
O O8 0.252084 0.119034 0.097166
O O9 0.237885 0.121051 0.835599
O O10 0.515120 0.093716 0.743338
O O11 0.310315 0.012159 0.674520
O O12 0.390451 0.278805 0.172687
O O13 0.500259 0.242046 0.417963
O O14 0.585775 0.362414 0.458051
O O15 0.683669 0.660456 0.410459
#
# Coordination Sequence:
#
# PCOD9338744 Si02
#       8
#     2   4   4   4   4   4   4   4
#     4  10  16  30  52  94 130 134 194 242 286 326
#     4  12  25  38  59  87 117 154 195 255 306 348
#     4  12  25  38  59  87 117 154 195 255 306 348
#     4  11  25  40  63  81 110 157 201 251 305 368
#     4  10  20  37  58  86 118 155 198 232 294 347
#     4  10  20  37  58  86 118 155 198 232 294 347
#     4  11  23  44  59  83 110 153 207 247 307 370
#     4   9  18  30  56  90 119 156 182 242 285 332
#
# _framework density 18.242273000000001
#
# number of rings (size 3 to 8) (size 9 to 14) (size 15 to 20)
#    0.800    0.533    2.667    4.000    1.867    5.333 
#    0.000    0.000    0.000    0.000    0.000    5.600 
#    0.000    0.000    0.000    0.000    0.000    0.000 
#
# Total GULP energy -167036.067149 kJ/mol
# GULP energy per Si atom -5567.868905 kJ/mol
# Density = 1.820075 g / cm^3
# Si number density = 18.242273 Si / 1000 Ang^3
#
#
#
# Elastic Constant Matrix: (Units=GPa)
#
#
# Indices 1 2 3 4 5 6 
#
# 1 47.6492 22.7851 -7.0010 0.0000 0.0000 0.0000
# 2 22.7851 81.4603 24.5019 0.0000 0.0000 0.0000
# 3 -7.0010 24.5019 86.6822 0.0000 0.0000 0.0000
# 4 0.0000 0.0000 0.0000 37.6998 0.0000 0.0000
# 5 0.0000 0.0000 0.0000 0.0000 15.4393 0.0000
# 6 0.0000 0.0000 0.0000 0.0000 0.0000 -1.6997
#
#
#
# Elastic Compliance Matrix: (Units=1/GPa)
#
#
# Indices 1 2 3 4 5 6 
#
# 1 0.025736 -0.008551 0.004496 0.000000 0.000000 0.000000
# 2 -0.008551 0.016258 -0.005286 0.000000 0.000000 0.000000
# 3 0.004496 -0.005286 0.013394 0.000000 0.000000 0.000000
# 4 0.000000 0.000000 0.000000 0.026525 0.000000 0.000000
# 5 0.000000 0.000000 0.000000 0.000000 0.064770 0.000000
# 6 0.000000 0.000000 0.000000 0.000000 0.000000 -0.588336
#
#
# Mechanical properties :
#
#
# Convention : Reuss Voigt Hill
#
# Bulk Modulus (GPa) = 27.24432 32.92928 30.08680
# Shear Modulus (GPa) = -12.17328 21.98826 4.90749
#
# Velocity S-wave (km/s) = -2.58604 3.47558 1.64195
# Velocity P-wave (km/s) = 2.45974 5.84777 4.48591
#
# Compressibility (1/GPa) = 0.03670490
#
# Stress axis : x y z
#
# Youngs Moduli (GPa) = 38.85595 61.50967 74.66216
#
# Poissons Ratio (x) = 0.52596 -0.33565
# Poissons Ratio (y) = 0.33225 0.39467
# Poissons Ratio (z) = -0.17468 0.32514
#
# Static dielectric constant tensor:
#      x y z
#    x 1.600940 0.000000 0.000000 
#    y 0.000000 1.682880 0.000000 
#    z 0.000000 0.000000 1.661740 
# 
# From -- ./inp_files/1269.got.cif
#   From: 2010.05.17/outbox.cif.g08.bks.cpg/sg27_1_cif.got.tgz:1269.got - 2010.06.04 01:11:05.
