data_PCOD9338532
_publ_section_title
;
Structure prediction by ZEFSAII (Michael W. Deem and Ramdas Pophale) SiO2 
 PCOD9338532
Probable space group: P M C 21
;
_chemical_formula_sum "Si O2"
_cell_formula_units_Z 32
_cell_length_a 13.484646
_cell_length_b 7.420916
_cell_length_c 13.616539
_cell_angle_alpha 90.000000
_cell_angle_beta 90.000000
_cell_angle_gamma 90.000000
_cell_volume 1362.585615
_symmetry_space_group_name_H-M "P M C 21"
_symmetry_group_IT_number 26
_symmetry_cell_setting 'orthorhombic'
loop_
_space_group_symop_operation_xyz
x,y,z
-x,-y,1/2+z
-x,y,z
x,-y,1/2+z
loop_
_atom_site_type_symbol
_atom_site_label
_atom_site_fract_x
_atom_site_fract_y
_atom_site_fract_z
Si Si1 0.113433 0.546797 0.471160
Si Si2 0.383815 0.390048 0.805449
Si Si3 0.781555 0.532410 0.162447
Si Si4 0.118112 0.931207 0.421097
Si Si5 0.616130 0.704848 0.938270
Si Si6 0.112941 0.741952 0.806921
Si Si7 0.615581 0.982755 0.760095
Si Si8 0.757070 0.903297 0.094038
O O1 0.192601 0.544674 0.556712
O O2 0.115347 0.363239 0.410613
O O3 0.000000 0.566164 0.510587
O O4 0.131243 0.719832 0.402756
O O5 0.500000 0.424566 0.794213
O O6 0.327786 0.453493 0.707569
O O7 0.351922 0.507834 0.899210
O O8 0.368561 0.176364 0.813260
O O9 0.834969 0.394177 0.234530
O O10 0.813822 0.743257 0.152879
O O11 0.153719 0.061284 0.333566
O O12 0.172356 0.984413 0.522258
O O13 0.000000 0.965017 0.431448
O O14 0.500000 0.701331 0.967159
O O15 0.625854 0.827596 0.840607
O O16 0.681453 0.792579 0.023187
O O17 0.000000 0.762659 0.772983
O O18 0.500000 0.980929 0.725996
O O19 0.690388 0.979800 0.668369
#
# Coordination Sequence:
#
# PCOD9338532 Si02
#       8
#     4   4   4   4   4   4   4   4
#     4  10  22  41  62  89 123 161 205 253 307 374
#     4   9  20  37  58  87 124 160 202 253 303 365
#     4  11  22  38  66  92 122 162 207 254 316 368
#     4  10  22  40  59  85 123 161 202 255 308 369
#     4  10  21  40  64  88 124 165 202 253 315 367
#     4  10  21  41  64  88 124 161 203 256 312 372
#     4   9  20  39  60  89 125 161 205 254 305 371
#     4  11  22  38  63  94 123 163 208 262 308 372
#
# _framework density 23.484762
#
# number of rings (size 3 to 8) (size 9 to 14) (size 15 to 20)
#    0.000    2.000    1.250    1.500    1.750    3.000 
#    2.250    0.000    0.000    6.000    0.000    0.000 
#    0.000    0.000    0.000    0.000    0.000    0.000 
#
# Total GULP energy -178990.964713 kJ/mol
# GULP energy per Si atom -5593.467647 kJ/mol
# Density = 2.343131 g / cm^3
# Si number density = 23.484762 Si / 1000 Ang^3
#
#
#
# Elastic Constant Matrix: (Units=GPa)
#
#
# Indices 1 2 3 4 5 6 
#
# 1 56.4983 15.0374 15.9141 0.0000 0.0000 0.0000
# 2 15.0374 92.3045 12.4601 0.0000 0.0000 0.0000
# 3 15.9141 12.4601 69.7978 0.0000 0.0000 0.0000
# 4 0.0000 0.0000 0.0000 33.1749 0.0000 0.0000
# 5 0.0000 0.0000 0.0000 0.0000 26.5826 0.0000
# 6 0.0000 0.0000 0.0000 0.0000 0.0000 29.2831
#
#
#
# Elastic Compliance Matrix: (Units=1/GPa)
#
#
# Indices 1 2 3 4 5 6 
#
# 1 0.019524 -0.002643 -0.003980 0.000000 0.000000 0.000000
# 2 -0.002643 0.011459 -0.001443 0.000000 0.000000 0.000000
# 3 -0.003980 -0.001443 0.015492 0.000000 0.000000 0.000000
# 4 0.000000 0.000000 0.000000 0.030143 0.000000 0.000000
# 5 0.000000 0.000000 0.000000 0.000000 0.037619 0.000000
# 6 0.000000 0.000000 0.000000 0.000000 0.000000 0.034149
#
#
# Mechanical properties :
#
#
# Convention : Reuss Voigt Hill
#
# Bulk Modulus (GPa) = 32.95628 33.93598 33.44613
# Shear Modulus (GPa) = 28.63143 29.48739 29.05941
#
# Velocity S-wave (km/s) = 3.49542 3.54728 3.52145
# Velocity P-wave (km/s) = 5.50946 5.59099 5.55038
#
# Compressibility (1/GPa) = 0.03034323
#
# Stress axis : x y z
#
# Youngs Moduli (GPa) = 51.21847 87.26658 64.54921
#
# Poissons Ratio (x) = 0.23069 0.25688
# Poissons Ratio (y) = 0.13540 0.09314
# Poissons Ratio (z) = 0.20383 0.12592
#
# Static dielectric constant tensor:
#      x y z
#    x 1.918510 0.000000 0.000000 
#    y 0.000000 1.902440 0.000000 
#    z 0.000000 0.000000 1.861140 
# 
# From -- ./inp_files/3601.got.cif
#   From: 2010.05.17/outbox.cif.g08.bks.cpg/sg26_2_cif.got.tgz:3601.got - 2010.06.04 01:07:29.
