data_PCOD9338887
_publ_section_title
;
Structure prediction by ZEFSAII (Michael W. Deem and Ramdas Pophale) SiO2 
 PCOD9338887
Probable space group: P C C 2
;
_chemical_formula_sum "Si O2"
_cell_formula_units_Z 20
_cell_length_a 8.149879
_cell_length_b 10.781922
_cell_length_c 8.875183
_cell_angle_alpha 90.000000
_cell_angle_beta 90.000000
_cell_angle_gamma 90.000000
_cell_volume 779.874398
_symmetry_space_group_name_H-M "P C C 2"
_symmetry_group_IT_number 27
_symmetry_cell_setting 'orthorhombic'
loop_
_space_group_symop_operation_xyz
x,y,z
-x,-y,z
-x,y,1/2+z
x,-y,1/2+z
loop_
_atom_site_type_symbol
_atom_site_label
_atom_site_fract_x
_atom_site_fract_y
_atom_site_fract_z
Si Si1 0.781379 0.602126 0.072910
Si Si2 0.488908 0.738999 0.954441
Si Si3 0.000000 0.000000 0.349941
Si Si4 0.500000 0.000000 0.940096
Si Si5 0.783794 0.887360 0.591628
Si Si6 0.500000 0.500000 0.246206
Si Si7 0.000000 0.500000 0.809056
O O1 0.657191 0.498607 0.138316
O O2 0.921826 0.604631 0.199841
O O3 0.658742 0.715474 0.043368
O O4 0.865188 0.559172 0.919008
O O5 0.475504 0.620514 0.848492
O O6 0.499379 0.867714 0.860325
O O7 0.331934 0.768277 0.061281
O O8 0.127606 0.925492 0.244481
O O9 0.917085 0.898472 0.458606
O O10 0.657141 0.003677 0.047735
#
# Coordination Sequence:
#
# PCOD9338887 Si02
#       7
#     4   4   2   2   4   2   2
#     4  11  23  46  81 114 169 205 276 324 420 482
#     4  10  23  48  76 113 154 222 262 331 384 515
#     4  10  20  44  78 120 152 206 268 360 406 480
#     4   8  22  46  76 110 152 212 264 320 388 508
#     4   9  22  43  80 106 160 201 274 326 415 477
#     4  12  24  44  82 112 158 214 270 324 402 504
#     4  10  24  46  80 122 168 210 260 350 416 480
#
# _framework density 25.645154000000002
#
# number of rings (size 3 to 8) (size 9 to 14) (size 15 to 20)
#    1.200    0.800    2.000    0.600    0.000    4.000 
#    0.000    8.000    8.800    0.000    0.000    0.000 
#    0.000    0.000    0.000    0.000    0.000    0.000 
#
# Total GULP energy -111749.687632 kJ/mol
# GULP energy per Si atom -5587.484382 kJ/mol
# Density = 2.558678 g / cm^3
# Si number density = 25.645154 Si / 1000 Ang^3
#
#
#
# Elastic Constant Matrix: (Units=GPa)
#
#
# Indices 1 2 3 4 5 6 
#
# 1 130.4267 29.1300 65.5968 0.0000 0.0000 0.0000
# 2 29.1300 180.4792 54.1638 0.0000 0.0000 0.0000
# 3 65.5968 54.1638 150.6642 0.0000 0.0000 0.0000
# 4 0.0000 0.0000 0.0000 27.2610 0.0000 0.0000
# 5 0.0000 0.0000 0.0000 0.0000 52.1635 0.0000
# 6 0.0000 0.0000 0.0000 0.0000 0.0000 52.1506
#
#
#
# Elastic Compliance Matrix: (Units=1/GPa)
#
#
# Indices 1 2 3 4 5 6 
#
# 1 0.009835 -0.000339 -0.004160 0.000000 0.000000 0.000000
# 2 -0.000339 0.006223 -0.002089 0.000000 0.000000 0.000000
# 3 -0.004160 -0.002089 0.009200 0.000000 0.000000 0.000000
# 4 0.000000 0.000000 0.000000 0.036682 0.000000 0.000000
# 5 0.000000 0.000000 0.000000 0.000000 0.019170 0.000000
# 6 0.000000 0.000000 0.000000 0.000000 0.000000 0.019175
#
#
# Mechanical properties :
#
#
# Convention : Reuss Voigt Hill
#
# Bulk Modulus (GPa) = 82.77952 84.37237 83.57594
# Shear Modulus (GPa) = 42.55693 47.16033 44.85863
#
# Velocity S-wave (km/s) = 4.07806 4.29296 4.18689
# Velocity P-wave (km/s) = 7.38397 7.58578 7.48555
#
# Compressibility (1/GPa) = 0.01208028
#
# Stress axis : x y z
#
# Youngs Moduli (GPa) = 101.67571 160.70515 108.69863
#
# Poissons Ratio (x) = 0.05446 0.45221
# Poissons Ratio (y) = 0.03446 0.22712
# Poissons Ratio (z) = 0.42300 0.33579
#
# Static dielectric constant tensor:
#      x y z
#    x 2.091890 0.000000 0.000000 
#    y 0.000000 2.007640 0.000000 
#    z 0.000000 0.000000 2.047420 
# 
# From -- ./inp_files/1084.got.cif
#   From: 2010.05.17/outbox.cif.g08.bks.cpg/sg27_1_cif.got.tgz:1084.got - 2010.06.04 01:11:05.
