data_PCOD9338906
_publ_section_title
;
Structure prediction by ZEFSAII (Michael W. Deem and Ramdas Pophale) SiO2 
 PCOD9338906
Probable space group: P C C 2
;
_chemical_formula_sum "Si O2"
_cell_formula_units_Z 32
_cell_length_a 38.467210
_cell_length_b 7.294734
_cell_length_c 5.396327
_cell_angle_alpha 90.000000
_cell_angle_beta 90.000000
_cell_angle_gamma 90.000000
_cell_volume 1514.252876
_symmetry_space_group_name_H-M "P C C 2"
_symmetry_group_IT_number 27
_symmetry_cell_setting 'orthorhombic'
loop_
_space_group_symop_operation_xyz
x,y,z
-x,-y,z
-x,y,1/2+z
x,-y,1/2+z
loop_
_atom_site_type_symbol
_atom_site_label
_atom_site_fract_x
_atom_site_fract_y
_atom_site_fract_z
Si Si1 0.905107 0.298318 0.227710
Si Si2 0.273271 0.115655 0.318386
Si Si3 0.584624 0.378221 0.756401
Si Si4 0.195229 0.122546 0.291406
Si Si5 0.485865 0.207848 0.354068
Si Si6 0.337250 0.616101 0.736730
Si Si7 0.875968 0.288510 0.726299
Si Si8 0.960363 0.072153 0.390574
O O1 0.884414 0.210703 0.456261
O O2 0.892455 0.507404 0.209360
O O3 0.946035 0.266501 0.287772
O O4 0.893797 0.209797 0.971087
O O5 0.234525 0.199421 0.291086
O O6 0.305342 0.249103 0.276693
O O7 0.275298 0.031523 0.594292
O O8 0.581003 0.486955 0.495472
O O9 0.554351 0.228863 0.784378
O O10 0.623900 0.300938 0.761366
O O11 0.165019 0.273308 0.272895
O O12 0.191519 0.007637 0.547861
O O13 0.493055 0.292006 0.623682
O O14 0.500000 0.000000 0.378597
O O15 0.335081 0.529604 0.462309
O O16 0.947177 0.056294 0.669176
O O17 0.000000 0.000000 0.417471
#
# Coordination Sequence:
#
# PCOD9338906 Si02
#       8
#     4   4   4   4   4   4   4   4
#     4  10  21  37  57  84 120 146 193 239 284 343
#     4  10  21  40  61  91 125 161 203 254 306 359
#     4  10  21  37  59  83 115 154 197 246 296 362
#     4  10  21  37  59  86 122 155 194 240 287 354
#     4  10  21  37  53  80 117 145 192 242 305 361
#     4  10  21  40  61  91 122 159 211 253 303 368
#     4  10  21  37  56  85 118 153 188 235 297 340
#     4  10  21  37  60  86 111 149 196 235 283 345
#
# _framework density 21.132532999999999
#
# number of rings (size 3 to 8) (size 9 to 14) (size 15 to 20)
#    0.000    2.000    0.000    3.000    0.000    4.500 
#    9.000    0.000    0.000   36.000    0.000    0.000 
#    0.000    0.000    0.000    0.000    0.000    0.000 
#
# Total GULP energy -178184.160185 kJ/mol
# GULP energy per Si atom -5568.255006 kJ/mol
# Density = 2.108443 g / cm^3
# Si number density = 21.132533 Si / 1000 Ang^3
#
#
#
# Elastic Constant Matrix: (Units=GPa)
#
#
# Indices 1 2 3 4 5 6 
#
# 1 154.2018 45.0308 2.1693 0.0000 0.0000 0.0000
# 2 45.0308 53.8203 -7.1016 0.0000 0.0000 0.0000
# 3 2.1693 -7.1016 155.1467 0.0000 0.0000 0.0000
# 4 0.0000 0.0000 0.0000 15.4762 0.0000 0.0000
# 5 0.0000 0.0000 0.0000 0.0000 5.0811 0.0000
# 6 0.0000 0.0000 0.0000 0.0000 0.0000 48.9536
#
#
#
# Elastic Compliance Matrix: (Units=1/GPa)
#
#
# Indices 1 2 3 4 5 6 
#
# 1 0.008613 -0.007266 -0.000453 0.000000 0.000000 0.000000
# 2 -0.007266 0.024823 0.001238 0.000000 0.000000 0.000000
# 3 -0.000453 0.001238 0.006509 0.000000 0.000000 0.000000
# 4 0.000000 0.000000 0.000000 0.064615 0.000000 0.000000
# 5 0.000000 0.000000 0.000000 0.000000 0.196806 0.000000
# 6 0.000000 0.000000 0.000000 0.000000 0.000000 0.020427
#
#
# Mechanical properties :
#
#
# Convention : Reuss Voigt Hill
#
# Bulk Modulus (GPa) = 37.06176 49.26288 43.16232
# Shear Modulus (GPa) = 14.54538 35.44021 24.99280
#
# Velocity S-wave (km/s) = 2.62638 4.09962 3.44273
# Velocity P-wave (km/s) = 5.17426 6.76544 6.02263
#
# Compressibility (1/GPa) = 0.02698199
#
# Stress axis : x y z
#
# Youngs Moduli (GPa) = 116.09848 40.28447 153.64505
#
# Poissons Ratio (x) = 0.29273 0.06961
# Poissons Ratio (y) = 0.84363 -0.19019
# Poissons Ratio (z) = 0.05260 -0.04987
#
# Static dielectric constant tensor:
#      x y z
#    x 2.347580 0.000000 0.000000 
#    y 0.000000 1.724800 0.000000 
#    z 0.000000 0.000000 1.832960 
# 
# From -- ./inp_files/748.got.cif
#   From: 2010.05.17/outbox.cif.g08.bks.cpg/sg27_1_cif.got.tgz:748.got - 2010.06.04 01:11:05.
