data_PCOD9338728
_publ_section_title
;
Structure prediction by ZEFSAII (Michael W. Deem and Ramdas Pophale) SiO2 
 PCOD9338728
Probable space group: P C C 2
;
_chemical_formula_sum "Si O2"
_cell_formula_units_Z 20
_cell_length_a 21.471830
_cell_length_b 6.932767
_cell_length_c 5.353913
_cell_angle_alpha 90.000000
_cell_angle_beta 90.000000
_cell_angle_gamma 90.000000
_cell_volume 796.979176
_symmetry_space_group_name_H-M "P C C 2"
_symmetry_group_IT_number 27
_symmetry_cell_setting 'orthorhombic'
loop_
_space_group_symop_operation_xyz
x,y,z
-x,-y,z
-x,y,1/2+z
x,-y,1/2+z
loop_
_atom_site_type_symbol
_atom_site_label
_atom_site_fract_x
_atom_site_fract_y
_atom_site_fract_z
Si Si1 0.975784 0.780692 0.013590
Si Si2 0.787360 0.780451 0.314066
Si Si3 0.344405 0.372134 0.445590
Si Si4 0.164133 0.218424 0.813775
Si Si5 0.475492 0.218162 0.314209
O O1 0.981927 0.696788 0.291098
O O2 0.905754 0.782484 0.914457
O O3 0.000000 0.000000 0.051712
O O4 0.717640 0.754504 0.410504
O O5 0.830938 0.699121 0.535213
O O6 0.810121 0.000457 0.277767
O O7 0.794053 0.694948 0.036082
O O8 0.344818 0.474483 0.715951
O O9 0.405552 0.241183 0.409733
O O10 0.518191 0.302984 0.535936
O O11 0.500000 0.000000 0.279547
#
# Coordination Sequence:
#
# PCOD9338728 Si02
#       5
#     4   4   4   4   4
#     4  10  16  25  43  74 118 146 173 228 300 370
#     4  10  20  35  54  78 114 150 191 237 289 344
#     4  12  26  42  61  87 120 157 198 244 293 348
#     4  10  19  32  54  83 114 149 191 241 294 358
#     4  10  23  42  67  94 120 152 195 239 292 350
#
# _framework density 25.094760000000001
#
# number of rings (size 3 to 8) (size 9 to 14) (size 15 to 20)
#    0.000    1.600    0.000    8.400    0.000    8.800 
#    0.000    0.000    0.000    0.000    0.000    0.000 
#    0.000  195.200    0.000    0.000    0.000    0.000 
#
# Total GULP energy -111821.748759 kJ/mol
# GULP energy per Si atom -5591.087438 kJ/mol
# Density = 2.503764 g / cm^3
# Si number density = 25.094760 Si / 1000 Ang^3
#
#
#
# Elastic Constant Matrix: (Units=GPa)
#
#
# Indices 1 2 3 4 5 6 
#
# 1 125.5873 -11.8270 -14.9677 0.0000 0.0000 0.0000
# 2 -11.8270 101.2527 -23.3047 0.0000 0.0000 0.0000
# 3 -14.9677 -23.3047 195.3667 0.0000 0.0000 0.0000
# 4 0.0000 0.0000 0.0000 6.3525 0.0000 0.0000
# 5 0.0000 0.0000 0.0000 0.0000 47.8050 0.0000
# 6 0.0000 0.0000 0.0000 0.0000 0.0000 16.4222
#
#
#
# Elastic Compliance Matrix: (Units=1/GPa)
#
#
# Indices 1 2 3 4 5 6 
#
# 1 0.008159 0.001128 0.000760 0.000000 0.000000 0.000000
# 2 0.001128 0.010311 0.001316 0.000000 0.000000 0.000000
# 3 0.000760 0.001316 0.005334 0.000000 0.000000 0.000000
# 4 0.000000 0.000000 0.000000 0.157417 0.000000 0.000000
# 5 0.000000 0.000000 0.000000 0.000000 0.020918 0.000000
# 6 0.000000 0.000000 0.000000 0.000000 0.000000 0.060893
#
#
# Mechanical properties :
#
#
# Convention : Reuss Voigt Hill
#
# Bulk Modulus (GPa) = 33.09933 35.77864 34.43899
# Shear Modulus (GPa) = 18.74798 45.60304 32.17551
#
# Velocity S-wave (km/s) = 2.73626 4.26753 3.58461
# Velocity P-wave (km/s) = 4.81676 6.21054 5.55751
#
# Compressibility (1/GPa) = 0.03021209
#
# Stress axis : x y z
#
# Youngs Moduli (GPa) = 122.55883 96.98365 187.48334
#
# Poissons Ratio (x) = -0.10939 -0.14242
# Poissons Ratio (y) = -0.13824 -0.24680
# Poissons Ratio (z) = -0.09310 -0.12767
#
# Static dielectric constant tensor:
#      x y z
#    x 1.916110 0.000000 0.000000 
#    y 0.000000 2.923840 0.000000 
#    z 0.000000 0.000000 2.085430 
# 
# From -- ./inp_files/536.got.cif
#   From: 2010.05.17/outbox.cif.g08.bks.cpg/sg27_1_cif.got.tgz:536.got - 2010.06.04 01:11:05.
