data_PCOD9338080
_publ_section_title
;
Structure prediction by ZEFSAII (Michael W. Deem and Ramdas Pophale) SiO2 
 PCOD9338080
Probable space group: P M C 21
;
_chemical_formula_sum "Si O2"
_cell_formula_units_Z 24
_cell_length_a 8.849138
_cell_length_b 9.421030
_cell_length_c 16.904754
_cell_angle_alpha 90.000000
_cell_angle_beta 90.000000
_cell_angle_gamma 90.000000
_cell_volume 1409.315440
_symmetry_space_group_name_H-M "P M C 21"
_symmetry_group_IT_number 26
_symmetry_cell_setting 'orthorhombic'
loop_
_space_group_symop_operation_xyz
x,y,z
-x,-y,1/2+z
-x,y,z
x,-y,1/2+z
loop_
_atom_site_type_symbol
_atom_site_label
_atom_site_fract_x
_atom_site_fract_y
_atom_site_fract_z
Si Si1 0.817431 0.850719 0.639400
Si Si2 0.172551 0.590497 0.737730
Si Si3 0.680879 0.332887 0.816724
Si Si4 0.174022 0.584876 0.072356
Si Si5 0.681628 0.322371 0.993847
Si Si6 0.317977 0.838584 0.160521
O O1 0.770544 0.745235 0.711411
O O2 0.755565 0.780549 0.558740
O O3 0.000000 0.851157 0.637249
O O4 0.751768 0.006585 0.650544
O O5 0.264205 0.491853 0.797003
O O6 0.172022 0.503416 0.654904
O O7 0.000000 0.602340 0.765561
O O8 0.500000 0.333693 0.815710
O O9 0.729552 0.229876 0.745171
O O10 0.728919 0.286980 0.904215
O O11 0.262745 0.481935 0.013234
O O12 0.255730 0.731490 0.093602
O O13 0.000000 0.606157 0.048080
O O14 0.500000 0.315169 0.000779
O O15 0.500000 0.843540 0.157413
#
# Coordination Sequence:
#
# PCOD9338080 Si02
#       6
#     4   4   4   4   4   4
#     4  10  20  34  51  75 103 134 170 208 249 299
#     4   8  16  30  49  70  94 125 163 201 241 289
#     4   9  19  33  51  75 101 128 165 208 252 298
#     4   9  17  31  50  73  98 127 163 203 242 291
#     4  10  19  33  52  75 101 132 168 209 252 298
#     4  10  19  33  53  76 101 134 169 205 250 301
#
# _framework density 17.029546
#
# number of rings (size 3 to 8) (size 9 to 14) (size 15 to 20)
#    0.000    2.667    0.000    3.000    0.000    6.667 
#    0.000    1.667    0.000    6.000    0.000    0.000 
#    0.000    0.000    0.000    0.000    0.000    0.000 
#
# Total GULP energy -133716.579917 kJ/mol
# GULP energy per Si atom -5571.524163 kJ/mol
# Density = 1.699079 g / cm^3
# Si number density = 17.029546 Si / 1000 Ang^3
#
#
#
# Elastic Constant Matrix: (Units=GPa)
#
#
# Indices 1 2 3 4 5 6 
#
# 1 53.6988 39.7947 27.2953 0.0000 0.0000 0.0000
# 2 39.7947 148.6836 44.5084 0.0000 0.0000 0.0000
# 3 27.2953 44.5084 76.8855 0.0000 0.0000 0.0000
# 4 0.0000 0.0000 0.0000 15.5587 0.0000 0.0000
# 5 0.0000 0.0000 0.0000 0.0000 14.6374 0.0000
# 6 0.0000 0.0000 0.0000 0.0000 0.0000 32.3441
#
#
#
# Elastic Compliance Matrix: (Units=1/GPa)
#
#
# Indices 1 2 3 4 5 6 
#
# 1 0.025429 -0.004964 -0.006154 0.000000 0.000000 0.000000
# 2 -0.004964 0.009104 -0.003508 0.000000 0.000000 0.000000
# 3 -0.006154 -0.003508 0.017222 0.000000 0.000000 0.000000
# 4 0.000000 0.000000 0.000000 0.064273 0.000000 0.000000
# 5 0.000000 0.000000 0.000000 0.000000 0.068318 0.000000
# 6 0.000000 0.000000 0.000000 0.000000 0.000000 0.030918
#
#
# Mechanical properties :
#
#
# Convention : Reuss Voigt Hill
#
# Bulk Modulus (GPa) = 44.43820 55.82941 50.13381
# Shear Modulus (GPa) = 19.83989 23.68600 21.76295
#
# Velocity S-wave (km/s) = 3.41695 3.73349 3.57872
# Velocity P-wave (km/s) = 6.45901 7.17219 6.82492
#
# Compressibility (1/GPa) = 0.02250316
#
# Stress axis : x y z
#
# Youngs Moduli (GPa) = 39.32510 109.83666 58.06506
#
# Poissons Ratio (x) = 0.54520 0.35734
# Poissons Ratio (y) = 0.19520 0.20371
# Poissons Ratio (z) = 0.24201 0.38534
#
# Static dielectric constant tensor:
#      x y z
#    x 1.574820 0.000000 0.000000 
#    y 0.000000 1.567210 0.000000 
#    z 0.000000 0.000000 1.587000 
# 
# From -- ./inp_files/3918.got.cif
#   From: 2010.05.17/outbox.cif.g08.bks.cpg/sg26_2_cif.got.tgz:3918.got - 2010.06.04 01:07:29.
