data_PCOD9338818
_publ_section_title
;
Structure prediction by ZEFSAII (Michael W. Deem and Ramdas Pophale) SiO2 
 PCOD9338818
Probable space group: P C C 2
;
_chemical_formula_sum "Si O2"
_cell_formula_units_Z 32
_cell_length_a 11.039494
_cell_length_b 14.082442
_cell_length_c 10.207906
_cell_angle_alpha 90.000000
_cell_angle_beta 90.000000
_cell_angle_gamma 90.000000
_cell_volume 1586.952037
_symmetry_space_group_name_H-M "P C C 2"
_symmetry_group_IT_number 27
_symmetry_cell_setting 'orthorhombic'
loop_
_space_group_symop_operation_xyz
x,y,z
-x,-y,z
-x,y,1/2+z
x,-y,1/2+z
loop_
_atom_site_type_symbol
_atom_site_label
_atom_site_fract_x
_atom_site_fract_y
_atom_site_fract_z
Si Si1 0.520562 0.884453 0.065770
Si Si2 0.166699 0.720731 0.397584
Si Si3 0.260336 0.044081 0.191227
Si Si4 0.123391 0.269883 0.429341
Si Si5 0.873117 0.944180 0.452069
Si Si6 0.632080 0.140884 0.300073
Si Si7 0.856862 0.591025 0.661673
Si Si8 0.150163 0.374131 0.167974
O O1 0.647672 0.875769 0.143895
O O2 0.422017 0.833887 0.157770
O O3 0.500000 0.000000 0.058173
O O4 0.537079 0.848468 0.918524
O O5 0.245004 0.809157 0.347789
O O6 0.191896 0.640063 0.291436
O O7 0.194158 0.681994 0.541103
O O8 0.022085 0.736062 0.403444
O O9 0.156044 0.064426 0.296176
O O10 0.337759 0.969398 0.277100
O O11 0.210826 0.999159 0.056581
O O12 0.143870 0.166085 0.489939
O O13 0.167595 0.348501 0.532249
O O14 0.176088 0.307989 0.292507
O O15 0.000000 0.000000 0.463276
O O16 0.809274 0.483666 0.661267
O O17 0.003938 0.605453 0.668122
#
# Coordination Sequence:
#
# PCOD9338818 Si02
#       8
#     4   4   4   4   4   4   4   4
#     4  10  22  39  60  79 103 142 196 252 294 331
#     4  10  20  33  54  83 117 147 185 238 291 345
#     4  11  23  39  58  78 113 160 198 238 282 336
#     4  10  21  33  53  84 124 163 197 233 278 358
#     4  12  25  37  54  84 128 170 201 227 283 361
#     4  11  22  39  59  83 106 140 195 256 298 339
#     4   9  17  34  53  84 118 160 194 235 285 350
#     4   9  18  32  56  81 121 158 195 234 287 348
#
# _framework density 20.164439000000002
#
# number of rings (size 3 to 8) (size 9 to 14) (size 15 to 20)
#    0.000    1.750    1.250    3.750    3.500    7.000 
#    0.000    0.000    0.000    0.000    0.000    2.625 
#    0.000    0.000    0.000    0.000    0.000    0.000 
#
# Total GULP energy -178201.347957 kJ/mol
# GULP energy per Si atom -5568.792124 kJ/mol
# Density = 2.011854 g / cm^3
# Si number density = 20.164439 Si / 1000 Ang^3
#
#
#
# Elastic Constant Matrix: (Units=GPa)
#
#
# Indices 1 2 3 4 5 6 
#
# 1 34.3820 10.7666 23.6752 0.0000 0.0000 0.0000
# 2 10.7666 50.7764 16.2191 0.0000 0.0000 0.0000
# 3 23.6752 16.2191 114.4761 0.0000 0.0000 0.0000
# 4 0.0000 0.0000 0.0000 0.4762 0.0000 0.0000
# 5 0.0000 0.0000 0.0000 0.0000 20.3581 0.0000
# 6 0.0000 0.0000 0.0000 0.0000 0.0000 8.4881
#
#
#
# Elastic Compliance Matrix: (Units=1/GPa)
#
#
# Indices 1 2 3 4 5 6 
#
# 1 0.035271 -0.005393 -0.006530 0.000000 0.000000 0.000000
# 2 -0.005393 0.021452 -0.001924 0.000000 0.000000 0.000000
# 3 -0.006530 -0.001924 0.010359 0.000000 0.000000 0.000000
# 4 0.000000 0.000000 0.000000 2.100038 0.000000 0.000000
# 5 0.000000 0.000000 0.000000 0.000000 0.049120 0.000000
# 6 0.000000 0.000000 0.000000 0.000000 0.000000 0.117812
#
#
# Mechanical properties :
#
#
# Convention : Reuss Voigt Hill
#
# Bulk Modulus (GPa) = 25.38915 33.43959 29.41437
# Shear Modulus (GPa) = 2.10537 15.79604 8.95071
#
# Velocity S-wave (km/s) = 1.02292 2.80190 2.10915
# Velocity P-wave (km/s) = 3.74347 5.20451 4.53324
#
# Compressibility (1/GPa) = 0.03938690
#
# Stress axis : x y z
#
# Youngs Moduli (GPa) = 28.35227 46.61511 96.53790
#
# Poissons Ratio (x) = 0.25139 0.63043
# Poissons Ratio (y) = 0.15290 0.18575
# Poissons Ratio (z) = 0.18515 0.08969
#
# Static dielectric constant tensor:
#      x y z
#    x 1.785470 0.000000 0.000000 
#    y 0.000000 1.769210 0.000000 
#    z 0.000000 0.000000 1.777360 
# 
# From -- ./inp_files/1489.got.cif
#   From: 2010.05.17/outbox.cif.g08.bks.cpg/sg27_1_cif.got.tgz:1489.got - 2010.06.04 01:11:05.
