data_PCOD9338765
_publ_section_title
;
Structure prediction by ZEFSAII (Michael W. Deem and Ramdas Pophale) SiO2 
 PCOD9338765
Probable space group: P C C 2
;
_chemical_formula_sum "Si O2"
_cell_formula_units_Z 28
_cell_length_a 17.444137
_cell_length_b 9.825770
_cell_length_c 8.987287
_cell_angle_alpha 90.000000
_cell_angle_beta 90.000000
_cell_angle_gamma 90.000000
_cell_volume 1540.439667
_symmetry_space_group_name_H-M "P C C 2"
_symmetry_group_IT_number 27
_symmetry_cell_setting 'orthorhombic'
loop_
_space_group_symop_operation_xyz
x,y,z
-x,-y,z
-x,y,1/2+z
x,-y,1/2+z
loop_
_atom_site_type_symbol
_atom_site_label
_atom_site_fract_x
_atom_site_fract_y
_atom_site_fract_z
Si Si1 0.756865 0.874149 0.783810
Si Si2 0.500000 0.000000 0.393959
Si Si3 0.674068 0.631357 0.510254
Si Si4 0.588566 0.852845 0.648152
Si Si5 0.895405 0.620747 0.359645
Si Si6 0.747582 0.571314 0.819380
Si Si7 0.000000 0.500000 0.112864
Si Si8 0.205477 0.855210 0.955337
O O1 0.670763 0.892245 0.718504
O O2 0.758178 0.728223 0.866088
O O3 0.807034 0.865250 0.633029
O O4 0.780278 0.998553 0.885697
O O5 0.435560 0.055930 0.506846
O O6 0.529474 0.117539 0.281832
O O7 0.599832 0.699456 0.585696
O O8 0.727862 0.581657 0.645624
O O9 0.676746 0.506414 0.397767
O O10 0.718879 0.759337 0.436931
O O11 0.823608 0.516580 0.345930
O O12 0.950251 0.596591 0.219681
O O13 0.861311 0.770744 0.376614
O O14 0.942832 0.582093 0.506455
#
# Coordination Sequence:
#
# PCOD9338765 Si02
#       8
#     4   2   4   4   4   4   2   4
#     4  10  19  33  54  82 107 133 171 229 275 310
#     4  10  18  32  54  74 110 148 174 216 252 330
#     4   9  18  33  52  78 105 131 171 222 262 308
#     4   9  18  32  51  79 105 139 181 211 266 316
#     4  10  19  35  53  79 101 138 181 213 265 317
#     4   9  18  33  55  77 104 131 170 226 273 309
#     4  10  20  32  56  74 106 144 178 214 250 336
#     4   9  19  32  52  78 106 129 170 223 264 306
#
# _framework density 18.176628000000001
#
# number of rings (size 3 to 8) (size 9 to 14) (size 15 to 20)
#    0.000    2.857    0.000    4.286    0.000    3.429 
#    0.000    5.714    0.000   24.857    0.000    0.000 
#    0.000    0.000    0.000    0.000    0.000    0.000 
#
# Total GULP energy -155894.484711 kJ/mol
# GULP energy per Si atom -5567.660168 kJ/mol
# Density = 1.813526 g / cm^3
# Si number density = 18.176628 Si / 1000 Ang^3
#
#
#
# Elastic Constant Matrix: (Units=GPa)
#
#
# Indices 1 2 3 4 5 6 
#
# 1 36.6697 3.4864 4.9953 0.0000 0.0000 0.0000
# 2 3.4864 110.4161 27.7131 0.0000 0.0000 0.0000
# 3 4.9953 27.7131 55.3689 0.0000 0.0000 0.0000
# 4 0.0000 0.0000 0.0000 21.8729 0.0000 0.0000
# 5 0.0000 0.0000 0.0000 0.0000 5.8140 0.0000
# 6 0.0000 0.0000 0.0000 0.0000 0.0000 26.6057
#
#
#
# Elastic Compliance Matrix: (Units=1/GPa)
#
#
# Indices 1 2 3 4 5 6 
#
# 1 0.027617 -0.000282 -0.002350 0.000000 0.000000 0.000000
# 2 -0.000282 0.010361 -0.005160 0.000000 0.000000 0.000000
# 3 -0.002350 -0.005160 0.020856 0.000000 0.000000 0.000000
# 4 0.000000 0.000000 0.000000 0.045719 0.000000 0.000000
# 5 0.000000 0.000000 0.000000 0.000000 0.171997 0.000000
# 6 0.000000 0.000000 0.000000 0.000000 0.000000 0.037586
#
#
# Mechanical properties :
#
#
# Convention : Reuss Voigt Hill
#
# Bulk Modulus (GPa) = 23.12236 30.53826 26.83031
# Shear Modulus (GPa) = 14.52909 21.94254 18.23581
#
# Velocity S-wave (km/s) = 2.83031 3.47822 3.17086
# Velocity P-wave (km/s) = 4.84039 5.74178 5.31025
#
# Compressibility (1/GPa) = 0.04324819
#
# Stress axis : x y z
#
# Youngs Moduli (GPa) = 36.20896 96.51836 47.94893
#
# Poissons Ratio (x) = 0.02723 0.11270
# Poissons Ratio (y) = 0.01021 0.24743
# Poissons Ratio (z) = 0.08511 0.49806
#
# Static dielectric constant tensor:
#      x y z
#    x 1.658830 0.000000 0.000000 
#    y 0.000000 1.637130 0.000000 
#    z 0.000000 0.000000 1.636310 
# 
# From -- ./inp_files/1727.got.cif
#   From: 2010.05.17/outbox.cif.g08.bks.cpg/sg27_1_cif.got.tgz:1727.got - 2010.06.04 01:11:05.
