data_PCOD9338071
_publ_section_title
;
Structure prediction by ZEFSAII (Michael W. Deem and Ramdas Pophale) SiO2 
 PCOD9338071
Probable space group: P M C 21
;
_chemical_formula_sum "Si O2"
_cell_formula_units_Z 32
_cell_length_a 14.191468
_cell_length_b 6.108960
_cell_length_c 18.810115
_cell_angle_alpha 90.000000
_cell_angle_beta 90.000000
_cell_angle_gamma 90.000000
_cell_volume 1630.744996
_symmetry_space_group_name_H-M "P M C 21"
_symmetry_group_IT_number 26
_symmetry_cell_setting 'orthorhombic'
loop_
_space_group_symop_operation_xyz
x,y,z
-x,-y,1/2+z
-x,y,z
x,-y,1/2+z
loop_
_atom_site_type_symbol
_atom_site_label
_atom_site_fract_x
_atom_site_fract_y
_atom_site_fract_z
Si Si1 0.242978 0.383349 0.521120
Si Si2 0.106897 0.006443 0.815733
Si Si3 0.388469 0.951527 0.748557
Si Si4 0.740603 0.314265 0.146225
Si Si5 0.891152 0.979161 0.085137
Si Si6 0.098008 0.294064 0.953881
Si Si7 0.729005 0.704806 0.868937
Si Si8 0.746600 0.327198 0.762965
O O1 0.292006 0.545669 0.577449
O O2 0.176285 0.226920 0.568726
O O3 0.177905 0.543071 0.475158
O O4 0.293083 0.267845 0.453348
O O5 0.100468 0.186745 0.877660
O O6 0.172770 0.139809 0.761157
O O7 0.000000 0.947526 0.794122
O O8 0.168905 0.809636 0.848223
O O9 0.500000 0.938967 0.748465
O O10 0.341992 0.826949 0.681615
O O11 0.344287 0.839742 0.819556
O O12 0.349159 0.198309 0.746161
O O13 0.770090 0.488421 0.205925
O O14 0.829710 0.158613 0.128320
O O15 0.000000 0.937049 0.109860
O O16 0.900375 0.094077 0.008439
O O17 0.000000 0.419345 0.963224
O O18 0.730804 0.459129 0.836630
#
# Coordination Sequence:
#
# PCOD9338071 Si02
#       8
#     4   4   4   4   4   4   4   4
#     4  11  19  34  59  89 127 165 197 244 291 351
#     4  10  19  32  54  87 126 164 206 248 285 337
#     4  10  23  45  68  86 111 151 201 258 321 382
#     4  10  23  39  60  89 123 162 205 249 301 366
#     4  10  20  34  55  86 128 170 205 240 284 345
#     4   9  17  28  48  82 118 162 206 235 272 329
#     4  10  21  36  61  93 123 152 199 252 303 357
#     4  10  21  40  59  86 116 162 203 250 307 359
#
# _framework density 19.622934000000001
#
# number of rings (size 3 to 8) (size 9 to 14) (size 15 to 20)
#    0.000    2.000    2.500    1.125    0.000    4.000 
#    0.000    9.375    0.000    3.750    0.000    0.000 
#    0.000    0.000    0.000    0.000    0.000    0.000 
#
# Total GULP energy -178238.844991 kJ/mol
# GULP energy per Si atom -5569.963906 kJ/mol
# Density = 1.957827 g / cm^3
# Si number density = 19.622934 Si / 1000 Ang^3
#
#
#
# Elastic Constant Matrix: (Units=GPa)
#
#
# Indices 1 2 3 4 5 6 
#
# 1 105.4006 25.6233 31.7533 0.0000 0.0000 0.0000
# 2 25.6233 75.0776 29.1595 0.0000 0.0000 0.0000
# 3 31.7533 29.1595 94.9756 0.0000 0.0000 0.0000
# 4 0.0000 0.0000 0.0000 28.0158 0.0000 0.0000
# 5 0.0000 0.0000 0.0000 0.0000 12.3621 0.0000
# 6 0.0000 0.0000 0.0000 0.0000 0.0000 4.5603
#
#
#
# Elastic Compliance Matrix: (Units=1/GPa)
#
#
# Indices 1 2 3 4 5 6 
#
# 1 0.010992 -0.002639 -0.002865 0.000000 0.000000 0.000000
# 2 -0.002639 0.015756 -0.003955 0.000000 0.000000 0.000000
# 3 -0.002865 -0.003955 0.012701 0.000000 0.000000 0.000000
# 4 0.000000 0.000000 0.000000 0.035694 0.000000 0.000000
# 5 0.000000 0.000000 0.000000 0.000000 0.080892 0.000000
# 6 0.000000 0.000000 0.000000 0.000000 0.000000 0.219283
#
#
# Mechanical properties :
#
#
# Convention : Reuss Voigt Hill
#
# Bulk Modulus (GPa) = 48.70501 49.83623 49.27062
# Shear Modulus (GPa) = 12.46631 21.58218 17.02424
#
# Velocity S-wave (km/s) = 2.52324 3.31999 2.94865
# Velocity P-wave (km/s) = 5.77610 6.33628 6.06266
#
# Compressibility (1/GPa) = 0.02053177
#
# Stress axis : x y z
#
# Youngs Moduli (GPa) = 90.97361 63.46648 78.73282
#
# Poissons Ratio (x) = 0.16748 0.22556
# Poissons Ratio (y) = 0.24007 0.31141
# Poissons Ratio (z) = 0.26063 0.25103
#
# Static dielectric constant tensor:
#      x y z
#    x 1.693510 0.000000 0.000000 
#    y 0.000000 1.728840 0.000000 
#    z 0.000000 0.000000 1.787720 
# 
# From -- ./inp_files/5236.got.cif
#   From: 2010.05.17/outbox.cif.g08.bks.cpg/sg26_3_cif.got.tgz:5236.got - 2010.06.04 01:07:29.
