data_PCOD9338295
_publ_section_title
;
Structure prediction by ZEFSAII (Michael W. Deem and Ramdas Pophale) SiO2 
 PCOD9338295
Probable space group: P M C 21
;
_chemical_formula_sum "Si O2"
_cell_formula_units_Z 32
_cell_length_a 9.782823
_cell_length_b 29.019456
_cell_length_c 5.364019
_cell_angle_alpha 90.000000
_cell_angle_beta 90.000000
_cell_angle_gamma 90.000000
_cell_volume 1522.803163
_symmetry_space_group_name_H-M "P M C 21"
_symmetry_group_IT_number 26
_symmetry_cell_setting 'orthorhombic'
loop_
_space_group_symop_operation_xyz
x,y,z
-x,-y,1/2+z
-x,y,z
x,-y,1/2+z
loop_
_atom_site_type_symbol
_atom_site_label
_atom_site_fract_x
_atom_site_fract_y
_atom_site_fract_z
Si Si1 0.653087 0.249940 0.684840
Si Si2 0.159541 0.620732 0.432710
Si Si3 0.150953 0.108854 0.725821
Si Si4 0.152483 0.202220 0.014075
Si Si5 0.839827 0.680377 0.930417
Si Si6 0.835477 0.975961 0.557667
Si Si7 0.348803 0.154670 0.406806
Si Si8 0.336786 0.471137 0.954689
O O1 0.500000 0.267626 0.743983
O O2 0.730832 0.279050 0.474360
O O3 0.634726 0.197188 0.598762
O O4 0.762899 0.245039 0.906524
O O5 0.180696 0.647468 0.172000
O O6 0.255291 0.576420 0.447542
O O7 0.000000 0.606787 0.441521
O O8 0.182970 0.653210 0.673353
O O9 0.185969 0.075799 0.956821
O O10 0.274551 0.111449 0.533317
O O11 0.000000 0.094111 0.626786
O O12 0.135510 0.161653 0.810427
O O13 0.244203 0.176485 0.213768
O O14 0.000000 0.214919 0.098788
O O15 0.000000 0.695487 0.938660
O O16 0.000000 0.980774 0.573297
O O17 0.785003 0.991946 0.828021
O O18 0.500000 0.144379 0.305320
O O19 0.500000 0.462463 0.953511
O O20 0.304363 0.499099 0.207596
#
# Coordination Sequence:
#
# PCOD9338295 Si02
#       8
#     4   4   4   4   4   4   4   4
#     4  10  22  38  55  80 111 148 196 241 289 348
#     4  10  22  39  59  86 118 153 196 240 289 348
#     4   9  19  34  54  81 108 141 185 231 285 340
#     4  10  20  34  56  82 110 145 188 239 288 344
#     4  10  22  39  58  84 118 155 195 241 290 347
#     4   9  18  31  52  82 114 143 179 232 287 340
#     4  10  21  36  55  80 111 146 187 237 286 342
#     4  10  21  37  59  87 118 151 192 241 292 347
#
# _framework density 21.013878999999999
#
# number of rings (size 3 to 8) (size 9 to 14) (size 15 to 20)
#    0.000    2.250    0.000    1.875    3.500    3.500 
#    0.000    0.000    0.000    0.750    0.000    0.000 
#    0.000    0.000    0.000    0.000    0.000    0.000 
#
# Total GULP energy -178503.647600 kJ/mol
# GULP energy per Si atom -5578.238987 kJ/mol
# Density = 2.096605 g / cm^3
# Si number density = 21.013879 Si / 1000 Ang^3
#
#
#
# Elastic Constant Matrix: (Units=GPa)
#
#
# Indices 1 2 3 4 5 6 
#
# 1 111.9574 34.0421 29.8620 0.0000 0.0000 0.0000
# 2 34.0421 89.7962 25.3932 0.0000 0.0000 0.0000
# 3 29.8620 25.3932 93.5671 0.0000 0.0000 0.0000
# 4 0.0000 0.0000 0.0000 35.5629 0.0000 0.0000
# 5 0.0000 0.0000 0.0000 0.0000 5.7284 0.0000
# 6 0.0000 0.0000 0.0000 0.0000 0.0000 124.5879
#
#
#
# Elastic Compliance Matrix: (Units=1/GPa)
#
#
# Indices 1 2 3 4 5 6 
#
# 1 0.010603 -0.003317 -0.002484 0.000000 0.000000 0.000000
# 2 -0.003317 0.013100 -0.002496 0.000000 0.000000 0.000000
# 3 -0.002484 -0.002496 0.012158 0.000000 0.000000 0.000000
# 4 0.000000 0.000000 0.000000 0.028119 0.000000 0.000000
# 5 0.000000 0.000000 0.000000 0.000000 0.174569 0.000000
# 6 0.000000 0.000000 0.000000 0.000000 0.000000 0.008026
#
#
# Mechanical properties :
#
#
# Convention : Reuss Voigt Hill
#
# Bulk Modulus (GPa) = 51.90556 52.65725 52.28140
# Shear Modulus (GPa) = 18.54654 46.91074 32.72864
#
# Velocity S-wave (km/s) = 2.97406 4.72992 3.95077
# Velocity P-wave (km/s) = 6.04546 7.41230 6.76350
#
# Compressibility (1/GPa) = 0.01926576
#
# Stress axis : x y z
#
# Youngs Moduli (GPa) = 94.31195 76.33643 82.25233
#
# Poissons Ratio (x) = 0.25323 0.20429
# Poissons Ratio (y) = 0.31286 0.20534
# Poissons Ratio (z) = 0.23424 0.19057
#
# Static dielectric constant tensor:
#      x y z
#    x 1.821290 0.000000 0.000000 
#    y 0.000000 1.760510 0.000000 
#    z 0.000000 0.000000 1.821250 
# 
# From -- ./inp_files/223.got.cif
#   From: 2010.05.17/outbox.cif.g08.bks.cpg/sg26_1_cif.got.tgz:223.got - 2010.06.04 01:07:29.
