data_PCOD9338123
_publ_section_title
;
Structure prediction by ZEFSAII (Michael W. Deem and Ramdas Pophale) SiO2 
 PCOD9338123
Probable space group: P M C 21
;
_chemical_formula_sum "Si O2"
_cell_formula_units_Z 18
_cell_length_a 25.166495
_cell_length_b 5.364694
_cell_length_c 4.966355
_cell_angle_alpha 90.000000
_cell_angle_beta 90.000000
_cell_angle_gamma 90.000000
_cell_volume 670.510294
_symmetry_space_group_name_H-M "P M C 21"
_symmetry_group_IT_number 26
_symmetry_cell_setting 'orthorhombic'
loop_
_space_group_symop_operation_xyz
x,y,z
-x,-y,1/2+z
-x,y,z
x,-y,1/2+z
loop_
_atom_site_type_symbol
_atom_site_label
_atom_site_fract_x
_atom_site_fract_y
_atom_site_fract_z
Si Si1 0.165745 0.318055 0.562820
Si Si2 0.500000 0.365759 0.658792
Si Si3 0.390626 0.127637 0.456762
Si Si4 0.721891 0.657919 0.136431
Si Si5 0.057241 0.319514 0.421671
O O1 0.164098 0.544328 0.347997
O O2 0.224220 0.197213 0.551141
O O3 0.111411 0.174276 0.494305
O O4 0.500000 0.617185 0.479507
O O5 0.445193 0.245527 0.560742
O O6 0.334914 0.234882 0.558619
O O7 0.390839 0.126053 0.134829
O O8 0.724287 0.590413 0.450098
O O9 0.058161 0.445539 0.129063
O O10 0.000000 0.191287 0.460454
#
# Coordination Sequence:
#
# PCOD9338123 Si02
#       5
#     4   2   4   4   4
#     4   8  14  23  38  59  85 118 157 198 238 286
#     4  12  24  42  64  84 106 138 174 204 244 300
#     4  12  24  39  57  82 111 136 166 209 255 293
#     4  10  19  34  53  74 100 135 174 207 246 300
#     4   8  12  18  29  49  79 113 146 186 240 290
#
# _framework density 26.845226
#
# number of rings (size 3 to 8) (size 9 to 14) (size 15 to 20)
#    0.000    2.222    0.000    4.667    0.000    0.000 
#    0.000    0.000    0.000    0.000    0.000    0.000 
#    0.000    1.778    0.000    0.000    0.000   14.222 
#
# Total GULP energy -100482.587860 kJ/mol
# GULP energy per Si atom -5582.365992 kJ/mol
# Density = 2.678412 g / cm^3
# Si number density = 26.845226 Si / 1000 Ang^3
#
#
#
# Elastic Constant Matrix: (Units=GPa)
#
#
# Indices 1 2 3 4 5 6 
#
# 1 277.3635 17.2632 20.0034 0.0000 0.0000 0.0000
# 2 17.2632 22.1540 16.7073 0.0000 0.0000 0.0000
# 3 20.0034 16.7073 115.4863 0.0000 0.0000 0.0000
# 4 0.0000 0.0000 0.0000 45.1821 0.0000 0.0000
# 5 0.0000 0.0000 0.0000 0.0000 30.8172 0.0000
# 6 0.0000 0.0000 0.0000 0.0000 0.0000 -132.6708
#
#
#
# Elastic Compliance Matrix: (Units=1/GPa)
#
#
# Indices 1 2 3 4 5 6 
#
# 1 0.003796 -0.002764 -0.000258 0.000000 0.000000 0.000000
# 2 -0.002764 0.052679 -0.007142 0.000000 0.000000 0.000000
# 3 -0.000258 -0.007142 0.009737 0.000000 0.000000 0.000000
# 4 0.000000 0.000000 0.000000 0.022133 0.000000 0.000000
# 5 0.000000 0.000000 0.000000 0.000000 0.032449 0.000000
# 6 0.000000 0.000000 0.000000 0.000000 0.000000 -0.007537
#
#
# Mechanical properties :
#
#
# Convention : Reuss Voigt Hill
#
# Bulk Modulus (GPa) = 21.79397 58.10574 39.94986
# Shear Modulus (GPa) = 33.58456 12.73436 23.15946
#
# Velocity S-wave (km/s) = 3.54085 2.18035 2.94037
# Velocity P-wave (km/s) = 4.98526 5.29436 5.14213
#
# Compressibility (1/GPa) = 0.04588424
#
# Stress axis : x y z
#
# Youngs Moduli (GPa) = 263.43724 18.98307 102.70171
#
# Poissons Ratio (x) = 0.05246 0.02647
# Poissons Ratio (y) = 0.72804 0.73352
# Poissons Ratio (z) = 0.06789 0.13558
#
# Static dielectric constant tensor:
#      x y z
#    x 2.219260 0.000000 0.000000 
#    y 0.000000 2.206780 0.000000 
#    z 0.000000 0.000000 2.061720 
# 
# From -- ./inp_files/925.got.cif
#   From: 2010.05.17/outbox.cif.g08.bks.cpg/sg26_1_cif.got.tgz:925.got - 2010.06.04 01:07:29.
