data_PCOD9338712
_publ_section_title
;
Structure prediction by ZEFSAII (Michael W. Deem and Ramdas Pophale) SiO2 
 PCOD9338712
Probable space group: P C C 2
;
_chemical_formula_sum "Si O2"
_cell_formula_units_Z 24
_cell_length_a 27.739742
_cell_length_b 7.040441
_cell_length_c 5.391168
_cell_angle_alpha 90.000000
_cell_angle_beta 90.000000
_cell_angle_gamma 90.000000
_cell_volume 1052.895202
_symmetry_space_group_name_H-M "P C C 2"
_symmetry_group_IT_number 27
_symmetry_cell_setting 'orthorhombic'
loop_
_space_group_symop_operation_xyz
x,y,z
-x,-y,z
-x,y,1/2+z
x,-y,1/2+z
loop_
_atom_site_type_symbol
_atom_site_label
_atom_site_fract_x
_atom_site_fract_y
_atom_site_fract_z
Si Si1 0.328910 0.212002 0.966480
Si Si2 0.229346 0.627159 0.362902
Si Si3 0.632214 0.217833 0.966886
Si Si4 0.122908 0.377430 0.834825
Si Si5 0.981224 0.720975 0.968371
Si Si6 0.519575 0.216136 0.958804
O O1 0.273391 0.227995 0.889414
O O2 0.359411 0.299623 0.740545
O O3 0.348147 0.997669 0.996076
O O4 0.337877 0.299895 0.237063
O O5 0.233163 0.488486 0.603604
O O6 0.175567 0.715452 0.364857
O O7 0.576062 0.215488 0.902445
O O8 0.121139 0.468115 0.559824
O O9 0.073719 0.265673 0.878694
O O10 0.000000 0.500000 0.995449
O O11 0.013350 0.799315 0.744544
O O12 0.490420 0.300176 0.728923
O O13 0.500000 0.000000 0.985040
#
# Coordination Sequence:
#
# PCOD9338712 Si02
#       6
#     4   4   4   4   4   4
#     4  10  18  32  46  65  91 120 156 184 221 264
#     4  10  21  32  45  62  90 125 158 188 217 255
#     4  10  19  30  50  71  94 119 141 186 229 263
#     4  10  16  25  36  54  78 109 145 172 213 255
#     4  10  14  20  34  52  73 101 138 165 210 264
#     4  10  16  25  41  68 102 112 125 164 229 300
#
# _framework density 22.79429
#
# number of rings (size 3 to 8) (size 9 to 14) (size 15 to 20)
#    0.000    2.000    3.333    6.000    0.000    0.000 
#    0.000    0.000    0.000    0.000    0.000    0.000 
#    0.000  162.667    0.000   18.000    0.000    0.000 
#
# Total GULP energy -133879.545919 kJ/mol
# GULP energy per Si atom -5578.314413 kJ/mol
# Density = 2.274241 g / cm^3
# Si number density = 22.794290 Si / 1000 Ang^3
#
#
#
# Elastic Constant Matrix: (Units=GPa)
#
#
# Indices 1 2 3 4 5 6 
#
# 1 133.2358 -20.4737 -29.5602 0.0000 0.0000 0.0000
# 2 -20.4737 56.1829 -21.2971 0.0000 0.0000 0.0000
# 3 -29.5602 -21.2971 148.8027 0.0000 0.0000 0.0000
# 4 0.0000 0.0000 0.0000 -10.4224 0.0000 0.0000
# 5 0.0000 0.0000 0.0000 0.0000 42.0341 0.0000
# 6 0.0000 0.0000 0.0000 0.0000 0.0000 20.0567
#
#
#
# Elastic Compliance Matrix: (Units=1/GPa)
#
#
# Indices 1 2 3 4 5 6 
#
# 1 0.008630 0.004012 0.002289 0.000000 0.000000 0.000000
# 2 0.004012 0.020686 0.003758 0.000000 0.000000 0.000000
# 3 0.002289 0.003758 0.007713 0.000000 0.000000 0.000000
# 4 0.000000 0.000000 0.000000 -0.095947 0.000000 0.000000
# 5 0.000000 0.000000 0.000000 0.000000 0.023790 0.000000
# 6 0.000000 0.000000 0.000000 0.000000 0.000000 0.049859
#
#
# Mechanical properties :
#
#
# Convention : Reuss Voigt Hill
#
# Bulk Modulus (GPa) = 17.49925 21.72881 19.61403
# Shear Modulus (GPa) = 366.00856 37.63718 201.82287
#
# Velocity S-wave (km/s) = 12.68538 4.06786 9.41983
# Velocity P-wave (km/s) = 14.90812 5.62287 11.26652
#
# Compressibility (1/GPa) = 0.05714530
#
# Stress axis : x y z
#
# Youngs Moduli (GPa) = 115.87745 48.34291 129.65535
#
# Poissons Ratio (x) = -0.19397 -0.29673
# Poissons Ratio (y) = -0.46494 -0.48720
# Poissons Ratio (z) = -0.26520 -0.18166
#
# Static dielectric constant tensor:
#      x y z
#    x 1.815090 0.000000 0.000000 
#    y 0.000000 1.666240 0.000000 
#    z 0.000000 0.000000 1.937770 
# 
# From -- ./inp_files/177.got.cif
#   From: 2010.05.17/outbox.cif.g08.bks.cpg/sg27_1_cif.got.tgz:177.got - 2010.06.04 01:11:05.
