data_PCOD9338515
_publ_section_title
;
Structure prediction by ZEFSAII (Michael W. Deem and Ramdas Pophale) SiO2 
 PCOD9338515
Probable space group: P M C 21
;
_chemical_formula_sum "Si O2"
_cell_formula_units_Z 24
_cell_length_a 8.944356
_cell_length_b 9.968144
_cell_length_c 11.508528
_cell_angle_alpha 90.000000
_cell_angle_beta 90.000000
_cell_angle_gamma 90.000000
_cell_volume 1026.084574
_symmetry_space_group_name_H-M "P M C 21"
_symmetry_group_IT_number 26
_symmetry_cell_setting 'orthorhombic'
loop_
_space_group_symop_operation_xyz
x,y,z
-x,-y,1/2+z
-x,y,z
x,-y,1/2+z
loop_
_atom_site_type_symbol
_atom_site_label
_atom_site_fract_x
_atom_site_fract_y
_atom_site_fract_z
Si Si1 0.825318 0.529810 0.785430
Si Si2 0.164294 0.175784 0.220958
Si Si3 0.323801 0.524016 0.029182
Si Si4 0.837491 0.876371 0.321098
Si Si5 0.171980 0.207320 0.563058
Si Si6 0.333517 0.068598 0.023483
O O1 0.822752 0.692349 0.796637
O O2 0.752323 0.511087 0.655602
O O3 0.000000 0.488262 0.780870
O O4 0.749872 0.474978 0.905400
O O5 0.294842 0.166849 0.127981
O O6 0.000000 0.182742 0.163194
O O7 0.168060 0.033799 0.285930
O O8 0.500000 0.493152 0.031433
O O9 0.291442 0.683693 0.025294
O O10 0.827594 0.794318 0.203325
O O11 0.701585 0.854151 0.406069
O O12 0.000000 0.850749 0.375524
O O13 0.000000 0.234167 0.526524
O O14 0.221138 0.057007 0.530771
O O15 0.500000 0.017366 0.030403
#
# Coordination Sequence:
#
# PCOD9338515 Si02
#       6
#     4   4   4   4   4   4
#     4  11  24  45  71  95 124 170 222 264 315 388
#     4   9  20  38  60  84 113 155 205 252 299 364
#     4  12  26  44  67  97 131 165 210 272 332 378
#     4   9  18  34  57  84 116 155 200 249 300 363
#     4  10  21  39  61  84 116 161 209 252 303 375
#     4  11  21  32  54  88 124 158 194 247 313 372
#
# _framework density 23.389886000000001
#
# number of rings (size 3 to 8) (size 9 to 14) (size 15 to 20)
#    0.000    1.667    0.000    6.000    0.000    7.333 
#    0.000    1.667    0.000    0.000    0.000    0.000 
#    0.000    0.000    0.000    0.000    0.000    0.000 
#
# Total GULP energy -133970.031584 kJ/mol
# GULP energy per Si atom -5582.084649 kJ/mol
# Density = 2.333665 g / cm^3
# Si number density = 23.389886 Si / 1000 Ang^3
#
#
#
# Elastic Constant Matrix: (Units=GPa)
#
#
# Indices 1 2 3 4 5 6 
#
# 1 125.4562 -14.7829 64.2180 0.0000 0.0000 0.0000
# 2 -14.7829 49.1580 -5.9870 0.0000 0.0000 0.0000
# 3 64.2180 -5.9870 153.5629 0.0000 0.0000 0.0000
# 4 0.0000 0.0000 0.0000 4.5042 0.0000 0.0000
# 5 0.0000 0.0000 0.0000 0.0000 119.1745 0.0000
# 6 0.0000 0.0000 0.0000 0.0000 0.0000 26.3961
#
#
#
# Elastic Compliance Matrix: (Units=1/GPa)
#
#
# Indices 1 2 3 4 5 6 
#
# 1 0.010469 0.002628 -0.004276 0.000000 0.000000 0.000000
# 2 0.002628 0.021099 -0.000276 0.000000 0.000000 0.000000
# 3 -0.004276 -0.000276 0.008289 0.000000 0.000000 0.000000
# 4 0.000000 0.000000 0.000000 0.222016 0.000000 0.000000
# 5 0.000000 0.000000 0.000000 0.000000 0.008391 0.000000
# 6 0.000000 0.000000 0.000000 0.000000 0.000000 0.037884
#
#
# Mechanical properties :
#
#
# Convention : Reuss Voigt Hill
#
# Bulk Modulus (GPa) = 27.77091 46.11926 36.94508
# Shear Modulus (GPa) = 15.43209 48.99689 32.21449
#
# Velocity S-wave (km/s) = 2.57140 4.58185 3.71520
# Velocity P-wave (km/s) = 4.55137 6.91025 5.85092
#
# Compressibility (1/GPa) = 0.03600890
#
# Stress axis : x y z
#
# Youngs Moduli (GPa) = 95.51919 47.39540 120.63862
#
# Poissons Ratio (x) = -0.12453 0.51580
# Poissons Ratio (y) = -0.25098 0.03332
# Poissons Ratio (z) = 0.40840 0.01309
#
# Static dielectric constant tensor:
#      x y z
#    x 1.803950 0.000000 0.000000 
#    y 0.000000 1.902510 0.000000 
#    z 0.000000 0.000000 2.081940 
# 
# From -- ./inp_files/2829.got.cif
#   From: 2010.05.17/outbox.cif.g08.bks.cpg/sg26_2_cif.got.tgz:2829.got - 2010.06.04 01:07:29.
