data_PCOD9338395
_publ_section_title
;
Structure prediction by ZEFSAII (Michael W. Deem and Ramdas Pophale) SiO2 
 PCOD9338395
Probable space group: P M C 21
;
_chemical_formula_sum "Si O2"
_cell_formula_units_Z 20
_cell_length_a 10.085582
_cell_length_b 9.599710
_cell_length_c 9.837813
_cell_angle_alpha 90.000000
_cell_angle_beta 90.000000
_cell_angle_gamma 90.000000
_cell_volume 952.483895
_symmetry_space_group_name_H-M "P M C 21"
_symmetry_group_IT_number 26
_symmetry_cell_setting 'orthorhombic'
loop_
_space_group_symop_operation_xyz
x,y,z
-x,-y,1/2+z
-x,y,z
x,-y,1/2+z
loop_
_atom_site_type_symbol
_atom_site_label
_atom_site_fract_x
_atom_site_fract_y
_atom_site_fract_z
Si Si1 0.270875 0.751771 0.627620
Si Si2 0.645305 0.300673 0.421201
Si Si3 0.345963 0.047686 0.625020
Si Si4 0.350311 0.709348 0.323126
Si Si5 0.849366 0.475021 0.291013
O O1 0.361139 0.737832 0.761816
O O2 0.331343 0.709174 0.484339
O O3 0.157770 0.642962 0.673151
O O4 0.248317 0.917341 0.616915
O O5 0.500000 0.356606 0.462639
O O6 0.672647 0.163663 0.508676
O O7 0.769478 0.405051 0.417867
O O8 0.500000 0.998975 0.612065
O O9 0.333956 0.135339 0.763980
O O10 0.500000 0.664369 0.288683
O O11 0.242525 0.607118 0.257507
O O12 0.000000 0.511653 0.320746
#
# Coordination Sequence:
#
# PCOD9338395 Si02
#       5
#     4   4   4   4   4
#     4  10  22  38  65  91 126 162 208 258 316 371
#     4   9  19  36  63  91 123 160 203 254 309 367
#     4  10  20  37  64 101 130 156 199 262 322 369
#     4  11  23  38  66  99 125 160 211 263 313 371
#     4  10  25  43  60  86 128 172 211 255 308 370
#
# _framework density 20.997729
#
# number of rings (size 3 to 8) (size 9 to 14) (size 15 to 20)
#    1.200    0.800    0.000    3.600    2.800    4.000 
#    0.000    2.000    0.000    0.000    0.000    0.000 
#    0.000    0.000    0.000    0.000    0.000    0.000 
#
# Total GULP energy -111394.065985 kJ/mol
# GULP energy per Si atom -5569.703299 kJ/mol
# Density = 2.094994 g / cm^3
# Si number density = 20.997729 Si / 1000 Ang^3
#
#
#
# Elastic Constant Matrix: (Units=GPa)
#
#
# Indices 1 2 3 4 5 6 
#
# 1 122.5424 47.7319 10.9010 0.0000 0.0000 0.0000
# 2 47.7319 102.9646 6.6721 0.0000 0.0000 0.0000
# 3 10.9010 6.6721 103.4186 0.0000 0.0000 0.0000
# 4 0.0000 0.0000 0.0000 25.1986 0.0000 0.0000
# 5 0.0000 0.0000 0.0000 0.0000 11.6635 0.0000
# 6 0.0000 0.0000 0.0000 0.0000 0.0000 -11.3110
#
#
#
# Elastic Compliance Matrix: (Units=1/GPa)
#
#
# Indices 1 2 3 4 5 6 
#
# 1 0.010018 -0.004595 -0.000759 0.000000 0.000000 0.000000
# 2 -0.004595 0.011860 -0.000281 0.000000 0.000000 0.000000
# 3 -0.000759 -0.000281 0.009768 0.000000 0.000000 0.000000
# 4 0.000000 0.000000 0.000000 0.039685 0.000000 0.000000
# 5 0.000000 0.000000 0.000000 0.000000 0.085738 0.000000
# 6 0.000000 0.000000 0.000000 0.000000 0.000000 -0.088409
#
#
# Mechanical properties :
#
#
# Convention : Reuss Voigt Hill
#
# Bulk Modulus (GPa) = 49.07876 51.05949 50.06913
# Shear Modulus (GPa) = 57.65645 22.68494 40.17069
#
# Velocity S-wave (km/s) = 5.24576 3.29044 4.37864
# Velocity P-wave (km/s) = 7.75337 6.22940 7.03279
#
# Compressibility (1/GPa) = 0.02037541
#
# Stress axis : x y z
#
# Youngs Moduli (GPa) = 99.82313 84.31497 102.37911
#
# Poissons Ratio (x) = 0.38741 0.07776
# Poissons Ratio (y) = 0.45866 0.02875
# Poissons Ratio (z) = 0.07582 0.02368
#
# Static dielectric constant tensor:
#      x y z
#    x 1.648360 0.000000 0.000000 
#    y 0.000000 1.801180 0.000000 
#    z 0.000000 0.000000 1.792710 
# 
# From -- ./inp_files/2708.got.cif
#   From: 2010.05.17/outbox.cif.g08.bks.cpg/sg26_2_cif.got.tgz:2708.got - 2010.06.04 01:07:29.
