data_PCOD9338266
_publ_section_title
;
Structure prediction by ZEFSAII (Michael W. Deem and Ramdas Pophale) SiO2 
 PCOD9338266
Probable space group: P M C 21
;
_chemical_formula_sum "Si O2"
_cell_formula_units_Z 32
_cell_length_a 9.583259
_cell_length_b 28.946189
_cell_length_c 5.441084
_cell_angle_alpha 90.000000
_cell_angle_beta 90.000000
_cell_angle_gamma 90.000000
_cell_volume 1509.350315
_symmetry_space_group_name_H-M "P M C 21"
_symmetry_group_IT_number 26
_symmetry_cell_setting 'orthorhombic'
loop_
_space_group_symop_operation_xyz
x,y,z
-x,-y,1/2+z
-x,y,z
x,-y,1/2+z
loop_
_atom_site_type_symbol
_atom_site_label
_atom_site_fract_x
_atom_site_fract_y
_atom_site_fract_z
Si Si1 0.337508 0.470914 0.697890
Si Si2 0.829593 0.025947 0.629407
Si Si3 0.845380 0.305617 0.706005
Si Si4 0.845218 0.598845 0.938702
Si Si5 0.345679 0.354403 0.102271
Si Si6 0.168906 0.186225 0.105098
Si Si7 0.343796 0.741300 0.865343
Si Si8 0.168360 0.132026 0.608856
O O1 0.500000 0.455739 0.686766
O O2 0.316429 0.503047 0.455688
O O3 0.227834 0.429801 0.654534
O O4 0.782314 0.079119 0.622810
O O5 0.000000 0.026068 0.629462
O O6 0.786437 0.000747 0.881488
O O7 0.863382 0.347595 0.512721
O O8 0.764324 0.262487 0.590087
O O9 0.000000 0.292503 0.793163
O O10 0.751560 0.330515 0.904884
O O11 0.000000 0.580893 0.876605
O O12 0.732251 0.602320 0.722028
O O13 0.500000 0.366415 0.011143
O O14 0.363127 0.312267 0.293895
O O15 0.261927 0.231482 0.153399
O O16 0.208277 0.160471 0.852923
O O17 0.000000 0.194638 0.106479
O O18 0.202838 0.155359 0.347696
O O19 0.500000 0.759838 0.914038
O O20 0.000000 0.130522 0.616045
#
# Coordination Sequence:
#
# PCOD9338266 Si02
#       8
#     4   4   4   4   4   4   4   4
#     4  10  23  42  63  90 122 160 201 241 291 353
#     4   9  15  24  42  68 101 140 177 223 281 341
#     4  10  21  37  59  86 115 147 189 240 293 350
#     4  10  22  39  59  87 118 151 192 241 293 347
#     4  10  21  37  59  84 113 149 190 241 291 343
#     4  10  20  34  52  75 108 150 186 230 283 341
#     4  10  22  38  54  79 109 146 194 240 287 341
#     4   9  18  31  47  73 108 145 187 228 283 348
#
# _framework density 21.201174999999999
#
# number of rings (size 3 to 8) (size 9 to 14) (size 15 to 20)
#    0.000    2.250    0.000    2.250    3.500    6.500 
#    0.000    0.000    0.000    0.000    0.000    0.000 
#    0.000   10.000    0.000    0.000    0.000    0.000 
#
# Total GULP energy -178486.283454 kJ/mol
# GULP energy per Si atom -5577.696358 kJ/mol
# Density = 2.115292 g / cm^3
# Si number density = 21.201175 Si / 1000 Ang^3
#
#
#
# Elastic Constant Matrix: (Units=GPa)
#
#
# Indices 1 2 3 4 5 6 
#
# 1 111.5773 23.4574 25.4786 0.0000 0.0000 0.0000
# 2 23.4574 98.4729 40.5623 0.0000 0.0000 0.0000
# 3 25.4786 40.5623 110.5503 0.0000 0.0000 0.0000
# 4 0.0000 0.0000 0.0000 46.2663 0.0000 0.0000
# 5 0.0000 0.0000 0.0000 0.0000 13.7467 0.0000
# 6 0.0000 0.0000 0.0000 0.0000 0.0000 22.0450
#
#
#
# Elastic Compliance Matrix: (Units=1/GPa)
#
#
# Indices 1 2 3 4 5 6 
#
# 1 0.009678 -0.001634 -0.001631 0.000000 0.000000 0.000000
# 2 -0.001634 0.012239 -0.004114 0.000000 0.000000 0.000000
# 3 -0.001631 -0.004114 0.010931 0.000000 0.000000 0.000000
# 4 0.000000 0.000000 0.000000 0.021614 0.000000 0.000000
# 5 0.000000 0.000000 0.000000 0.000000 0.072745 0.000000
# 6 0.000000 0.000000 0.000000 0.000000 0.000000 0.045362
#
#
# Mechanical properties :
#
#
# Convention : Reuss Voigt Hill
#
# Bulk Modulus (GPa) = 55.27747 55.51079 55.39413
# Shear Modulus (GPa) = 25.85892 31.81841 28.83867
#
# Velocity S-wave (km/s) = 3.49620 3.87820 3.69214
# Velocity P-wave (km/s) = 6.51362 6.80394 6.66037
#
# Compressibility (1/GPa) = 0.01809055
#
# Stress axis : x y z
#
# Youngs Moduli (GPa) = 103.32383 81.70684 91.48201
#
# Poissons Ratio (x) = 0.13347 0.14922
# Poissons Ratio (y) = 0.16879 0.37637
# Poissons Ratio (z) = 0.16854 0.33615
#
# Static dielectric constant tensor:
#      x y z
#    x 1.825340 0.000000 0.000000 
#    y 0.000000 1.802690 0.000000 
#    z 0.000000 0.000000 1.822630 
# 
# From -- ./inp_files/230.got.cif
#   From: 2010.05.17/outbox.cif.g08.bks.cpg/sg26_1_cif.got.tgz:230.got - 2010.06.04 01:07:29.
