data_PCOD9338062
_publ_section_title
;
Structure prediction by ZEFSAII (Michael W. Deem and Ramdas Pophale) SiO2 
 PCOD9338062
Probable space group: P M C 21
;
_chemical_formula_sum "Si O2"
_cell_formula_units_Z 32
_cell_length_a 8.438545
_cell_length_b 11.867383
_cell_length_c 16.630344
_cell_angle_alpha 90.000000
_cell_angle_beta 90.000000
_cell_angle_gamma 90.000000
_cell_volume 1665.419948
_symmetry_space_group_name_H-M "P M C 21"
_symmetry_group_IT_number 26
_symmetry_cell_setting 'orthorhombic'
loop_
_space_group_symop_operation_xyz
x,y,z
-x,-y,1/2+z
-x,y,z
x,-y,1/2+z
loop_
_atom_site_type_symbol
_atom_site_label
_atom_site_fract_x
_atom_site_fract_y
_atom_site_fract_z
Si Si1 0.690154 0.313531 0.856870
Si Si2 0.319415 0.747256 0.783521
Si Si3 0.179665 0.399893 0.154741
Si Si4 0.185569 0.782805 0.520190
Si Si5 0.693276 0.435187 0.404281
Si Si6 0.310276 0.384286 0.588254
Si Si7 0.811901 0.067213 0.168601
Si Si8 0.309785 0.817059 0.196369
O O1 0.500000 0.322150 0.850457
O O2 0.730411 0.239409 0.935723
O O3 0.748893 0.442787 0.871205
O O4 0.747049 0.250275 0.776129
O O5 0.500000 0.778238 0.801900
O O6 0.307296 0.654757 0.712994
O O7 0.248698 0.675578 0.856813
O O8 0.236237 0.854326 0.743895
O O9 0.216447 0.529308 0.143760
O O10 0.000000 0.379045 0.184079
O O11 0.194249 0.333666 0.070632
O O12 0.248571 0.875649 0.584640
O O13 0.000000 0.806504 0.504386
O O14 0.500000 0.435275 0.396817
O O15 0.730895 0.415362 0.497269
O O16 0.500000 0.402264 0.598231
O O17 0.274514 0.259443 0.618527
O O18 0.000000 0.071336 0.161948
O O19 0.756798 0.941243 0.184577
O O20 0.500000 0.826338 0.203293
#
# Coordination Sequence:
#
# PCOD9338062 Si02
#       8
#     4   4   4   4   4   4   4   4
#     4  10  19  34  57  86 115 142 183 233 282 338
#     4  10  19  34  58  83 111 145 185 234 282 328
#     4  10  19  32  52  82 116 146 184 225 276 340
#     4   9  19  35  55  80 109 143 185 231 274 331
#     4   9  18  33  56  88 117 142 178 228 283 338
#     4  10  19  35  58  81 113 150 186 229 281 336
#     4  10  22  41  59  78 111 149 193 237 282 344
#     4  10  22  38  57  84 114 149 194 239 282 337
#
# _framework density 19.214372999999998
#
# number of rings (size 3 to 8) (size 9 to 14) (size 15 to 20)
#    0.000    2.250    1.250    2.625    0.000    5.500 
#    2.250    3.750    0.000    0.000    0.000    0.000 
#    0.000    0.000    0.000    0.000    0.000    0.000 
#
# Total GULP energy -178359.147787 kJ/mol
# GULP energy per Si atom -5573.723368 kJ/mol
# Density = 1.917064 g / cm^3
# Si number density = 19.214373 Si / 1000 Ang^3
#
#
#
# Elastic Constant Matrix: (Units=GPa)
#
#
# Indices 1 2 3 4 5 6 
#
# 1 9.7345 22.5429 11.5264 0.0000 0.0000 0.0000
# 2 22.5429 153.4413 48.7946 0.0000 0.0000 0.0000
# 3 11.5264 48.7946 61.4807 0.0000 0.0000 0.0000
# 4 0.0000 0.0000 0.0000 23.1641 0.0000 0.0000
# 5 0.0000 0.0000 0.0000 0.0000 11.4653 0.0000
# 6 0.0000 0.0000 0.0000 0.0000 0.0000 13.3182
#
#
#
# Elastic Compliance Matrix: (Units=1/GPa)
#
#
# Indices 1 2 3 4 5 6 
#
# 1 0.166405 -0.019431 -0.015776 0.000000 0.000000 0.000000
# 2 -0.019431 0.010986 -0.005076 0.000000 0.000000 0.000000
# 3 -0.015776 -0.005076 0.023252 0.000000 0.000000 0.000000
# 4 0.000000 0.000000 0.000000 0.043170 0.000000 0.000000
# 5 0.000000 0.000000 0.000000 0.000000 0.087220 0.000000
# 6 0.000000 0.000000 0.000000 0.000000 0.000000 0.075085
#
#
# Mechanical properties :
#
#
# Convention : Reuss Voigt Hill
#
# Bulk Modulus (GPa) = 8.32802 43.37603 25.85202
# Shear Modulus (GPa) = 9.49289 19.04238 14.26763
#
# Velocity S-wave (km/s) = 2.22514 3.15151 2.72793
# Velocity P-wave (km/s) = 3.30837 5.98886 4.83796
#
# Compressibility (1/GPa) = 0.12007659
#
# Stress axis : x y z
#
# Youngs Moduli (GPa) = 6.00943 91.02416 43.00730
#
# Poissons Ratio (x) = 1.76865 0.67850
# Poissons Ratio (y) = 0.11677 0.21832
# Poissons Ratio (z) = 0.09481 0.46207
#
# Static dielectric constant tensor:
#      x y z
#    x 1.676400 0.000000 0.000000 
#    y 0.000000 1.657390 0.000000 
#    z 0.000000 0.000000 1.708430 
# 
# From -- ./inp_files/5038.got.cif
#   From: 2010.05.17/outbox.cif.g08.bks.cpg/sg26_3_cif.got.tgz:5038.got - 2010.06.04 01:07:29.
