data_PCOD9338005
_publ_section_title
;
Structure prediction by ZEFSAII (Michael W. Deem and Ramdas Pophale) SiO2 
 PCOD9338005
Probable space group: P M C 21
;
_chemical_formula_sum "Si O2"
_cell_formula_units_Z 24
_cell_length_a 30.047133
_cell_length_b 6.686966
_cell_length_c 5.174478
_cell_angle_alpha 90.000000
_cell_angle_beta 90.000000
_cell_angle_gamma 90.000000
_cell_volume 1039.677629
_symmetry_space_group_name_H-M "P M C 21"
_symmetry_group_IT_number 26
_symmetry_cell_setting 'orthorhombic'
loop_
_space_group_symop_operation_xyz
x,y,z
-x,-y,1/2+z
-x,y,z
x,-y,1/2+z
loop_
_atom_site_type_symbol
_atom_site_label
_atom_site_fract_x
_atom_site_fract_y
_atom_site_fract_z
Si Si1 0.139471 0.704418 0.866030
Si Si2 0.358112 0.866002 0.292456
Si Si3 0.731485 0.628087 0.184723
Si Si4 0.451919 0.138999 0.682830
Si Si5 0.049454 0.139366 0.205900
Si Si6 0.824334 0.254682 0.868109
O O1 0.090021 0.709120 0.752366
O O2 0.170617 0.817647 0.659892
O O3 0.161231 0.488212 0.913490
O O4 0.140834 0.803902 0.147134
O O5 0.314584 0.737882 0.239523
O O6 0.405041 0.753634 0.236188
O O7 0.357582 0.046100 0.081837
O O8 0.733695 0.445266 0.389910
O O9 0.774904 0.756658 0.257288
O O10 0.500000 0.243759 0.712706
O O11 0.451209 0.037223 0.400225
O O12 0.000000 0.231330 0.224653
O O13 0.052670 0.973419 0.432692
#
# Coordination Sequence:
#
# PCOD9338005 Si02
#       6
#     4   4   4   4   4   4
#     4  10  18  35  56  77  98 133 174 217 242 307
#     4  10  21  36  54  84 115 141 189 244 279 329
#     4  12  21  38  60  78 112 159 189 222 290 348
#     4   8  14  27  49  74 103 140 180 227 281 329
#     4  10  21  37  55  78 110 141 166 205 268 328
#     4  10  19  35  56  73 100 132 178 219 254 303
#
# _framework density 23.084078000000002
#
# number of rings (size 3 to 8) (size 9 to 14) (size 15 to 20)
#    0.000    2.000    3.333    2.000    0.000    0.000 
#    0.000    8.333    0.000    1.000    0.000    0.000 
#    0.000    0.000    0.000    0.000    0.000    0.000 
#
# Total GULP energy -133884.015539 kJ/mol
# GULP energy per Si atom -5578.500647 kJ/mol
# Density = 2.303154 g / cm^3
# Si number density = 23.084078 Si / 1000 Ang^3
#
#
#
# Elastic Constant Matrix: (Units=GPa)
#
#
# Indices 1 2 3 4 5 6 
#
# 1 194.8447 1.0050 -15.4355 0.0000 0.0000 0.0000
# 2 1.0050 30.7975 -19.8695 0.0000 0.0000 0.0000
# 3 -15.4355 -19.8695 125.4426 0.0000 0.0000 0.0000
# 4 0.0000 0.0000 0.0000 -15.0221 0.0000 0.0000
# 5 0.0000 0.0000 0.0000 0.0000 33.6382 0.0000
# 6 0.0000 0.0000 0.0000 0.0000 0.0000 19.7599
#
#
#
# Elastic Compliance Matrix: (Units=1/GPa)
#
#
# Indices 1 2 3 4 5 6 
#
# 1 0.005185 0.000270 0.000681 0.000000 0.000000 0.000000
# 2 0.000270 0.036180 0.005764 0.000000 0.000000 0.000000
# 3 0.000681 0.005764 0.008969 0.000000 0.000000 0.000000
# 4 0.000000 0.000000 0.000000 -0.066569 0.000000 0.000000
# 5 0.000000 0.000000 0.000000 0.000000 0.029728 0.000000
# 6 0.000000 0.000000 0.000000 0.000000 0.000000 0.050608
#
#
# Mechanical properties :
#
#
# Convention : Reuss Voigt Hill
#
# Bulk Modulus (GPa) = 15.68312 31.38719 23.53516
# Shear Modulus (GPa) = 69.51660 33.36751 51.44205
#
# Velocity S-wave (km/s) = 5.49362 3.80607 4.72578
# Velocity P-wave (km/s) = 6.85919 5.73945 6.32415
#
# Compressibility (1/GPa) = 0.06376283
#
# Stress axis : x y z
#
# Youngs Moduli (GPa) = 192.87040 27.63955 111.50107
#
# Poissons Ratio (x) = -0.00746 -0.07590
# Poissons Ratio (y) = -0.05208 -0.64269
# Poissons Ratio (z) = -0.13130 -0.15931
#
# Static dielectric constant tensor:
#      x y z
#    x 1.900260 0.000000 0.000000 
#    y 0.000000 2.352390 0.000000 
#    z 0.000000 0.000000 1.922550 
# 
# From -- ./inp_files/942.got.cif
#   From: 2010.05.17/outbox.cif.g08.bks.cpg/sg26_1_cif.got.tgz:942.got - 2010.06.04 01:07:29.
