data_PCOD9338842
_publ_section_title
;
Structure prediction by ZEFSAII (Michael W. Deem and Ramdas Pophale) SiO2 
 PCOD9338842
Probable space group: P C C 2
;
_chemical_formula_sum "Si O2"
_cell_formula_units_Z 22
_cell_length_a 6.943398
_cell_length_b 13.428657
_cell_length_c 9.263282
_cell_angle_alpha 90.000000
_cell_angle_beta 90.000000
_cell_angle_gamma 90.000000
_cell_volume 863.713139
_symmetry_space_group_name_H-M "P C C 2"
_symmetry_group_IT_number 27
_symmetry_cell_setting 'orthorhombic'
loop_
_space_group_symop_operation_xyz
x,y,z
-x,-y,z
-x,y,1/2+z
x,-y,1/2+z
loop_
_atom_site_type_symbol
_atom_site_label
_atom_site_fract_x
_atom_site_fract_y
_atom_site_fract_z
Si Si1 0.879774 0.627484 0.102590
Si Si2 0.810634 0.162730 0.520494
Si Si3 0.500000 0.500000 0.344297
Si Si4 0.500000 0.000000 0.108533
Si Si5 0.336446 0.642410 0.090428
Si Si6 0.792249 0.844571 0.690375
Si Si7 0.000000 0.500000 0.363368
O O1 0.766995 0.729554 0.093488
O O2 0.431466 0.589549 0.953870
O O3 0.105125 0.644285 0.074763
O O4 0.887173 0.574172 0.256272
O O5 0.639890 0.081658 0.530705
O O6 0.851635 0.185369 0.352186
O O7 0.014106 0.133815 0.597491
O O8 0.395059 0.573130 0.224521
O O9 0.152873 0.554413 0.468048
O O10 0.658286 0.059437 0.198480
O O11 0.347663 0.759827 0.123894
#
# Coordination Sequence:
#
# PCOD9338842 Si02
#       7
#     4   4   2   2   4   4   2
#     4  10  20  40  66 107 146 201 249 308 371 463
#     4  11  26  50  79 111 154 196 261 323 391 467
#     4  10  22  42  66 108 160 210 250 308 366 468
#     4  12  28  50  82 110 146 200 262 336 406 454
#     4  10  22  41  67 105 153 204 254 303 380 449
#     4  11  27  51  77 116 151 201 256 327 394 466
#     4  10  20  36  66 108 148 198 250 298 378 458
#
# _framework density 25.471418
#
# number of rings (size 3 to 8) (size 9 to 14) (size 15 to 20)
#    0.000    1.455    0.000    4.364    2.545    5.818 
#   13.091    0.000    0.000    0.000    0.000    0.000 
#    0.000    0.000    0.000    0.000    0.000    0.000 
#
# Total GULP energy -122804.543643 kJ/mol
# GULP energy per Si atom -5582.024711 kJ/mol
# Density = 2.541344 g / cm^3
# Si number density = 25.471418 Si / 1000 Ang^3
#
#
#
# Elastic Constant Matrix: (Units=GPa)
#
#
# Indices 1 2 3 4 5 6 
#
# 1 142.0431 56.6417 68.3641 0.0000 0.0000 0.0000
# 2 56.6417 148.3433 30.9573 0.0000 0.0000 0.0000
# 3 68.3641 30.9573 134.2873 0.0000 0.0000 0.0000
# 4 0.0000 0.0000 0.0000 3.7735 0.0000 0.0000
# 5 0.0000 0.0000 0.0000 0.0000 12.2409 0.0000
# 6 0.0000 0.0000 0.0000 0.0000 0.0000 61.5743
#
#
#
# Elastic Compliance Matrix: (Units=1/GPa)
#
#
# Indices 1 2 3 4 5 6 
#
# 1 0.010482 -0.003035 -0.004637 0.000000 0.000000 0.000000
# 2 -0.003035 0.007960 -0.000290 0.000000 0.000000 0.000000
# 3 -0.004637 -0.000290 0.009874 0.000000 0.000000 0.000000
# 4 0.000000 0.000000 0.000000 0.265003 0.000000 0.000000
# 5 0.000000 0.000000 0.000000 0.000000 0.081694 0.000000
# 6 0.000000 0.000000 0.000000 0.000000 0.000000 0.016241
#
#
# Mechanical properties :
#
#
# Convention : Reuss Voigt Hill
#
# Bulk Modulus (GPa) = 80.68838 81.84445 81.26641
# Shear Modulus (GPa) = 12.15637 33.43178 22.79407
#
# Velocity S-wave (km/s) = 2.18699 3.62680 2.99471
# Velocity P-wave (km/s) = 6.17446 7.05265 6.62812
#
# Compressibility (1/GPa) = 0.01239336
#
# Stress axis : x y z
#
# Youngs Moduli (GPa) = 95.40384 125.62189 101.27564
#
# Poissons Ratio (x) = 0.38122 0.46957
# Poissons Ratio (y) = 0.28952 0.02939
# Poissons Ratio (z) = 0.44235 0.03646
#
# Static dielectric constant tensor:
#      x y z
#    x 2.458590 0.000000 0.000000 
#    y 0.000000 2.330540 0.000000 
#    z 0.000000 0.000000 2.025140 
# 
# From -- ./inp_files/2022.got.cif
#   From: 2010.05.17/outbox.cif.g08.bks.cpg/sg27_2_cif.got.tgz:2022.got - 2010.06.04 01:11:05.
