data_PCOD9338358
_publ_section_title
;
Structure prediction by ZEFSAII (Michael W. Deem and Ramdas Pophale) SiO2 
 PCOD9338358
Probable space group: P M C 21
;
_chemical_formula_sum "Si O2"
_cell_formula_units_Z 32
_cell_length_a 8.682872
_cell_length_b 12.175920
_cell_length_c 15.836165
_cell_angle_alpha 90.000000
_cell_angle_beta 90.000000
_cell_angle_gamma 90.000000
_cell_volume 1674.230321
_symmetry_space_group_name_H-M "P M C 21"
_symmetry_group_IT_number 26
_symmetry_cell_setting 'orthorhombic'
loop_
_space_group_symop_operation_xyz
x,y,z
-x,-y,1/2+z
-x,y,z
x,-y,1/2+z
loop_
_atom_site_type_symbol
_atom_site_label
_atom_site_fract_x
_atom_site_fract_y
_atom_site_fract_z
Si Si1 0.315196 0.645097 0.937520
Si Si2 0.814109 0.003540 0.848595
Si Si3 0.315581 0.001452 0.536820
Si Si4 0.184083 0.771680 0.775891
Si Si5 0.814380 0.246028 0.786452
Si Si6 0.815507 0.225543 0.597607
Si Si7 0.685876 0.390810 0.937214
Si Si8 0.314398 0.756665 0.595094
O O1 0.500000 0.650582 0.935234
O O2 0.249320 0.704192 0.854745
O O3 0.266841 0.517695 0.939323
O O4 0.256614 0.706962 0.020830
O O5 0.769133 0.121260 0.810794
O O6 0.000000 0.002457 0.858934
O O7 0.772102 0.899676 0.790668
O O8 0.737369 0.988936 0.939779
O O9 0.500000 0.011996 0.541902
O O10 0.270245 0.880961 0.569634
O O11 0.236795 0.099447 0.587893
O O12 0.247788 0.731035 0.686710
O O13 0.000000 0.764659 0.776302
O O14 0.767515 0.268168 0.689947
O O15 0.746399 0.328726 0.854689
O O16 0.000000 0.251211 0.790358
O O17 0.000000 0.230401 0.591488
O O18 0.500000 0.386962 0.935811
O O19 0.737501 0.325036 0.020821
O O20 0.500000 0.752303 0.599059
#
# Coordination Sequence:
#
# PCOD9338358 Si02
#       8
#     4   4   4   4   4   4   4   4
#     4  11  24  42  63  86 116 158 205 252 302 354
#     4  10  20  36  59  88 123 158 191 239 300 357
#     4  11  21  35  61  92 122 158 197 242 296 356
#     4  11  23  39  62  91 122 159 197 242 301 359
#     4  10  22  39  62  91 122 157 197 243 297 358
#     4  11  23  40  61  89 125 159 197 246 298 359
#     4  10  23  43  63  85 118 158 202 253 302 350
#     4  10  22  40  61  90 124 157 196 245 296 355
#
# _framework density 19.113261000000001
#
# number of rings (size 3 to 8) (size 9 to 14) (size 15 to 20)
#    0.000    1.500    2.500    2.250    0.000    6.000 
#    0.000    3.750    0.000    0.000    0.000    0.000 
#    0.000    0.000    0.000    0.000    0.000    0.000 
#
# Total GULP energy -178878.633736 kJ/mol
# GULP energy per Si atom -5589.957304 kJ/mol
# Density = 1.906976 g / cm^3
# Si number density = 19.113261 Si / 1000 Ang^3
#
#
#
# Elastic Constant Matrix: (Units=GPa)
#
#
# Indices 1 2 3 4 5 6 
#
# 1 15.7359 23.1971 17.8312 0.0000 0.0000 0.0000
# 2 23.1971 119.5150 37.3555 0.0000 0.0000 0.0000
# 3 17.8312 37.3555 116.7747 0.0000 0.0000 0.0000
# 4 0.0000 0.0000 0.0000 0.4731 0.0000 0.0000
# 5 0.0000 0.0000 0.0000 0.0000 36.5475 0.0000
# 6 0.0000 0.0000 0.0000 0.0000 0.0000 19.3048
#
#
#
# Elastic Compliance Matrix: (Units=1/GPa)
#
#
# Indices 1 2 3 4 5 6 
#
# 1 0.098345 -0.015993 -0.009901 0.000000 0.000000 0.000000
# 2 -0.015993 0.011898 -0.001364 0.000000 0.000000 0.000000
# 3 -0.009901 -0.001364 0.010512 0.000000 0.000000 0.000000
# 4 0.000000 0.000000 0.000000 2.113911 0.000000 0.000000
# 5 0.000000 0.000000 0.000000 0.000000 0.027362 0.000000
# 6 0.000000 0.000000 0.000000 0.000000 0.000000 0.051801
#
#
# Mechanical properties :
#
#
# Convention : Reuss Voigt Hill
#
# Bulk Modulus (GPa) = 15.09713 45.42146 30.25930
# Shear Modulus (GPa) = 2.09168 22.84119 12.46643
#
# Velocity S-wave (km/s) = 1.04725 3.46069 2.55667
# Velocity P-wave (km/s) = 3.06239 6.30749 4.95796
#
# Compressibility (1/GPa) = 0.06623774
#
# Stress axis : x y z
#
# Youngs Moduli (GPa) = 10.16832 84.05016 95.13293
#
# Poissons Ratio (x) = 1.34426 0.94189
# Poissons Ratio (y) = 0.16263 0.12974
# Poissons Ratio (z) = 0.10067 0.11463
#
# Static dielectric constant tensor:
#      x y z
#    x 1.644480 0.000000 0.000000 
#    y 0.000000 1.654950 0.000000 
#    z 0.000000 0.000000 1.638600 
# 
# From -- ./inp_files/4212.got.cif
#   From: 2010.05.17/outbox.cif.g08.bks.cpg/sg26_3_cif.got.tgz:4212.got - 2010.06.04 01:07:29.
