data_PCOD9338605
_publ_section_title
;
Structure prediction by ZEFSAII (Michael W. Deem and Ramdas Pophale) SiO2 
 PCOD9338605
Probable space group: P M C 21
;
_chemical_formula_sum "Si O2"
_cell_formula_units_Z 16
_cell_length_a 11.768073
_cell_length_b 4.888272
_cell_length_c 10.015596
_cell_angle_alpha 90.000000
_cell_angle_beta 90.000000
_cell_angle_gamma 90.000000
_cell_volume 576.152586
_symmetry_space_group_name_H-M "P M C 21"
_symmetry_group_IT_number 26
_symmetry_cell_setting 'orthorhombic'
loop_
_space_group_symop_operation_xyz
x,y,z
-x,-y,1/2+z
-x,y,z
x,-y,1/2+z
loop_
_atom_site_type_symbol
_atom_site_label
_atom_site_fract_x
_atom_site_fract_y
_atom_site_fract_z
Si Si1 0.874104 0.082428 0.970100
Si Si2 0.128268 0.419987 0.292133
Si Si3 0.305589 0.785923 0.141503
Si Si4 0.500000 0.144063 0.215663
Si Si5 0.500000 0.513522 0.970879
O O1 0.860964 0.891181 0.839398
O O2 0.000000 0.021139 0.023142
O O3 0.869241 0.394944 0.926058
O O4 0.778101 0.995172 0.069891
O O5 0.229851 0.551520 0.209104
O O6 0.000000 0.459902 0.235773
O O7 0.387586 0.654053 0.030973
O O8 0.389509 0.956210 0.238119
O O9 0.500000 0.231743 0.057944
O O10 0.500000 0.406397 0.313800
#
# Coordination Sequence:
#
# PCOD9338605 Si02
#       5
#     4   4   4   2   2
#     4  10  23  42  70 107 147 188 241 306 378 458
#     4  10  23  42  69 107 147 188 241 304 379 458
#     4  11  25  44  73 101 147 197 258 312 387 456
#     4  11  28  50  69 114 142 212 260 330 386 455
#     4  11  28  46  75 102 152 196 268 324 384 455
#
# _framework density 27.770420000000001
#
# number of rings (size 3 to 8) (size 9 to 14) (size 15 to 20)
#    0.000    1.500    0.000    2.250   10.500    4.000 
#    0.000    7.500    0.000    0.000    0.000    0.000 
#    0.000    0.000    0.000    0.000    0.000    0.000 
#
# Total GULP energy -89821.043005 kJ/mol
# GULP energy per Si atom -5613.815188 kJ/mol
# Density = 2.770721 g / cm^3
# Si number density = 27.770420 Si / 1000 Ang^3
#
#
#
# Elastic Constant Matrix: (Units=GPa)
#
#
# Indices 1 2 3 4 5 6 
#
# 1 201.2077 21.3382 63.0112 0.0000 0.0000 0.0000
# 2 21.3382 107.1327 30.1524 0.0000 0.0000 0.0000
# 3 63.0112 30.1524 96.1536 0.0000 0.0000 0.0000
# 4 0.0000 0.0000 0.0000 55.0972 0.0000 0.0000
# 5 0.0000 0.0000 0.0000 0.0000 39.1420 0.0000
# 6 0.0000 0.0000 0.0000 0.0000 0.0000 16.4332
#
#
#
# Elastic Compliance Matrix: (Units=1/GPa)
#
#
# Indices 1 2 3 4 5 6 
#
# 1 0.006254 -0.000101 -0.004067 0.000000 0.000000 0.000000
# 2 -0.000101 0.010239 -0.003145 0.000000 0.000000 0.000000
# 3 -0.004067 -0.003145 0.014051 0.000000 0.000000 0.000000
# 4 0.000000 0.000000 0.000000 0.018150 0.000000 0.000000
# 5 0.000000 0.000000 0.000000 0.000000 0.025548 0.000000
# 6 0.000000 0.000000 0.000000 0.000000 0.000000 0.060853
#
#
# Mechanical properties :
#
#
# Convention : Reuss Voigt Hill
#
# Bulk Modulus (GPa) = 62.81529 70.38863 66.60196
# Shear Modulus (GPa) = 32.25241 41.46729 36.85985
#
# Velocity S-wave (km/s) = 3.41162 3.86841 3.64717
# Velocity P-wave (km/s) = 6.17960 6.73457 6.46305
#
# Compressibility (1/GPa) = 0.01591969
#
# Stress axis : x y z
#
# Youngs Moduli (GPa) = 159.88983 97.66172 71.16805
#
# Poissons Ratio (x) = 0.00987 0.28943
# Poissons Ratio (y) = 0.01616 0.22380
# Poissons Ratio (z) = 0.65025 0.30712
#
# Static dielectric constant tensor:
#      x y z
#    x 2.100150 0.000000 0.000000 
#    y 0.000000 2.100610 0.000000 
#    z 0.000000 0.000000 2.211190 
# 
# From -- ./inp_files/3159.got.cif
#   From: 2010.05.17/outbox.cif.g08.bks.cpg/sg26_2_cif.got.tgz:3159.got - 2010.06.04 01:07:29.
