data_PCOD9338061
_publ_section_title
;
Structure prediction by ZEFSAII (Michael W. Deem and Ramdas Pophale) SiO2 
 PCOD9338061
Probable space group: P M C 21
;
_chemical_formula_sum "Si O2"
_cell_formula_units_Z 32
_cell_length_a 7.647864
_cell_length_b 11.017212
_cell_length_c 14.523877
_cell_angle_alpha 90.000000
_cell_angle_beta 90.000000
_cell_angle_gamma 90.000000
_cell_volume 1223.754848
_symmetry_space_group_name_H-M "P M C 21"
_symmetry_group_IT_number 26
_symmetry_cell_setting 'orthorhombic'
loop_
_space_group_symop_operation_xyz
x,y,z
-x,-y,1/2+z
-x,y,z
x,-y,1/2+z
loop_
_atom_site_type_symbol
_atom_site_label
_atom_site_fract_x
_atom_site_fract_y
_atom_site_fract_z
Si Si1 0.709687 0.691430 0.985460
Si Si2 0.299158 0.948468 0.534810
Si Si3 0.795883 0.075629 0.713478
Si Si4 0.715286 0.462919 0.866016
Si Si5 0.211052 0.298617 0.141417
Si Si6 0.791029 0.162687 0.317570
Si Si7 0.295020 0.564477 0.159102
Si Si8 0.295632 0.797300 0.379932
O O1 0.500000 0.684011 0.992287
O O2 0.774550 0.578753 0.923003
O O3 0.745823 0.808425 0.922663
O O4 0.778723 0.664404 0.088117
O O5 0.500000 0.984631 0.523812
O O6 0.225397 0.046157 0.606371
O O7 0.282439 0.817177 0.585916
O O8 0.216541 0.910152 0.436858
O O9 0.721002 0.958188 0.768391
O O10 0.000000 0.085222 0.731231
O O11 0.715216 0.185950 0.770015
O O12 0.500000 0.465725 0.866058
O O13 0.780112 0.455788 0.760676
O O14 0.774457 0.333776 0.907095
O O15 0.265584 0.270224 0.247739
O O16 0.278327 0.430586 0.113450
O O17 0.000000 0.296172 0.135568
O O18 0.000000 0.156962 0.311777
O O19 0.500000 0.589976 0.171384
O O20 0.500000 0.797997 0.403261
#
# Coordination Sequence:
#
# PCOD9338061 Si02
#       8
#     4   4   4   4   4   4   4   4
#     4  10  19  32  54  82 108 143 186 225 276 337
#     4  10  20  36  61  88 112 147 199 247 287 341
#     4  10  22  40  60  84 116 150 189 240 296 351
#     4   9  18  34  54  80 115 146 180 235 286 330
#     4  10  19  32  53  81 113 147 187 232 278 336
#     4   9  19  35  53  75 106 141 179 227 277 328
#     4  10  19  32  52  79 111 149 186 225 281 342
#     4  10  21  39  61  85 115 153 196 241 291 345
#
# _framework density 26.149027
#
# number of rings (size 3 to 8) (size 9 to 14) (size 15 to 20)
#    0.000    2.250    1.250    2.625    0.000    6.000 
#    2.250    1.250    0.000    0.000    0.000    0.000 
#    0.000    0.000    0.000    0.000    0.000    0.000 
#
# Total GULP energy -178862.829328 kJ/mol
# GULP energy per Si atom -5589.463417 kJ/mol
# Density = 2.608951 g / cm^3
# Si number density = 26.149027 Si / 1000 Ang^3
#
#
#
# Elastic Constant Matrix: (Units=GPa)
#
#
# Indices 1 2 3 4 5 6 
#
# 1 67.0001 -4.4293 -2.9961 0.0000 0.0000 0.0000
# 2 -4.4293 80.8713 9.1794 0.0000 0.0000 0.0000
# 3 -2.9961 9.1794 136.4122 0.0000 0.0000 0.0000
# 4 0.0000 0.0000 0.0000 49.1747 0.0000 0.0000
# 5 0.0000 0.0000 0.0000 0.0000 1.5295 0.0000
# 6 0.0000 0.0000 0.0000 0.0000 0.0000 -81.1764
#
#
#
# Elastic Compliance Matrix: (Units=1/GPa)
#
#
# Indices 1 2 3 4 5 6 
#
# 1 0.014990 0.000790 0.000276 0.000000 0.000000 0.000000
# 2 0.000790 0.012502 -0.000824 0.000000 0.000000 0.000000
# 3 0.000276 -0.000824 0.007392 0.000000 0.000000 0.000000
# 4 0.000000 0.000000 0.000000 0.020336 0.000000 0.000000
# 5 0.000000 0.000000 0.000000 0.000000 0.653799 0.000000
# 6 0.000000 0.000000 0.000000 0.000000 0.000000 -0.012319
#
#
# Mechanical properties :
#
#
# Convention : Reuss Voigt Hill
#
# Bulk Modulus (GPa) = 28.27426 31.97684 30.12555
# Shear Modulus (GPa) = 7.06209 12.74088 9.90149
#
# Velocity S-wave (km/s) = 1.64517 2.20975 1.94802
# Velocity P-wave (km/s) = 3.80065 4.33196 4.07498
#
# Compressibility (1/GPa) = 0.03536785
#
# Stress axis : x y z
#
# Youngs Moduli (GPa) = 66.71162 79.98656 135.27719
#
# Poissons Ratio (x) = -0.06316 -0.03735
# Poissons Ratio (y) = -0.05268 0.11146
# Poissons Ratio (z) = -0.01842 0.06590
#
# Static dielectric constant tensor:
#      x y z
#    x 1.934510 0.000000 0.000000 
#    y 0.000000 2.099520 0.000000 
#    z 0.000000 0.000000 2.138500 
# 
# From -- ./inp_files/4143.got.cif
#   From: 2010.05.17/outbox.cif.g08.bks.cpg/sg26_3_cif.got.tgz:4143.got - 2010.06.04 01:07:29.
