data_PCOD9338462
_publ_section_title
;
Structure prediction by ZEFSAII (Michael W. Deem and Ramdas Pophale) SiO2 
 PCOD9338462
Probable space group: P M C 21
;
_chemical_formula_sum "Si O2"
_cell_formula_units_Z 32
_cell_length_a 14.130542
_cell_length_b 7.417546
_cell_length_c 13.250326
_cell_angle_alpha 90.000000
_cell_angle_beta 90.000000
_cell_angle_gamma 90.000000
_cell_volume 1388.818944
_symmetry_space_group_name_H-M "P M C 21"
_symmetry_group_IT_number 26
_symmetry_cell_setting 'orthorhombic'
loop_
_space_group_symop_operation_xyz
x,y,z
-x,-y,1/2+z
-x,y,z
x,-y,1/2+z
loop_
_atom_site_type_symbol
_atom_site_label
_atom_site_fract_x
_atom_site_fract_y
_atom_site_fract_z
Si Si1 0.891810 0.218610 0.750000
Si Si2 0.386802 0.313734 0.587137
Si Si3 0.102731 0.187381 0.321573
Si Si4 0.107275 0.644057 0.026273
Si Si5 0.392406 0.019970 0.733383
Si Si6 0.697516 0.732514 0.871985
Si Si7 0.393899 0.735189 0.551630
Si Si8 0.749356 0.380666 0.908768
O O1 0.871604 0.281453 0.636518
O O2 0.817825 0.298655 0.827334
O O3 0.000000 0.276230 0.773801
O O4 0.890649 0.003671 0.767658
O O5 0.500000 0.273334 0.570661
O O6 0.325608 0.243797 0.491653
O O7 0.379812 0.530265 0.593206
O O8 0.355189 0.205890 0.686683
O O9 0.104441 0.191453 0.444671
O O10 0.202247 0.285077 0.309950
O O11 0.000000 0.268803 0.293302
O O12 0.181430 0.497910 0.983561
O O13 0.000000 0.568170 0.026939
O O14 0.500000 0.052730 0.763645
O O15 0.345363 0.906928 0.821240
O O16 0.389622 0.879805 0.639950
O O17 0.670411 0.521140 0.865528
O O18 0.500000 0.742721 0.507789
O O19 0.310205 0.761379 0.472343
#
# Coordination Sequence:
#
# PCOD9338462 Si02
#       8
#     4   4   4   4   4   4   4   4
#     4  10  21  38  60  87 118 155 201 249 300 371
#     4   9  19  38  60  85 120 156 190 241 300 351
#     4   9  20  38  57  82 115 154 197 245 300 356
#     4   9  19  38  60  82 117 156 191 247 308 354
#     4  10  21  38  61  87 118 154 200 245 293 358
#     4  10  21  36  58  86 113 154 194 245 290 354
#     4   9  20  38  58  83 120 158 194 244 299 352
#     4  10  21  36  60  86 119 151 197 244 300 360
#
# _framework density 23.041162
#
# number of rings (size 3 to 8) (size 9 to 14) (size 15 to 20)
#    0.000    2.500    0.000    0.750    3.500    4.000 
#    0.000    0.000    0.000    6.000    0.000    0.000 
#    0.000    0.000    0.000    0.000    0.000    0.000 
#
# Total GULP energy -178275.905538 kJ/mol
# GULP energy per Si atom -5571.122048 kJ/mol
# Density = 2.298872 g / cm^3
# Si number density = 23.041162 Si / 1000 Ang^3
#
#
#
# Elastic Constant Matrix: (Units=GPa)
#
#
# Indices 1 2 3 4 5 6 
#
# 1 65.2940 9.5366 13.4736 0.0000 0.0000 0.0000
# 2 9.5366 53.7476 12.7269 0.0000 0.0000 0.0000
# 3 13.4736 12.7269 50.8439 0.0000 0.0000 0.0000
# 4 0.0000 0.0000 0.0000 34.1273 0.0000 0.0000
# 5 0.0000 0.0000 0.0000 0.0000 25.5323 0.0000
# 6 0.0000 0.0000 0.0000 0.0000 0.0000 30.9010
#
#
#
# Elastic Compliance Matrix: (Units=1/GPa)
#
#
# Indices 1 2 3 4 5 6 
#
# 1 0.016401 -0.001999 -0.003846 0.000000 0.000000 0.000000
# 2 -0.001999 0.020022 -0.004482 0.000000 0.000000 0.000000
# 3 -0.003846 -0.004482 0.021809 0.000000 0.000000 0.000000
# 4 0.000000 0.000000 0.000000 0.029302 0.000000 0.000000
# 5 0.000000 0.000000 0.000000 0.000000 0.039166 0.000000
# 6 0.000000 0.000000 0.000000 0.000000 0.000000 0.032361
#
#
# Mechanical properties :
#
#
# Convention : Reuss Voigt Hill
#
# Bulk Modulus (GPa) = 26.61166 26.81773 26.71470
# Shear Modulus (GPa) = 26.00905 27.05535 26.53220
#
# Velocity S-wave (km/s) = 3.36342 3.43040 3.39708
# Velocity P-wave (km/s) = 5.16315 5.23016 5.19676
#
# Compressibility (1/GPa) = 0.03757751
#
# Stress axis : x y z
#
# Youngs Moduli (GPa) = 60.97203 49.94629 45.85261
#
# Poissons Ratio (x) = 0.09986 0.17634
# Poissons Ratio (y) = 0.12191 0.20550
# Poissons Ratio (z) = 0.23448 0.22385
#
# Static dielectric constant tensor:
#      x y z
#    x 1.980840 0.000000 0.000000 
#    y 0.000000 1.887700 0.000000 
#    z 0.000000 0.000000 1.879870 
# 
# From -- ./inp_files/3590.got.cif
#   From: 2010.05.17/outbox.cif.g08.bks.cpg/sg26_2_cif.got.tgz:3590.got - 2010.06.04 01:07:29.
