data_PCOD9338599
_publ_section_title
;
Structure prediction by ZEFSAII (Michael W. Deem and Ramdas Pophale) SiO2 
 PCOD9338599
Probable space group: P M C 21
;
_chemical_formula_sum "Si O2"
_cell_formula_units_Z 16
_cell_length_a 10.610232
_cell_length_b 8.254905
_cell_length_c 7.687499
_cell_angle_alpha 90.000000
_cell_angle_beta 90.000000
_cell_angle_gamma 90.000000
_cell_volume 673.320802
_symmetry_space_group_name_H-M "P M C 21"
_symmetry_group_IT_number 26
_symmetry_cell_setting 'orthorhombic'
loop_
_space_group_symop_operation_xyz
x,y,z
-x,-y,1/2+z
-x,y,z
x,-y,1/2+z
loop_
_atom_site_type_symbol
_atom_site_label
_atom_site_fract_x
_atom_site_fract_y
_atom_site_fract_z
Si Si1 0.000000 0.921383 0.773571
Si Si2 0.500000 0.739053 0.379643
Si Si3 0.000000 0.737772 0.405212
Si Si4 0.500000 0.068478 0.515359
Si Si5 0.750513 0.238059 0.409365
Si Si6 0.751655 0.425867 0.776445
O O1 0.000000 0.828819 0.589810
O O2 0.873561 0.867390 0.872771
O O3 0.000000 0.115430 0.766049
O O4 0.375021 0.632394 0.372700
O O5 0.500000 0.874996 0.526735
O O6 0.500000 0.844560 0.201755
O O7 0.877180 0.629089 0.376607
O O8 0.626749 0.127992 0.420012
O O9 0.757059 0.335539 0.591450
O O10 0.745153 0.380629 0.267422
#
# Coordination Sequence:
#
# PCOD9338599 Si02
#       6
#     2   2   2   2   4   4
#     4  12  25  42  63  90 122 160 202 250 301 358
#     4  10  23  40  62  90 122 158 201 248 301 358
#     4  12  25  42  63  90 122 160 202 250 301 358
#     4  10  23  40  62  90 122 158 201 248 301 358
#     4  11  23  41  63  91 123 160 202 249 301 358
#     4  11  23  41  63  91 123 160 202 249 301 358
#
# _framework density 23.762820999999999
#
# number of rings (size 3 to 8) (size 9 to 14) (size 15 to 20)
#    0.000    1.000    0.000    6.750    0.000    8.000 
#    0.000    0.000    0.000    0.000    0.000    0.000 
#    0.000    0.000    0.000    0.000    0.000    0.000 
#
# Total GULP energy -89711.096651 kJ/mol
# GULP energy per Si atom -5606.943541 kJ/mol
# Density = 2.370874 g / cm^3
# Si number density = 23.762821 Si / 1000 Ang^3
#
#
#
# Elastic Constant Matrix: (Units=GPa)
#
#
# Indices 1 2 3 4 5 6 
#
# 1 187.0022 29.2324 20.2921 0.0000 0.0000 0.0000
# 2 29.2324 70.9136 -27.5158 0.0000 0.0000 0.0000
# 3 20.2921 -27.5158 68.0192 0.0000 0.0000 0.0000
# 4 0.0000 0.0000 0.0000 38.7459 0.0000 0.0000
# 5 0.0000 0.0000 0.0000 0.0000 14.4512 0.0000
# 6 0.0000 0.0000 0.0000 0.0000 0.0000 45.5925
#
#
#
# Elastic Compliance Matrix: (Units=1/GPa)
#
#
# Indices 1 2 3 4 5 6 
#
# 1 0.006349 -0.003976 -0.003503 0.000000 0.000000 0.000000
# 2 -0.003976 0.019218 0.008960 0.000000 0.000000 0.000000
# 3 -0.003503 0.008960 0.019371 0.000000 0.000000 0.000000
# 4 0.000000 0.000000 0.000000 0.025809 0.000000 0.000000
# 5 0.000000 0.000000 0.000000 0.000000 0.069199 0.000000
# 6 0.000000 0.000000 0.000000 0.000000 0.000000 0.021933
#
#
# Mechanical properties :
#
#
# Convention : Reuss Voigt Hill
#
# Bulk Modulus (GPa) = 20.87647 41.10581 30.99114
# Shear Modulus (GPa) = 28.59038 40.01967 34.30503
#
# Velocity S-wave (km/s) = 3.47242 4.10827 3.80365
# Velocity P-wave (km/s) = 4.98812 6.31187 5.68863
#
# Compressibility (1/GPa) = 0.04790082
#
# Stress axis : x y z
#
# Youngs Moduli (GPa) = 157.49951 52.03544 51.62230
#
# Poissons Ratio (x) = 0.20692 0.18082
# Poissons Ratio (y) = 0.62629 -0.46256
# Poissons Ratio (z) = 0.55168 -0.46626
#
# Static dielectric constant tensor:
#      x y z
#    x 1.821230 0.000000 0.000000 
#    y 0.000000 1.828500 0.000000 
#    z 0.000000 0.000000 1.971440 
# 
# From -- ./inp_files/1190.got.cif
#   From: 2010.05.17/outbox.cif.g08.bks.cpg/sg26_1_cif.got.tgz:1190.got - 2010.06.04 01:07:29.
