data_PCOD9338305
_publ_section_title
;
Structure prediction by ZEFSAII (Michael W. Deem and Ramdas Pophale) SiO2 
 PCOD9338305
Probable space group: P M C 21
;
_chemical_formula_sum "Si O2"
_cell_formula_units_Z 32
_cell_length_a 7.734710
_cell_length_b 12.881051
_cell_length_c 15.239101
_cell_angle_alpha 90.000000
_cell_angle_beta 90.000000
_cell_angle_gamma 90.000000
_cell_volume 1518.289828
_symmetry_space_group_name_H-M "P M C 21"
_symmetry_group_IT_number 26
_symmetry_cell_setting 'orthorhombic'
loop_
_space_group_symop_operation_xyz
x,y,z
-x,-y,1/2+z
-x,y,z
x,-y,1/2+z
loop_
_atom_site_type_symbol
_atom_site_label
_atom_site_fract_x
_atom_site_fract_y
_atom_site_fract_z
Si Si1 0.201109 0.375521 0.495020
Si Si2 0.291169 0.223711 0.649656
Si Si3 0.296822 0.219577 0.347602
Si Si4 0.712525 0.771485 0.350617
Si Si5 0.287179 0.229141 0.149404
Si Si6 0.708093 0.616420 0.499732
Si Si7 0.300823 0.002037 0.859034
Si Si8 0.699769 0.998651 0.644872
O O1 0.246066 0.315125 0.584087
O O2 0.285038 0.312961 0.414964
O O3 0.246206 0.496145 0.499533
O O4 0.000000 0.365879 0.479701
O O5 0.500000 0.215303 0.651965
O O6 0.233733 0.242995 0.749613
O O7 0.224498 0.110120 0.618777
O O8 0.500000 0.197099 0.334946
O O9 0.230119 0.244446 0.250149
O O10 0.222597 0.109733 0.383232
O O11 0.500000 0.774502 0.350821
O O12 0.768492 0.679623 0.414195
O O13 0.773386 0.885491 0.382644
O O14 0.500000 0.227696 0.147976
O O15 0.227883 0.113789 0.120096
O O16 0.230303 0.319741 0.084704
O O17 0.500000 0.622029 0.499811
O O18 0.500000 0.004540 0.890575
O O19 0.301586 0.000775 0.751901
O O20 0.500000 0.997990 0.615200
#
# Coordination Sequence:
#
# PCOD9338305 Si02
#       8
#     4   4   4   4   4   4   4   4
#     4  12  26  39  48  66 100 139 183 226 257 290
#     4   9  17  33  57  81 105 134 166 202 251 310
#     4   9  17  33  57  81 105 134 166 202 251 310
#     4   8  15  29  54  86 111 129 157 204 256 306
#     4   8  15  29  54  86 111 129 157 204 256 306
#     4  10  20  35  54  76 102 133 173 214 251 298
#     4   7  11  23  48  83 112 127 149 193 248 303
#     4   7  11  23  48  83 112 127 149 193 248 303
#
# _framework density 21.076345
#
# number of rings (size 3 to 8) (size 9 to 14) (size 15 to 20)
#    0.000    3.250    0.000    4.125    0.000    2.000 
#    0.000   10.000    0.000    9.750    0.000    0.000 
#    0.000    0.000    0.000    0.000    0.000    0.000 
#
# Total GULP energy -178378.789036 kJ/mol
# GULP energy per Si atom -5574.337157 kJ/mol
# Density = 2.102837 g / cm^3
# Si number density = 21.076345 Si / 1000 Ang^3
#
#
#
# Elastic Constant Matrix: (Units=GPa)
#
#
# Indices 1 2 3 4 5 6 
#
# 1 25.4201 -7.4987 -5.9745 0.0000 0.0000 0.0000
# 2 -7.4987 208.1147 79.9028 0.0000 0.0000 0.0000
# 3 -5.9745 79.9028 88.8988 0.0000 0.0000 0.0000
# 4 0.0000 0.0000 0.0000 35.8384 0.0000 0.0000
# 5 0.0000 0.0000 0.0000 0.0000 182.1924 0.0000
# 6 0.0000 0.0000 0.0000 0.0000 0.0000 -51.8263
#
#
#
# Elastic Compliance Matrix: (Units=1/GPa)
#
#
# Indices 1 2 3 4 5 6 
#
# 1 0.040023 0.000625 0.002128 0.000000 0.000000 0.000000
# 2 0.000625 0.007347 -0.006561 0.000000 0.000000 0.000000
# 3 0.002128 -0.006561 0.017289 0.000000 0.000000 0.000000
# 4 0.000000 0.000000 0.000000 0.027903 0.000000 0.000000
# 5 0.000000 0.000000 0.000000 0.000000 0.005489 0.000000
# 6 0.000000 0.000000 0.000000 0.000000 0.000000 -0.019295
#
#
# Mechanical properties :
#
#
# Convention : Reuss Voigt Hill
#
# Bulk Modulus (GPa) = 17.53069 50.58810 34.05939
# Shear Modulus (GPa) = 47.44455 50.30783 48.87619
#
# Velocity S-wave (km/s) = 4.74970 4.89093 4.82083
# Velocity P-wave (km/s) = 6.19801 7.47993 6.86894
#
# Compressibility (1/GPa) = 0.05704282
#
# Stress axis : x y z
#
# Youngs Moduli (GPa) = 24.98536 136.11638 57.84016
#
# Poissons Ratio (x) = -0.08509 -0.12308
# Poissons Ratio (y) = -0.01562 0.37950
# Poissons Ratio (z) = -0.05317 0.89309
#
# Static dielectric constant tensor:
#      x y z
#    x 1.771890 0.000000 0.000000 
#    y 0.000000 1.804780 0.000000 
#    z 0.000000 0.000000 1.781210 
# 
# From -- ./inp_files/4243.got.cif
#   From: 2010.05.17/outbox.cif.g08.bks.cpg/sg26_3_cif.got.tgz:4243.got - 2010.06.04 01:07:29.
