data_PCOD9338237
_publ_section_title
;
Structure prediction by ZEFSAII (Michael W. Deem and Ramdas Pophale) SiO2 
 PCOD9338237
Probable space group: P M C 21
;
_chemical_formula_sum "Si O2"
_cell_formula_units_Z 32
_cell_length_a 14.076529
_cell_length_b 13.822040
_cell_length_c 8.255724
_cell_angle_alpha 90.000000
_cell_angle_beta 90.000000
_cell_angle_gamma 90.000000
_cell_volume 1606.286060
_symmetry_space_group_name_H-M "P M C 21"
_symmetry_group_IT_number 26
_symmetry_cell_setting 'orthorhombic'
loop_
_space_group_symop_operation_xyz
x,y,z
-x,-y,1/2+z
-x,y,z
x,-y,1/2+z
loop_
_atom_site_type_symbol
_atom_site_label
_atom_site_fract_x
_atom_site_fract_y
_atom_site_fract_z
Si Si1 0.108913 0.947346 0.950690
Si Si2 0.892873 0.853186 0.307988
Si Si3 0.113128 0.642017 0.653609
Si Si4 0.765795 0.214049 0.322256
Si Si5 0.611744 0.432277 0.847379
Si Si6 0.227803 0.310993 0.674567
Si Si7 0.610985 0.640672 0.716711
Si Si8 0.887130 0.541233 0.329025
O O1 0.195248 0.893791 0.857365
O O2 0.000000 0.926956 0.888224
O O3 0.121432 0.062332 0.937522
O O4 0.108910 0.907990 0.134017
O O5 0.812992 0.771674 0.295438
O O6 0.000000 0.810746 0.327685
O O7 0.155671 0.742928 0.701331
O O8 0.142033 0.567546 0.794678
O O9 0.149720 0.592614 0.489778
O O10 0.000000 0.647016 0.645330
O O11 0.766397 0.262663 0.500343
O O12 0.669893 0.261182 0.248446
O O13 0.500000 0.424594 0.802119
O O14 0.677517 0.363986 0.736522
O O15 0.638016 0.545699 0.823936
O O16 0.622077 0.396848 0.032097
O O17 0.147553 0.393689 0.680714
O O18 0.500000 0.659593 0.746406
O O19 0.000000 0.541497 0.336352
#
# Coordination Sequence:
#
# PCOD9338237 Si02
#       8
#     4   4   4   4   4   4   4   4
#     4   9  19  35  54  77 105 137 172 211 256 305
#     4   9  19  35  54  77 105 137 172 211 256 305
#     4  10  20  32  46  67  98 135 171 206 246 296
#     4  11  21  33  52  76 103 134 169 211 258 309
#     4  10  21  37  56  78 105 137 174 216 260 308
#     4  11  21  33  52  76 103 134 169 211 258 309
#     4  10  21  37  56  78 105 137 174 216 260 308
#     4  10  20  32  46  67  98 135 171 206 246 296
#
# _framework density 19.921731999999999
#
# number of rings (size 3 to 8) (size 9 to 14) (size 15 to 20)
#    0.000    2.000    0.000    3.750    0.000    6.000 
#    0.000    2.500    0.000    0.750    0.000    0.000 
#    0.000    0.000    0.000    0.000    0.000    0.000 
#
# Total GULP energy -178548.715362 kJ/mol
# GULP energy per Si atom -5579.647355 kJ/mol
# Density = 1.987639 g / cm^3
# Si number density = 19.921732 Si / 1000 Ang^3
#
#
#
# Elastic Constant Matrix: (Units=GPa)
#
#
# Indices 1 2 3 4 5 6 
#
# 1 90.0874 32.8735 4.9264 0.0000 0.0000 0.0000
# 2 32.8735 68.5150 7.1665 0.0000 0.0000 0.0000
# 3 4.9264 7.1665 52.9213 0.0000 0.0000 0.0000
# 4 0.0000 0.0000 0.0000 29.4187 0.0000 0.0000
# 5 0.0000 0.0000 0.0000 0.0000 20.0807 0.0000
# 6 0.0000 0.0000 0.0000 0.0000 0.0000 30.8781
#
#
#
# Elastic Compliance Matrix: (Units=1/GPa)
#
#
# Indices 1 2 3 4 5 6 
#
# 1 0.013464 -0.006420 -0.000384 0.000000 0.000000 0.000000
# 2 -0.006420 0.017866 -0.001822 0.000000 0.000000 0.000000
# 3 -0.000384 -0.001822 0.019178 0.000000 0.000000 0.000000
# 4 0.000000 0.000000 0.000000 0.033992 0.000000 0.000000
# 5 0.000000 0.000000 0.000000 0.000000 0.049799 0.000000
# 6 0.000000 0.000000 0.000000 0.000000 0.000000 0.032385
#
#
# Mechanical properties :
#
#
# Convention : Reuss Voigt Hill
#
# Bulk Modulus (GPa) = 30.06857 33.49516 31.78187
# Shear Modulus (GPa) = 25.63814 27.17933 26.40873
#
# Velocity S-wave (km/s) = 3.59129 3.69766 3.64486
# Velocity P-wave (km/s) = 5.68530 5.92285 5.80529
#
# Compressibility (1/GPa) = 0.03325731
#
# Stress axis : x y z
#
# Youngs Moduli (GPa) = 74.27233 55.97182 52.14191
#
# Poissons Ratio (x) = 0.35933 0.02002
# Poissons Ratio (y) = 0.47682 0.09499
# Poissons Ratio (z) = 0.02852 0.10197
#
# Static dielectric constant tensor:
#      x y z
#    x 1.716600 0.000000 0.000000 
#    y 0.000000 1.703310 0.000000 
#    z 0.000000 0.000000 1.758950 
# 
# From -- ./inp_files/2247.got.cif
#   From: 2010.05.17/outbox.cif.g08.bks.cpg/sg26_2_cif.got.tgz:2247.got - 2010.06.04 01:07:29.
