data_PCOD9338413
_publ_section_title
;
Structure prediction by ZEFSAII (Michael W. Deem and Ramdas Pophale) SiO2 
 PCOD9338413
Probable space group: P M C 21
;
_chemical_formula_sum "Si O2"
_cell_formula_units_Z 24
_cell_length_a 8.557028
_cell_length_b 9.719938
_cell_length_c 15.487401
_cell_angle_alpha 90.000000
_cell_angle_beta 90.000000
_cell_angle_gamma 90.000000
_cell_volume 1288.145709
_symmetry_space_group_name_H-M "P M C 21"
_symmetry_group_IT_number 26
_symmetry_cell_setting 'orthorhombic'
loop_
_space_group_symop_operation_xyz
x,y,z
-x,-y,1/2+z
-x,y,z
x,-y,1/2+z
loop_
_atom_site_type_symbol
_atom_site_label
_atom_site_fract_x
_atom_site_fract_y
_atom_site_fract_z
Si Si1 0.811888 0.844645 0.148110
Si Si2 0.188049 0.339461 0.304599
Si Si3 0.314007 0.846651 0.651480
Si Si4 0.313330 0.345700 0.496723
Si Si5 0.189417 0.346157 0.804952
Si Si6 0.188305 0.650180 0.502574
O O1 0.743758 0.764929 0.065935
O O2 0.757822 0.762696 0.233982
O O3 0.000000 0.839055 0.144586
O O4 0.757556 0.001393 0.150259
O O5 0.259531 0.234442 0.236783
O O6 0.244555 0.313748 0.402041
O O7 0.235739 0.497125 0.282829
O O8 0.000000 0.331848 0.301360
O O9 0.500000 0.855241 0.649176
O O10 0.253686 0.758929 0.570012
O O11 0.500000 0.349473 0.492740
O O12 0.249149 0.496675 0.522123
O O13 0.000000 0.344441 0.804789
O O14 0.237190 0.317526 0.903693
O O15 0.000000 0.648789 0.506757
#
# Coordination Sequence:
#
# PCOD9338413 Si02
#       6
#     4   4   4   4   4   4
#     4  11  22  39  60  84 116 159 201 240 289 354
#     4  10  20  39  64  88 113 151 198 243 290 354
#     4  12  25  39  55  85 123 157 194 247 302 346
#     4  11  22  38  60  90 121 151 191 247 299 342
#     4   8  18  36  62  88 109 139 192 246 284 332
#     4  10  20  39  63  87 114 153 200 243 288 352
#
# _framework density 18.631433000000001
#
# number of rings (size 3 to 8) (size 9 to 14) (size 15 to 20)
#    0.000    1.667    0.000    6.500    0.000    2.667 
#    0.000   14.167    0.000    0.000    0.000    0.000 
#    0.000    0.000    0.000    0.000    0.000    0.000 
#
# Total GULP energy -134146.048498 kJ/mol
# GULP energy per Si atom -5589.418687 kJ/mol
# Density = 1.858903 g / cm^3
# Si number density = 18.631433 Si / 1000 Ang^3
#
#
#
# Elastic Constant Matrix: (Units=GPa)
#
#
# Indices 1 2 3 4 5 6 
#
# 1 63.6300 2.3429 1.1242 0.0000 0.0000 0.0000
# 2 2.3429 118.8257 81.9495 0.0000 0.0000 0.0000
# 3 1.1242 81.9495 89.7086 0.0000 0.0000 0.0000
# 4 0.0000 0.0000 0.0000 -22.5398 0.0000 0.0000
# 5 0.0000 0.0000 0.0000 0.0000 19.8329 0.0000
# 6 0.0000 0.0000 0.0000 0.0000 0.0000 7.3499
#
#
#
# Elastic Compliance Matrix: (Units=1/GPa)
#
#
# Indices 1 2 3 4 5 6 
#
# 1 0.015729 -0.000471 0.000233 0.000000 0.000000 0.000000
# 2 -0.000471 0.022760 -0.020785 0.000000 0.000000 0.000000
# 3 0.000233 -0.020785 0.030132 0.000000 0.000000 0.000000
# 4 0.000000 0.000000 0.000000 -0.044366 0.000000 0.000000
# 5 0.000000 0.000000 0.000000 0.000000 0.050421 0.000000
# 6 0.000000 0.000000 0.000000 0.000000 0.000000 0.136056
#
#
# Mechanical properties :
#
#
# Convention : Reuss Voigt Hill
#
# Bulk Modulus (GPa) = 37.63024 49.22194 43.42609
# Shear Modulus (GPa) = 19.11047 13.37845 16.24446
#
# Velocity S-wave (km/s) = 3.20615 2.68257 2.95597
# Velocity P-wave (km/s) = 5.82639 6.00591 5.91684
#
# Compressibility (1/GPa) = 0.02657437
#
# Stress axis : x y z
#
# Youngs Moduli (GPa) = 63.57656 43.93689 33.18734
#
# Poissons Ratio (x) = 0.02069 -0.00773
# Poissons Ratio (y) = 0.02993 0.68981
# Poissons Ratio (z) = -0.01481 0.91325
#
# Static dielectric constant tensor:
#      x y z
#    x 1.625080 0.000000 0.000000 
#    y 0.000000 1.609440 0.000000 
#    z 0.000000 0.000000 1.633750 
# 
# From -- ./inp_files/3928.got.cif
#   From: 2010.05.17/outbox.cif.g08.bks.cpg/sg26_2_cif.got.tgz:3928.got - 2010.06.04 01:07:29.
