data_PCOD9338212
_publ_section_title
;
Structure prediction by ZEFSAII (Michael W. Deem and Ramdas Pophale) SiO2 
 PCOD9338212
Probable space group: P M C 21
;
_chemical_formula_sum "Si O2"
_cell_formula_units_Z 32
_cell_length_a 7.951018
_cell_length_b 12.713701
_cell_length_c 14.348897
_cell_angle_alpha 90.000000
_cell_angle_beta 90.000000
_cell_angle_gamma 90.000000
_cell_volume 1450.485021
_symmetry_space_group_name_H-M "P M C 21"
_symmetry_group_IT_number 26
_symmetry_cell_setting 'orthorhombic'
loop_
_space_group_symop_operation_xyz
x,y,z
-x,-y,1/2+z
-x,y,z
x,-y,1/2+z
loop_
_atom_site_type_symbol
_atom_site_label
_atom_site_fract_x
_atom_site_fract_y
_atom_site_fract_z
Si Si1 0.810072 0.259717 0.996520
Si Si2 0.291963 0.682682 0.834877
Si Si3 0.805246 0.828241 0.107700
Si Si4 0.691328 0.939340 0.595916
Si Si5 0.304816 0.082175 0.320834
Si Si6 0.695099 0.422211 0.144538
Si Si7 0.303748 0.611019 0.029012
Si Si8 0.700849 0.852443 0.318342
O O1 0.738025 0.234862 0.894995
O O2 0.000000 0.298874 0.989929
O O3 0.805019 0.147811 0.049060
O O4 0.706528 0.339013 0.060543
O O5 0.500000 0.687498 0.833407
O O6 0.232311 0.803891 0.845843
O O7 0.233891 0.631708 0.737709
O O8 0.236494 0.615026 0.923818
O O9 0.709470 0.729070 0.066559
O O10 0.783191 0.828092 0.219413
O O11 0.000000 0.819429 0.083264
O O12 0.736413 0.940701 0.074321
O O13 0.500000 0.917808 0.565443
O O14 0.699006 0.924958 0.707787
O O15 0.500000 0.084312 0.351019
O O16 0.236236 0.968454 0.351684
O O17 0.500000 0.443503 0.168002
O O18 0.772390 0.529048 0.102711
O O19 0.500000 0.581840 0.020373
O O20 0.500000 0.861061 0.303109
#
# Coordination Sequence:
#
# PCOD9338212 Si02
#       8
#     4   4   4   4   4   4   4   4
#     4  12  24  37  57  91 127 162 203 258 325 379
#     4   9  17  34  59  88 118 151 203 262 304 351
#     4  11  23  40  59  88 129 163 196 257 327 378
#     4  10  19  36  61  86 117 161 207 251 303 374
#     4   8  15  30  56  85 112 149 200 253 300 346
#     4  10  21  40  63  88 121 165 216 264 305 363
#     4  10  22  38  63  93 118 161 217 262 307 369
#     4  10  21  37  60  89 120 166 214 253 303 378
#
# _framework density 22.061585000000001
#
# number of rings (size 3 to 8) (size 9 to 14) (size 15 to 20)
#    0.000    2.000    1.250    3.750    1.750    1.500 
#    0.000    3.125    0.000    0.000    0.000    0.000 
#    0.000    0.000    0.000    0.000    0.000    0.000 
#
# Total GULP energy -178730.750503 kJ/mol
# GULP energy per Si atom -5585.335953 kJ/mol
# Density = 2.201137 g / cm^3
# Si number density = 22.061585 Si / 1000 Ang^3
#
#
#
# Elastic Constant Matrix: (Units=GPa)
#
#
# Indices 1 2 3 4 5 6 
#
# 1 35.8335 -15.6829 -6.3811 0.0000 0.0000 0.0000
# 2 -15.6829 80.1955 23.6078 0.0000 0.0000 0.0000
# 3 -6.3811 23.6078 60.9537 0.0000 0.0000 0.0000
# 4 0.0000 0.0000 0.0000 17.5150 0.0000 0.0000
# 5 0.0000 0.0000 0.0000 0.0000 5.1887 0.0000
# 6 0.0000 0.0000 0.0000 0.0000 0.0000 361.4751
#
#
#
# Elastic Compliance Matrix: (Units=1/GPa)
#
#
# Indices 1 2 3 4 5 6 
#
# 1 0.030573 0.005685 0.000999 0.000000 0.000000 0.000000
# 2 0.005685 0.015131 -0.005265 0.000000 0.000000 0.000000
# 3 0.000999 -0.005265 0.018550 0.000000 0.000000 0.000000
# 4 0.000000 0.000000 0.000000 0.057094 0.000000 0.000000
# 5 0.000000 0.000000 0.000000 0.000000 0.192725 0.000000
# 6 0.000000 0.000000 0.000000 0.000000 0.000000 0.002766
#
#
# Mechanical properties :
#
#
# Convention : Reuss Voigt Hill
#
# Bulk Modulus (GPa) = 14.90531 20.00779 17.45655
# Shear Modulus (GPa) = 14.86475 88.53169 51.69822
#
# Velocity S-wave (km/s) = 2.59855 6.34164 4.84608
# Velocity P-wave (km/s) = 3.97167 7.91901 6.26438
#
# Compressibility (1/GPa) = 0.06709019
#
# Stress axis : x y z
#
# Youngs Moduli (GPa) = 32.70895 66.08857 53.90907
#
# Poissons Ratio (x) = -0.37569 -0.05385
# Poissons Ratio (y) = -0.18594 0.28385
# Poissons Ratio (z) = -0.03267 0.34798
#
# Static dielectric constant tensor:
#      x y z
#    x 1.798030 0.000000 0.000000 
#    y 0.000000 1.810770 0.000000 
#    z 0.000000 0.000000 1.820510 
# 
# From -- ./inp_files/4180.got.cif
#   From: 2010.05.17/outbox.cif.g08.bks.cpg/sg26_3_cif.got.tgz:4180.got - 2010.06.04 01:07:29.
