data_PCOD9338965
_publ_section_title
;
Structure prediction by ZEFSAII (Michael W. Deem and Ramdas Pophale) SiO2 
 PCOD9338965
Probable space group: P C C 2
;
_chemical_formula_sum "Si O2"
_cell_formula_units_Z 24
_cell_length_a 11.745096
_cell_length_b 7.207312
_cell_length_c 12.147806
_cell_angle_alpha 90.000000
_cell_angle_beta 90.000000
_cell_angle_gamma 90.000000
_cell_volume 1028.318718
_symmetry_space_group_name_H-M "P C C 2"
_symmetry_group_IT_number 27
_symmetry_cell_setting 'orthorhombic'
loop_
_space_group_symop_operation_xyz
x,y,z
-x,-y,z
-x,y,1/2+z
x,-y,1/2+z
loop_
_atom_site_type_symbol
_atom_site_label
_atom_site_fract_x
_atom_site_fract_y
_atom_site_fract_z
Si Si1 0.308463 0.283478 0.295660
Si Si2 0.768046 0.877421 0.840987
Si Si3 0.893240 0.627521 0.441431
Si Si4 0.457450 0.786141 0.226129
Si Si5 0.740276 0.629660 0.043981
Si Si6 0.000000 0.000000 0.868975
Si Si7 0.500000 0.500000 0.036671
O O1 0.207344 0.397704 0.351734
O O2 0.444805 0.307685 0.303035
O O3 0.284397 0.292400 0.164948
O O4 0.286614 0.081573 0.347484
O O5 0.671054 0.774917 0.770322
O O6 0.896938 0.908968 0.798983
O O7 0.782840 0.786488 0.960538
O O8 0.830716 0.538635 0.547055
O O9 0.000000 0.500000 0.414295
O O10 0.939541 0.836893 0.438932
O O11 0.463209 0.674411 0.113204
O O12 0.500000 0.000000 0.712743
O O13 0.620738 0.563089 0.991086
#
# Coordination Sequence:
#
# PCOD9338965 Si02
#       7
#     4   4   4   4   4   2   2
#     4   9  23  45  65 102 141 178 235 295 355 424
#     4  10  21  42  70  96 142 180 233 290 345 419
#     4  11  23  44  70  95 144 182 239 292 346 426
#     4   9  20  42  65  98 141 177 226 295 348 423
#     4  11  24  42  69 107 137 184 238 285 363 428
#     4  10  22  44  64 100 136 182 238 288 338 428
#     4  10  24  40  66 106 142 172 238 278 364 436
#
# _framework density 23.339067
#
# number of rings (size 3 to 8) (size 9 to 14) (size 15 to 20)
#    0.000    2.000    1.667    0.000    7.000    0.667 
#   18.000    9.167    0.000    0.000    0.000    0.000 
#    0.000    0.000    0.000    0.000    0.000    0.000 
#
# Total GULP energy -133810.726479 kJ/mol
# GULP energy per Si atom -5575.446937 kJ/mol
# Density = 2.328595 g / cm^3
# Si number density = 23.339067 Si / 1000 Ang^3
#
#
#
# Elastic Constant Matrix: (Units=GPa)
#
#
# Indices 1 2 3 4 5 6 
#
# 1 206.1607 46.3113 26.2067 0.0000 0.0000 0.0000
# 2 46.3113 112.5433 29.3934 0.0000 0.0000 0.0000
# 3 26.2067 29.3934 29.1391 0.0000 0.0000 0.0000
# 4 0.0000 0.0000 0.0000 13.4487 0.0000 0.0000
# 5 0.0000 0.0000 0.0000 0.0000 15.3736 0.0000
# 6 0.0000 0.0000 0.0000 0.0000 0.0000 57.1606
#
#
#
# Elastic Compliance Matrix: (Units=1/GPa)
#
#
# Indices 1 2 3 4 5 6 
#
# 1 0.005623 -0.001348 -0.003697 0.000000 0.000000 0.000000
# 2 -0.001348 0.012387 -0.011282 0.000000 0.000000 0.000000
# 3 -0.003697 -0.011282 0.049024 0.000000 0.000000 0.000000
# 4 0.000000 0.000000 0.000000 0.074357 0.000000 0.000000
# 5 0.000000 0.000000 0.000000 0.000000 0.065047 0.000000
# 6 0.000000 0.000000 0.000000 0.000000 0.000000 0.017495
#
#
# Mechanical properties :
#
#
# Convention : Reuss Voigt Hill
#
# Bulk Modulus (GPa) = 29.08802 61.29621 45.19212
# Shear Modulus (GPa) = 18.65333 33.59202 26.12267
#
# Velocity S-wave (km/s) = 2.83014 3.79793 3.34918
# Velocity P-wave (km/s) = 4.81351 6.74928 5.86185
#
# Compressibility (1/GPa) = 0.03437841
#
# Stress axis : x y z
#
# Youngs Moduli (GPa) = 177.82561 80.72979 20.39803
#
# Poissons Ratio (x) = 0.10885 0.07542
# Poissons Ratio (y) = 0.23978 0.23014
# Poissons Ratio (z) = 0.65749 0.91083
#
# Static dielectric constant tensor:
#      x y z
#    x 1.928460 0.000000 0.000000 
#    y 0.000000 1.958560 0.000000 
#    z 0.000000 0.000000 1.854530 
# 
# From -- ./inp_files/2580.got.cif
#   From: 2010.05.17/outbox.cif.g08.bks.cpg/sg27_2_cif.got.tgz:2580.got - 2010.06.04 01:11:05.
