data_PCOD9338323
_publ_section_title
;
Structure prediction by ZEFSAII (Michael W. Deem and Ramdas Pophale) SiO2 
 PCOD9338323
Probable space group: P M C 21
;
_chemical_formula_sum "Si O2"
_cell_formula_units_Z 32
_cell_length_a 12.101228
_cell_length_b 8.344248
_cell_length_c 14.450944
_cell_angle_alpha 90.000000
_cell_angle_beta 90.000000
_cell_angle_gamma 90.000000
_cell_volume 1459.193428
_symmetry_space_group_name_H-M "P M C 21"
_symmetry_group_IT_number 26
_symmetry_cell_setting 'orthorhombic'
loop_
_space_group_symop_operation_xyz
x,y,z
-x,-y,1/2+z
-x,y,z
x,-y,1/2+z
loop_
_atom_site_type_symbol
_atom_site_label
_atom_site_fract_x
_atom_site_fract_y
_atom_site_fract_z
Si Si1 0.801439 0.346903 0.902890
Si Si2 0.126073 0.504442 0.232939
Si Si3 0.711660 0.988647 0.647422
Si Si4 0.874785 0.865033 0.788214
Si Si5 0.877887 0.981810 0.475317
Si Si6 0.373490 0.691583 0.075986
Si Si7 0.127246 0.625980 0.023282
Si Si8 0.376975 0.668597 0.564790
O O1 0.790261 0.394730 0.796286
O O2 0.857588 0.176442 0.915442
O O3 0.873725 0.489951 0.945834
O O4 0.698733 0.337639 0.973385
O O5 0.140509 0.315798 0.252170
O O6 0.133365 0.544411 0.125196
O O7 0.000000 0.547892 0.260295
O O8 0.641015 0.151154 0.640226
O O9 0.783667 0.973726 0.739527
O O10 0.796559 0.991977 0.560932
O O11 0.651162 0.818800 0.630179
O O12 0.000000 0.915262 0.763864
O O13 0.868216 0.877361 0.899290
O O14 0.000000 0.967172 0.514029
O O15 0.500000 0.707133 0.034142
O O16 0.256199 0.693449 0.018828
O O17 0.372841 0.507238 0.112220
O O18 0.000000 0.698134 0.024709
O O19 0.500000 0.694642 0.530921
#
# Coordination Sequence:
#
# PCOD9338323 Si02
#       8
#     4   4   4   4   4   4   4   4
#     4  10  20  36  60  86 120 163 202 254 312 371
#     4  10  20  35  57  86 125 161 197 255 314 368
#     4  11  22  39  64  86 118 168 206 256 308 373
#     4  10  22  36  54  88 128 161 204 257 312 373
#     4  10  21  35  54  87 125 161 201 253 313 372
#     4  10  22  39  64  93 121 157 204 256 310 366
#     4  10  21  36  61  92 118 159 210 251 306 376
#     4   9  20  40  64  88 115 158 208 256 309 371
#
# _framework density 21.929924
#
# number of rings (size 3 to 8) (size 9 to 14) (size 15 to 20)
#    0.000    2.000    0.000    4.125    5.250    2.000 
#    0.000    0.625    0.000    3.750    0.000    0.000 
#    0.000    0.000    0.000    0.000    0.000    0.000 
#
# Total GULP energy -178226.277084 kJ/mol
# GULP energy per Si atom -5569.571159 kJ/mol
# Density = 2.188001 g / cm^3
# Si number density = 21.929924 Si / 1000 Ang^3
#
#
#
# Elastic Constant Matrix: (Units=GPa)
#
#
# Indices 1 2 3 4 5 6 
#
# 1 139.8803 39.3452 8.8848 0.0000 0.0000 0.0000
# 2 39.3452 92.2000 -5.3640 0.0000 0.0000 0.0000
# 3 8.8848 -5.3640 55.9755 0.0000 0.0000 0.0000
# 4 0.0000 0.0000 0.0000 19.1341 0.0000 0.0000
# 5 0.0000 0.0000 0.0000 0.0000 66.6836 0.0000
# 6 0.0000 0.0000 0.0000 0.0000 0.0000 54.2362
#
#
#
# Elastic Compliance Matrix: (Units=1/GPa)
#
#
# Indices 1 2 3 4 5 6 
#
# 1 0.008275 -0.003628 -0.001661 0.000000 0.000000 0.000000
# 2 -0.003628 0.012497 0.001773 0.000000 0.000000 0.000000
# 3 -0.001661 0.001773 0.018299 0.000000 0.000000 0.000000
# 4 0.000000 0.000000 0.000000 0.052263 0.000000 0.000000
# 5 0.000000 0.000000 0.000000 0.000000 0.014996 0.000000
# 6 0.000000 0.000000 0.000000 0.000000 0.000000 0.018438
#
#
# Mechanical properties :
#
#
# Convention : Reuss Voigt Hill
#
# Bulk Modulus (GPa) = 31.21124 41.53196 36.37160
# Shear Modulus (GPa) = 35.09298 44.35675 39.72486
#
# Velocity S-wave (km/s) = 4.00463 4.50228 4.26073
# Velocity P-wave (km/s) = 5.97042 6.78284 6.38956
#
# Compressibility (1/GPa) = 0.03203974
#
# Stress axis : x y z
#
# Youngs Moduli (GPa) = 120.84723 80.01725 54.64907
#
# Poissons Ratio (x) = 0.29029 0.09078
# Poissons Ratio (y) = 0.43842 -0.09692
# Poissons Ratio (z) = 0.20074 -0.14190
#
# Static dielectric constant tensor:
#      x y z
#    x 1.829590 0.000000 0.000000 
#    y 0.000000 1.939780 0.000000 
#    z 0.000000 0.000000 1.772500 
# 
# From -- ./inp_files/4581.got.cif
#   From: 2010.05.17/outbox.cif.g08.bks.cpg/sg26_3_cif.got.tgz:4581.got - 2010.06.04 01:07:29.
