data_PCOD9338936
_publ_section_title
;
Structure prediction by ZEFSAII (Michael W. Deem and Ramdas Pophale) SiO2 
 PCOD9338936
Probable space group: P C C 2
;
_chemical_formula_sum "Si O2"
_cell_formula_units_Z 16
_cell_length_a 7.290945
_cell_length_b 9.380784
_cell_length_c 8.699537
_cell_angle_alpha 90.000000
_cell_angle_beta 90.000000
_cell_angle_gamma 90.000000
_cell_volume 595.002921
_symmetry_space_group_name_H-M "P C C 2"
_symmetry_group_IT_number 27
_symmetry_cell_setting 'orthorhombic'
loop_
_space_group_symop_operation_xyz
x,y,z
-x,-y,z
-x,y,1/2+z
x,-y,1/2+z
loop_
_atom_site_type_symbol
_atom_site_label
_atom_site_fract_x
_atom_site_fract_y
_atom_site_fract_z
Si Si1 0.808364 0.469366 0.346240
Si Si2 0.278604 0.028759 0.956789
Si Si3 0.773423 0.209540 0.159593
Si Si4 0.351466 0.698345 0.623967
O O1 0.865612 0.353564 0.215820
O O2 0.678540 0.394947 0.470588
O O3 0.716912 0.605004 0.266312
O O4 0.000000 0.500000 0.426462
O O5 0.216207 0.098008 0.799123
O O6 0.500000 0.000000 0.945462
O O7 0.185233 0.881536 0.008132
O O8 0.254208 0.151515 0.086396
O O9 0.562611 0.261502 0.145727
#
# Coordination Sequence:
#
# PCOD9338936 Si02
#       4
#     4   4   4   4
#     4  11  24  42  63  95 136 178 222 275 333 401
#     4   9  18  35  60  93 125 157 212 278 329 384
#     4  10  21  38  65  95 124 165 217 272 331 394
#     4  10  22  39  62  93 129 174 223 275 333 399
#
# _framework density 26.890626000000001
#
# number of rings (size 3 to 8) (size 9 to 14) (size 15 to 20)
#    0.000    2.000    0.000    3.750    0.000   12.000 
#    0.000    1.250    0.000   15.000    0.000    0.000 
#    0.000    0.000    0.000    0.000    0.000    0.000 
#
# Total GULP energy -89708.672233 kJ/mol
# GULP energy per Si atom -5606.792015 kJ/mol
# Density = 2.682942 g / cm^3
# Si number density = 26.890626 Si / 1000 Ang^3
#
#
#
# Elastic Constant Matrix: (Units=GPa)
#
#
# Indices 1 2 3 4 5 6 
#
# 1 71.4934 29.8702 34.0858 0.0000 0.0000 0.0000
# 2 29.8702 131.9522 66.8671 0.0000 0.0000 0.0000
# 3 34.0858 66.8671 113.2557 0.0000 0.0000 0.0000
# 4 0.0000 0.0000 0.0000 82.8051 0.0000 0.0000
# 5 0.0000 0.0000 0.0000 0.0000 20.2983 0.0000
# 6 0.0000 0.0000 0.0000 0.0000 0.0000 5.2919
#
#
#
# Elastic Compliance Matrix: (Units=1/GPa)
#
#
# Indices 1 2 3 4 5 6 
#
# 1 0.016609 -0.001750 -0.003965 0.000000 0.000000 0.000000
# 2 -0.001750 0.010998 -0.005967 0.000000 0.000000 0.000000
# 3 -0.003965 -0.005967 0.013546 0.000000 0.000000 0.000000
# 4 0.000000 0.000000 0.000000 0.012077 0.000000 0.000000
# 5 0.000000 0.000000 0.000000 0.000000 0.049265 0.000000
# 6 0.000000 0.000000 0.000000 0.000000 0.000000 0.188969
#
#
# Mechanical properties :
#
#
# Convention : Reuss Voigt Hill
#
# Bulk Modulus (GPa) = 56.21619 64.26084 60.23852
# Shear Modulus (GPa) = 15.58804 34.07093 24.82948
#
# Velocity S-wave (km/s) = 2.41027 3.56338 3.04197
# Velocity P-wave (km/s) = 5.35694 6.39369 5.89814
#
# Compressibility (1/GPa) = 0.01778847
#
# Stress axis : x y z
#
# Youngs Moduli (GPa) = 60.20774 90.92217 73.82357
#
# Poissons Ratio (x) = 0.15915 0.29273
# Poissons Ratio (y) = 0.10539 0.44049
# Poissons Ratio (z) = 0.23874 0.54251
#
# Static dielectric constant tensor:
#      x y z
#    x 2.080870 0.000000 0.000000 
#    y 0.000000 2.080710 0.000000 
#    z 0.000000 0.000000 2.091740 
# 
# From -- ./inp_files/2177.got.cif
#   From: 2010.05.17/outbox.cif.g08.bks.cpg/sg27_2_cif.got.tgz:2177.got - 2010.06.04 01:11:05.
