data_PCOD9338911
_publ_section_title
;
Structure prediction by ZEFSAII (Michael W. Deem and Ramdas Pophale) SiO2 
 PCOD9338911
Probable space group: P C C 2
;
_chemical_formula_sum "Si O2"
_cell_formula_units_Z 18
_cell_length_a 7.163650
_cell_length_b 5.356698
_cell_length_c 20.400657
_cell_angle_alpha 90.000000
_cell_angle_beta 90.000000
_cell_angle_gamma 90.000000
_cell_volume 782.844808
_symmetry_space_group_name_H-M "P C C 2"
_symmetry_group_IT_number 27
_symmetry_cell_setting 'orthorhombic'
loop_
_space_group_symop_operation_xyz
x,y,z
-x,-y,z
-x,y,1/2+z
x,-y,1/2+z
loop_
_atom_site_type_symbol
_atom_site_label
_atom_site_fract_x
_atom_site_fract_y
_atom_site_fract_z
Si Si1 0.312407 0.765736 0.993580
Si Si2 0.773792 0.028749 0.727377
Si Si3 0.217879 0.528286 0.293612
Si Si4 0.500000 0.000000 0.615346
Si Si5 0.277060 0.274636 0.939642
O O1 0.214506 0.502024 0.985940
O O2 0.499390 0.746356 0.949100
O O3 0.208178 0.006559 0.964750
O O4 0.393916 0.813976 0.065654
O O5 0.719463 0.243808 0.780290
O O6 0.706884 0.751029 0.747946
O O7 0.664105 0.102908 0.661675
O O8 0.000000 0.000000 0.720549
O O9 0.234834 0.636923 0.366587
O O10 0.000000 0.500000 0.278798
#
# Coordination Sequence:
#
# PCOD9338911 Si02
#       5
#     4   4   4   2   4
#     4   9  20  33  54  82 108 139 193 232 267 344
#     4  10  23  39  58  86 117 151 193 236 280 342
#     4  10  21  37  56  84 118 149 189 238 289 345
#     4  10  22  40  60  82 116 158 192 234 284 332
#     4   9  17  34  53  76 109 139 175 237 282 319
#
# _framework density 22.993065000000001
#
# number of rings (size 3 to 8) (size 9 to 14) (size 15 to 20)
#    0.000    2.667    0.000    1.333    0.000   13.333 
#    0.000    4.444    0.000    0.000    0.000    0.000 
#    0.000    0.000    0.000    0.000    0.000    0.000 
#
# Total GULP energy -100294.850637 kJ/mol
# GULP energy per Si atom -5571.936146 kJ/mol
# Density = 2.294073 g / cm^3
# Si number density = 22.993065 Si / 1000 Ang^3
#
#
#
# Elastic Constant Matrix: (Units=GPa)
#
#
# Indices 1 2 3 4 5 6 
#
# 1 88.0007 30.0140 -3.4804 0.0000 0.0000 0.0000
# 2 30.0140 197.6867 58.9040 0.0000 0.0000 0.0000
# 3 -3.4804 58.9040 89.3974 0.0000 0.0000 0.0000
# 4 0.0000 0.0000 0.0000 -93.1700 0.0000 0.0000
# 5 0.0000 0.0000 0.0000 0.0000 -649.8880 0.0000
# 6 0.0000 0.0000 0.0000 0.0000 0.0000 -10.8725
#
#
#
# Elastic Compliance Matrix: (Units=1/GPa)
#
#
# Indices 1 2 3 4 5 6 
#
# 1 0.012301 -0.002501 0.002127 0.000000 0.000000 0.000000
# 2 -0.002501 0.006803 -0.004580 0.000000 0.000000 0.000000
# 3 0.002127 -0.004580 0.014286 0.000000 0.000000 0.000000
# 4 0.000000 0.000000 0.000000 -0.010733 0.000000 0.000000
# 5 0.000000 0.000000 0.000000 0.000000 -0.001539 0.000000
# 6 0.000000 0.000000 0.000000 0.000000 0.000000 -0.091975
#
#
# Mechanical properties :
#
#
# Convention : Reuss Voigt Hill
#
# Bulk Modulus (GPa) = 42.58603 60.66223 51.62413
# Shear Modulus (GPa) = -94.12417 -131.47629 -112.80023
#
# Velocity S-wave (km/s) = -6.40506 -7.57001 -7.01177
# Velocity P-wave (km/s) = 6.01151 7.06870 6.56143
#
# Compressibility (1/GPa) = 0.02348188
#
# Stress axis : x y z
#
# Youngs Moduli (GPa) = 81.29551 146.99575 69.99631
#
# Poissons Ratio (x) = 0.36769 -0.14889
# Poissons Ratio (y) = 0.20335 0.32057
# Poissons Ratio (z) = -0.17292 0.67322
#
# Static dielectric constant tensor:
#      x y z
#    x 1.779300 0.000000 0.000000 
#    y 0.000000 2.009710 0.000000 
#    z 0.000000 0.000000 1.840140 
# 
# From -- ./inp_files/4148.got.cif
#   From: 2010.05.17/outbox.cif.g08.bks.cpg/sg27_3_cif.got.tgz:4148.got - 2010.06.04 01:11:05.
