data_PCOD9338445
_publ_section_title
;
Structure prediction by ZEFSAII (Michael W. Deem and Ramdas Pophale) SiO2 
 PCOD9338445
Probable space group: P M C 21
;
_chemical_formula_sum "Si O2"
_cell_formula_units_Z 24
_cell_length_a 7.685957
_cell_length_b 14.611400
_cell_length_c 8.119895
_cell_angle_alpha 90.000000
_cell_angle_beta 90.000000
_cell_angle_gamma 90.000000
_cell_volume 911.885256
_symmetry_space_group_name_H-M "P M C 21"
_symmetry_group_IT_number 26
_symmetry_cell_setting 'orthorhombic'
loop_
_space_group_symop_operation_xyz
x,y,z
-x,-y,1/2+z
-x,y,z
x,-y,1/2+z
loop_
_atom_site_type_symbol
_atom_site_label
_atom_site_fract_x
_atom_site_fract_y
_atom_site_fract_z
Si Si1 0.711819 0.696159 0.309580
Si Si2 0.287165 0.138718 0.607372
Si Si3 0.703452 0.521755 0.136130
Si Si4 0.796745 0.190527 0.135119
Si Si5 0.200594 0.357614 0.325910
Si Si6 0.703789 0.025772 0.921368
O O1 0.500000 0.695568 0.319012
O O2 0.763643 0.758636 0.151766
O O3 0.768959 0.593637 0.273986
O O4 0.777249 0.747262 0.470327
O O5 0.500000 0.138501 0.603356
O O6 0.223989 0.074925 0.459099
O O7 0.224676 0.081212 0.767573
O O8 0.500000 0.503493 0.160503
O O9 0.791378 0.424733 0.166326
O O10 0.718868 0.580027 0.968928
O O11 0.721494 0.258378 0.276186
O O12 0.717522 0.093615 0.079501
O O13 0.000000 0.176291 0.165579
O O14 0.000000 0.343098 0.367403
O O15 0.500000 0.014840 0.888197
#
# Coordination Sequence:
#
# PCOD9338445 Si02
#       6
#     4   4   4   4   4   4
#     4   9  19  36  57  81 108 138 176 224 273 318
#     4   8  15  29  50  75 101 133 172 213 265 321
#     4  11  23  38  60  87 110 137 181 232 271 313
#     4  10  21  36  54  77 107 145 184 219 262 320
#     4  11  24  40  57  79 112 150 181 216 272 335
#     4   9  17  31  52  75 102 137 176 220 265 311
#
# _framework density 26.319099999999999
#
# number of rings (size 3 to 8) (size 9 to 14) (size 15 to 20)
#    0.000    2.333    0.000    3.500    0.000    8.000 
#    0.000    6.667    0.000    0.000    0.000    0.000 
#    0.000    0.000    0.000    0.000    0.000    0.000 
#
# Total GULP energy -134169.712683 kJ/mol
# GULP energy per Si atom -5590.404695 kJ/mol
# Density = 2.625920 g / cm^3
# Si number density = 26.319100 Si / 1000 Ang^3
#
#
#
# Elastic Constant Matrix: (Units=GPa)
#
#
# Indices 1 2 3 4 5 6 
#
# 1 69.3023 5.7185 -1.2353 0.0000 0.0000 0.0000
# 2 5.7185 155.3554 -0.9286 0.0000 0.0000 0.0000
# 3 -1.2353 -0.9286 72.0792 0.0000 0.0000 0.0000
# 4 0.0000 0.0000 0.0000 51.2137 0.0000 0.0000
# 5 0.0000 0.0000 0.0000 0.0000 37.0780 0.0000
# 6 0.0000 0.0000 0.0000 0.0000 0.0000 12.3065
#
#
#
# Elastic Compliance Matrix: (Units=1/GPa)
#
#
# Indices 1 2 3 4 5 6 
#
# 1 0.014478 -0.000531 0.000241 0.000000 0.000000 0.000000
# 2 -0.000531 0.006457 0.000074 0.000000 0.000000 0.000000
# 3 0.000241 0.000074 0.013879 0.000000 0.000000 0.000000
# 4 0.000000 0.000000 0.000000 0.019526 0.000000 0.000000
# 5 0.000000 0.000000 0.000000 0.000000 0.026970 0.000000
# 6 0.000000 0.000000 0.000000 0.000000 0.000000 0.081258
#
#
# Mechanical properties :
#
#
# Convention : Reuss Voigt Hill
#
# Bulk Modulus (GPa) = 29.08582 33.76068 31.42325
# Shear Modulus (GPa) = 28.65986 39.66512 34.16249
#
# Velocity S-wave (km/s) = 3.30349 3.88633 3.60670
# Velocity P-wave (km/s) = 5.06220 5.74399 5.41384
#
# Compressibility (1/GPa) = 0.03438101
#
# Stress axis : x y z
#
# Youngs Moduli (GPa) = 69.07182 154.87401 72.05275
#
# Poissons Ratio (x) = 0.08231 -0.01738
# Poissons Ratio (y) = 0.03671 -0.00534
# Poissons Ratio (z) = -0.01666 -0.01147
#
# Static dielectric constant tensor:
#      x y z
#    x 1.902060 0.000000 0.000000 
#    y 0.000000 2.047850 0.000000 
#    z 0.000000 0.000000 2.218220 
# 
# From -- ./inp_files/1414.got.cif
#   From: 2010.05.17/outbox.cif.g08.bks.cpg/sg26_1_cif.got.tgz:1414.got - 2010.06.04 01:07:29.
