data_PCOD9338147
_publ_section_title
;
Structure prediction by ZEFSAII (Michael W. Deem and Ramdas Pophale) SiO2 
 PCOD9338147
Probable space group: P M C 21
;
_chemical_formula_sum "Si O2"
_cell_formula_units_Z 32
_cell_length_a 9.169767
_cell_length_b 10.994289
_cell_length_c 17.292023
_cell_angle_alpha 90.000000
_cell_angle_beta 90.000000
_cell_angle_gamma 90.000000
_cell_volume 1743.296483
_symmetry_space_group_name_H-M "P M C 21"
_symmetry_group_IT_number 26
_symmetry_cell_setting 'orthorhombic'
loop_
_space_group_symop_operation_xyz
x,y,z
-x,-y,1/2+z
-x,y,z
x,-y,1/2+z
loop_
_atom_site_type_symbol
_atom_site_label
_atom_site_fract_x
_atom_site_fract_y
_atom_site_fract_z
Si Si1 0.665249 0.661930 0.982850
Si Si2 0.332380 0.287997 0.772251
Si Si3 0.339963 0.614300 0.432552
Si Si4 0.172044 0.180221 0.012238
Si Si5 0.176802 0.313074 0.166870
Si Si6 0.674223 0.948046 0.375834
Si Si7 0.827017 0.593596 0.132123
Si Si8 0.676431 0.214985 0.322283
O O1 0.500000 0.706311 0.998556
O O2 0.659111 0.519177 0.964626
O O3 0.717920 0.724118 0.904181
O O4 0.763004 0.664382 0.058450
O O5 0.500000 0.278345 0.744283
O O6 0.328155 0.387619 0.840442
O O7 0.294247 0.163704 0.817418
O O8 0.227142 0.331371 0.705838
O O9 0.500000 0.672348 0.449832
O O10 0.212999 0.694923 0.467850
O O11 0.217424 0.214250 0.100116
O O12 0.000000 0.157525 0.011758
O O13 0.251372 0.079598 0.958823
O O14 0.221708 0.451040 0.141419
O O15 0.247673 0.275238 0.248216
O O16 0.000000 0.313015 0.172775
O O17 0.500000 0.951286 0.387819
O O18 0.715637 0.073494 0.334583
O O19 0.000000 0.590207 0.126849
O O20 0.500000 0.226318 0.314061
#
# Coordination Sequence:
#
# PCOD9338147 Si02
#       8
#     4   4   4   4   4   4   4   4
#     4  10  20  35  56  82 113 145 181 229 282 334
#     4   9  18  34  56  81 109 141 180 229 277 325
#     4   9  17  31  54  82 110 140 178 225 276 328
#     4  10  19  34  57  83 113 148 185 227 274 332
#     4  10  22  38  56  84 119 149 184 230 281 341
#     4   9  20  40  60  81 110 144 191 238 278 329
#     4  11  22  36  54  83 118 149 183 224 278 342
#     4  10  22  40  61  84 110 148 194 238 284 333
#
# _framework density 18.356028999999999
#
# number of rings (size 3 to 8) (size 9 to 14) (size 15 to 20)
#    0.000    2.250    1.250    2.250    0.000    6.000 
#    2.250    0.000    0.000    0.000    0.000    0.000 
#    0.000    0.000    0.000    0.000    0.000    0.000 
#
# Total GULP energy -178299.335275 kJ/mol
# GULP energy per Si atom -5571.854227 kJ/mol
# Density = 1.831425 g / cm^3
# Si number density = 18.356029 Si / 1000 Ang^3
#
#
#
# Elastic Constant Matrix: (Units=GPa)
#
#
# Indices 1 2 3 4 5 6 
#
# 1 35.2523 18.6708 50.8555 0.0000 0.0000 0.0000
# 2 18.6708 29.4076 30.2585 0.0000 0.0000 0.0000
# 3 50.8555 30.2585 135.1872 0.0000 0.0000 0.0000
# 4 0.0000 0.0000 0.0000 21.1815 0.0000 0.0000
# 5 0.0000 0.0000 0.0000 0.0000 10.6332 0.0000
# 6 0.0000 0.0000 0.0000 0.0000 0.0000 18.9076
#
#
#
# Elastic Compliance Matrix: (Units=1/GPa)
#
#
# Indices 1 2 3 4 5 6 
#
# 1 0.072598 -0.023375 -0.022078 0.000000 0.000000 0.000000
# 2 -0.023375 0.051706 -0.002780 0.000000 0.000000 0.000000
# 3 -0.022078 -0.002780 0.016325 0.000000 0.000000 0.000000
# 4 0.000000 0.000000 0.000000 0.047211 0.000000 0.000000
# 5 0.000000 0.000000 0.000000 0.000000 0.094045 0.000000
# 6 0.000000 0.000000 0.000000 0.000000 0.000000 0.052889
#
#
# Mechanical properties :
#
#
# Convention : Reuss Voigt Hill
#
# Bulk Modulus (GPa) = 22.64377 44.37962 33.51170
# Shear Modulus (GPa) = 11.21178 16.81529 14.01354
#
# Velocity S-wave (km/s) = 2.47411 3.02994 2.76602
# Velocity P-wave (km/s) = 4.53037 6.03907 5.33829
#
# Compressibility (1/GPa) = 0.04416226
#
# Stress axis : x y z
#
# Youngs Moduli (GPa) = 13.77455 19.34023 61.25613
#
# Poissons Ratio (x) = 0.45208 1.35243
# Poissons Ratio (y) = 0.32198 0.17028
# Poissons Ratio (z) = 0.30412 0.05376
#
# Static dielectric constant tensor:
#      x y z
#    x 1.649670 0.000000 0.000000 
#    y 0.000000 1.641980 0.000000 
#    z 0.000000 0.000000 1.629840 
# 
# From -- ./inp_files/4288.got.cif
#   From: 2010.05.17/outbox.cif.g08.bks.cpg/sg26_3_cif.got.tgz:4288.got - 2010.06.04 01:07:29.
