data_PCOD9338908
_publ_section_title
;
Structure prediction by ZEFSAII (Michael W. Deem and Ramdas Pophale) SiO2 
 PCOD9338908
Probable space group: P C C 2
;
_chemical_formula_sum "Si O2"
_cell_formula_units_Z 32
_cell_length_a 16.565387
_cell_length_b 16.369178
_cell_length_c 5.371523
_cell_angle_alpha 90.000000
_cell_angle_beta 90.000000
_cell_angle_gamma 90.000000
_cell_volume 1456.551676
_symmetry_space_group_name_H-M "P C C 2"
_symmetry_group_IT_number 27
_symmetry_cell_setting 'orthorhombic'
loop_
_space_group_symop_operation_xyz
x,y,z
-x,-y,z
-x,y,1/2+z
x,-y,1/2+z
loop_
_atom_site_type_symbol
_atom_site_label
_atom_site_fract_x
_atom_site_fract_y
_atom_site_fract_z
Si Si1 0.029917 0.408004 0.154060
Si Si2 0.407476 0.965912 0.100302
Si Si3 0.792577 0.372649 0.672741
Si Si4 0.092596 0.965291 0.745641
Si Si5 0.799398 0.822645 0.182164
Si Si6 0.301505 0.177078 0.684246
Si Si7 0.471395 0.407940 0.856812
Si Si8 0.298807 0.627676 0.174348
O O1 0.122501 0.413129 0.226626
O O2 0.000000 0.500000 0.113181
O O3 0.982669 0.367424 0.383983
O O4 0.500000 0.000000 0.081781
O O5 0.371090 0.984948 0.831548
O O6 0.385661 0.872682 0.165299
O O7 0.808760 0.275125 0.675395
O O8 0.762000 0.394400 0.397580
O O9 0.731985 0.392143 0.898395
O O10 0.115658 0.871480 0.692327
O O11 0.129098 0.012571 0.511641
O O12 0.000000 0.000000 0.760913
O O13 0.750173 0.840405 0.435479
O O14 0.748114 0.845074 0.934772
O O15 0.313187 0.274587 0.689049
O O16 0.500000 0.500000 0.904680
O O17 0.523250 0.368128 0.631506
O O18 0.382605 0.412047 0.746853
#
# Coordination Sequence:
#
# PCOD9338908 Si02
#       8
#     4   4   4   4   4   4   4   4
#     4  10  21  40  60  90 128 155 198 243 298 358
#     4  10  21  37  53  80 119 147 194 236 290 350
#     4  10  21  40  63  89 122 158 203 248 298 352
#     4  10  21  37  53  80 119 147 194 236 290 350
#     4  10  21  37  59  85 113 152 196 242 290 343
#     4  10  21  37  59  85 113 152 196 242 290 343
#     4  10  21  40  60  90 128 155 198 243 298 358
#     4  10  21  40  63  89 122 158 203 248 298 352
#
# _framework density 21.969697
#
# number of rings (size 3 to 8) (size 9 to 14) (size 15 to 20)
#    0.000    2.000    0.000    3.000    0.000    3.000 
#    9.000   15.000    0.000    0.000    0.000    0.000 
#    0.000    0.000    0.000    0.000    0.000    0.000 
#
# Total GULP energy -178404.587622 kJ/mol
# GULP energy per Si atom -5575.143363 kJ/mol
# Density = 2.191969 g / cm^3
# Si number density = 21.969697 Si / 1000 Ang^3
#
#
#
# Elastic Constant Matrix: (Units=GPa)
#
#
# Indices 1 2 3 4 5 6 
#
# 1 68.4379 28.9699 -9.2417 0.0000 0.0000 0.0000
# 2 28.9699 37.4420 -3.4430 0.0000 0.0000 0.0000
# 3 -9.2417 -3.4430 141.5508 0.0000 0.0000 0.0000
# 4 0.0000 0.0000 0.0000 4.6631 0.0000 0.0000
# 5 0.0000 0.0000 0.0000 0.0000 21.0607 0.0000
# 6 0.0000 0.0000 0.0000 0.0000 0.0000 -7.7388
#
#
#
# Elastic Compliance Matrix: (Units=1/GPa)
#
#
# Indices 1 2 3 4 5 6 
#
# 1 0.021874 -0.016831 0.001019 0.000000 0.000000 0.000000
# 2 -0.016831 0.039718 -0.000133 0.000000 0.000000 0.000000
# 3 0.001019 -0.000133 0.007128 0.000000 0.000000 0.000000
# 4 0.000000 0.000000 0.000000 0.214449 0.000000 0.000000
# 5 0.000000 0.000000 0.000000 0.000000 0.047482 0.000000
# 6 0.000000 0.000000 0.000000 0.000000 0.000000 -0.129219
#
#
# Mechanical properties :
#
#
# Convention : Reuss Voigt Hill
#
# Bulk Modulus (GPa) = 27.15150 31.11124 29.13137
# Shear Modulus (GPa) = 20.35847 19.00670 19.68259
#
# Velocity S-wave (km/s) = 3.04741 2.94450 2.99640
# Velocity P-wave (km/s) = 4.97672 5.07463 5.02591
#
# Compressibility (1/GPa) = 0.03683037
#
# Stress axis : x y z
#
# Youngs Moduli (GPa) = 45.71677 25.17743 140.29414
#
# Poissons Ratio (x) = 0.42375 -0.14292
# Poissons Ratio (y) = 0.76944 0.01863
# Poissons Ratio (z) = -0.04657 0.00334
#
# Static dielectric constant tensor:
#      x y z
#    x 1.704270 0.000000 0.000000 
#    y 0.000000 1.808500 0.000000 
#    z 0.000000 0.000000 1.908060 
# 
# From -- ./inp_files/496.got.cif
#   From: 2010.05.17/outbox.cif.g08.bks.cpg/sg27_1_cif.got.tgz:496.got - 2010.06.04 01:11:05.
