data_PCOD9338053
_publ_section_title
;
Structure prediction by ZEFSAII (Michael W. Deem and Ramdas Pophale) SiO2 
 PCOD9338053
Probable space group: P M C 21
;
_chemical_formula_sum "Si O2"
_cell_formula_units_Z 32
_cell_length_a 9.176286
_cell_length_b 11.817669
_cell_length_c 17.477317
_cell_angle_alpha 90.000000
_cell_angle_beta 90.000000
_cell_angle_gamma 90.000000
_cell_volume 1895.280639
_symmetry_space_group_name_H-M "P M C 21"
_symmetry_group_IT_number 26
_symmetry_cell_setting 'orthorhombic'
loop_
_space_group_symop_operation_xyz
x,y,z
-x,-y,1/2+z
-x,y,z
x,-y,1/2+z
loop_
_atom_site_type_symbol
_atom_site_label
_atom_site_fract_x
_atom_site_fract_y
_atom_site_fract_z
Si Si1 0.326242 0.232417 0.388420
Si Si2 0.166828 0.448929 0.330672
Si Si3 0.833989 0.343259 0.158755
Si Si4 0.175130 0.123564 0.242591
Si Si5 0.666514 0.343909 0.773683
Si Si6 0.334134 0.547740 0.102503
Si Si7 0.827375 0.863677 0.206692
Si Si8 0.827578 0.240530 0.540561
O O1 0.500000 0.230839 0.387542
O O2 0.265386 0.359724 0.375747
O O3 0.260206 0.160491 0.318494
O O4 0.260530 0.192632 0.468892
O O5 0.163302 0.400165 0.243556
O O6 0.237626 0.572530 0.325554
O O7 0.000000 0.450302 0.358354
O O8 0.788264 0.214487 0.176098
O O9 0.729825 0.421733 0.108581
O O10 0.000000 0.345937 0.129464
O O11 0.000000 0.135840 0.255646
O O12 0.206022 0.994735 0.220733
O O13 0.500000 0.336712 0.800277
O O14 0.664193 0.402256 0.689221
O O15 0.737829 0.221882 0.760015
O O16 0.500000 0.550623 0.073724
O O17 0.230594 0.632788 0.056751
O O18 0.800037 0.828604 0.118653
O O19 0.000000 0.845590 0.220331
O O20 0.000000 0.240920 0.525328
#
# Coordination Sequence:
#
# PCOD9338053 Si02
#       8
#     4   4   4   4   4   4   4   4
#     4  11  21  32  48  72 100 128 160 203 255 306
#     4   9  16  28  46  67  92 122 155 190 232 285
#     4   8  14  25  43  66  91 118 149 189 234 279
#     4   9  18  33  51  72  98 130 171 213 248 291
#     4   9  16  26  43  69  98 123 150 191 240 284
#     4   9  16  26  42  66  94 120 148 186 234 287
#     4   9  18  32  51  73  97 130 173 213 246 289
#     4  10  19  32  50  71  96 127 162 203 251 301
#
# _framework density 16.884041
#
# number of rings (size 3 to 8) (size 9 to 14) (size 15 to 20)
#    0.000    2.750    0.000    3.375    0.000    7.000 
#    0.000    0.000    0.000    1.500    0.000    3.500 
#    0.000    0.000    0.000    0.000    0.000    0.000 
#
# Total GULP energy -178327.633484 kJ/mol
# GULP energy per Si atom -5572.738546 kJ/mol
# Density = 1.684561 g / cm^3
# Si number density = 16.884041 Si / 1000 Ang^3
#
#
#
# Elastic Constant Matrix: (Units=GPa)
#
#
# Indices 1 2 3 4 5 6 
#
# 1 103.9140 65.9375 37.1223 0.0000 0.0000 0.0000
# 2 65.9375 136.1569 28.0949 0.0000 0.0000 0.0000
# 3 37.1223 28.0949 38.0433 0.0000 0.0000 0.0000
# 4 0.0000 0.0000 0.0000 9.3105 0.0000 0.0000
# 5 0.0000 0.0000 0.0000 0.0000 17.2995 0.0000
# 6 0.0000 0.0000 0.0000 0.0000 0.0000 14.6773
#
#
#
# Elastic Compliance Matrix: (Units=1/GPa)
#
#
# Indices 1 2 3 4 5 6 
#
# 1 0.018238 -0.006088 -0.013300 0.000000 0.000000 0.000000
# 2 -0.006088 0.010697 -0.001959 0.000000 0.000000 0.000000
# 3 -0.013300 -0.001959 0.040711 0.000000 0.000000 0.000000
# 4 0.000000 0.000000 0.000000 0.107405 0.000000 0.000000
# 5 0.000000 0.000000 0.000000 0.000000 0.057805 0.000000
# 6 0.000000 0.000000 0.000000 0.000000 0.000000 0.068132
#
#
# Mechanical properties :
#
#
# Convention : Reuss Voigt Hill
#
# Bulk Modulus (GPa) = 37.10443 60.04705 48.57574
# Shear Modulus (GPa) = 14.09772 18.05475 16.07623
#
# Velocity S-wave (km/s) = 2.89272 3.27362 3.08905
# Velocity P-wave (km/s) = 5.76029 7.06614 6.44637
#
# Compressibility (1/GPa) = 0.02695096
#
# Stress axis : x y z
#
# Youngs Moduli (GPa) = 54.83172 93.48539 24.56322
#
# Poissons Ratio (x) = 0.56910 0.32670
# Poissons Ratio (y) = 0.33379 0.04813
# Poissons Ratio (z) = 0.72928 0.18317
#
# Static dielectric constant tensor:
#      x y z
#    x 1.568270 0.000000 0.000000 
#    y 0.000000 1.566380 0.000000 
#    z 0.000000 0.000000 1.579590 
# 
# From -- ./inp_files/5015.got.cif
#   From: 2010.05.17/outbox.cif.g08.bks.cpg/sg26_3_cif.got.tgz:5015.got - 2010.06.04 01:07:29.
