data_PCOD9338015
_publ_section_title
;
Structure prediction by ZEFSAII (Michael W. Deem and Ramdas Pophale) SiO2 
 PCOD9338015
Probable space group: P M C 21
;
_chemical_formula_sum "Si O2"
_cell_formula_units_Z 26
_cell_length_a 12.563954
_cell_length_b 27.355767
_cell_length_c 5.283192
_cell_angle_alpha 90.000000
_cell_angle_beta 90.000000
_cell_angle_gamma 90.000000
_cell_volume 1815.815118
_symmetry_space_group_name_H-M "P M C 21"
_symmetry_group_IT_number 26
_symmetry_cell_setting 'orthorhombic'
loop_
_space_group_symop_operation_xyz
x,y,z
-x,-y,1/2+z
-x,y,z
x,-y,1/2+z
loop_
_atom_site_type_symbol
_atom_site_label
_atom_site_fract_x
_atom_site_fract_y
_atom_site_fract_z
Si Si1 0.129693 0.141535 0.767520
Si Si2 0.870173 0.199613 0.267492
Si Si3 0.128511 0.628901 0.312626
Si Si4 0.870798 0.688222 0.812172
Si Si5 0.129728 0.029007 0.810079
Si Si6 0.500000 0.468915 0.844884
Si Si7 0.733401 0.533279 0.263540
O O1 0.163034 0.167654 0.508751
O O2 0.164194 0.085275 0.789006
O O3 0.000000 0.140988 0.767210
O O4 0.163091 0.173429 0.008817
O O5 0.834550 0.255741 0.289306
O O6 0.000000 0.200307 0.267107
O O7 0.161036 0.655815 0.571474
O O8 0.181784 0.576177 0.288441
O O9 0.000000 0.624260 0.312136
O O10 0.159886 0.662306 0.073330
O O11 0.000000 0.689741 0.810161
O O12 0.000000 0.029519 0.810499
O O13 0.163194 0.997195 0.568542
O O14 0.500000 0.513127 0.636468
O O15 0.386408 0.444695 0.788958
O O16 0.743677 0.495104 0.496868
#
# Coordination Sequence:
#
# PCOD9338015 Si02
#       7
#     4   4   4   4   4   2   4
#     4   9  15  21  30  43  55  73 105 139 172 214
#     4   9  15  23  34  45  58  78 107 141 171 206
#     4  10  19  29  41  58  79 101 123 147 182 228
#     4   9  17  28  39  52  72  96 119 146 182 222
#     4   9  15  21  27  36  53  74  95 127 174 222
#     4   8  16  30  46  62  78  98 124 152 180 208
#     4  10  19  31  46  62  80 101 125 152 180 216
#
# _framework density 14.318638999999999
#
# number of rings (size 3 to 8) (size 9 to 14) (size 15 to 20)
#    0.000    2.769    0.000    2.769    0.000    8.000 
#    0.000    0.000    0.000    0.000    0.000    0.000 
#    0.000    0.000    0.000    0.000    0.000    0.000 
#
# Total GULP energy -144746.180209 kJ/mol
# GULP energy per Si atom -5567.160777 kJ/mol
# Density = 1.428605 g / cm^3
# Si number density = 14.318639 Si / 1000 Ang^3
#
#
#
# Elastic Constant Matrix: (Units=GPa)
#
#
# Indices 1 2 3 4 5 6 
#
# 1 15.2106 7.4433 -1.8397 0.0000 0.0000 0.0000
# 2 7.4433 38.3981 -17.2214 0.0000 0.0000 0.0000
# 3 -1.8397 -17.2214 50.8187 0.0000 0.0000 0.0000
# 4 0.0000 0.0000 0.0000 26.5626 0.0000 0.0000
# 5 0.0000 0.0000 0.0000 0.0000 5.7697 0.0000
# 6 0.0000 0.0000 0.0000 0.0000 0.0000 -0.6000
#
#
#
# Elastic Compliance Matrix: (Units=1/GPa)
#
#
# Indices 1 2 3 4 5 6 
#
# 1 0.072909 -0.015270 -0.002535 0.000000 0.000000 0.000000
# 2 -0.015270 0.033909 0.010938 0.000000 0.000000 0.000000
# 3 -0.002535 0.010938 0.023293 0.000000 0.000000 0.000000
# 4 0.000000 0.000000 0.000000 0.037647 0.000000 0.000000
# 5 0.000000 0.000000 0.000000 0.000000 0.173318 0.000000
# 6 0.000000 0.000000 0.000000 0.000000 0.000000 -1.666645
#
#
# Mechanical properties :
#
#
# Convention : Reuss Voigt Hill
#
# Bulk Modulus (GPa) = 8.59286 9.02133 8.80709
# Shear Modulus (GPa) = -3.92760 14.08281 5.07761
#
# Velocity S-wave (km/s) = -1.65800 3.13953 1.88517
# Velocity P-wave (km/s) = 1.53262 4.41093 3.30191
#
# Compressibility (1/GPa) = 0.11637575
#
# Stress axis : x y z
#
# Youngs Moduli (GPa) = 13.71566 29.49085 42.93187
#
# Poissons Ratio (x) = 0.45034 0.10885
# Poissons Ratio (y) = 0.20944 -0.46960
# Poissons Ratio (z) = 0.03477 -0.32258
#
# Static dielectric constant tensor:
#      x y z
#    x 1.446960 0.000000 0.000000 
#    y 0.000000 1.461890 0.000000 
#    z 0.000000 0.000000 1.486000 
# 
# From -- ./inp_files/658.got.cif
#   From: 2010.05.17/outbox.cif.g08.bks.cpg/sg26_1_cif.got.tgz:658.got - 2010.06.04 01:07:29.
