data_PCOD9338894
_publ_section_title
;
Structure prediction by ZEFSAII (Michael W. Deem and Ramdas Pophale) SiO2 
 PCOD9338894
Probable space group: P C C 2
;
_chemical_formula_sum "Si O2"
_cell_formula_units_Z 32
_cell_length_a 13.432059
_cell_length_b 13.432064
_cell_length_c 8.366743
_cell_angle_alpha 90.000000
_cell_angle_beta 90.000000
_cell_angle_gamma 90.000000
_cell_volume 1509.530082
_symmetry_space_group_name_H-M "P C C 2"
_symmetry_group_IT_number 27
_symmetry_cell_setting 'orthorhombic'
loop_
_space_group_symop_operation_xyz
x,y,z
-x,-y,z
-x,y,1/2+z
x,-y,1/2+z
loop_
_atom_site_type_symbol
_atom_site_label
_atom_site_fract_x
_atom_site_fract_y
_atom_site_fract_z
Si Si1 0.217768 0.369860 0.393280
Si Si2 0.690911 0.852123 0.915792
Si Si3 0.630140 0.782232 0.393280
Si Si4 0.147878 0.309089 0.915791
Si Si5 0.545679 0.301737 0.560348
Si Si6 0.384444 0.022773 0.213390
Si Si7 0.022773 0.615556 0.713389
Si Si8 0.698262 0.454321 0.560347
O O1 0.257097 0.257097 0.402765
O O2 0.100893 0.382662 0.363026
O O3 0.268609 0.433351 0.533053
O O4 0.266648 0.417354 0.233431
O O5 0.795888 0.795888 0.914435
O O6 0.668466 0.921551 0.765778
O O7 0.607768 0.766759 0.936787
O O8 0.672385 0.920345 0.072152
O O9 0.566649 0.731391 0.533053
O O10 0.582646 0.733352 0.233432
O O11 0.617338 0.899107 0.363026
O O12 0.078449 0.331534 0.765778
O O13 0.079655 0.327615 0.072151
O O14 0.233241 0.392232 0.936786
O O15 0.585751 0.414249 0.538179
O O16 0.500000 0.000000 0.175015
O O17 0.000000 0.500000 0.675015
#
# Coordination Sequence:
#
# PCOD9338894 Si02
#       8
#     4   4   4   4   4   4   4   4
#     4  10  21  35  54  83 119 154 194 241 288 346
#     4  10  22  39  60  90 124 151 193 255 304 349
#     4  10  21  35  54  83 119 154 194 241 288 346
#     4  10  22  39  60  90 124 151 193 255 304 349
#     4   9  19  35  52  78 116 153 187 233 290 345
#     4  11  20  36  65  91 115 157 202 245 298 355
#     4  11  20  36  65  91 115 157 202 245 298 355
#     4   9  19  35  52  78 116 153 187 233 290 345
#
# _framework density 21.198647999999999
#
# number of rings (size 3 to 8) (size 9 to 14) (size 15 to 20)
#    0.000    2.000    2.500    3.000    3.500    1.500 
#    0.000    7.500    0.000    6.000    0.000    0.000 
#    0.000    0.000    0.000    0.000    0.000    0.000 
#
# Total GULP energy -178702.807507 kJ/mol
# GULP energy per Si atom -5584.462735 kJ/mol
# Density = 2.115040 g / cm^3
# Si number density = 21.198648 Si / 1000 Ang^3
#
#
#
# Elastic Constant Matrix: (Units=GPa)
#
#
# Indices 1 2 3 4 5 6 
#
# 1 87.4352 70.3370 24.7851 0.0000 0.0000 0.0000
# 2 70.3370 87.4359 24.7851 0.0000 0.0000 0.0000
# 3 24.7851 24.7851 45.0596 0.0000 0.0000 0.0000
# 4 0.0000 0.0000 0.0000 9.0882 0.0000 0.0000
# 5 0.0000 0.0000 0.0000 0.0000 9.0881 0.0000
# 6 0.0000 0.0000 0.0000 0.0000 0.0000 40.7268
#
#
#
# Elastic Compliance Matrix: (Units=1/GPa)
#
#
# Indices 1 2 3 4 5 6 
#
# 1 0.033074 -0.025411 -0.004215 0.000000 0.000000 0.000000
# 2 -0.025411 0.033073 -0.004215 0.000000 0.000000 0.000000
# 3 -0.004215 -0.004215 0.026830 0.000000 0.000000 0.000000
# 4 0.000000 0.000000 0.000000 0.110033 0.000000 0.000000
# 5 0.000000 0.000000 0.000000 0.000000 0.110034 0.000000
# 6 0.000000 0.000000 0.000000 0.000000 0.000000 0.024554
#
#
# Mechanical properties :
#
#
# Convention : Reuss Voigt Hill
#
# Bulk Modulus (GPa) = 39.53283 51.08278 45.30780
# Shear Modulus (GPa) = 12.08578 18.44886 15.26732
#
# Velocity S-wave (km/s) = 2.39031 2.95326 2.68657
# Velocity P-wave (km/s) = 5.12907 5.98151 5.57162
#
# Compressibility (1/GPa) = 0.02529543
#
# Stress axis : x y z
#
# Youngs Moduli (GPa) = 30.23556 30.23587 37.27240
#
# Poissons Ratio (x) = 0.76832 0.15710
# Poissons Ratio (y) = 0.76832 0.15709
# Poissons Ratio (z) = 0.12744 0.12743
#
# Static dielectric constant tensor:
#      x y z
#    x 1.790520 0.000000 0.000000 
#    y 0.000000 1.790520 0.000000 
#    z 0.000000 0.000000 1.853350 
# 
# From -- ./inp_files/1619.got.cif
#   From: 2010.05.17/outbox.cif.g08.bks.cpg/sg27_1_cif.got.tgz:1619.got - 2010.06.04 01:11:05.
