data_PCOD9338047
_publ_section_title
;
Structure prediction by ZEFSAII (Michael W. Deem and Ramdas Pophale) SiO2 
 PCOD9338047
Probable space group: P M C 21
;
_chemical_formula_sum "Si O2"
_cell_formula_units_Z 24
_cell_length_a 9.157355
_cell_length_b 10.241576
_cell_length_c 11.964156
_cell_angle_alpha 90.000000
_cell_angle_beta 90.000000
_cell_angle_gamma 90.000000
_cell_volume 1122.067310
_symmetry_space_group_name_H-M "P M C 21"
_symmetry_group_IT_number 26
_symmetry_cell_setting 'orthorhombic'
loop_
_space_group_symop_operation_xyz
x,y,z
-x,-y,1/2+z
-x,y,z
x,-y,1/2+z
loop_
_atom_site_type_symbol
_atom_site_label
_atom_site_fract_x
_atom_site_fract_y
_atom_site_fract_z
Si Si1 0.163776 0.586224 0.184960
Si Si2 0.668165 0.593952 0.381493
Si Si3 0.675177 0.026650 0.176833
Si Si4 0.330449 0.323766 0.124616
Si Si5 0.676474 0.056793 0.423726
Si Si6 0.166434 0.673567 0.934522
O O1 0.271739 0.656991 0.269713
O O2 0.227562 0.441446 0.162417
O O3 0.000000 0.579882 0.229971
O O4 0.160651 0.659056 0.068083
O O5 0.500000 0.557437 0.371149
O O6 0.683112 0.681855 0.490442
O O7 0.762677 0.462940 0.397066
O O8 0.500000 0.003539 0.175368
O O9 0.701504 0.182601 0.171875
O O10 0.724383 0.987829 0.304644
O O11 0.727196 0.980868 0.051542
O O12 0.500000 0.357850 0.149544
O O13 0.500000 0.048064 0.425016
O O14 0.731122 0.205057 0.409505
O O15 0.000000 0.689927 0.893013
#
# Coordination Sequence:
#
# PCOD9338047 Si02
#       6
#     4   4   4   4   4   4
#     4  10  20  33  51  77 110 143 175 219 275 332
#     4  10  19  31  52  80 108 140 179 223 270 326
#     4   9  19  35  56  81 107 138 179 229 279 325
#     4   9  18  33  52  76 106 140 182 226 270 327
#     4  10  20  36  58  81 107 142 185 231 280 332
#     4  10  21  36  53  77 110 145 182 224 274 330
#
# _framework density 21.389089999999999
#
# number of rings (size 3 to 8) (size 9 to 14) (size 15 to 20)
#    0.000    2.333    0.000    2.500    0.000    5.333 
#    0.000    5.000    0.000    0.000    0.000    0.000 
#    0.000    0.000    0.000    0.000    0.000    0.000 
#
# Total GULP energy -133708.363910 kJ/mol
# GULP energy per Si atom -5571.181830 kJ/mol
# Density = 2.134041 g / cm^3
# Si number density = 21.389090 Si / 1000 Ang^3
#
#
#
# Elastic Constant Matrix: (Units=GPa)
#
#
# Indices 1 2 3 4 5 6 
#
# 1 29.4131 3.8876 23.4210 0.0000 0.0000 0.0000
# 2 3.8876 20.6533 4.8598 0.0000 0.0000 0.0000
# 3 23.4210 4.8598 158.5144 0.0000 0.0000 0.0000
# 4 0.0000 0.0000 0.0000 -11.0489 0.0000 0.0000
# 5 0.0000 0.0000 0.0000 0.0000 24.4644 0.0000
# 6 0.0000 0.0000 0.0000 0.0000 0.0000 2.6698
#
#
#
# Elastic Compliance Matrix: (Units=1/GPa)
#
#
# Indices 1 2 3 4 5 6 
#
# 1 0.039273 -0.006071 -0.005617 0.000000 0.000000 0.000000
# 2 -0.006071 0.049709 -0.000627 0.000000 0.000000 0.000000
# 3 -0.005617 -0.000627 0.007158 0.000000 0.000000 0.000000
# 4 0.000000 0.000000 0.000000 -0.090507 0.000000 0.000000
# 5 0.000000 0.000000 0.000000 0.000000 0.040876 0.000000
# 6 0.000000 0.000000 0.000000 0.000000 0.000000 0.374566
#
#
# Mechanical properties :
#
#
# Convention : Reuss Voigt Hill
#
# Bulk Modulus (GPa) = 13.98395 30.32417 22.15406
# Shear Modulus (GPa) = 10.64870 14.97788 12.81329
#
# Velocity S-wave (km/s) = 2.23369 2.64911 2.45022
# Velocity P-wave (km/s) = 3.63381 4.85440 4.28776
#
# Compressibility (1/GPa) = 0.07151058
#
# Stress axis : x y z
#
# Youngs Moduli (GPa) = 25.46261 20.11723 139.71031
#
# Poissons Ratio (x) = 0.12213 0.78470
# Poissons Ratio (y) = 0.15458 0.08760
# Poissons Ratio (z) = 0.14301 0.01261
#
# Static dielectric constant tensor:
#      x y z
#    x 1.734770 0.000000 0.000000 
#    y 0.000000 1.754730 0.000000 
#    z 0.000000 0.000000 1.949150 
# 
# From -- ./inp_files/2802.got.cif
#   From: 2010.05.17/outbox.cif.g08.bks.cpg/sg26_2_cif.got.tgz:2802.got - 2010.06.04 01:07:29.
