data_PCOD9338502
_publ_section_title
;
Structure prediction by ZEFSAII (Michael W. Deem and Ramdas Pophale) SiO2 
 PCOD9338502
Probable space group: P M C 21
;
_chemical_formula_sum "Si O2"
_cell_formula_units_Z 28
_cell_length_a 10.166995
_cell_length_b 6.588822
_cell_length_c 18.513931
_cell_angle_alpha 90.000000
_cell_angle_beta 90.000000
_cell_angle_gamma 90.000000
_cell_volume 1240.220843
_symmetry_space_group_name_H-M "P M C 21"
_symmetry_group_IT_number 26
_symmetry_cell_setting 'orthorhombic'
loop_
_space_group_symop_operation_xyz
x,y,z
-x,-y,1/2+z
-x,y,z
x,-y,1/2+z
loop_
_atom_site_type_symbol
_atom_site_label
_atom_site_fract_x
_atom_site_fract_y
_atom_site_fract_z
Si Si1 0.149521 0.004096 0.326300
Si Si2 0.648692 0.334053 0.995565
Si Si3 0.159028 0.019184 0.043628
Si Si4 0.719224 0.372828 0.749953
Si Si5 0.355651 0.700335 0.093768
Si Si6 0.858139 0.264672 0.179878
Si Si7 0.355130 0.325466 0.373106
O O1 0.138132 0.126655 0.250843
O O2 0.243088 0.154283 0.371650
O O3 0.000000 0.977734 0.354505
O O4 0.217089 0.793524 0.302608
O O5 0.500000 0.247596 0.988835
O O6 0.765586 0.171036 0.989087
O O7 0.652121 0.464350 0.070090
O O8 0.662681 0.508542 0.935389
O O9 0.204825 0.125315 0.119159
O O10 0.000000 0.999028 0.035369
O O11 0.235676 0.808268 0.052708
O O12 0.647347 0.275849 0.680760
O O13 0.820551 0.514273 0.706754
O O14 0.647595 0.539256 0.799742
O O15 0.500000 0.773937 0.068481
O O16 0.000000 0.295075 0.145670
O O17 0.500000 0.230881 0.379585
#
# Coordination Sequence:
#
# PCOD9338502 Si02
#       7
#     4   4   4   4   4   4   4
#     4  10  21  38  62  90 123 159 199 248 306 364
#     4  10  23  45  64  85 123 169 210 254 311 366
#     4  11  22  38  63  93 123 158 203 253 308 366
#     4  11  20  37  62  94 121 157 206 254 308 364
#     4  11  23  38  61  92 123 159 203 255 312 373
#     4   9  18  33  55  88 123 153 189 242 303 358
#     4  10  24  43  63  88 124 167 210 256 306 367
#
# _framework density 22.576625
#
# number of rings (size 3 to 8) (size 9 to 14) (size 15 to 20)
#    0.000    1.714    2.857    1.286    0.000    4.571 
#    0.000    4.286    0.000    0.000    0.000    0.000 
#    0.000    0.000    0.000    0.000    0.000    0.000 
#
# Total GULP energy -156001.236452 kJ/mol
# GULP energy per Si atom -5571.472730 kJ/mol
# Density = 2.252524 g / cm^3
# Si number density = 22.576625 Si / 1000 Ang^3
#
#
#
# Elastic Constant Matrix: (Units=GPa)
#
#
# Indices 1 2 3 4 5 6 
#
# 1 148.0904 67.9438 15.2347 0.0000 0.0000 0.0000
# 2 67.9438 89.1210 4.3659 0.0000 0.0000 0.0000
# 3 15.2347 4.3659 72.7864 0.0000 0.0000 0.0000
# 4 0.0000 0.0000 0.0000 41.1026 0.0000 0.0000
# 5 0.0000 0.0000 0.0000 0.0000 18.1216 0.0000
# 6 0.0000 0.0000 0.0000 0.0000 0.0000 9.0596
#
#
#
# Elastic Compliance Matrix: (Units=1/GPa)
#
#
# Indices 1 2 3 4 5 6 
#
# 1 0.010600 -0.007996 -0.001739 0.000000 0.000000 0.000000
# 2 -0.007996 0.017286 0.000637 0.000000 0.000000 0.000000
# 3 -0.001739 0.000637 0.014065 0.000000 0.000000 0.000000
# 4 0.000000 0.000000 0.000000 0.024329 0.000000 0.000000
# 5 0.000000 0.000000 0.000000 0.000000 0.055183 0.000000
# 6 0.000000 0.000000 0.000000 0.000000 0.000000 0.110380
#
#
# Mechanical properties :
#
#
# Convention : Reuss Voigt Hill
#
# Bulk Modulus (GPa) = 42.09883 53.89849 47.99866
# Shear Modulus (GPa) = 19.38306 28.48699 23.93503
#
# Velocity S-wave (km/s) = 2.93327 3.55602 3.25956
# Velocity P-wave (km/s) = 5.49178 6.38638 5.95590
#
# Compressibility (1/GPa) = 0.02375363
#
# Stress axis : x y z
#
# Youngs Moduli (GPa) = 94.33825 57.85172 71.10033
#
# Poissons Ratio (x) = 0.46259 0.12365
# Poissons Ratio (y) = 0.75434 -0.04528
# Poissons Ratio (z) = 0.16406 -0.03684
#
# Static dielectric constant tensor:
#      x y z
#    x 1.859980 0.000000 0.000000 
#    y 0.000000 1.814580 0.000000 
#    z 0.000000 0.000000 1.927030 
# 
# From -- ./inp_files/5406.got.cif
#   From: 2010.05.17/outbox.cif.g08.bks.cpg/sg26_3_cif.got.tgz:5406.got - 2010.06.04 01:07:29.
