data_PCOD9338878
_publ_section_title
;
Structure prediction by ZEFSAII (Michael W. Deem and Ramdas Pophale) SiO2 
 PCOD9338878
Probable space group: P C C 2
;
_chemical_formula_sum "Si O2"
_cell_formula_units_Z 32
_cell_length_a 15.537883
_cell_length_b 7.671573
_cell_length_c 13.651094
_cell_angle_alpha 90.000000
_cell_angle_beta 90.000000
_cell_angle_gamma 90.000000
_cell_volume 1627.210455
_symmetry_space_group_name_H-M "P C C 2"
_symmetry_group_IT_number 27
_symmetry_cell_setting 'orthorhombic'
loop_
_space_group_symop_operation_xyz
x,y,z
-x,-y,z
-x,y,1/2+z
x,-y,1/2+z
loop_
_atom_site_type_symbol
_atom_site_label
_atom_site_fract_x
_atom_site_fract_y
_atom_site_fract_z
Si Si1 0.099234 0.548752 0.429320
Si Si2 0.633163 0.751754 0.980815
Si Si3 0.378713 0.349498 0.406494
Si Si4 0.199223 0.754355 0.816676
Si Si5 0.467045 0.300295 0.592342
Si Si6 0.098157 0.938764 0.419420
Si Si7 0.540897 0.182887 0.300452
Si Si8 0.815644 0.760665 0.083464
O O1 0.146282 0.403839 0.366012
O O2 0.144727 0.584696 0.534349
O O3 0.000000 0.500000 0.442859
O O4 0.105518 0.740444 0.380263
O O5 0.631400 0.553003 0.936584
O O6 0.554625 0.791922 0.055379
O O7 0.721411 0.780416 0.036151
O O8 0.613131 0.854831 0.881413
O O9 0.297753 0.280525 0.347131
O O10 0.394798 0.261723 0.511952
O O11 0.466340 0.304115 0.348197
O O12 0.160610 0.929293 0.864277
O O13 0.187885 0.758061 0.699690
O O14 0.500000 0.500000 0.588077
O O15 0.431508 0.267809 0.699481
O O16 0.126683 0.912062 0.533062
O O17 0.000000 0.000000 0.412427
O O18 0.500000 0.000000 0.273427
#
# Coordination Sequence:
#
# PCOD9338878 Si02
#       8
#     4   4   4   4   4   4   4   4
#     4  10  22  46  67  99 134 166 216 270 319 393
#     4  10  20  42  60  86 125 155 221 270 297 388
#     4  10  21  39  63  85 120 168 210 270 311 371
#     4  12  22  45  70  94 135 173 215 270 329 381
#     4   9  19  37  60  86 116 165 217 256 315 378
#     4  10  23  45  65 100 136 166 215 271 320 393
#     4  11  23  35  58  88 126 170 204 258 327 378
#     4  10  24  41  67 100 127 172 217 266 323 392
#
# _framework density 19.665558000000001
#
# number of rings (size 3 to 8) (size 9 to 14) (size 15 to 20)
#    0.750    1.000    2.500    2.625    1.750    4.000 
#    4.500    0.000    0.000    0.000    0.000    0.000 
#    0.000    0.000    0.000    0.000    0.000    0.000 
#
# Total GULP energy -178388.786959 kJ/mol
# GULP energy per Si atom -5574.649592 kJ/mol
# Density = 1.962080 g / cm^3
# Si number density = 19.665558 Si / 1000 Ang^3
#
#
#
# Elastic Constant Matrix: (Units=GPa)
#
#
# Indices 1 2 3 4 5 6 
#
# 1 82.0481 8.8671 40.0230 0.0000 0.0000 0.0000
# 2 8.8671 67.1057 17.3178 0.0000 0.0000 0.0000
# 3 40.0230 17.3178 158.6037 0.0000 0.0000 0.0000
# 4 0.0000 0.0000 0.0000 9.2445 0.0000 0.0000
# 5 0.0000 0.0000 0.0000 0.0000 9.9721 0.0000
# 6 0.0000 0.0000 0.0000 0.0000 0.0000 15.1733
#
#
#
# Elastic Compliance Matrix: (Units=1/GPa)
#
#
# Indices 1 2 3 4 5 6 
#
# 1 0.013959 -0.000963 -0.003417 0.000000 0.000000 0.000000
# 2 -0.000963 0.015400 -0.001439 0.000000 0.000000 0.000000
# 3 -0.003417 -0.001439 0.007324 0.000000 0.000000 0.000000
# 4 0.000000 0.000000 0.000000 0.108172 0.000000 0.000000
# 5 0.000000 0.000000 0.000000 0.000000 0.100280 0.000000
# 6 0.000000 0.000000 0.000000 0.000000 0.000000 0.065905
#
#
# Mechanical properties :
#
#
# Convention : Reuss Voigt Hill
#
# Bulk Modulus (GPa) = 39.92561 48.90813 44.41687
# Shear Modulus (GPa) = 15.10448 22.98128 19.04288
#
# Velocity S-wave (km/s) = 2.77441 3.42220 3.11519
# Velocity P-wave (km/s) = 5.53259 6.36704 5.96442
#
# Compressibility (1/GPa) = 0.02504658
#
# Stress axis : x y z
#
# Youngs Moduli (GPa) = 71.63836 64.93373 136.52855
#
# Poissons Ratio (x) = 0.06250 0.46657
# Poissons Ratio (y) = 0.06896 0.19642
# Poissons Ratio (z) = 0.24482 0.09342
#
# Static dielectric constant tensor:
#      x y z
#    x 1.688430 0.000000 0.000000 
#    y 0.000000 1.749450 0.000000 
#    z 0.000000 0.000000 1.677000 
# 
# From -- ./inp_files/2781.got.cif
#   From: 2010.05.17/outbox.cif.g08.bks.cpg/sg27_2_cif.got.tgz:2781.got - 2010.06.04 01:11:05.
