data_PCOD9338981
_publ_section_title
;
Structure prediction by ZEFSAII (Michael W. Deem and Ramdas Pophale) SiO2 
 PCOD9338981
Probable space group: P C C 2
;
_chemical_formula_sum "Si O2"
_cell_formula_units_Z 24
_cell_length_a 10.889863
_cell_length_b 9.340338
_cell_length_c 11.284121
_cell_angle_alpha 90.000000
_cell_angle_beta 90.000000
_cell_angle_gamma 90.000000
_cell_volume 1147.764381
_symmetry_space_group_name_H-M "P C C 2"
_symmetry_group_IT_number 27
_symmetry_cell_setting 'orthorhombic'
loop_
_space_group_symop_operation_xyz
x,y,z
-x,-y,z
-x,y,1/2+z
x,-y,1/2+z
loop_
_atom_site_type_symbol
_atom_site_label
_atom_site_fract_x
_atom_site_fract_y
_atom_site_fract_z
Si Si1 0.191761 0.737609 0.206080
Si Si2 0.856039 0.979065 0.873794
Si Si3 0.834681 0.551545 0.932409
Si Si4 0.781830 0.271516 0.807203
Si Si5 0.946562 0.223150 0.583263
Si Si6 0.356044 0.476003 0.125442
O O1 0.218871 0.879467 0.281771
O O2 0.139278 0.636220 0.311200
O O3 0.292852 0.630881 0.152252
O O4 0.088859 0.787237 0.113708
O O5 0.775684 0.123843 0.880971
O O6 0.884059 0.890845 0.994747
O O7 0.000000 0.000000 0.832916
O O8 0.838228 0.388817 0.893999
O O9 0.922848 0.621525 0.027725
O O10 0.703436 0.573976 0.999937
O O11 0.874685 0.223108 0.705422
O O12 0.679889 0.361901 0.730531
O O13 0.500000 0.500000 0.118401
#
# Coordination Sequence:
#
# PCOD9338981 Si02
#       6
#     4   4   4   4   4   4
#     4  10  22  40  61  92 134 173 209 267 329 392
#     4  11  23  38  60  96 141 170 202 251 326 408
#     4   9  22  39  60  92 129 169 219 268 326 385
#     4  10  22  41  64  96 129 172 212 266 330 392
#     4  10  22  38  59  94 137 172 207 254 330 412
#     4  10  23  43  69  93 123 169 233 283 318 367
#
# _framework density 20.910216999999999
#
# number of rings (size 3 to 8) (size 9 to 14) (size 15 to 20)
#    0.000    2.000    1.667    0.000    4.667   10.000 
#    0.000    0.833    0.000    0.000    0.000    0.000 
#    0.000    0.000    0.000    0.000    0.000    0.000 
#
# Total GULP energy -133653.658963 kJ/mol
# GULP energy per Si atom -5568.902457 kJ/mol
# Density = 2.086262 g / cm^3
# Si number density = 20.910217 Si / 1000 Ang^3
#
#
#
# Elastic Constant Matrix: (Units=GPa)
#
#
# Indices 1 2 3 4 5 6 
#
# 1 88.9074 16.0506 29.7614 0.0000 0.0000 0.0000
# 2 16.0506 140.9408 26.7500 0.0000 0.0000 0.0000
# 3 29.7614 26.7500 94.1402 0.0000 0.0000 0.0000
# 4 0.0000 0.0000 0.0000 30.9148 0.0000 0.0000
# 5 0.0000 0.0000 0.0000 0.0000 13.0683 0.0000
# 6 0.0000 0.0000 0.0000 0.0000 0.0000 18.3480
#
#
#
# Elastic Compliance Matrix: (Units=1/GPa)
#
#
# Indices 1 2 3 4 5 6 
#
# 1 0.012648 -0.000720 -0.003794 0.000000 0.000000 0.000000
# 2 -0.000720 0.007541 -0.001915 0.000000 0.000000 0.000000
# 3 -0.003794 -0.001915 0.012366 0.000000 0.000000 0.000000
# 4 0.000000 0.000000 0.000000 0.032347 0.000000 0.000000
# 5 0.000000 0.000000 0.000000 0.000000 0.076521 0.000000
# 6 0.000000 0.000000 0.000000 0.000000 0.000000 0.054502
#
#
# Mechanical properties :
#
#
# Convention : Reuss Voigt Hill
#
# Bulk Modulus (GPa) = 50.77116 52.12361 51.44738
# Shear Modulus (GPa) = 23.21827 29.22798 26.22312
#
# Velocity S-wave (km/s) = 3.33585 3.74275 3.54514
# Velocity P-wave (km/s) = 6.25863 6.60750 6.43543
#
# Compressibility (1/GPa) = 0.01969622
#
# Stress axis : x y z
#
# Youngs Moduli (GPa) = 79.06616 132.61434 80.86727
#
# Poissons Ratio (x) = 0.09552 0.30679
# Poissons Ratio (y) = 0.05695 0.15486
# Poissons Ratio (z) = 0.29996 0.25395
#
# Static dielectric constant tensor:
#      x y z
#    x 1.750150 0.000000 0.000000 
#    y 0.000000 1.890410 0.000000 
#    z 0.000000 0.000000 1.822140 
# 
# From -- ./inp_files/2346.got.cif
#   From: 2010.05.17/outbox.cif.g08.bks.cpg/sg27_2_cif.got.tgz:2346.got - 2010.06.04 01:11:05.
