data_PCOD9338865
_publ_section_title
;
Structure prediction by ZEFSAII (Michael W. Deem and Ramdas Pophale) SiO2 
 PCOD9338865
Probable space group: P C C 2
;
_chemical_formula_sum "Si O2"
_cell_formula_units_Z 14
_cell_length_a 4.815072
_cell_length_b 8.899144
_cell_length_c 15.731597
_cell_angle_alpha 90.000000
_cell_angle_beta 90.000000
_cell_angle_gamma 90.000000
_cell_volume 674.099232
_symmetry_space_group_name_H-M "P C C 2"
_symmetry_group_IT_number 27
_symmetry_cell_setting 'orthorhombic'
loop_
_space_group_symop_operation_xyz
x,y,z
-x,-y,z
-x,y,1/2+z
x,-y,1/2+z
loop_
_atom_site_type_symbol
_atom_site_label
_atom_site_fract_x
_atom_site_fract_y
_atom_site_fract_z
Si Si1 0.721431 0.706467 0.114600
Si Si2 0.000000 0.500000 0.252038
Si Si3 0.500000 0.500000 0.367148
Si Si4 0.500000 0.000000 0.063332
Si Si5 0.766443 0.290693 0.006635
O O1 0.857825 0.626771 0.193710
O O2 0.684806 0.886783 0.119545
O O3 0.413720 0.654212 0.088519
O O4 0.917141 0.681583 0.031771
O O5 0.748926 0.436437 0.309267
O O6 0.349139 0.376374 0.425809
O O7 0.313876 0.885819 0.007640
#
# Coordination Sequence:
#
# PCOD9338865 Si02
#       5
#     4   2   2   2   4
#     4  10  20  39  65  92 118 165 223 261 315 373
#     4  12  24  38  60  96 138 166 202 274 336 392
#     4  12  24  38  60  98 132 168 206 264 346 380
#     4   8  22  36  72  84 116 160 234 266 306 366
#     4  10  20  39  65  90 117 166 221 265 305 384
#
# _framework density 20.768454999999999
#
# number of rings (size 3 to 8) (size 9 to 14) (size 15 to 20)
#    1.714    0.000    0.000    6.000    0.000    0.000 
#    0.000    1.429    0.000    0.000    0.000    0.000 
#    0.000    0.000    0.000    0.000    0.000    0.000 
#
# Total GULP energy -78035.607057 kJ/mol
# GULP energy per Si atom -5573.971933 kJ/mol
# Density = 2.072118 g / cm^3
# Si number density = 20.768455 Si / 1000 Ang^3
#
#
#
# Elastic Constant Matrix: (Units=GPa)
#
#
# Indices 1 2 3 4 5 6 
#
# 1 106.2704 4.7472 29.6231 0.0000 0.0000 0.0000
# 2 4.7472 111.9501 33.4926 0.0000 0.0000 0.0000
# 3 29.6231 33.4926 83.8665 0.0000 0.0000 0.0000
# 4 0.0000 0.0000 0.0000 4.7573 0.0000 0.0000
# 5 0.0000 0.0000 0.0000 0.0000 31.3019 0.0000
# 6 0.0000 0.0000 0.0000 0.0000 0.0000 36.0501
#
#
#
# Elastic Compliance Matrix: (Units=1/GPa)
#
#
# Indices 1 2 3 4 5 6 
#
# 1 0.010493 0.000754 -0.004008 0.000000 0.000000 0.000000
# 2 0.000754 0.010199 -0.004339 0.000000 0.000000 0.000000
# 3 -0.004008 -0.004339 0.015072 0.000000 0.000000 0.000000
# 4 0.000000 0.000000 0.000000 0.210205 0.000000 0.000000
# 5 0.000000 0.000000 0.000000 0.000000 0.031947 0.000000
# 6 0.000000 0.000000 0.000000 0.000000 0.000000 0.027739
#
#
# Mechanical properties :
#
#
# Convention : Reuss Voigt Hill
#
# Bulk Modulus (GPa) = 48.59403 48.64588 48.61996
# Shear Modulus (GPa) = 15.25784 30.03678 22.64731
#
# Velocity S-wave (km/s) = 2.71341 3.80711 3.30580
# Velocity P-wave (km/s) = 5.76763 6.54211 6.16704
#
# Compressibility (1/GPa) = 0.02057866
#
# Stress axis : x y z
#
# Youngs Moduli (GPa) = 95.29801 98.05093 66.34748
#
# Poissons Ratio (x) = -0.07393 0.26589
# Poissons Ratio (y) = -0.07185 0.28790
# Poissons Ratio (z) = 0.38191 0.42547
#
# Static dielectric constant tensor:
#      x y z
#    x 1.761120 0.000000 0.000000 
#    y 0.000000 1.796580 0.000000 
#    z 0.000000 0.000000 1.749680 
# 
# From -- ./inp_files/2912.got.cif
#   From: 2010.05.17/outbox.cif.g08.bks.cpg/sg27_2_cif.got.tgz:2912.got - 2010.06.04 01:11:05.
