data_PCOD9338786
_publ_section_title
;
Structure prediction by ZEFSAII (Michael W. Deem and Ramdas Pophale) SiO2 
 PCOD9338786
Probable space group: P C C 2
;
_chemical_formula_sum "Si O2"
_cell_formula_units_Z 32
_cell_length_a 14.546526
_cell_length_b 17.914799
_cell_length_c 5.365374
_cell_angle_alpha 90.000000
_cell_angle_beta 90.000000
_cell_angle_gamma 90.000000
_cell_volume 1398.206214
_symmetry_space_group_name_H-M "P C C 2"
_symmetry_group_IT_number 27
_symmetry_cell_setting 'orthorhombic'
loop_
_space_group_symop_operation_xyz
x,y,z
-x,-y,z
-x,y,1/2+z
x,-y,1/2+z
loop_
_atom_site_type_symbol
_atom_site_label
_atom_site_fract_x
_atom_site_fract_y
_atom_site_fract_z
Si Si1 0.374435 0.796827 0.552840
Si Si2 0.365445 0.542512 0.054451
Si Si3 0.854860 0.284817 0.053957
Si Si4 0.140795 0.456528 0.548824
Si Si5 0.033164 0.085186 0.878501
Si Si6 0.396539 0.969131 0.644706
Si Si7 0.154641 0.200048 0.054100
Si Si8 0.630216 0.287237 0.052291
O O1 0.403842 0.881921 0.589166
O O2 0.263783 0.797237 0.556856
O O3 0.399917 0.762271 0.286979
O O4 0.400645 0.747130 0.790346
O O5 0.392920 0.494227 0.293472
O O6 0.253182 0.544257 0.052162
O O7 0.398846 0.627162 0.078264
O O8 0.880321 0.237883 0.807841
O O9 0.888353 0.370149 0.039154
O O10 0.880121 0.247727 0.317644
O O11 0.742381 0.286936 0.052844
O O12 0.112521 0.501944 0.302621
O O13 0.966297 0.114517 0.096871
O O14 0.126368 0.113809 0.006085
O O15 0.000000 0.000000 0.846311
O O16 0.500000 0.000000 0.672877
O O17 0.351276 0.011530 0.410295
#
# Coordination Sequence:
#
# PCOD9338786 Si02
#       8
#     4   4   4   4   4   4   4   4
#     4  10  19  33  51  76 102 138 179 213 266 311
#     4   9  15  23  37  61  96 143 181 202 247 304
#     4   9  17  28  45  69 100 134 170 213 256 298
#     4   9  15  23  37  61  96 133 167 203 247 302
#     4  10  21  38  54  72  98 128 160 210 271 304
#     4  10  21  38  56  77 105 138 170 218 272 307
#     4  10  19  33  51  73 100 132 171 215 256 311
#     4   9  17  28  45  69 105 140 177 220 253 303
#
# _framework density 22.886467
#
# number of rings (size 3 to 8) (size 9 to 14) (size 15 to 20)
#    0.000    2.500    0.000    3.000    0.000    6.000 
#    4.500    0.000    0.000    0.000    0.000    0.000 
#    0.000   35.000    0.000  157.500    0.000   70.000 
#
# Total GULP energy -178635.169289 kJ/mol
# GULP energy per Si atom -5582.349040 kJ/mol
# Density = 2.283438 g / cm^3
# Si number density = 22.886467 Si / 1000 Ang^3
#
#
#
# Elastic Constant Matrix: (Units=GPa)
#
#
# Indices 1 2 3 4 5 6 
#
# 1 33.6713 19.8836 6.7758 0.0000 0.0000 0.0000
# 2 19.8836 102.6544 17.8775 0.0000 0.0000 0.0000
# 3 6.7758 17.8775 143.3549 0.0000 0.0000 0.0000
# 4 0.0000 0.0000 0.0000 40.4042 0.0000 0.0000
# 5 0.0000 0.0000 0.0000 0.0000 76.9247 0.0000
# 6 0.0000 0.0000 0.0000 0.0000 0.0000 -26.2692
#
#
#
# Elastic Compliance Matrix: (Units=1/GPa)
#
#
# Indices 1 2 3 4 5 6 
#
# 1 0.033623 -0.006374 -0.000794 0.000000 0.000000 0.000000
# 2 -0.006374 0.011166 -0.001091 0.000000 0.000000 0.000000
# 3 -0.000794 -0.001091 0.007149 0.000000 0.000000 0.000000
# 4 0.000000 0.000000 0.000000 0.024750 0.000000 0.000000
# 5 0.000000 0.000000 0.000000 0.000000 0.013000 0.000000
# 6 0.000000 0.000000 0.000000 0.000000 0.000000 -0.038067
#
#
# Mechanical properties :
#
#
# Convention : Reuss Voigt Hill
#
# Bulk Modulus (GPa) = 28.23363 40.97270 34.60316
# Shear Modulus (GPa) = 62.54205 33.88819 48.21512
#
# Velocity S-wave (km/s) = 5.23320 3.85217 4.59487
# Velocity P-wave (km/s) = 6.99131 6.14224 6.58048
#
# Compressibility (1/GPa) = 0.03541876
#
# Stress axis : x y z
#
# Youngs Moduli (GPa) = 29.74172 89.55666 139.87338
#
# Poissons Ratio (x) = 0.57085 0.11110
# Poissons Ratio (y) = 0.18958 0.15263
# Poissons Ratio (z) = 0.02362 0.09773
#
# Static dielectric constant tensor:
#      x y z
#    x 1.786730 0.000000 0.000000 
#    y 0.000000 1.895070 0.000000 
#    z 0.000000 0.000000 1.867000 
# 
# From -- ./inp_files/566.got.cif
#   From: 2010.05.17/outbox.cif.g08.bks.cpg/sg27_1_cif.got.tgz:566.got - 2010.06.04 01:11:05.
