data_PCOD9338538
_publ_section_title
;
Structure prediction by ZEFSAII (Michael W. Deem and Ramdas Pophale) SiO2 
 PCOD9338538
Probable space group: P M C 21
;
_chemical_formula_sum "Si O2"
_cell_formula_units_Z 32
_cell_length_a 13.704541
_cell_length_b 8.345072
_cell_length_c 13.678052
_cell_angle_alpha 90.000000
_cell_angle_beta 90.000000
_cell_angle_gamma 90.000000
_cell_volume 1564.295633
_symmetry_space_group_name_H-M "P M C 21"
_symmetry_group_IT_number 26
_symmetry_cell_setting 'orthorhombic'
loop_
_space_group_symop_operation_xyz
x,y,z
-x,-y,1/2+z
-x,y,z
x,-y,1/2+z
loop_
_atom_site_type_symbol
_atom_site_label
_atom_site_fract_x
_atom_site_fract_y
_atom_site_fract_z
Si Si1 0.387494 0.946761 0.353220
Si Si2 0.885082 0.108799 0.371541
Si Si3 0.770481 0.075096 0.020805
Si Si4 0.229355 0.422319 0.446206
Si Si5 0.886375 0.588671 0.288554
Si Si6 0.611341 0.326111 0.303057
Si Si7 0.768923 0.600875 0.640155
Si Si8 0.781190 0.898123 0.217138
O O1 0.500000 0.895029 0.360139
O O2 0.326553 0.927072 0.453484
O O3 0.321227 0.861921 0.271035
O O4 0.386718 0.134375 0.321729
O O5 0.833238 0.265176 0.417013
O O6 0.000000 0.130736 0.358258
O O7 0.859309 0.968860 0.449013
O O8 0.830360 0.049954 0.273546
O O9 0.783618 0.240219 0.077260
O O10 0.764708 0.942175 0.105482
O O11 0.173882 0.563457 0.387872
O O12 0.334041 0.402607 0.395601
O O13 0.238407 0.460766 0.559686
O O14 0.854354 0.446114 0.215329
O O15 0.853090 0.751430 0.236630
O O16 0.000000 0.586370 0.307937
O O17 0.500000 0.377068 0.293695
O O18 0.674359 0.372838 0.208175
#
# Coordination Sequence:
#
# PCOD9338538 Si02
#       8
#     4   4   4   4   4   4   4   4
#     4  10  21  40  67  94 124 164 211 265 322 376
#     4  11  23  39  63  92 125 166 214 266 314 372
#     4  11  22  39  62  92 122 165 216 265 315 375
#     4  11  21  41  63  92 131 167 207 263 320 383
#     4  11  25  41  63  93 129 171 210 261 323 381
#     4  10  21  42  66  92 128 169 211 263 323 381
#     4  11  24  41  64  92 133 171 209 264 323 384
#     4  11  21  41  64  91 128 163 216 267 316 376
#
# _framework density 20.456492000000001
#
# number of rings (size 3 to 8) (size 9 to 14) (size 15 to 20)
#    0.000    1.250    3.750    3.750    0.000    5.000 
#    0.000    5.000    0.000    0.000    0.000    0.000 
#    0.000    0.000    0.000    0.000    0.000    0.000 
#
# Total GULP energy -178856.497328 kJ/mol
# GULP energy per Si atom -5589.265542 kJ/mol
# Density = 2.040993 g / cm^3
# Si number density = 20.456492 Si / 1000 Ang^3
#
#
#
# Elastic Constant Matrix: (Units=GPa)
#
#
# Indices 1 2 3 4 5 6 
#
# 1 73.3446 3.7003 -1.1798 0.0000 0.0000 0.0000
# 2 3.7003 50.6767 -3.4158 0.0000 0.0000 0.0000
# 3 -1.1798 -3.4158 93.0889 0.0000 0.0000 0.0000
# 4 0.0000 0.0000 0.0000 43.8584 0.0000 0.0000
# 5 0.0000 0.0000 0.0000 0.0000 7.4875 0.0000
# 6 0.0000 0.0000 0.0000 0.0000 0.0000 21.8060
#
#
#
# Elastic Compliance Matrix: (Units=1/GPa)
#
#
# Indices 1 2 3 4 5 6 
#
# 1 0.013686 -0.000990 0.000137 0.000000 0.000000 0.000000
# 2 -0.000990 0.019854 0.000716 0.000000 0.000000 0.000000
# 3 0.000137 0.000716 0.010770 0.000000 0.000000 0.000000
# 4 0.000000 0.000000 0.000000 0.022801 0.000000 0.000000
# 5 0.000000 0.000000 0.000000 0.000000 0.133555 0.000000
# 6 0.000000 0.000000 0.000000 0.000000 0.000000 0.045859
#
#
# Mechanical properties :
#
#
# Convention : Reuss Voigt Hill
#
# Bulk Modulus (GPa) = 22.70856 23.92442 23.31649
# Shear Modulus (GPa) = 19.12207 29.16409 24.14308
#
# Velocity S-wave (km/s) = 3.06071 3.77989 3.43915
# Velocity P-wave (km/s) = 4.85959 5.54714 5.21471
#
# Compressibility (1/GPa) = 0.04403626
#
# Stress axis : x y z
#
# Youngs Moduli (GPa) = 73.06511 50.36894 92.84686
#
# Poissons Ratio (x) = 0.04987 -0.01273
# Poissons Ratio (y) = 0.07234 -0.06647
# Poissons Ratio (z) = -0.01002 -0.03606
#
# Static dielectric constant tensor:
#      x y z
#    x 1.678390 0.000000 0.000000 
#    y 0.000000 1.825870 0.000000 
#    z 0.000000 0.000000 1.713380 
# 
# From -- ./inp_files/4665.got.cif
#   From: 2010.05.17/outbox.cif.g08.bks.cpg/sg26_3_cif.got.tgz:4665.got - 2010.06.04 01:07:29.
