data_PCOD9338314
_publ_section_title
;
Structure prediction by ZEFSAII (Michael W. Deem and Ramdas Pophale) SiO2 
 PCOD9338314
Probable space group: P M C 21
;
_chemical_formula_sum "Si O2"
_cell_formula_units_Z 32
_cell_length_a 13.910896
_cell_length_b 9.376387
_cell_length_c 12.809256
_cell_angle_alpha 90.000000
_cell_angle_beta 90.000000
_cell_angle_gamma 90.000000
_cell_volume 1670.761785
_symmetry_space_group_name_H-M "P M C 21"
_symmetry_group_IT_number 26
_symmetry_cell_setting 'orthorhombic'
loop_
_space_group_symop_operation_xyz
x,y,z
-x,-y,1/2+z
-x,y,z
x,-y,1/2+z
loop_
_atom_site_type_symbol
_atom_site_label
_atom_site_fract_x
_atom_site_fract_y
_atom_site_fract_z
Si Si1 0.696627 0.174671 0.989020
Si Si2 0.388776 0.589083 0.346881
Si Si3 0.391605 0.798941 0.170172
Si Si4 0.204447 0.593350 0.910603
Si Si5 0.697048 0.900574 0.723035
Si Si6 0.106308 0.236379 0.239767
Si Si7 0.892284 0.322814 0.998907
Si Si8 0.672417 0.158951 0.446802
O O1 0.625636 0.277562 0.926140
O O2 0.804671 0.224130 0.959383
O O3 0.685282 0.009485 0.962184
O O4 0.679659 0.182405 0.114179
O O5 0.500000 0.540176 0.349692
O O6 0.365667 0.655774 0.232662
O O7 0.307230 0.476632 0.379764
O O8 0.500000 0.833119 0.203633
O O9 0.329051 0.934944 0.204433
O O10 0.389418 0.787949 0.044855
O O11 0.142353 0.632512 0.809734
O O12 0.145644 0.482506 0.979471
O O13 0.231675 0.745663 0.959942
O O14 0.810258 0.881613 0.746641
O O15 0.644252 0.833724 0.824227
O O16 0.000000 0.188884 0.271943
O O17 0.102759 0.287778 0.120951
O O18 0.000000 0.302498 0.955070
#
# Coordination Sequence:
#
# PCOD9338314 Si02
#       8
#     4   4   4   4   4   4   4   4
#     4   9  18  35  58  79 106 144 189 231 281 334
#     4  10  21  38  56  78 109 151 191 230 282 336
#     4  10  21  35  56  80 113 149 187 232 281 336
#     4  10  21  34  58  80 115 146 185 233 282 336
#     4   9  18  35  56  83 111 144 185 234 282 334
#     4   9  18  34  58  82 110 147 186 228 280 337
#     4   9  18  34  55  80 111 148 186 222 276 341
#     4  10  20  35  56  82 109 143 186 236 281 324
#
# _framework density 19.152940999999998
#
# number of rings (size 3 to 8) (size 9 to 14) (size 15 to 20)
#    0.000    2.500    1.250    0.375    1.750    3.000 
#    0.000    5.000    0.000    3.750    0.000    0.000 
#    0.000    0.000    0.000    0.000    0.000    0.000 
#
# Total GULP energy -178146.643737 kJ/mol
# GULP energy per Si atom -5567.082617 kJ/mol
# Density = 1.910935 g / cm^3
# Si number density = 19.152941 Si / 1000 Ang^3
#
#
#
# Elastic Constant Matrix: (Units=GPa)
#
#
# Indices 1 2 3 4 5 6 
#
# 1 73.3391 -0.4197 18.7016 0.0000 0.0000 0.0000
# 2 -0.4197 26.2563 6.1576 0.0000 0.0000 0.0000
# 3 18.7016 6.1576 69.5703 0.0000 0.0000 0.0000
# 4 0.0000 0.0000 0.0000 18.6203 0.0000 0.0000
# 5 0.0000 0.0000 0.0000 0.0000 22.3450 0.0000
# 6 0.0000 0.0000 0.0000 0.0000 0.0000 10.2071
#
#
#
# Elastic Compliance Matrix: (Units=1/GPa)
#
#
# Indices 1 2 3 4 5 6 
#
# 1 0.014675 0.001184 -0.004050 0.000000 0.000000 0.000000
# 2 0.001184 0.038989 -0.003769 0.000000 0.000000 0.000000
# 3 -0.004050 -0.003769 0.015796 0.000000 0.000000 0.000000
# 4 0.000000 0.000000 0.000000 0.053705 0.000000 0.000000
# 5 0.000000 0.000000 0.000000 0.000000 0.044753 0.000000
# 6 0.000000 0.000000 0.000000 0.000000 0.000000 0.097971
#
#
# Mechanical properties :
#
#
# Convention : Reuss Voigt Hill
#
# Bulk Modulus (GPa) = 17.79654 24.22720 21.01187
# Shear Modulus (GPa) = 16.78484 19.88289 18.33386
#
# Velocity S-wave (km/s) = 2.96355 3.22547 3.09728
# Velocity P-wave (km/s) = 4.58499 5.15251 4.87701
#
# Compressibility (1/GPa) = 0.05619071
#
# Stress axis : x y z
#
# Youngs Moduli (GPa) = 68.14433 25.64830 63.30650
#
# Poissons Ratio (x) = -0.03037 0.25637
# Poissons Ratio (y) = -0.08070 0.23862
# Poissons Ratio (z) = 0.27596 0.09667
#
# Static dielectric constant tensor:
#      x y z
#    x 1.689640 0.000000 0.000000 
#    y 0.000000 1.662420 0.000000 
#    z 0.000000 0.000000 1.713570 
# 
# From -- ./inp_files/3600.got.cif
#   From: 2010.05.17/outbox.cif.g08.bks.cpg/sg26_2_cif.got.tgz:3600.got - 2010.06.04 01:07:29.
