data_PCOD9338112
_publ_section_title
;
Structure prediction by ZEFSAII (Michael W. Deem and Ramdas Pophale) SiO2 
 PCOD9338112
Probable space group: P M C 21
;
_chemical_formula_sum "Si O2"
_cell_formula_units_Z 32
_cell_length_a 8.108155
_cell_length_b 10.658432
_cell_length_c 14.287622
_cell_angle_alpha 90.000000
_cell_angle_beta 90.000000
_cell_angle_gamma 90.000000
_cell_volume 1234.739418
_symmetry_space_group_name_H-M "P M C 21"
_symmetry_group_IT_number 26
_symmetry_cell_setting 'orthorhombic'
loop_
_space_group_symop_operation_xyz
x,y,z
-x,-y,1/2+z
-x,y,z
x,-y,1/2+z
loop_
_atom_site_type_symbol
_atom_site_label
_atom_site_fract_x
_atom_site_fract_y
_atom_site_fract_z
Si Si1 0.685029 0.974321 0.031290
Si Si2 0.696292 0.448915 0.377352
Si Si3 0.192818 0.203722 0.917087
Si Si4 0.804000 0.357847 0.086856
Si Si5 0.696236 0.201086 0.253099
Si Si6 0.692259 0.406043 0.703063
Si Si7 0.804843 0.062942 0.742553
Si Si8 0.815482 0.717639 0.028372
O O1 0.500000 0.020987 0.019035
O O2 0.725009 0.956003 0.141024
O O3 0.699179 0.830470 0.996730
O O4 0.795150 0.075190 0.977889
O O5 0.500000 0.464125 0.390856
O O6 0.723914 0.319843 0.319571
O O7 0.756102 0.556335 0.305900
O O8 0.782674 0.412037 0.473684
O O9 0.260745 0.312970 0.985234
O O10 0.264036 0.166590 0.815391
O O11 0.000000 0.232438 0.904548
O O12 0.000000 0.387752 0.083743
O O13 0.780034 0.238034 0.154908
O O14 0.706214 0.465140 0.142339
O O15 0.500000 0.186169 0.240609
O O16 0.772403 0.072597 0.289498
O O17 0.500000 0.371850 0.707457
O O18 0.790036 0.310115 0.638248
O O19 0.000000 0.081377 0.731435
O O20 0.000000 0.759892 0.011338
#
# Coordination Sequence:
#
# PCOD9338112 Si02
#       8
#     4   4   4   4   4   4   4   4
#     4  12  25  41  63  90 126 167 208 255 308 367
#     4   9  20  39  64  93 123 158 206 256 304 363
#     4  10  22  39  61  90 124 162 203 251 306 366
#     4  10  19  35  60  87 117 153 196 248 304 357
#     4  10  19  33  56  87 119 157 201 250 301 354
#     4  10  22  42  66  91 122 159 204 256 308 363
#     4  11  22  37  57  86 124 164 204 249 305 369
#     4  12  25  42  65  92 125 164 208 255 310 369
#
# _framework density 25.916398999999998
#
# number of rings (size 3 to 8) (size 9 to 14) (size 15 to 20)
#    0.000    1.500    1.250    5.250    0.000    6.500 
#    2.250    0.000    0.000    0.000    0.000    0.000 
#    0.000    0.000    0.000    0.000    0.000    0.000 
#
# Total GULP energy -179164.326706 kJ/mol
# GULP energy per Si atom -5598.885210 kJ/mol
# Density = 2.585741 g / cm^3
# Si number density = 25.916399 Si / 1000 Ang^3
#
#
#
# Elastic Constant Matrix: (Units=GPa)
#
#
# Indices 1 2 3 4 5 6 
#
# 1 68.3542 -0.5305 11.1569 0.0000 0.0000 0.0000
# 2 -0.5305 83.7785 -1.4998 0.0000 0.0000 0.0000
# 3 11.1569 -1.4998 142.5829 0.0000 0.0000 0.0000
# 4 0.0000 0.0000 0.0000 48.1592 0.0000 0.0000
# 5 0.0000 0.0000 0.0000 0.0000 -298.2499 0.0000
# 6 0.0000 0.0000 0.0000 0.0000 0.0000 36.0746
#
#
#
# Elastic Compliance Matrix: (Units=1/GPa)
#
#
# Indices 1 2 3 4 5 6 
#
# 1 0.014819 0.000073 -0.001159 0.000000 0.000000 0.000000
# 2 0.000073 0.011939 0.000120 0.000000 0.000000 0.000000
# 3 -0.001159 0.000120 0.007105 0.000000 0.000000 0.000000
# 4 0.000000 0.000000 0.000000 0.020764 0.000000 0.000000
# 5 0.000000 0.000000 0.000000 0.000000 -0.003353 0.000000
# 6 0.000000 0.000000 0.000000 0.000000 0.000000 0.027720
#
#
# Mechanical properties :
#
#
# Convention : Reuss Voigt Hill
#
# Bulk Modulus (GPa) = 31.31662 34.77429 33.04546
# Shear Modulus (GPa) = 54.60230 -23.76395 15.41917
#
# Velocity S-wave (km/s) = 4.59504 -3.03140 2.44182
# Velocity P-wave (km/s) = 6.34527 1.09293 4.55285
#
# Compressibility (1/GPa) = 0.03193192
#
# Stress axis : x y z
#
# Youngs Moduli (GPa) = 67.47916 83.76022 140.73803
#
# Poissons Ratio (x) = -0.00612 0.16309
# Poissons Ratio (y) = -0.00493 -0.01687
# Poissons Ratio (z) = 0.07820 -0.01004
#
# Static dielectric constant tensor:
#      x y z
#    x 2.142330 0.000000 0.000000 
#    y 0.000000 2.124850 0.000000 
#    z 0.000000 0.000000 2.136530 
# 
# From -- ./inp_files/4147.got.cif
#   From: 2010.05.17/outbox.cif.g08.bks.cpg/sg26_3_cif.got.tgz:4147.got - 2010.06.04 01:07:29.
