data_PCOD9338011
_publ_section_title
;
Structure prediction by ZEFSAII (Michael W. Deem and Ramdas Pophale) SiO2 
 PCOD9338011
Probable space group: P M C 21
;
_chemical_formula_sum "Si O2"
_cell_formula_units_Z 20
_cell_length_a 14.763134
_cell_length_b 7.482396
_cell_length_c 9.116783
_cell_angle_alpha 90.000000
_cell_angle_beta 90.000000
_cell_angle_gamma 90.000000
_cell_volume 1007.072805
_symmetry_space_group_name_H-M "P M C 21"
_symmetry_group_IT_number 26
_symmetry_cell_setting 'orthorhombic'
loop_
_space_group_symop_operation_xyz
x,y,z
-x,-y,1/2+z
-x,y,z
x,-y,1/2+z
loop_
_atom_site_type_symbol
_atom_site_label
_atom_site_fract_x
_atom_site_fract_y
_atom_site_fract_z
Si Si1 0.107743 0.904369 0.107840
Si Si2 0.780949 0.607547 0.255740
Si Si3 0.597191 0.246094 0.279559
Si Si4 0.802111 0.810023 0.800200
Si Si5 0.656092 0.536565 0.507507
O O1 0.142275 0.747842 0.217159
O O2 0.000000 0.910549 0.101273
O O3 0.149531 0.085824 0.170229
O O4 0.150063 0.865217 0.949828
O O5 0.812018 0.402998 0.279244
O O6 0.723333 0.647962 0.401803
O O7 0.714512 0.591465 0.115172
O O8 0.500000 0.151872 0.295968
O O9 0.693818 0.148723 0.300379
O O10 0.601943 0.408221 0.397684
O O11 0.603495 0.335627 0.118400
#
# Coordination Sequence:
#
# PCOD9338011 Si02
#       5
#     4   4   4   4   4
#     4  12  25  42  66  90 123 170 212 262 320 374
#     4  10  19  42  63  88 124 170 197 263 315 362
#     4  10  18  35  62  93 127 166 207 253 311 377
#     4  10  25  42  62  94 130 161 209 265 311 368
#     4   8  17  33  61  89 122 161 203 251 305 363
#
# _framework density 19.859538000000001
#
# number of rings (size 3 to 8) (size 9 to 14) (size 15 to 20)
#    0.000    2.400    4.000    1.200    5.600    1.600 
#    0.000    1.000    0.000    0.000    0.000    0.000 
#    0.000    0.000    0.000    0.000    0.000    0.000 
#
# Total GULP energy -111545.102489 kJ/mol
# GULP energy per Si atom -5577.255124 kJ/mol
# Density = 1.981434 g / cm^3
# Si number density = 19.859538 Si / 1000 Ang^3
#
#
#
# Elastic Constant Matrix: (Units=GPa)
#
#
# Indices 1 2 3 4 5 6 
#
# 1 173.0500 20.5740 38.4207 0.0000 0.0000 0.0000
# 2 20.5740 41.0357 16.8494 0.0000 0.0000 0.0000
# 3 38.4207 16.8494 121.0085 0.0000 0.0000 0.0000
# 4 0.0000 0.0000 0.0000 19.5086 0.0000 0.0000
# 5 0.0000 0.0000 0.0000 0.0000 5.3438 0.0000
# 6 0.0000 0.0000 0.0000 0.0000 0.0000 21.7393
#
#
#
# Elastic Compliance Matrix: (Units=1/GPa)
#
#
# Indices 1 2 3 4 5 6 
#
# 1 0.006457 -0.002541 -0.001696 0.000000 0.000000 0.000000
# 2 -0.002541 0.026847 -0.002931 0.000000 0.000000 0.000000
# 3 -0.001696 -0.002931 0.009211 0.000000 0.000000 0.000000
# 4 0.000000 0.000000 0.000000 0.051260 0.000000 0.000000
# 5 0.000000 0.000000 0.000000 0.000000 0.187133 0.000000
# 6 0.000000 0.000000 0.000000 0.000000 0.000000 0.046000
#
#
# Mechanical properties :
#
#
# Convention : Reuss Voigt Hill
#
# Bulk Modulus (GPa) = 35.48979 54.08692 44.78835
# Shear Modulus (GPa) = 14.25977 26.60166 20.43072
#
# Velocity S-wave (km/s) = 2.68252 3.66388 3.21091
# Velocity P-wave (km/s) = 5.24440 6.72254 6.02894
#
# Compressibility (1/GPa) = 0.02817712
#
# Stress axis : x y z
#
# Youngs Moduli (GPa) = 154.86053 37.24858 108.56958
#
# Poissons Ratio (x) = 0.09465 0.18418
# Poissons Ratio (y) = 0.39350 0.31826
# Poissons Ratio (z) = 0.26271 0.10919
#
# Static dielectric constant tensor:
#      x y z
#    x 1.730080 0.000000 0.000000 
#    y 0.000000 1.702690 0.000000 
#    z 0.000000 0.000000 1.722500 
# 
# From -- ./inp_files/2068.got.cif
#   From: 2010.05.17/outbox.cif.g08.bks.cpg/sg26_2_cif.got.tgz:2068.got - 2010.06.04 01:07:29.
