data_PCOD9338697
_publ_section_title
;
Structure prediction by ZEFSAII (Michael W. Deem and Ramdas Pophale) SiO2 
 PCOD9338697
Probable space group: P M C 21
;
_chemical_formula_sum "Si O2"
_cell_formula_units_Z 28
_cell_length_a 12.000000
_cell_length_b 15.000000
_cell_length_c 9.000000
_cell_angle_alpha 90.000000
_cell_angle_beta 90.000000
_cell_angle_gamma 90.000000
_cell_volume 1620.000000
_symmetry_space_group_name_H-M "P M C 21"
_symmetry_group_IT_number 26
_symmetry_cell_setting 'orthorhombic'
loop_
_space_group_symop_operation_xyz
x,y,z
-x,-y,1/2+z
-x,y,z
x,-y,1/2+z
loop_
_atom_site_type_symbol
_atom_site_label
_atom_site_fract_x
_atom_site_fract_y
_atom_site_fract_z
Si Si1 0.130961 0.542495 0.700250
Si Si2 0.245663 0.047218 0.633020
Si Si3 0.132786 0.100615 0.939921
Si Si4 0.500000 0.008177 0.611332
Si Si5 0.500000 0.863198 0.834389
Si Si6 0.257717 0.792474 0.911003
Si Si7 0.132777 0.375924 0.527551
Si Si8 0.866582 0.732383 0.616936
O O1 0.172412 0.445438 0.653164
O O2 0.173696 0.629906 0.612008
O O3 0.000000 0.536165 0.663271
O O4 0.139977 0.568885 0.872492
O O5 0.179995 0.073120 0.780763
O O6 0.226611 0.120232 0.504596
O O7 0.199033 0.955907 0.563850
O O8 0.378424 0.041992 0.666490
O O9 0.000000 0.082962 0.950275
O O10 0.150995 0.205121 0.975339
O O11 0.500000 0.905103 0.667813
O O12 0.500000 0.048265 0.442596
O O13 0.388632 0.806864 0.871786
O O14 0.214323 0.708174 0.007671
O O15 0.191565 0.778980 0.757513
O O16 0.000000 0.350249 0.545718
O O17 0.000000 0.729886 0.645841
#
# Coordination Sequence:
#
# PCOD9338697 Si02
#       8
#     4   4   4   2   2   4   4   4
#     4   8  15  28  47  71  96 124 160 200 241 286
#     4  11  22  35  51  72  98 133 172 210 252 298
#     4  11  22  33  48  73 105 135 161 198 254 316
#     4  10  20  36  54  70  90 126 178 220 242 274
#     4  10  20  34  54  74  96 128 170 218 256 292
#     4  10  20  33  51  74  99 129 166 208 254 298
#     4   9  17  30  50  74  99 128 162 202 247 298
#     4   9  18  33  51  73 102 132 164 203 247 302
#
# _framework density 17.283950999999998
#
# number of rings (size 3 to 8) (size 9 to 14) (size 15 to 20)
#    0.000    2.286    0.000    5.143    0.000    4.571 
#    0.000    2.857    0.000    3.429    0.000    0.000 
#    0.000    0.000    0.000    0.000    0.000    0.000 
#
# Total GULP energy -155931.744792 kJ/mol
# GULP energy per Si atom -5568.990885 kJ/mol
# Density = 1.724461 g / cm^3
# Si number density = 17.283951 Si / 1000 Ang^3
#
#
#
# Elastic Constant Matrix: (Units=GPa)
#
#
# Indices 1 2 3 4 5 6 
#
# 1 61.3193 17.6476 2.8599 0.0000 0.0000 0.0000
# 2 17.6476 64.2891 -11.1335 0.0000 0.0000 0.0000
# 3 2.8599 -11.1335 5.9963 0.0000 0.0000 0.0000
# 4 0.0000 0.0000 0.0000 37.9367 0.0000 0.0000
# 5 0.0000 0.0000 0.0000 0.0000 19.7173 0.0000
# 6 0.0000 0.0000 0.0000 0.0000 0.0000 21.9198
#
#
#
# Elastic Compliance Matrix: (Units=1/GPa)
#
#
# Indices 1 2 3 4 5 6 
#
# 1 0.020889 -0.010995 -0.030377 0.000000 0.000000 0.000000
# 2 -0.010995 0.028714 0.058558 0.000000 0.000000 0.000000
# 3 -0.030377 0.058558 0.289984 0.000000 0.000000 0.000000
# 4 0.000000 0.000000 0.000000 0.026360 0.000000 0.000000
# 5 0.000000 0.000000 0.000000 0.000000 0.050717 0.000000
# 6 0.000000 0.000000 0.000000 0.000000 0.000000 0.045621
#
#
# Mechanical properties :
#
#
# Convention : Reuss Voigt Hill
#
# Bulk Modulus (GPa) = 2.67410 16.70586 9.68998
# Shear Modulus (GPa) = 9.04869 24.06348 16.55609
#
# Velocity S-wave (km/s) = 2.29056 3.73533 3.09833
# Velocity P-wave (km/s) = 2.92337 5.31884 4.29163
#
# Compressibility (1/GPa) = 0.37395694
#
# Stress axis : x y z
#
# Youngs Moduli (GPa) = 47.87170 34.82656 3.44847
#
# Poissons Ratio (x) = 0.38291 0.10476
# Poissons Ratio (y) = 0.52634 -0.20193
# Poissons Ratio (z) = 1.45422 -2.03936
#
# Static dielectric constant tensor:
#      x y z
#    x 1.564570 0.000000 0.000000 
#    y 0.000000 1.626330 0.000000 
#    z 0.000000 0.000000 1.616500 
# 
# From -- ./inp_files/1925.got.cif
#   From: 2010.05.17/outbox.ucp.g08.bks.cvg/sg26_1_cif.got.tgz:1925.got - 2010.06.11 15:23:25.
