data_PCOD9338855
_publ_section_title
;
Structure prediction by ZEFSAII (Michael W. Deem and Ramdas Pophale) SiO2 
 PCOD9338855
Probable space group: P C C 2
;
_chemical_formula_sum "Si O2"
_cell_formula_units_Z 30
_cell_length_a 12.014011
_cell_length_b 5.614448
_cell_length_c 22.317427
_cell_angle_alpha 90.000000
_cell_angle_beta 90.000000
_cell_angle_gamma 90.000000
_cell_volume 1505.355979
_symmetry_space_group_name_H-M "P C C 2"
_symmetry_group_IT_number 27
_symmetry_cell_setting 'orthorhombic'
loop_
_space_group_symop_operation_xyz
x,y,z
-x,-y,z
-x,y,1/2+z
x,-y,1/2+z
loop_
_atom_site_type_symbol
_atom_site_label
_atom_site_fract_x
_atom_site_fract_y
_atom_site_fract_z
Si Si1 0.000000 0.000000 0.332120
Si Si2 0.179629 0.343884 0.371689
Si Si3 0.117604 0.607955 0.253308
Si Si4 0.875109 0.069376 0.581782
Si Si5 0.226972 0.423683 0.628986
Si Si6 0.203872 0.296142 0.965386
Si Si7 0.624600 0.934751 0.426757
Si Si8 0.381628 0.613357 0.035340
O O1 0.923422 0.159156 0.288402
O O2 0.088176 0.138024 0.372531
O O3 0.171020 0.443371 0.304597
O O4 0.139470 0.539869 0.419288
O O5 0.304033 0.261991 0.390417
O O6 0.199545 0.629600 0.197778
O O7 0.000000 0.500000 0.230638
O O8 0.829345 0.314504 0.613994
O O9 0.864021 0.133475 0.511297
O O10 0.814747 0.817683 0.594817
O O11 0.000000 0.000000 0.599429
O O12 0.354061 0.414537 0.605515
O O13 0.293237 0.156109 0.925733
O O14 0.280423 0.463953 0.006946
O O15 0.619169 0.856109 0.497054
O O16 0.500000 0.000000 0.406944
O O17 0.500000 0.500000 0.021244
#
# Coordination Sequence:
#
# PCOD9338855 Si02
#       8
#     2   4   4   4   4   4   4   4
#     4  10  22  44  66  90 128 180 228 266 336 406
#     4  10  23  40  62  95 130 172 223 276 332 402
#     4  10  22  41  64  92 124 178 222 274 323 399
#     4  11  23  41  60  96 134 170 208 272 336 400
#     4  11  24  40  68  96 130 171 228 273 325 400
#     4  10  21  39  60  94 126 168 216 262 337 400
#     4  11  20  38  67  93 124 176 219 273 331 408
#     4  10  20  38  64  91 125 167 217 273 332 397
#
# _framework density 19.928840999999998
#
# number of rings (size 3 to 8) (size 9 to 14) (size 15 to 20)
#    0.000    1.600    2.667    2.000    4.667    0.000 
#    9.600    1.333    5.867    0.000    0.000    0.000 
#    0.000    0.000    0.000    0.000    0.000    0.000 
#
# Total GULP energy -167084.670532 kJ/mol
# GULP energy per Si atom -5569.489018 kJ/mol
# Density = 1.988348 g / cm^3
# Si number density = 19.928841 Si / 1000 Ang^3
#
#
#
# Elastic Constant Matrix: (Units=GPa)
#
#
# Indices 1 2 3 4 5 6 
#
# 1 70.7247 30.6940 31.3530 0.0000 0.0000 0.0000
# 2 30.6940 101.0734 14.4399 0.0000 0.0000 0.0000
# 3 31.3530 14.4399 79.8668 0.0000 0.0000 0.0000
# 4 0.0000 0.0000 0.0000 17.2013 0.0000 0.0000
# 5 0.0000 0.0000 0.0000 0.0000 8.9607 0.0000
# 6 0.0000 0.0000 0.0000 0.0000 0.0000 31.0715
#
#
#
# Elastic Compliance Matrix: (Units=1/GPa)
#
#
# Indices 1 2 3 4 5 6 
#
# 1 0.019210 -0.004882 -0.006658 0.000000 0.000000 0.000000
# 2 -0.004882 0.011397 -0.000144 0.000000 0.000000 0.000000
# 3 -0.006658 -0.000144 0.015161 0.000000 0.000000 0.000000
# 4 0.000000 0.000000 0.000000 0.058135 0.000000 0.000000
# 5 0.000000 0.000000 0.000000 0.000000 0.111598 0.000000
# 6 0.000000 0.000000 0.000000 0.000000 0.000000 0.032184
#
#
# Mechanical properties :
#
#
# Convention : Reuss Voigt Hill
#
# Bulk Modulus (GPa) = 44.64640 44.95986 44.80313
# Shear Modulus (GPa) = 17.95198 23.12524 20.53861
#
# Velocity S-wave (km/s) = 3.00460 3.41015 3.21377
# Velocity P-wave (km/s) = 5.87268 6.17371 6.02507
#
# Compressibility (1/GPa) = 0.02239822
#
# Stress axis : x y z
#
# Youngs Moduli (GPa) = 52.05612 87.74196 65.95980
#
# Poissons Ratio (x) = 0.42839 0.43919
# Poissons Ratio (y) = 0.25416 0.00949
# Poissons Ratio (z) = 0.34661 0.01263
#
# Static dielectric constant tensor:
#      x y z
#    x 1.794220 0.000000 0.000000 
#    y 0.000000 1.839910 0.000000 
#    z 0.000000 0.000000 1.739140 
# 
# From -- ./inp_files/4859.got.cif
#   From: 2010.05.17/outbox.cif.g08.bks.cpg/sg27_3_cif.got.tgz:4859.got - 2010.06.04 01:11:05.
