data_PCOD9338294
_publ_section_title
;
Structure prediction by ZEFSAII (Michael W. Deem and Ramdas Pophale) SiO2 
 PCOD9338294
Probable space group: P M C 21
;
_chemical_formula_sum "Si O2"
_cell_formula_units_Z 32
_cell_length_a 9.762751
_cell_length_b 29.298259
_cell_length_c 5.411299
_cell_angle_alpha 90.000000
_cell_angle_beta 90.000000
_cell_angle_gamma 90.000000
_cell_volume 1547.802551
_symmetry_space_group_name_H-M "P M C 21"
_symmetry_group_IT_number 26
_symmetry_cell_setting 'orthorhombic'
loop_
_space_group_symop_operation_xyz
x,y,z
-x,-y,1/2+z
-x,y,z
x,-y,1/2+z
loop_
_atom_site_type_symbol
_atom_site_label
_atom_site_fract_x
_atom_site_fract_y
_atom_site_fract_z
Si Si1 0.667253 0.369507 0.015750
Si Si2 0.666925 0.474542 0.945034
Si Si3 0.651234 0.763577 0.702371
Si Si4 0.151662 0.808880 0.382260
Si Si5 0.342577 0.029338 0.911162
Si Si6 0.347284 0.144134 0.490142
Si Si7 0.152669 0.902912 0.662355
Si Si8 0.664700 0.321084 0.518960
O O1 0.500000 0.368520 0.020536
O O2 0.712650 0.350866 0.282898
O O3 0.708024 0.421802 0.970404
O O4 0.714465 0.338605 0.784007
O O5 0.500000 0.475280 0.943511
O O6 0.711067 0.497142 0.686865
O O7 0.500000 0.748659 0.604932
O O8 0.773515 0.766141 0.508229
O O9 0.635916 0.815716 0.788072
O O10 0.686863 0.730951 0.931515
O O11 0.255513 0.830669 0.189622
O O12 0.135085 0.850825 0.573810
O O13 0.000000 0.798579 0.282655
O O14 0.500000 0.046796 0.924767
O O15 0.228006 0.067793 0.953025
O O16 0.326510 0.996644 0.151727
O O17 0.500000 0.131623 0.573745
O O18 0.262791 0.101842 0.381656
O O19 0.000000 0.920250 0.725158
O O20 0.500000 0.326407 0.530486
#
# Coordination Sequence:
#
# PCOD9338294 Si02
#       8
#     4   4   4   4   4   4   4   4
#     4   9  16  25  37  57  84 120 163 215 267 310
#     4   9  15  22  33  49  75 113 161 210 255 310
#     4   9  19  33  50  74 100 135 179 225 271 321
#     4  10  21  36  55  80 110 142 180 228 276 332
#     4  10  23  42  63  90 121 154 192 233 280 336
#     4  10  20  34  56  81 107 140 182 229 276 328
#     4  10  22  39  58  83 114 147 186 230 279 331
#     4   9  17  27  42  62  90 121 163 216 264 314
#
# _framework density 20.674471
#
# number of rings (size 3 to 8) (size 9 to 14) (size 15 to 20)
#    0.000    2.500    0.000    1.875    3.500    5.500 
#    0.000    0.000    0.000    0.000    0.000    0.000 
#    0.000    0.000    0.000    0.000    0.000   12.500 
#
# Total GULP energy -178381.600733 kJ/mol
# GULP energy per Si atom -5574.425023 kJ/mol
# Density = 2.062741 g / cm^3
# Si number density = 20.674471 Si / 1000 Ang^3
#
#
#
# Elastic Constant Matrix: (Units=GPa)
#
#
# Indices 1 2 3 4 5 6 
#
# 1 96.7715 16.8453 19.5625 0.0000 0.0000 0.0000
# 2 16.8453 78.7146 17.6034 0.0000 0.0000 0.0000
# 3 19.5625 17.6034 81.3021 0.0000 0.0000 0.0000
# 4 0.0000 0.0000 0.0000 41.1029 0.0000 0.0000
# 5 0.0000 0.0000 0.0000 0.0000 7.2301 0.0000
# 6 0.0000 0.0000 0.0000 0.0000 0.0000 -22.0333
#
#
#
# Elastic Compliance Matrix: (Units=1/GPa)
#
#
# Indices 1 2 3 4 5 6 
#
# 1 0.011118 -0.001872 -0.002270 0.000000 0.000000 0.000000
# 2 -0.001872 0.013666 -0.002508 0.000000 0.000000 0.000000
# 3 -0.002270 -0.002508 0.013389 0.000000 0.000000 0.000000
# 4 0.000000 0.000000 0.000000 0.024329 0.000000 0.000000
# 5 0.000000 0.000000 0.000000 0.000000 0.138311 0.000000
# 6 0.000000 0.000000 0.000000 0.000000 0.000000 -0.045386
#
#
# Mechanical properties :
#
#
# Convention : Reuss Voigt Hill
#
# Bulk Modulus (GPa) = 40.20467 40.53449 40.36958
# Shear Modulus (GPa) = 28.24564 18.77840 23.51202
#
# Velocity S-wave (km/s) = 3.70024 3.01705 3.37597
# Velocity P-wave (km/s) = 6.14365 5.63786 5.89618
#
# Compressibility (1/GPa) = 0.02487273
#
# Stress axis : x y z
#
# Youngs Moduli (GPa) = 89.94168 73.17606 74.68747
#
# Poissons Ratio (x) = 0.13697 0.16954
# Poissons Ratio (y) = 0.16835 0.18735
# Poissons Ratio (z) = 0.20416 0.18356
#
# Static dielectric constant tensor:
#      x y z
#    x 1.803310 0.000000 0.000000 
#    y 0.000000 1.763910 0.000000 
#    z 0.000000 0.000000 1.801000 
# 
# From -- ./inp_files/231.got.cif
#   From: 2010.05.17/outbox.cif.g08.bks.cpg/sg26_1_cif.got.tgz:231.got - 2010.06.04 01:07:29.
