data_PCOD9338398
_publ_section_title
;
Structure prediction by ZEFSAII (Michael W. Deem and Ramdas Pophale) SiO2 
 PCOD9338398
Probable space group: P M C 21
;
_chemical_formula_sum "Si O2"
_cell_formula_units_Z 32
_cell_length_a 15.128349
_cell_length_b 8.151828
_cell_length_c 13.088361
_cell_angle_alpha 90.000000
_cell_angle_beta 90.000000
_cell_angle_gamma 90.000000
_cell_volume 1614.105092
_symmetry_space_group_name_H-M "P M C 21"
_symmetry_group_IT_number 26
_symmetry_cell_setting 'orthorhombic'
loop_
_space_group_symop_operation_xyz
x,y,z
-x,-y,1/2+z
-x,y,z
x,-y,1/2+z
loop_
_atom_site_type_symbol
_atom_site_label
_atom_site_fract_x
_atom_site_fract_y
_atom_site_fract_z
Si Si1 0.604531 0.724341 0.229670
Si Si2 0.102140 0.407587 0.285968
Si Si3 0.397597 0.291704 0.492200
Si Si4 0.903286 0.225999 0.737752
Si Si5 0.819409 0.856216 0.437881
Si Si6 0.276224 0.466835 0.880101
Si Si7 0.818892 0.102076 0.174470
Si Si8 0.678882 0.054734 0.324711
O O1 0.500000 0.685247 0.241655
O O2 0.667417 0.583769 0.278965
O O3 0.627782 0.892414 0.288808
O O4 0.622807 0.754639 0.109434
O O5 0.112071 0.579876 0.221974
O O6 0.186707 0.429512 0.359947
O O7 0.117851 0.236155 0.228420
O O8 0.000000 0.411727 0.324896
O O9 0.500000 0.335950 0.489345
O O10 0.337685 0.441719 0.458792
O O11 0.378613 0.159507 0.403096
O O12 0.897344 0.192810 0.860082
O O13 0.000000 0.184926 0.698191
O O14 0.836230 0.091453 0.695597
O O15 0.754234 0.703323 0.427190
O O16 0.836298 0.879432 0.555353
O O17 0.766480 0.008159 0.390033
O O18 0.721346 0.136128 0.222549
#
# Coordination Sequence:
#
# PCOD9338398 Si02
#       8
#     4   4   4   4   4   4   4   4
#     4  10  22  39  61  89 125 165 205 258 321 383
#     4  10  21  38  60  86 120 163 204 254 312 366
#     4  11  22  36  61  92 121 162 208 253 316 388
#     4   9  20  38  56  82 121 155 199 260 310 360
#     4   9  21  36  58  84 111 161 199 245 313 368
#     4  10  21  40  59  85 127 160 200 262 309 376
#     4  11  20  37  61  88 117 161 206 254 308 374
#     4  10  20  38  58  84 122 157 200 256 310 371
#
# _framework density 19.825227999999999
#
# number of rings (size 3 to 8) (size 9 to 14) (size 15 to 20)
#    0.000    2.000    1.250    2.625    1.750    1.000 
#    0.000    0.000    0.000   12.000    0.000    0.000 
#    0.000    0.000    0.000    0.000    0.000    0.000 
#
# Total GULP energy -178169.762990 kJ/mol
# GULP energy per Si atom -5567.805093 kJ/mol
# Density = 1.978010 g / cm^3
# Si number density = 19.825228 Si / 1000 Ang^3
#
#
#
# Elastic Constant Matrix: (Units=GPa)
#
#
# Indices 1 2 3 4 5 6 
#
# 1 79.8656 13.5629 -1.4038 0.0000 0.0000 0.0000
# 2 13.5629 48.6802 5.0151 0.0000 0.0000 0.0000
# 3 -1.4038 5.0151 36.1462 0.0000 0.0000 0.0000
# 4 0.0000 0.0000 0.0000 20.7286 0.0000 0.0000
# 5 0.0000 0.0000 0.0000 0.0000 11.9953 0.0000
# 6 0.0000 0.0000 0.0000 0.0000 0.0000 13.1233
#
#
#
# Elastic Compliance Matrix: (Units=1/GPa)
#
#
# Indices 1 2 3 4 5 6 
#
# 1 0.013181 -0.003779 0.001036 0.000000 0.000000 0.000000
# 2 -0.003779 0.021924 -0.003189 0.000000 0.000000 0.000000
# 3 0.001036 -0.003189 0.028148 0.000000 0.000000 0.000000
# 4 0.000000 0.000000 0.000000 0.048242 0.000000 0.000000
# 5 0.000000 0.000000 0.000000 0.000000 0.083366 0.000000
# 6 0.000000 0.000000 0.000000 0.000000 0.000000 0.076201
#
#
# Mechanical properties :
#
#
# Convention : Reuss Voigt Hill
#
# Bulk Modulus (GPa) = 19.45912 22.11561 20.78737
# Shear Modulus (GPa) = 16.66362 19.00396 17.83379
#
# Velocity S-wave (km/s) = 2.90233 3.09944 3.00250
# Velocity P-wave (km/s) = 4.58999 4.89778 4.74638
#
# Compressibility (1/GPa) = 0.05138978
#
# Stress axis : x y z
#
# Youngs Moduli (GPa) = 75.86663 45.61289 35.52643
#
# Poissons Ratio (x) = 0.17238 -0.03681
# Poissons Ratio (y) = 0.28671 0.11328
# Poissons Ratio (z) = -0.07862 0.14544
#
# Static dielectric constant tensor:
#      x y z
#    x 1.723610 0.000000 0.000000 
#    y 0.000000 1.718360 0.000000 
#    z 0.000000 0.000000 1.720690 
# 
# From -- ./inp_files/3591.got.cif
#   From: 2010.05.17/outbox.cif.g08.bks.cpg/sg26_2_cif.got.tgz:3591.got - 2010.06.04 01:07:29.
