data_PCOD9338169
_publ_section_title
;
Structure prediction by ZEFSAII (Michael W. Deem and Ramdas Pophale) SiO2 
 PCOD9338169
Probable space group: P M C 21
;
_chemical_formula_sum "Si O2"
_cell_formula_units_Z 24
_cell_length_a 15.717619
_cell_length_b 17.048866
_cell_length_c 5.446087
_cell_angle_alpha 90.000000
_cell_angle_beta 90.000000
_cell_angle_gamma 90.000000
_cell_volume 1459.374755
_symmetry_space_group_name_H-M "P M C 21"
_symmetry_group_IT_number 26
_symmetry_cell_setting 'orthorhombic'
loop_
_space_group_symop_operation_xyz
x,y,z
-x,-y,1/2+z
-x,y,z
x,-y,1/2+z
loop_
_atom_site_type_symbol
_atom_site_label
_atom_site_fract_x
_atom_site_fract_y
_atom_site_fract_z
Si Si1 0.336645 0.399004 0.059600
Si Si2 0.597919 0.573262 0.059656
Si Si3 0.103044 0.958460 0.034025
Si Si4 0.095711 0.473938 0.964528
Si Si5 0.156071 0.688709 0.567973
Si Si6 0.102889 0.226293 0.571881
O O1 0.385163 0.380016 0.310902
O O2 0.343397 0.494780 0.055285
O O3 0.381070 0.378601 0.803125
O O4 0.246226 0.356707 0.068731
O O5 0.500000 0.546559 0.067949
O O6 0.000000 0.965736 0.032610
O O7 0.133585 0.002318 0.280427
O O8 0.121229 0.866169 0.046183
O O9 0.137639 0.516189 0.197925
O O10 0.000000 0.507400 0.934791
O O11 0.092232 0.383679 0.031927
O O12 0.137431 0.730583 0.826969
O O13 0.142807 0.742142 0.326807
O O14 0.000000 0.237028 0.582894
#
# Coordination Sequence:
#
# PCOD9338169 Si02
#       6
#     4   4   4   4   4   4
#     4  10  20  30  49  72  92 119 154 203 251 289
#     4  10  19  35  54  72  90 117 164 208 251 300
#     4   9  17  31  52  74  91 114 159 210 246 285
#     4  10  21  33  45  57  78 118 170 216 243 266
#     4  12  23  33  49  68  98 128 166 205 258 298
#     4  11  22  36  51  69  98 134 167 206 252 300
#
# _framework density 16.445398000000001
#
# number of rings (size 3 to 8) (size 9 to 14) (size 15 to 20)
#    0.000    1.667    0.000    7.000    4.667    4.000 
#    0.000    0.000    0.000    0.000    0.000    0.000 
#    0.000    0.000    0.000    0.000    0.000  343.333 
#
# Total GULP energy -133715.462140 kJ/mol
# GULP energy per Si atom -5571.477589 kJ/mol
# Density = 1.640797 g / cm^3
# Si number density = 16.445398 Si / 1000 Ang^3
#
#
#
# Elastic Constant Matrix: (Units=GPa)
#
#
# Indices 1 2 3 4 5 6 
#
# 1 80.4848 30.3032 39.7395 0.0000 0.0000 0.0000
# 2 30.3032 54.9457 14.0592 0.0000 0.0000 0.0000
# 3 39.7395 14.0592 124.6835 0.0000 0.0000 0.0000
# 4 0.0000 0.0000 0.0000 30.5510 0.0000 0.0000
# 5 0.0000 0.0000 0.0000 0.0000 20.5498 0.0000
# 6 0.0000 0.0000 0.0000 0.0000 0.0000 2.5071
#
#
#
# Elastic Compliance Matrix: (Units=1/GPa)
#
#
# Indices 1 2 3 4 5 6 
#
# 1 0.018076 -0.008747 -0.004775 0.000000 0.000000 0.000000
# 2 -0.008747 0.022973 0.000197 0.000000 0.000000 0.000000
# 3 -0.004775 0.000197 0.009520 0.000000 0.000000 0.000000
# 4 0.000000 0.000000 0.000000 0.032732 0.000000 0.000000
# 5 0.000000 0.000000 0.000000 0.000000 0.048662 0.000000
# 6 0.000000 0.000000 0.000000 0.000000 0.000000 0.398868
#
#
# Mechanical properties :
#
#
# Convention : Reuss Voigt Hill
#
# Bulk Modulus (GPa) = 41.80614 47.59086 44.69850
# Shear Modulus (GPa) = 8.84246 22.45573 15.64909
#
# Velocity S-wave (km/s) = 2.32132 3.69924 3.08811
# Velocity P-wave (km/s) = 5.71499 6.87367 6.32093
#
# Compressibility (1/GPa) = 0.02391993
#
# Stress axis : x y z
#
# Youngs Moduli (GPa) = 55.32306 43.52857 105.04337
#
# Poissons Ratio (x) = 0.38075 0.50156
# Poissons Ratio (y) = 0.48392 -0.02074
# Poissons Ratio (z) = 0.26416 -0.00860
#
# Static dielectric constant tensor:
#      x y z
#    x 1.580830 0.000000 0.000000 
#    y 0.000000 1.526560 0.000000 
#    z 0.000000 0.000000 1.667200 
# 
# From -- ./inp_files/601.got.cif
#   From: 2010.05.17/outbox.cif.g08.bks.cpg/sg26_1_cif.got.tgz:601.got - 2010.06.04 01:07:29.
