data_PCOD9338253
_publ_section_title
;
Structure prediction by ZEFSAII (Michael W. Deem and Ramdas Pophale) SiO2 
 PCOD9338253
Probable space group: P M C 21
;
_chemical_formula_sum "Si O2"
_cell_formula_units_Z 24
_cell_length_a 7.674518
_cell_length_b 11.122009
_cell_length_c 13.390577
_cell_angle_alpha 90.000000
_cell_angle_beta 90.000000
_cell_angle_gamma 90.000000
_cell_volume 1142.966871
_symmetry_space_group_name_H-M "P M C 21"
_symmetry_group_IT_number 26
_symmetry_cell_setting 'orthorhombic'
loop_
_space_group_symop_operation_xyz
x,y,z
-x,-y,1/2+z
-x,y,z
x,-y,1/2+z
loop_
_atom_site_type_symbol
_atom_site_label
_atom_site_fract_x
_atom_site_fract_y
_atom_site_fract_z
Si Si1 0.790357 0.305015 0.927830
Si Si2 0.198112 0.201887 0.319276
Si Si3 0.213797 0.133511 0.103297
Si Si4 0.790357 0.694985 0.210723
Si Si5 0.699324 0.467432 0.319276
Si Si6 0.213797 0.133511 0.535255
O O1 0.738628 0.249621 0.819276
O O2 0.735624 0.443777 0.912956
O O3 0.000000 0.303888 0.931502
O O4 0.725304 0.231616 0.022243
O O5 0.277523 0.160525 0.214734
O O6 0.193200 0.346450 0.319276
O O7 0.277523 0.160525 0.423818
O O8 0.000000 0.153873 0.319276
O O9 0.000000 0.140092 0.104173
O O10 0.260885 0.000000 0.069276
O O11 0.735624 0.556223 0.225596
O O12 0.725304 0.768384 0.116309
O O13 0.000000 0.696112 0.207050
O O14 0.500000 0.431115 0.319276
O O15 0.000000 0.140092 0.534380
#
# Coordination Sequence:
#
# PCOD9338253 Si02
#       6
#     4   4   4   4   4   4
#     4   8  16  32  54  77 103 134 168 209 255 302
#     4  10  20  33  52  80 108 133 169 214 259 304
#     4   9  18  31  53  82 107 134 168 211 257 306
#     4   8  16  32  54  77 103 134 168 209 255 302
#     4  10  20  35  54  76 104 137 177 216 255 306
#     4   9  18  31  53  82 107 134 168 211 257 306
#
# _framework density 20.997982
#
# number of rings (size 3 to 8) (size 9 to 14) (size 15 to 20)
#    1.000    2.000    0.000    1.000    2.333    1.333 
#    0.000    8.333    0.000    6.000    0.000    0.000 
#    0.000    0.000    0.000    0.000    0.000    0.000 
#
# Total GULP energy -133644.488119 kJ/mol
# GULP energy per Si atom -5568.520338 kJ/mol
# Density = 2.095019 g / cm^3
# Si number density = 20.997982 Si / 1000 Ang^3
#
#
#
# Elastic Constant Matrix: (Units=GPa)
#
#
# Indices 1 2 3 4 5 6 
#
# 1 38.6956 -4.4495 18.7723 0.0000 0.0000 0.0000
# 2 -4.4495 107.3888 74.9994 0.0000 0.0000 0.0000
# 3 18.7723 74.9994 165.9617 0.0000 0.0000 0.0000
# 4 0.0000 0.0000 0.0000 36.6185 0.0000 0.0000
# 5 0.0000 0.0000 0.0000 0.0000 6.4487 0.0000
# 6 0.0000 0.0000 0.0000 0.0000 0.0000 -38.5447
#
#
#
# Elastic Compliance Matrix: (Units=1/GPa)
#
#
# Indices 1 2 3 4 5 6 
#
# 1 0.029158 0.005131 -0.005617 0.000000 0.000000 0.000000
# 2 0.005131 0.014509 -0.007137 0.000000 0.000000 0.000000
# 3 -0.005617 -0.007137 0.009886 0.000000 0.000000 0.000000
# 4 0.000000 0.000000 0.000000 0.027309 0.000000 0.000000
# 5 0.000000 0.000000 0.000000 0.000000 0.155069 0.000000
# 6 0.000000 0.000000 0.000000 0.000000 0.000000 -0.025944
#
#
# Mechanical properties :
#
#
# Convention : Reuss Voigt Hill
#
# Bulk Modulus (GPa) = 26.10519 54.52117 40.31318
# Shear Modulus (GPa) = 21.00827 15.75276 18.38051
#
# Velocity S-wave (km/s) = 3.16648 2.74196 2.96184
# Velocity P-wave (km/s) = 5.08213 6.00381 5.56210
#
# Compressibility (1/GPa) = 0.03830656
#
# Stress axis : x y z
#
# Youngs Moduli (GPa) = 34.29649 68.92263 101.15199
#
# Poissons Ratio (x) = -0.35362 0.56814
# Poissons Ratio (y) = -0.17597 0.72193
# Poissons Ratio (z) = 0.19263 0.49191
#
# Static dielectric constant tensor:
#      x y z
#    x 1.760610 0.000000 0.000000 
#    y 0.000000 1.716480 0.000000 
#    z 0.000000 0.000000 1.777950 
# 
# From -- ./inp_files/2805.got.cif
#   From: 2010.05.17/outbox.cif.g08.bks.cpg/sg26_2_cif.got.tgz:2805.got - 2010.06.04 01:07:29.
