data_PCOD9338531
_publ_section_title
;
Structure prediction by ZEFSAII (Michael W. Deem and Ramdas Pophale) SiO2 
 PCOD9338531
Probable space group: P M C 21
;
_chemical_formula_sum "Si O2"
_cell_formula_units_Z 32
_cell_length_a 8.962617
_cell_length_b 12.167133
_cell_length_c 15.564059
_cell_angle_alpha 90.000000
_cell_angle_beta 90.000000
_cell_angle_gamma 90.000000
_cell_volume 1697.250565
_symmetry_space_group_name_H-M "P M C 21"
_symmetry_group_IT_number 26
_symmetry_cell_setting 'orthorhombic'
loop_
_space_group_symop_operation_xyz
x,y,z
-x,-y,1/2+z
-x,y,z
x,-y,1/2+z
loop_
_atom_site_type_symbol
_atom_site_label
_atom_site_fract_x
_atom_site_fract_y
_atom_site_fract_z
Si Si1 0.179958 0.890527 0.989570
Si Si2 0.820566 0.020933 0.817668
Si Si3 0.174640 0.264263 0.863404
Si Si4 0.321607 0.506027 0.321494
Si Si5 0.675196 0.511090 0.623760
Si Si6 0.326353 0.028560 0.140646
Si Si7 0.330208 0.748224 0.536792
Si Si8 0.178849 0.366996 0.476395
O O1 0.000000 0.897766 0.995875
O O2 0.227710 0.960164 0.905362
O O3 0.219289 0.762118 0.978959
O O4 0.249827 0.944467 0.074272
O O5 0.782413 0.150277 0.818537
O O6 0.000000 0.012720 0.814462
O O7 0.750229 0.970826 0.732926
O O8 0.270764 0.369374 0.838582
O O9 0.000000 0.286312 0.848324
O O10 0.207625 0.243311 0.963311
O O11 0.500000 0.495553 0.329058
O O12 0.276606 0.482548 0.223001
O O13 0.247796 0.428336 0.393462
O O14 0.500000 0.479137 0.622707
O O15 0.686605 0.632165 0.583549
O O16 0.763463 0.427881 0.562315
O O17 0.500000 0.999723 0.149380
O O18 0.315826 0.149618 0.099999
O O19 0.500000 0.751854 0.499932
O O20 0.000000 0.375780 0.472071
#
# Coordination Sequence:
#
# PCOD9338531 Si02
#       8
#     4   4   4   4   4   4   4   4
#     4  10  23  44  63  86 124 164 204 251 303 362
#     4  10  23  42  63  88 123 165 203 248 308 364
#     4  11  22  39  65  91 118 158 208 255 301 359
#     4  11  24  41  63  90 126 164 200 249 308 367
#     4  10  23  42  63  88 121 163 202 245 308 365
#     4  11  24  39  63  95 123 157 204 254 304 363
#     4  10  21  40  63  89 121 156 200 255 306 358
#     4  11  24  41  63  91 122 159 207 255 300 358
#
# _framework density 18.854023000000002
#
# number of rings (size 3 to 8) (size 9 to 14) (size 15 to 20)
#    0.000    1.500    2.500    1.500    3.500    4.000 
#    0.000    0.000    0.000    0.000    0.000    0.000 
#    0.000    0.000    0.000    0.000    0.000    0.000 
#
# Total GULP energy -178766.850073 kJ/mol
# GULP energy per Si atom -5586.464065 kJ/mol
# Density = 1.881111 g / cm^3
# Si number density = 18.854023 Si / 1000 Ang^3
#
#
#
# Elastic Constant Matrix: (Units=GPa)
#
#
# Indices 1 2 3 4 5 6 
#
# 1 18.4009 20.4832 7.6142 0.0000 0.0000 0.0000
# 2 20.4832 74.0413 -6.6711 0.0000 0.0000 0.0000
# 3 7.6142 -6.6711 55.9027 0.0000 0.0000 0.0000
# 4 0.0000 0.0000 0.0000 95.1962 0.0000 0.0000
# 5 0.0000 0.0000 0.0000 0.0000 17.2302 0.0000
# 6 0.0000 0.0000 0.0000 0.0000 0.0000 -6.5186
#
#
#
# Elastic Compliance Matrix: (Units=1/GPa)
#
#
# Indices 1 2 3 4 5 6 
#
# 1 0.089959 -0.026273 -0.015388 0.000000 0.000000 0.000000
# 2 -0.026273 0.021326 0.006123 0.000000 0.000000 0.000000
# 3 -0.015388 0.006123 0.020715 0.000000 0.000000 0.000000
# 4 0.000000 0.000000 0.000000 0.010505 0.000000 0.000000
# 5 0.000000 0.000000 0.000000 0.000000 0.058038 0.000000
# 6 0.000000 0.000000 0.000000 0.000000 0.000000 -0.153406
#
#
# Mechanical properties :
#
#
# Convention : Reuss Voigt Hill
#
# Bulk Modulus (GPa) = 16.41382 21.24417 18.82899
# Shear Modulus (GPa) = 36.09587 29.64279 32.86933
#
# Velocity S-wave (km/s) = 4.38024 3.96943 4.17988
# Velocity P-wave (km/s) = 5.85718 5.68337 5.77093
#
# Compressibility (1/GPa) = 0.06092428
#
# Stress axis : x y z
#
# Youngs Moduli (GPa) = 11.11616 46.89101 48.27444
#
# Poissons Ratio (x) = 1.23198 0.74285
# Poissons Ratio (y) = 0.29206 -0.29561
# Poissons Ratio (z) = 0.17106 -0.28713
#
# Static dielectric constant tensor:
#      x y z
#    x 1.646690 0.000000 0.000000 
#    y 0.000000 1.198050 0.000000 
#    z 0.000000 0.000000 1.644750 
# 
# From -- ./inp_files/4083.got.cif
#   From: 2010.05.17/outbox.cif.g08.bks.cpg/sg26_3_cif.got.tgz:4083.got - 2010.06.04 01:07:29.
