data_PCOD9338989
_publ_section_title
;
Structure prediction by ZEFSAII (Michael W. Deem and Ramdas Pophale) SiO2 
 PCOD9338989
Probable space group: P C C 2
;
_chemical_formula_sum "Si O2"
_cell_formula_units_Z 24
_cell_length_a 12.726653
_cell_length_b 8.512506
_cell_length_c 8.863956
_cell_angle_alpha 90.000000
_cell_angle_beta 90.000000
_cell_angle_gamma 90.000000
_cell_volume 960.282967
_symmetry_space_group_name_H-M "P C C 2"
_symmetry_group_IT_number 27
_symmetry_cell_setting 'orthorhombic'
loop_
_space_group_symop_operation_xyz
x,y,z
-x,-y,z
-x,y,1/2+z
x,-y,1/2+z
loop_
_atom_site_type_symbol
_atom_site_label
_atom_site_fract_x
_atom_site_fract_y
_atom_site_fract_z
Si Si1 0.094656 0.225846 0.116990
Si Si2 0.000000 0.500000 0.476292
Si Si3 0.380181 0.935198 0.918859
Si Si4 0.779517 0.446013 0.817509
Si Si5 0.500000 0.000000 0.136898
Si Si6 0.715938 0.274729 0.125096
Si Si7 0.152806 0.042394 0.818469
O O1 0.191290 0.332634 0.176872
O O2 0.084703 0.098415 0.248512
O O3 0.002085 0.347484 0.082505
O O4 0.109844 0.135282 0.961130
O O5 0.894123 0.498237 0.378858
O O6 0.432135 0.087527 0.992088
O O7 0.382102 0.842817 0.085448
O O8 0.434747 0.897169 0.764564
O O9 0.259935 0.964961 0.880263
O O10 0.712647 0.589865 0.750589
O O11 0.732114 0.356434 0.961923
O O12 0.807482 0.159764 0.186696
#
# Coordination Sequence:
#
# PCOD9338989 Si02
#       7
#     4   2   4   4   2   4   4
#     4  12  24  45  72 102 140 183 246 298 361 409
#     4  12  26  44  70  94 146 184 246 298 368 420
#     4  11  21  40  71 108 140 170 228 287 351 423
#     4  12  25  44  68  97 139 195 241 287 364 421
#     4  10  22  38  68 114 142 174 206 298 368 404
#     4  12  23  43  70 102 138 191 243 279 346 439
#     4  12  22  43  74 106 135 183 249 298 335 423
#
# _framework density 24.992636000000001
#
# number of rings (size 3 to 8) (size 9 to 14) (size 15 to 20)
#    0.000    0.333    8.333    0.500    0.000    0.000 
#    0.000    6.667    0.000    3.000    0.000    0.000 
#    0.000    0.000    0.000    0.000    0.000    0.000 
#
# Total GULP energy -133627.953283 kJ/mol
# GULP energy per Si atom -5567.831387 kJ/mol
# Density = 2.493575 g / cm^3
# Si number density = 24.992636 Si / 1000 Ang^3
#
#
#
# Elastic Constant Matrix: (Units=GPa)
#
#
# Indices 1 2 3 4 5 6 
#
# 1 51.2083 13.6532 38.3389 0.0000 0.0000 0.0000
# 2 13.6532 107.4868 60.1844 0.0000 0.0000 0.0000
# 3 38.3389 60.1844 208.0079 0.0000 0.0000 0.0000
# 4 0.0000 0.0000 0.0000 71.6253 0.0000 0.0000
# 5 0.0000 0.0000 0.0000 0.0000 32.0679 0.0000
# 6 0.0000 0.0000 0.0000 0.0000 0.0000 9.5046
#
#
#
# Elastic Compliance Matrix: (Units=1/GPa)
#
#
# Indices 1 2 3 4 5 6 
#
# 1 0.022692 -0.000645 -0.003996 0.000000 0.000000 0.000000
# 2 -0.000645 0.011120 -0.003099 0.000000 0.000000 0.000000
# 3 -0.003996 -0.003099 0.006441 0.000000 0.000000 0.000000
# 4 0.000000 0.000000 0.000000 0.013962 0.000000 0.000000
# 5 0.000000 0.000000 0.000000 0.000000 0.031184 0.000000
# 6 0.000000 0.000000 0.000000 0.000000 0.000000 0.105212
#
#
# Mechanical properties :
#
#
# Convention : Reuss Voigt Hill
#
# Bulk Modulus (GPa) = 40.36542 65.67289 53.01915
# Shear Modulus (GPa) = 23.32664 39.60801 31.46733
#
# Velocity S-wave (km/s) = 3.05838 3.98526 3.55218
# Velocity P-wave (km/s) = 5.35327 6.89277 6.17122
#
# Compressibility (1/GPa) = 0.02477368
#
# Stress axis : x y z
#
# Youngs Moduli (GPa) = 44.06912 89.92474 155.26645
#
# Poissons Ratio (x) = 0.05800 0.62041
# Poissons Ratio (y) = 0.02843 0.48112
# Poissons Ratio (z) = 0.17609 0.27865
#
# Static dielectric constant tensor:
#      x y z
#    x 1.619580 0.000000 0.000000 
#    y 0.000000 1.986430 0.000000 
#    z 0.000000 0.000000 1.984690 
# 
# From -- ./inp_files/1581.got.cif
#   From: 2010.05.17/outbox.cif.g08.bks.cpg/sg27_1_cif.got.tgz:1581.got - 2010.06.04 01:11:05.
