data_PCOD9338264
_publ_section_title
;
Structure prediction by ZEFSAII (Michael W. Deem and Ramdas Pophale) SiO2 
 PCOD9338264
Probable space group: P M C 21
;
_chemical_formula_sum "Si O2"
_cell_formula_units_Z 32
_cell_length_a 7.484175
_cell_length_b 12.969864
_cell_length_c 14.800844
_cell_angle_alpha 90.000000
_cell_angle_beta 90.000000
_cell_angle_gamma 90.000000
_cell_volume 1436.699158
_symmetry_space_group_name_H-M "P M C 21"
_symmetry_group_IT_number 26
_symmetry_cell_setting 'orthorhombic'
loop_
_space_group_symop_operation_xyz
x,y,z
-x,-y,1/2+z
-x,y,z
x,-y,1/2+z
loop_
_atom_site_type_symbol
_atom_site_label
_atom_site_fract_x
_atom_site_fract_y
_atom_site_fract_z
Si Si1 0.204280 0.612287 0.725350
Si Si2 0.287850 0.007827 0.054176
Si Si3 0.218701 0.618592 0.212991
Si Si4 0.707104 0.229507 0.079742
Si Si5 0.220226 0.784974 0.859614
Si Si6 0.216798 0.229378 0.868764
Si Si7 0.785703 0.782933 0.067602
Si Si8 0.202212 0.006749 0.844960
O O1 0.282558 0.499027 0.711196
O O2 0.202400 0.679232 0.634190
O O3 0.282404 0.688963 0.800422
O O4 0.000000 0.594315 0.754879
O O5 0.500000 0.019745 0.038965
O O6 0.224029 0.113545 0.099920
O O7 0.257444 0.898596 0.101287
O O8 0.198880 0.001513 0.955226
O O9 0.268835 0.676706 0.305109
O O10 0.280432 0.691669 0.131255
O O11 0.000000 0.617988 0.208151
O O12 0.500000 0.234411 0.105168
O O13 0.724075 0.241352 0.971902
O O14 0.000000 0.788619 0.857729
O O15 0.283104 0.895872 0.821031
O O16 0.276561 0.774763 0.963885
O O17 0.283296 0.119417 0.829294
O O18 0.000000 0.223350 0.869685
O O19 0.000000 0.776368 0.065603
O O20 0.000000 0.008956 0.809321
#
# Coordination Sequence:
#
# PCOD9338264 Si02
#       8
#     4   4   4   4   4   4   4   4
#     4  10  20  34  52  75 103 137 177 214 250 296
#     4   9  17  30  49  74 102 130 166 210 254 304
#     4   9  19  33  52  80 106 131 171 217 252 293
#     4  10  21  36  52  74 105 137 170 211 257 302
#     4   8  15  28  48  73  99 128 163 204 249 298
#     4   9  17  32  54  77 101 131 168 210 257 307
#     4   9  17  32  53  76 104 134 164 205 257 308
#     4   8  14  27  48  73 100 130 165 205 254 310
#
# _framework density 22.273278000000001
#
# number of rings (size 3 to 8) (size 9 to 14) (size 15 to 20)
#    0.000    3.000    0.000    1.500    0.000    3.500 
#    0.000   10.625    0.000    6.000    0.000    0.000 
#    0.000    0.000    0.000    0.000    0.000    0.000 
#
# Total GULP energy -178550.311052 kJ/mol
# GULP energy per Si atom -5579.697220 kJ/mol
# Density = 2.222258 g / cm^3
# Si number density = 22.273278 Si / 1000 Ang^3
#
#
#
# Elastic Constant Matrix: (Units=GPa)
#
#
# Indices 1 2 3 4 5 6 
#
# 1 69.9227 3.4001 -5.2612 0.0000 0.0000 0.0000
# 2 3.4001 248.3006 79.6270 0.0000 0.0000 0.0000
# 3 -5.2612 79.6270 93.8371 0.0000 0.0000 0.0000
# 4 0.0000 0.0000 0.0000 36.3876 0.0000 0.0000
# 5 0.0000 0.0000 0.0000 0.0000 -26.1006 0.0000
# 6 0.0000 0.0000 0.0000 0.0000 0.0000 -0.2465
#
#
#
# Elastic Compliance Matrix: (Units=1/GPa)
#
#
# Indices 1 2 3 4 5 6 
#
# 1 0.014433 -0.000628 0.001342 0.000000 0.000000 0.000000
# 2 -0.000628 0.005560 -0.004754 0.000000 0.000000 0.000000
# 3 0.001342 -0.004754 0.014766 0.000000 0.000000 0.000000
# 4 0.000000 0.000000 0.000000 0.027482 0.000000 0.000000
# 5 0.000000 0.000000 0.000000 0.000000 -0.038313 0.000000
# 6 0.000000 0.000000 0.000000 0.000000 0.000000 -4.056179
#
#
# Mechanical properties :
#
#
# Convention : Reuss Voigt Hill
#
# Bulk Modulus (GPa) = 37.48090 63.06579 50.27335
# Shear Modulus (GPa) = -1.24524 24.29440 11.52458
#
# Velocity S-wave (km/s) = -0.74852 3.30622 2.27715
# Velocity P-wave (km/s) = 4.01463 6.55369 5.43452
#
# Compressibility (1/GPa) = 0.02668026
#
# Stress axis : x y z
#
# Youngs Moduli (GPa) = 69.28546 179.84356 67.72439
#
# Poissons Ratio (x) = 0.11295 -0.09090
# Poissons Ratio (y) = 0.04352 0.32193
# Poissons Ratio (z) = -0.09299 0.85490
#
# Static dielectric constant tensor:
#      x y z
#    x 1.856660 0.000000 0.000000 
#    y 0.000000 1.835750 0.000000 
#    z 0.000000 0.000000 1.801190 
# 
# From -- ./inp_files/4307.got.cif
#   From: 2010.05.17/outbox.cif.g08.bks.cpg/sg26_3_cif.got.tgz:4307.got - 2010.06.04 01:07:29.
