data_PCOD9338821
_publ_section_title
;
Structure prediction by ZEFSAII (Michael W. Deem and Ramdas Pophale) SiO2 
 PCOD9338821
Probable space group: P C C 2
;
_chemical_formula_sum "Si O2"
_cell_formula_units_Z 20
_cell_length_a 9.176848
_cell_length_b 9.176858
_cell_length_c 12.522342
_cell_angle_alpha 90.000000
_cell_angle_beta 90.000000
_cell_angle_gamma 90.000000
_cell_volume 1054.564411
_symmetry_space_group_name_H-M "P C C 2"
_symmetry_group_IT_number 27
_symmetry_cell_setting 'orthorhombic'
loop_
_space_group_symop_operation_xyz
x,y,z
-x,-y,z
-x,y,1/2+z
x,-y,1/2+z
loop_
_atom_site_type_symbol
_atom_site_label
_atom_site_fract_x
_atom_site_fract_y
_atom_site_fract_z
Si Si1 0.658690 0.564642 0.961920
Si Si2 0.169533 0.669537 0.643506
Si Si3 0.853438 0.295634 0.033153
Si Si4 0.064639 0.158691 0.325093
Si Si5 0.795631 0.646558 0.753859
O O1 0.500000 0.500000 0.977039
O O2 0.676026 0.633952 0.845403
O O3 0.702568 0.672004 0.057357
O O4 0.778926 0.435267 0.976661
O O5 0.171999 0.797437 0.729654
O O6 0.176892 0.517162 0.709043
O O7 0.017157 0.676894 0.577970
O O8 0.766756 0.266763 0.143506
O O9 0.866043 0.176031 0.941608
O O10 0.935263 0.278924 0.310350
O O11 0.000000 0.000000 0.309981
#
# Coordination Sequence:
#
# PCOD9338821 Si02
#       5
#     4   4   4   4   4
#     4  11  21  35  59  89 118 151 192 249 302 358
#     4  10  21  36  62  86 115 146 197 262 300 350
#     4  10  20  34  57  85 116 144 193 247 298 347
#     4  11  21  35  59  89 118 151 192 249 302 358
#     4  10  20  34  57  85 116 144 193 247 298 347
#
# _framework density 18.965176
#
# number of rings (size 3 to 8) (size 9 to 14) (size 15 to 20)
#    0.000    1.600    4.000    5.400    0.000    6.400 
#    0.000    0.000    0.000    1.200    0.000    0.000 
#    0.000    0.000    0.000    0.000    0.000    0.000 
#
# Total GULP energy -111453.285210 kJ/mol
# GULP energy per Si atom -5572.664261 kJ/mol
# Density = 1.892201 g / cm^3
# Si number density = 18.965176 Si / 1000 Ang^3
#
#
#
# Elastic Constant Matrix: (Units=GPa)
#
#
# Indices 1 2 3 4 5 6 
#
# 1 58.2001 10.5656 51.1258 0.0000 0.0000 0.0000
# 2 10.5656 58.2063 51.1283 0.0000 0.0000 0.0000
# 3 51.1258 51.1283 181.0515 0.0000 0.0000 0.0000
# 4 0.0000 0.0000 0.0000 11.1191 0.0000 0.0000
# 5 0.0000 0.0000 0.0000 0.0000 11.1216 0.0000
# 6 0.0000 0.0000 0.0000 0.0000 0.0000 13.7979
#
#
#
# Elastic Compliance Matrix: (Units=1/GPa)
#
#
# Indices 1 2 3 4 5 6 
#
# 1 0.023031 0.002038 -0.007079 0.000000 0.000000 0.000000
# 2 0.002038 0.023028 -0.007078 0.000000 0.000000 0.000000
# 3 -0.007079 -0.007078 0.009521 0.000000 0.000000 0.000000
# 4 0.000000 0.000000 0.000000 0.089935 0.000000 0.000000
# 5 0.000000 0.000000 0.000000 0.000000 0.089915 0.000000
# 6 0.000000 0.000000 0.000000 0.000000 0.000000 0.072475
#
#
# Mechanical properties :
#
#
# Convention : Reuss Voigt Hill
#
# Bulk Modulus (GPa) = 31.90771 58.12194 45.01483
# Shear Modulus (GPa) = 14.59463 19.51692 17.05577
#
# Velocity S-wave (km/s) = 2.77708 3.21143 3.00212
# Velocity P-wave (km/s) = 5.20997 6.66815 5.98365
#
# Compressibility (1/GPa) = 0.03134038
#
# Stress axis : x y z
#
# Youngs Moduli (GPa) = 43.42051 43.42520 105.02933
#
# Poissons Ratio (x) = -0.08848 0.74348
# Poissons Ratio (y) = -0.08847 0.74344
# Poissons Ratio (z) = 0.30737 0.30738
#
# Static dielectric constant tensor:
#      x y z
#    x 1.655330 0.000000 0.000000 
#    y 0.000000 1.655340 0.000000 
#    z 0.000000 0.000000 1.738980 
# 
# From -- ./inp_files/2243.got.cif
#   From: 2010.05.17/outbox.cif.g08.bks.cpg/sg27_2_cif.got.tgz:2243.got - 2010.06.04 01:11:05.
