data_PCOD9338365
_publ_section_title
;
Structure prediction by ZEFSAII (Michael W. Deem and Ramdas Pophale) SiO2 
 PCOD9338365
Probable space group: P M C 21
;
_chemical_formula_sum "Si O2"
_cell_formula_units_Z 10
_cell_length_a 7.319346
_cell_length_b 11.614612
_cell_length_c 5.009639
_cell_angle_alpha 90.000000
_cell_angle_beta 90.000000
_cell_angle_gamma 90.000000
_cell_volume 425.876244
_symmetry_space_group_name_H-M "P M C 21"
_symmetry_group_IT_number 26
_symmetry_cell_setting 'orthorhombic'
loop_
_space_group_symop_operation_xyz
x,y,z
-x,-y,1/2+z
-x,y,z
x,-y,1/2+z
loop_
_atom_site_type_symbol
_atom_site_label
_atom_site_fract_x
_atom_site_fract_y
_atom_site_fract_z
Si Si1 0.500000 0.083227 0.737520
Si Si2 0.794153 0.758824 0.496322
Si Si3 0.000000 0.079375 0.346789
Si Si4 0.500000 0.574464 0.661279
O O1 0.327979 0.165708 0.797937
O O2 0.500000 0.017496 0.459766
O O3 0.832741 0.841449 0.750630
O O4 0.677020 0.650072 0.587439
O O5 0.000000 0.729843 0.397114
O O6 0.000000 0.972500 0.138661
O O7 0.500000 0.536227 0.967826
#
# Coordination Sequence:
#
# PCOD9338365 Si02
#       4
#     2   4   2   2
#     4  11  22  37  60  92 132 169 200 249 310 380
#     4   9  23  42  62  97 124 166 215 258 310 387
#     4  10  20  36  60  92 128 158 192 242 306 378
#     4  11  26  47  66  90 124 167 220 277 320 356
#
# _framework density 23.480996000000001
#
# number of rings (size 3 to 8) (size 9 to 14) (size 15 to 20)
#    1.200    0.800    0.000    2.400    0.000   11.200 
#    0.000    0.000    0.000    0.000    0.000    0.000 
#    0.000    0.000    0.000    0.000    0.000    0.000 
#
# Total GULP energy -55950.664174 kJ/mol
# GULP energy per Si atom -5595.066417 kJ/mol
# Density = 2.342755 g / cm^3
# Si number density = 23.480996 Si / 1000 Ang^3
#
#
#
# Elastic Constant Matrix: (Units=GPa)
#
#
# Indices 1 2 3 4 5 6 
#
# 1 178.9911 38.0908 9.5632 0.0000 0.0000 0.0000
# 2 38.0908 68.5271 -11.9721 0.0000 0.0000 0.0000
# 3 9.5632 -11.9721 68.2006 0.0000 0.0000 0.0000
# 4 0.0000 0.0000 0.0000 10.0611 0.0000 0.0000
# 5 0.0000 0.0000 0.0000 0.0000 25.7173 0.0000
# 6 0.0000 0.0000 0.0000 0.0000 0.0000 53.3469
#
#
#
# Elastic Compliance Matrix: (Units=1/GPa)
#
#
# Indices 1 2 3 4 5 6 
#
# 1 0.006500 -0.003892 -0.001595 0.000000 0.000000 0.000000
# 2 -0.003892 0.017384 0.003597 0.000000 0.000000 0.000000
# 3 -0.001595 0.003597 0.015518 0.000000 0.000000 0.000000
# 4 0.000000 0.000000 0.000000 0.099392 0.000000 0.000000
# 5 0.000000 0.000000 0.000000 0.000000 0.038884 0.000000
# 6 0.000000 0.000000 0.000000 0.000000 0.000000 0.018745
#
#
# Mechanical properties :
#
#
# Convention : Reuss Voigt Hill
#
# Bulk Modulus (GPa) = 28.07056 43.00918 35.53987
# Shear Modulus (GPa) = 23.57631 36.49418 30.03524
#
# Velocity S-wave (km/s) = 3.17213 3.94661 3.58037
# Velocity P-wave (km/s) = 5.03955 6.25492 5.67984
#
# Compressibility (1/GPa) = 0.03562451
#
# Stress axis : x y z
#
# Youngs Moduli (GPa) = 153.83977 57.52253 64.44238
#
# Poissons Ratio (x) = 0.22386 0.10276
# Poissons Ratio (y) = 0.59871 -0.23183
# Poissons Ratio (z) = 0.24532 -0.20693
#
# Static dielectric constant tensor:
#      x y z
#    x 1.997630 0.000000 0.000000 
#    y 0.000000 1.856600 0.000000 
#    z 0.000000 0.000000 1.861200 
# 
# From -- ./inp_files/58.got.cif
#   From: 2010.05.17/outbox.cif.g08.bks.cpg/sg26_1_cif.got.tgz:58.got - 2010.06.04 01:07:29.
