data_PCOD9338967
_publ_section_title
;
Structure prediction by ZEFSAII (Michael W. Deem and Ramdas Pophale) SiO2 
 PCOD9338967
Probable space group: P C C 2
;
_chemical_formula_sum "Si O2"
_cell_formula_units_Z 32
_cell_length_a 15.146567
_cell_length_b 10.214134
_cell_length_c 9.084939
_cell_angle_alpha 90.000000
_cell_angle_beta 90.000000
_cell_angle_gamma 90.000000
_cell_volume 1405.522418
_symmetry_space_group_name_H-M "P C C 2"
_symmetry_group_IT_number 27
_symmetry_cell_setting 'orthorhombic'
loop_
_space_group_symop_operation_xyz
x,y,z
-x,-y,z
-x,y,1/2+z
x,-y,1/2+z
loop_
_atom_site_type_symbol
_atom_site_label
_atom_site_fract_x
_atom_site_fract_y
_atom_site_fract_z
Si Si1 0.757497 0.990219 0.484810
Si Si2 0.685608 0.815113 0.731730
Si Si3 0.589312 0.416411 0.128190
Si Si4 0.693912 0.615399 0.331165
Si Si5 0.936189 0.121846 0.030932
Si Si6 0.007621 0.277892 0.785143
Si Si7 0.182555 0.235963 0.151641
Si Si8 0.178608 0.391139 0.847519
O O1 0.707440 0.081145 0.364354
O O2 0.809336 0.088821 0.594941
O O3 0.693951 0.899998 0.583307
O O4 0.843187 0.900780 0.448705
O O5 0.598752 0.719459 0.723985
O O6 0.762443 0.703912 0.742825
O O7 0.500000 0.500000 0.106409
O O8 0.647284 0.524843 0.210771
O O9 0.631316 0.377894 0.971438
O O10 0.731413 0.743090 0.253818
O O11 0.781663 0.533634 0.367119
O O12 0.985914 0.241250 0.952243
O O13 0.000000 0.000000 0.009717
O O14 0.937339 0.161020 0.202588
O O15 0.911455 0.276547 0.715471
O O16 0.078992 0.392675 0.789148
O O17 0.190511 0.324225 0.005692
#
# Coordination Sequence:
#
# PCOD9338967 Si02
#       8
#     4   4   4   4   4   4   4   4
#     4  11  22  39  63 103 150 192 233 293 353 433
#     4  10  23  39  69 106 144 184 228 285 365 429
#     4  11  25  48  79 111 131 172 234 303 370 464
#     4  11  24  45  74 100 134 178 236 302 373 438
#     4  12  22  33  55  90 135 192 248 289 331 400
#     4  12  22  35  57  90 137 193 251 294 339 395
#     4  11  23  39  61  96 141 191 240 293 347 416
#     4  10  21  43  58  97 140 184 249 303 341 414
#
# _framework density 22.767334999999999
#
# number of rings (size 3 to 8) (size 9 to 14) (size 15 to 20)
#    0.000    1.000    5.000    2.250    3.500    0.500 
#    0.000    1.250    0.000    0.750    3.250    0.000 
#    0.000    0.000    0.000    0.000    0.000    0.000 
#
# Total GULP energy -178489.214019 kJ/mol
# GULP energy per Si atom -5577.787938 kJ/mol
# Density = 2.271552 g / cm^3
# Si number density = 22.767335 Si / 1000 Ang^3
#
#
#
# Elastic Constant Matrix: (Units=GPa)
#
#
# Indices 1 2 3 4 5 6 
#
# 1 89.0416 45.0344 46.5935 0.0000 0.0000 0.0000
# 2 45.0344 60.8334 14.0421 0.0000 0.0000 0.0000
# 3 46.5935 14.0421 76.3286 0.0000 0.0000 0.0000
# 4 0.0000 0.0000 0.0000 26.5149 0.0000 0.0000
# 5 0.0000 0.0000 0.0000 0.0000 19.3395 0.0000
# 6 0.0000 0.0000 0.0000 0.0000 0.0000 33.8145
#
#
#
# Elastic Compliance Matrix: (Units=1/GPa)
#
#
# Indices 1 2 3 4 5 6 
#
# 1 0.026473 -0.016571 -0.013111 0.000000 0.000000 0.000000
# 2 -0.016571 0.027540 0.005049 0.000000 0.000000 0.000000
# 3 -0.013111 0.005049 0.020176 0.000000 0.000000 0.000000
# 4 0.000000 0.000000 0.000000 0.037715 0.000000 0.000000
# 5 0.000000 0.000000 0.000000 0.000000 0.051708 0.000000
# 6 0.000000 0.000000 0.000000 0.000000 0.000000 0.029573
#
#
# Mechanical properties :
#
#
# Convention : Reuss Voigt Hill
#
# Bulk Modulus (GPa) = 40.12479 48.61594 44.37036
# Shear Modulus (GPa) = 19.93957 23.96937 21.95447
#
# Velocity S-wave (km/s) = 2.96260 3.24820 3.10868
# Velocity P-wave (km/s) = 5.41892 5.95546 5.69352
#
# Compressibility (1/GPa) = 0.02492225
#
# Stress axis : x y z
#
# Youngs Moduli (GPa) = 37.77499 36.31054 49.56408
#
# Poissons Ratio (x) = 0.60170 0.64984
# Poissons Ratio (y) = 0.62597 -0.25024
# Poissons Ratio (z) = 0.49527 -0.18333
#
# Static dielectric constant tensor:
#      x y z
#    x 1.883890 0.000000 0.000000 
#    y 0.000000 1.935160 0.000000 
#    z 0.000000 0.000000 1.909680 
# 
# From -- ./inp_files/1625.got.cif
#   From: 2010.05.17/outbox.cif.g08.bks.cpg/sg27_1_cif.got.tgz:1625.got - 2010.06.04 01:11:05.
