data_PCOD9338693
_publ_section_title
;
Structure prediction by ZEFSAII (Michael W. Deem and Ramdas Pophale) SiO2 
 PCOD9338693
Probable space group: P M C 21
;
_chemical_formula_sum "Si O2"
_cell_formula_units_Z 32
_cell_length_a 9.000000
_cell_length_b 15.000000
_cell_length_c 12.000000
_cell_angle_alpha 90.000000
_cell_angle_beta 90.000000
_cell_angle_gamma 90.000000
_cell_volume 1620.000000
_symmetry_space_group_name_H-M "P M C 21"
_symmetry_group_IT_number 26
_symmetry_cell_setting 'orthorhombic'
loop_
_space_group_symop_operation_xyz
x,y,z
-x,-y,1/2+z
-x,y,z
x,-y,1/2+z
loop_
_atom_site_type_symbol
_atom_site_label
_atom_site_fract_x
_atom_site_fract_y
_atom_site_fract_z
Si Si1 0.320320 0.949170 0.462220
Si Si2 0.830731 0.365842 0.775367
Si Si3 0.320212 0.720780 0.835648
Si Si4 0.836023 0.362628 0.034302
Si Si5 0.319794 0.857406 0.011332
Si Si6 0.827820 0.826815 0.634344
Si Si7 0.679415 0.175163 0.758156
Si Si8 0.673589 0.544037 0.720954
O O1 0.500000 0.945678 0.468504
O O2 0.254347 0.908079 0.575275
O O3 0.271314 0.887990 0.359066
O O4 0.274605 0.052072 0.449275
O O5 0.830856 0.387762 0.906669
O O6 0.740368 0.274934 0.763855
O O7 0.757660 0.451183 0.719534
O O8 0.000000 0.352362 0.738503
O O9 0.500000 0.721480 0.827568
O O10 0.273082 0.766361 0.950971
O O11 0.254715 0.785757 0.740973
O O12 0.273319 0.619122 0.810376
O O13 0.000000 0.386964 0.081340
O O14 0.824012 0.256241 0.047622
O O15 0.706955 0.407478 0.104495
O O16 0.500000 0.856042 0.010332
O O17 0.272695 0.862718 0.138848
O O18 0.000000 0.846538 0.658665
O O19 0.500000 0.178061 0.761737
O O20 0.500000 0.528167 0.738629
#
# Coordination Sequence:
#
# PCOD9338693 Si02
#       8
#     4   4   4   4   4   4   4   4
#     4  10  20  34  58  86 113 149 194 240 289 346
#     4  11  22  38  59  83 116 158 196 237 293 354
#     4   9  19  37  59  83 115 151 192 241 292 342
#     4   9  19  36  55  77 108 149 192 237 289 345
#     4   9  20  37  59  87 120 155 192 240 295 350
#     4  10  19  34  56  81 111 146 189 240 287 338
#     4  10  21  37  58  88 119 152 197 245 294 348
#     4  10  21  35  56  87 116 150 196 246 295 345
#
# _framework density 19.753086
#
# number of rings (size 3 to 8) (size 9 to 14) (size 15 to 20)
#    0.000    2.250    1.250    1.125    1.750    3.000 
#    0.000    3.125    0.000    0.000    0.000    0.000 
#    0.000    0.000    0.000    0.000    0.000    0.000 
#
# Total GULP energy -178410.369027 kJ/mol
# GULP energy per Si atom -5575.324032 kJ/mol
# Density = 1.970813 g / cm^3
# Si number density = 19.753086 Si / 1000 Ang^3
#
#
#
# Elastic Constant Matrix: (Units=GPa)
#
#
# Indices 1 2 3 4 5 6 
#
# 1 17.0663 13.0582 7.0137 0.0000 0.0000 0.0000
# 2 13.0582 95.0216 23.0825 0.0000 0.0000 0.0000
# 3 7.0137 23.0825 42.3602 0.0000 0.0000 0.0000
# 4 0.0000 0.0000 0.0000 16.9300 0.0000 0.0000
# 5 0.0000 0.0000 0.0000 0.0000 14.7747 0.0000
# 6 0.0000 0.0000 0.0000 0.0000 0.0000 0.3482
#
#
#
# Elastic Compliance Matrix: (Units=1/GPa)
#
#
# Indices 1 2 3 4 5 6 
#
# 1 0.067249 -0.007534 -0.007029 0.000000 0.000000 0.000000
# 2 -0.007534 0.012974 -0.005822 0.000000 0.000000 0.000000
# 3 -0.007029 -0.005822 0.027943 0.000000 0.000000 0.000000
# 4 0.000000 0.000000 0.000000 0.059067 0.000000 0.000000
# 5 0.000000 0.000000 0.000000 0.000000 0.067683 0.000000
# 6 0.000000 0.000000 0.000000 0.000000 0.000000 2.871982
#
#
# Mechanical properties :
#
#
# Convention : Reuss Voigt Hill
#
# Bulk Modulus (GPa) = 14.83786 26.75077 20.79432
# Shear Modulus (GPa) = 1.57722 13.83015 7.70368
#
# Velocity S-wave (km/s) = 0.89454 2.64891 1.97698
# Velocity P-wave (km/s) = 2.93171 4.78828 3.97004
#
# Compressibility (1/GPa) = 0.06739515
#
# Stress axis : x y z
#
# Youngs Moduli (GPa) = 14.87020 77.07986 35.78669
#
# Poissons Ratio (x) = 0.58073 0.25155
# Poissons Ratio (y) = 0.11203 0.20835
# Poissons Ratio (z) = 0.10452 0.44876
#
# Static dielectric constant tensor:
#      x y z
#    x 1.688050 0.000000 0.000000 
#    y 0.000000 1.679890 0.000000 
#    z 0.000000 0.000000 1.714020 
# 
# From -- ./inp_files/2947.got.cif
#   From: 2010.05.17/outbox.ucp.g08.bks.cvg/sg26_2_cif.got.tgz:2947.got - 2010.06.11 15:23:25.
