data_PCOD9338390
_publ_section_title
;
Structure prediction by ZEFSAII (Michael W. Deem and Ramdas Pophale) SiO2 
 PCOD9338390
Probable space group: P M C 21
;
_chemical_formula_sum "Si O2"
_cell_formula_units_Z 32
_cell_length_a 8.701453
_cell_length_b 12.690357
_cell_length_c 14.978187
_cell_angle_alpha 90.000000
_cell_angle_beta 90.000000
_cell_angle_gamma 90.000000
_cell_volume 1653.959484
_symmetry_space_group_name_H-M "P M C 21"
_symmetry_group_IT_number 26
_symmetry_cell_setting 'orthorhombic'
loop_
_space_group_symop_operation_xyz
x,y,z
-x,-y,1/2+z
-x,y,z
x,-y,1/2+z
loop_
_atom_site_type_symbol
_atom_site_label
_atom_site_fract_x
_atom_site_fract_y
_atom_site_fract_z
Si Si1 0.184439 0.617188 0.725350
Si Si2 0.176211 0.004421 0.084841
Si Si3 0.315740 0.616861 0.233431
Si Si4 0.682836 0.225988 0.079214
Si Si5 0.186395 0.773968 0.882328
Si Si6 0.185789 0.230242 0.880002
Si Si7 0.683632 0.781761 0.080299
Si Si8 0.176623 0.001923 0.867388
O O1 0.251151 0.500272 0.725219
O O2 0.250286 0.686249 0.644623
O O3 0.226005 0.679889 0.815994
O O4 0.000000 0.613758 0.719331
O O5 0.266097 0.109376 0.111185
O O6 0.000000 0.012472 0.114114
O O7 0.248102 0.893523 0.112656
O O8 0.176349 0.002296 0.976064
O O9 0.500000 0.613975 0.240830
O O10 0.245314 0.676718 0.318282
O O11 0.274853 0.688236 0.147588
O O12 0.500000 0.231996 0.074880
O O13 0.753208 0.240971 0.980527
O O14 0.000000 0.780834 0.888786
O O15 0.243404 0.887610 0.844342
O O16 0.252031 0.760293 0.981312
O O17 0.243584 0.115836 0.843227
O O18 0.000000 0.227524 0.881823
O O19 0.500000 0.790908 0.075945
O O20 0.000000 0.002128 0.836136
#
# Coordination Sequence:
#
# PCOD9338390 Si02
#       8
#     4   4   4   4   4   4   4   4
#     4  11  24  41  60  84 114 153 205 252 289 343
#     4   9  17  33  58  87 119 152 189 233 282 345
#     4  11  25  42  57  81 118 157 200 248 297 347
#     4  11  22  38  61  89 122 155 188 236 297 353
#     4   9  19  37  61  87 115 148 188 237 289 343
#     4  10  20  37  62  89 116 151 193 236 287 349
#     4  10  21  37  59  87 119 153 189 235 293 352
#     4   7  13  29  54  84 113 139 174 223 280 338
#
# _framework density 19.347511000000001
#
# number of rings (size 3 to 8) (size 9 to 14) (size 15 to 20)
#    0.000    2.250    0.000    4.500    0.000    5.000 
#    0.000    4.375    0.000    0.000    0.000    0.000 
#    0.000    0.000    0.000    0.000    0.000    0.000 
#
# Total GULP energy -178681.461425 kJ/mol
# GULP energy per Si atom -5583.795670 kJ/mol
# Density = 1.930348 g / cm^3
# Si number density = 19.347511 Si / 1000 Ang^3
#
#
#
# Elastic Constant Matrix: (Units=GPa)
#
#
# Indices 1 2 3 4 5 6 
#
# 1 74.8863 69.0302 44.9638 0.0000 0.0000 0.0000
# 2 69.0302 215.9949 88.3823 0.0000 0.0000 0.0000
# 3 44.9638 88.3823 105.1755 0.0000 0.0000 0.0000
# 4 0.0000 0.0000 0.0000 34.2723 0.0000 0.0000
# 5 0.0000 0.0000 0.0000 0.0000 23.3684 0.0000
# 6 0.0000 0.0000 0.0000 0.0000 0.0000 33.3754
#
#
#
# Elastic Compliance Matrix: (Units=1/GPa)
#
#
# Indices 1 2 3 4 5 6 
#
# 1 0.020502 -0.004520 -0.004967 0.000000 0.000000 0.000000
# 2 -0.004520 0.008052 -0.004834 0.000000 0.000000 0.000000
# 3 -0.004967 -0.004834 0.015694 0.000000 0.000000 0.000000
# 4 0.000000 0.000000 0.000000 0.029178 0.000000 0.000000
# 5 0.000000 0.000000 0.000000 0.000000 0.042793 0.000000
# 6 0.000000 0.000000 0.000000 0.000000 0.000000 0.029962
#
#
# Mechanical properties :
#
#
# Convention : Reuss Voigt Hill
#
# Bulk Modulus (GPa) = 64.07660 88.97883 76.52772
# Shear Modulus (GPa) = 27.77382 31.11525 29.44454
#
# Velocity S-wave (km/s) = 3.79294 4.01463 3.90536
# Velocity P-wave (km/s) = 7.23689 8.22066 7.74441
#
# Compressibility (1/GPa) = 0.01560632
#
# Stress axis : x y z
#
# Youngs Moduli (GPa) = 48.77508 124.18524 63.72000
#
# Poissons Ratio (x) = 0.56133 0.31647
# Poissons Ratio (y) = 0.22047 0.30805
# Poissons Ratio (z) = 0.24225 0.60036
#
# Static dielectric constant tensor:
#      x y z
#    x 1.686100 0.000000 0.000000 
#    y 0.000000 1.671580 0.000000 
#    z 0.000000 0.000000 1.680910 
# 
# From -- ./inp_files/4306.got.cif
#   From: 2010.05.17/outbox.cif.g08.bks.cpg/sg26_3_cif.got.tgz:4306.got - 2010.06.04 01:07:29.
