data_PCOD9338101
_publ_section_title
;
Structure prediction by ZEFSAII (Michael W. Deem and Ramdas Pophale) SiO2 
 PCOD9338101
Probable space group: P M C 21
;
_chemical_formula_sum "Si O2"
_cell_formula_units_Z 32
_cell_length_a 8.974979
_cell_length_b 11.011021
_cell_length_c 14.253927
_cell_angle_alpha 90.000000
_cell_angle_beta 90.000000
_cell_angle_gamma 90.000000
_cell_volume 1408.625553
_symmetry_space_group_name_H-M "P M C 21"
_symmetry_group_IT_number 26
_symmetry_cell_setting 'orthorhombic'
loop_
_space_group_symop_operation_xyz
x,y,z
-x,-y,1/2+z
-x,y,z
x,-y,1/2+z
loop_
_atom_site_type_symbol
_atom_site_label
_atom_site_fract_x
_atom_site_fract_y
_atom_site_fract_z
Si Si1 0.826621 0.063245 0.894070
Si Si2 0.826208 0.817408 0.770505
Si Si3 0.178489 0.462229 0.724109
Si Si4 0.672037 0.314039 0.440864
Si Si5 0.820927 0.804953 0.219919
Si Si6 0.330636 0.063436 0.558805
Si Si7 0.176297 0.557848 0.448168
Si Si8 0.677388 0.313857 0.113114
O O1 0.819452 0.945660 0.824672
O O2 0.000000 0.917295 0.418718
O O3 0.770706 0.169124 0.826156
O O4 0.735662 0.032767 0.986329
O O5 0.749042 0.725752 0.843779
O O6 0.744282 0.799549 0.671465
O O7 0.000000 0.786723 0.758301
O O8 0.223735 0.328862 0.687810
O O9 0.267123 0.569276 0.673962
O O10 0.000000 0.480283 0.709442
O O11 0.202402 0.449216 0.836307
O O12 0.500000 0.349893 0.426064
O O13 0.673241 0.192560 0.503195
O O14 0.762472 0.427038 0.481878
O O15 0.763504 0.907600 0.150460
O O16 0.000000 0.808800 0.221790
O O17 0.500000 0.034145 0.582877
O O18 0.256077 0.660636 0.510058
O O19 0.000000 0.568644 0.463062
O O20 0.500000 0.307363 0.110266
#
# Coordination Sequence:
#
# PCOD9338101 Si02
#       8
#     4   4   4   4   4   4   4   4
#     4   9  20  39  63  87 113 150 197 248 291 339
#     4  10  19  35  58  82 109 145 191 239 290 340
#     4  10  22  40  62  88 119 155 196 244 294 350
#     4  10  19  33  55  84 116 150 190 237 286 341
#     4  10  21  40  63  88 117 153 199 245 292 346
#     4  10  21  36  58  89 120 154 195 239 294 351
#     4  11  22  36  56  83 118 158 196 236 288 350
#     4  12  24  37  57  85 120 157 194 240 293 353
#
# _framework density 22.717179999999999
#
# number of rings (size 3 to 8) (size 9 to 14) (size 15 to 20)
#    0.000    1.750    1.250    3.375    0.000    5.500 
#    2.250    0.000    0.000    0.000    0.000    0.000 
#    0.000    0.000    0.000    0.000    0.000    0.000 
#
# Total GULP energy -178992.400987 kJ/mol
# GULP energy per Si atom -5593.512531 kJ/mol
# Density = 2.266547 g / cm^3
# Si number density = 22.717180 Si / 1000 Ang^3
#
#
#
# Elastic Constant Matrix: (Units=GPa)
#
#
# Indices 1 2 3 4 5 6 
#
# 1 79.5263 4.9447 35.4229 0.0000 0.0000 0.0000
# 2 4.9447 58.9225 9.5427 0.0000 0.0000 0.0000
# 3 35.4229 9.5427 102.6947 0.0000 0.0000 0.0000
# 4 0.0000 0.0000 0.0000 41.7861 0.0000 0.0000
# 5 0.0000 0.0000 0.0000 0.0000 306.4661 0.0000
# 6 0.0000 0.0000 0.0000 0.0000 0.0000 12.5880
#
#
#
# Elastic Compliance Matrix: (Units=1/GPa)
#
#
# Indices 1 2 3 4 5 6 
#
# 1 0.014868 -0.000423 -0.005089 0.000000 0.000000 0.000000
# 2 -0.000423 0.017243 -0.001456 0.000000 0.000000 0.000000
# 3 -0.005089 -0.001456 0.011628 0.000000 0.000000 0.000000
# 4 0.000000 0.000000 0.000000 0.023931 0.000000 0.000000
# 5 0.000000 0.000000 0.000000 0.000000 0.003263 0.000000
# 6 0.000000 0.000000 0.000000 0.000000 0.000000 0.079441
#
#
# Mechanical properties :
#
#
# Convention : Reuss Voigt Hill
#
# Bulk Modulus (GPa) = 33.55552 37.88490 35.72021
# Shear Modulus (GPa) = 28.69523 84.91691 56.80607
#
# Velocity S-wave (km/s) = 3.55794 6.12055 5.00600
# Velocity P-wave (km/s) = 5.62864 8.16463 7.01223
#
# Compressibility (1/GPa) = 0.02980135
#
# Stress axis : x y z
#
# Youngs Moduli (GPa) = 67.26062 57.99520 85.99734
#
# Poissons Ratio (x) = 0.02456 0.43764
# Poissons Ratio (y) = 0.02848 0.12523
# Poissons Ratio (z) = 0.34229 0.08445
#
# Static dielectric constant tensor:
#      x y z
#    x 1.723300 0.000000 0.000000 
#    y 0.000000 1.901460 0.000000 
#    z 0.000000 0.000000 1.854570 
# 
# From -- ./inp_files/4231.got.cif
#   From: 2010.05.17/outbox.cif.g08.bks.cpg/sg26_3_cif.got.tgz:4231.got - 2010.06.04 01:07:29.
