data_PCOD9338260
_publ_section_title
;
Structure prediction by ZEFSAII (Michael W. Deem and Ramdas Pophale) SiO2 
 PCOD9338260
Probable space group: P M C 21
;
_chemical_formula_sum "Si O2"
_cell_formula_units_Z 32
_cell_length_a 10.006164
_cell_length_b 5.040038
_cell_length_c 25.448637
_cell_angle_alpha 90.000000
_cell_angle_beta 90.000000
_cell_angle_gamma 90.000000
_cell_volume 1283.411583
_symmetry_space_group_name_H-M "P M C 21"
_symmetry_group_IT_number 26
_symmetry_cell_setting 'orthorhombic'
loop_
_space_group_symop_operation_xyz
x,y,z
-x,-y,1/2+z
-x,y,z
x,-y,1/2+z
loop_
_atom_site_type_symbol
_atom_site_label
_atom_site_fract_x
_atom_site_fract_y
_atom_site_fract_z
Si Si1 0.642114 0.971580 0.405790
Si Si2 0.849285 0.387539 0.448913
Si Si3 0.141617 0.144524 0.734707
Si Si4 0.358383 0.355476 0.007389
Si Si5 0.160093 0.505709 0.637345
Si Si6 0.339907 0.005709 0.604750
Si Si7 0.349285 0.112461 0.293182
Si Si8 0.857886 0.471580 0.836306
O O1 0.500000 0.125830 0.411427
O O2 0.762074 0.151043 0.425518
O O3 0.646885 0.912280 0.343797
O O4 0.630241 0.737069 0.447182
O O5 0.778094 0.485191 0.501820
O O6 0.853115 0.587720 0.398299
O O7 0.000000 0.309023 0.460155
O O8 0.155257 0.397106 0.697243
O O9 0.130241 0.237069 0.794913
O O10 0.000000 0.010299 0.719429
O O11 0.278094 0.985191 0.740275
O O12 0.500000 0.489701 0.022667
O O13 0.344743 0.102894 0.044852
O O14 0.242000 0.779709 0.630573
O O15 0.000000 0.517522 0.620953
O O16 0.258000 0.279709 0.611523
O O17 0.500000 0.017522 0.621143
O O18 0.500000 0.190977 0.281941
O O19 0.262074 0.348957 0.316578
O O20 0.000000 0.625830 0.830669
#
# Coordination Sequence:
#
# PCOD9338260 Si02
#       8
#     4   4   4   4   4   4   4   4
#     4   9  19  36  56  83 122 165 207 251 310 387
#     4  10  20  33  55  89 124 158 203 260 313 373
#     4  10  22  39  62  85 117 165 210 256 324 400
#     4  10  22  39  62  85 117 165 210 256 324 400
#     4  11  26  48  73 102 136 177 228 288 350 412
#     4  11  26  48  73 102 136 177 228 288 350 412
#     4  10  20  33  55  89 124 158 203 260 313 373
#     4   9  19  36  56  83 122 165 207 251 310 387
#
# _framework density 24.933544999999999
#
# number of rings (size 3 to 8) (size 9 to 14) (size 15 to 20)
#    0.000    2.000    0.000    2.250    3.500    4.000 
#    0.000    0.000    0.000    0.000    0.000    0.000 
#    0.000    0.000    0.000    0.000    0.000    0.000 
#
# Total GULP energy -178415.995029 kJ/mol
# GULP energy per Si atom -5575.499845 kJ/mol
# Density = 2.487680 g / cm^3
# Si number density = 24.933545 Si / 1000 Ang^3
#
#
#
# Elastic Constant Matrix: (Units=GPa)
#
#
# Indices 1 2 3 4 5 6 
#
# 1 236.3214 26.0900 48.1077 0.0000 0.0000 0.0000
# 2 26.0900 48.1261 21.5725 0.0000 0.0000 0.0000
# 3 48.1077 21.5725 64.3306 0.0000 0.0000 0.0000
# 4 0.0000 0.0000 0.0000 46.5982 0.0000 0.0000
# 5 0.0000 0.0000 0.0000 0.0000 28.4157 0.0000
# 6 0.0000 0.0000 0.0000 0.0000 0.0000 27.8065
#
#
#
# Elastic Compliance Matrix: (Units=1/GPa)
#
#
# Indices 1 2 3 4 5 6 
#
# 1 0.005053 -0.001230 -0.003366 0.000000 0.000000 0.000000
# 2 -0.001230 0.024754 -0.007381 0.000000 0.000000 0.000000
# 3 -0.003366 -0.007381 0.020537 0.000000 0.000000 0.000000
# 4 0.000000 0.000000 0.000000 0.021460 0.000000 0.000000
# 5 0.000000 0.000000 0.000000 0.000000 0.035192 0.000000
# 6 0.000000 0.000000 0.000000 0.000000 0.000000 0.035963
#
#
# Mechanical properties :
#
#
# Convention : Reuss Voigt Hill
#
# Bulk Modulus (GPa) = 37.89400 60.03538 48.96469
# Shear Modulus (GPa) = 28.45615 37.43128 32.94372
#
# Velocity S-wave (km/s) = 3.38195 3.87879 3.63886
# Velocity P-wave (km/s) = 5.52097 6.64759 6.11030
#
# Compressibility (1/GPa) = 0.02638940
#
# Stress axis : x y z
#
# Youngs Moduli (GPa) = 197.92068 40.39708 48.69302
#
# Poissons Ratio (x) = 0.04970 0.16389
# Poissons Ratio (y) = 0.24351 0.35940
# Poissons Ratio (z) = 0.66616 0.29817
#
# Static dielectric constant tensor:
#      x y z
#    x 2.261930 0.000000 0.000000 
#    y 0.000000 2.019860 0.000000 
#    z 0.000000 0.000000 1.986640 
# 
# From -- ./inp_files/5675.got.cif
#   From: 2010.05.17/outbox.cif.g08.bks.cpg/sg26_3_cif.got.tgz:5675.got - 2010.06.04 01:07:29.
