data_PCOD9338213
_publ_section_title
;
Structure prediction by ZEFSAII (Michael W. Deem and Ramdas Pophale) SiO2 
 PCOD9338213
Probable space group: P M C 21
;
_chemical_formula_sum "Si O2"
_cell_formula_units_Z 32
_cell_length_a 8.506814
_cell_length_b 21.331046
_cell_length_c 9.353060
_cell_angle_alpha 90.000000
_cell_angle_beta 90.000000
_cell_angle_gamma 90.000000
_cell_volume 1697.199166
_symmetry_space_group_name_H-M "P M C 21"
_symmetry_group_IT_number 26
_symmetry_cell_setting 'orthorhombic'
loop_
_space_group_symop_operation_xyz
x,y,z
-x,-y,1/2+z
-x,y,z
x,-y,1/2+z
loop_
_atom_site_type_symbol
_atom_site_label
_atom_site_fract_x
_atom_site_fract_y
_atom_site_fract_z
Si Si1 0.688046 0.699508 0.701980
Si Si2 0.309658 0.938727 0.704003
Si Si3 0.691811 0.062941 0.533988
Si Si4 0.810187 0.564672 0.692447
Si Si5 0.310678 0.306927 0.534178
Si Si6 0.186594 0.818812 0.532344
Si Si7 0.690473 0.185669 0.709938
Si Si8 0.189007 0.558654 0.025848
O O1 0.500000 0.705134 0.698573
O O2 0.738363 0.630995 0.646722
O O3 0.760745 0.755153 0.610542
O O4 0.740105 0.703332 0.868880
O O5 0.500000 0.938421 0.704442
O O6 0.253326 0.877493 0.620873
O O7 0.257914 0.001369 0.620953
O O8 0.256826 0.938636 0.869085
O O9 0.500000 0.062793 0.532870
O O10 0.741105 0.126000 0.615452
O O11 0.756423 0.503858 0.605524
O O12 0.000000 0.569011 0.681597
O O13 0.768474 0.555362 0.858774
O O14 0.500000 0.307102 0.533756
O O15 0.256943 0.249976 0.633842
O O16 0.253308 0.375290 0.582356
O O17 0.250649 0.819755 0.371071
O O18 0.000000 0.822457 0.529612
O O19 0.500000 0.185770 0.712270
O O20 0.000000 0.560503 0.036407
#
# Coordination Sequence:
#
# PCOD9338213 Si02
#       8
#     4   4   4   4   4   4   4   4
#     4  10  20  37  59  81 105 139 180 227 276 324
#     4  10  19  36  61  87 112 143 182 224 268 319
#     4   9  18  34  62  90 111 141 183 225 268 318
#     4   9  18  33  51  75 106 142 180 219 262 317
#     4   9  19  35  57  82 107 136 179 229 275 320
#     4  12  25  38  53  79 112 147 183 223 270 324
#     4  10  20  37  58  82 110 142 181 227 272 319
#     4   9  18  32  51  74 107 146 180 214 261 319
#
# _framework density 18.854593000000001
#
# number of rings (size 3 to 8) (size 9 to 14) (size 15 to 20)
#    0.000    2.250    0.000    3.000    0.000    6.500 
#    0.000    5.625    0.000    0.000    0.000    0.000 
#    0.000    0.000    0.000    0.000    0.000    0.000 
#
# Total GULP energy -178675.000788 kJ/mol
# GULP energy per Si atom -5583.593775 kJ/mol
# Density = 1.881168 g / cm^3
# Si number density = 18.854593 Si / 1000 Ang^3
#
#
#
# Elastic Constant Matrix: (Units=GPa)
#
#
# Indices 1 2 3 4 5 6 
#
# 1 21.1620 50.6002 42.4366 0.0000 0.0000 0.0000
# 2 50.6002 295.9110 189.0455 0.0000 0.0000 0.0000
# 3 42.4366 189.0455 204.8353 0.0000 0.0000 0.0000
# 4 0.0000 0.0000 0.0000 42.6665 0.0000 0.0000
# 5 0.0000 0.0000 0.0000 0.0000 -2.3854 0.0000
# 6 0.0000 0.0000 0.0000 0.0000 0.0000 -16.2872
#
#
#
# Elastic Compliance Matrix: (Units=1/GPa)
#
#
# Indices 1 2 3 4 5 6 
#
# 1 0.088546 -0.008338 -0.010650 0.000000 0.000000 0.000000
# 2 -0.008338 0.009020 -0.006597 0.000000 0.000000 0.000000
# 3 -0.010650 -0.006597 0.013177 0.000000 0.000000 0.000000
# 4 0.000000 0.000000 0.000000 0.023438 0.000000 0.000000
# 5 0.000000 0.000000 0.000000 0.000000 -0.419214 0.000000
# 6 0.000000 0.000000 0.000000 0.000000 0.000000 -0.061398
#
#
# Mechanical properties :
#
#
# Convention : Reuss Voigt Hill
#
# Bulk Modulus (GPa) = 16.78575 120.67478 68.73026
# Shear Modulus (GPa) = -18.15514 20.78718 1.31602
#
# Velocity S-wave (km/s) = -3.10643 3.32399 0.83636
# Velocity P-wave (km/s) = 1.98608 8.88109 6.12083
#
# Compressibility (1/GPa) = 0.05957436
#
# Stress axis : x y z
#
# Youngs Moduli (GPa) = 11.29350 110.86788 75.89083
#
# Poissons Ratio (x) = 0.92439 0.80820
# Poissons Ratio (y) = 0.09416 0.50066
# Poissons Ratio (z) = 0.12027 0.73141
#
# Static dielectric constant tensor:
#      x y z
#    x 1.644320 0.000000 0.000000 
#    y 0.000000 1.633090 0.000000 
#    z 0.000000 0.000000 1.635060 
# 
# From -- ./inp_files/1581.got.cif
#   From: 2010.05.17/outbox.cif.g08.bks.cpg/sg26_1_cif.got.tgz:1581.got - 2010.06.04 01:07:29.
