data_PCOD9338652
_publ_section_title
;
Structure prediction by ZEFSAII (Michael W. Deem and Ramdas Pophale) SiO2 
 PCOD9338652
Probable space group: P M C 21
;
_chemical_formula_sum "Si O2"
_cell_formula_units_Z 32
_cell_length_a 27.690745
_cell_length_b 5.272178
_cell_length_c 8.735266
_cell_angle_alpha 90.000000
_cell_angle_beta 90.000000
_cell_angle_gamma 90.000000
_cell_volume 1275.266171
_symmetry_space_group_name_H-M "P M C 21"
_symmetry_group_IT_number 26
_symmetry_cell_setting 'orthorhombic'
loop_
_space_group_symop_operation_xyz
x,y,z
-x,-y,1/2+z
-x,y,z
x,-y,1/2+z
loop_
_atom_site_type_symbol
_atom_site_label
_atom_site_fract_x
_atom_site_fract_y
_atom_site_fract_z
Si Si1 0.593301 0.805851 0.958790
Si Si2 0.819737 0.795867 0.384129
Si Si3 0.051279 0.855595 0.113593
Si Si4 0.856000 0.190524 0.153940
Si Si5 0.443244 0.685627 0.623969
Si Si6 0.083344 0.536316 0.371913
Si Si7 0.262950 0.315414 0.680572
Si Si8 0.296675 0.798189 0.848689
O O1 0.565027 0.742945 0.802565
O O2 0.583454 0.572599 0.073898
O O3 0.649309 0.821635 0.913446
O O4 0.576523 0.071532 0.031055
O O5 0.804074 0.823108 0.558243
O O6 0.868155 0.651257 0.448743
O O7 0.789766 0.649528 0.258782
O O8 0.835472 0.056104 0.311021
O O9 0.052677 0.748764 0.286836
O O10 0.000000 0.998352 0.097457
O O11 0.103323 0.983081 0.100126
O O12 0.053641 0.639803 0.983532
O O13 0.891100 0.398250 0.230707
O O14 0.500000 0.654417 0.592489
O O15 0.265051 0.272415 0.499307
O O16 0.292827 0.563657 0.730987
O O17 0.281992 0.063641 0.769910
#
# Coordination Sequence:
#
# PCOD9338652 Si02
#       8
#     4   4   4   4   4   4   4   4
#     4  12  25  45  71  98 152 190 232 309 360 421
#     4  11  25  41  69  91 128 163 214 274 330 383
#     4  11  24  41  63  91 120 161 206 257 313 400
#     4  11  23  43  62  91 123 164 205 257 332 389
#     4  12  24  42  69 104 137 190 247 295 355 423
#     4  11  23  42  62  89 122 160 203 256 324 387
#     4  12  27  44  75 105 142 183 248 293 348 442
#     4  12  26  48  69 109 142 193 239 289 369 427
#
# _framework density 25.092798999999999
#
# number of rings (size 3 to 8) (size 9 to 14) (size 15 to 20)
#    0.000    0.500    2.500    6.000    3.500    1.000 
#    0.000    0.000    0.000    0.000    0.000    0.000 
#    0.000    0.000    0.000    0.000    0.000    0.000 
#
# Total GULP energy -178893.684787 kJ/mol
# GULP energy per Si atom -5590.427650 kJ/mol
# Density = 2.503569 g / cm^3
# Si number density = 25.092799 Si / 1000 Ang^3
#
#
#
# Elastic Constant Matrix: (Units=GPa)
#
#
# Indices 1 2 3 4 5 6 
#
# 1 74.1663 3.5869 -8.9326 0.0000 0.0000 0.0000
# 2 3.5869 68.1421 10.7076 0.0000 0.0000 0.0000
# 3 -8.9326 10.7076 80.1017 0.0000 0.0000 0.0000
# 4 0.0000 0.0000 0.0000 38.1906 0.0000 0.0000
# 5 0.0000 0.0000 0.0000 0.0000 31.5153 0.0000
# 6 0.0000 0.0000 0.0000 0.0000 0.0000 33.0237
#
#
#
# Elastic Compliance Matrix: (Units=1/GPa)
#
#
# Indices 1 2 3 4 5 6 
#
# 1 0.013731 -0.000984 0.001663 0.000000 0.000000 0.000000
# 2 -0.000984 0.015061 -0.002123 0.000000 0.000000 0.000000
# 3 0.001663 -0.002123 0.012953 0.000000 0.000000 0.000000
# 4 0.000000 0.000000 0.000000 0.026184 0.000000 0.000000
# 5 0.000000 0.000000 0.000000 0.000000 0.031731 0.000000
# 6 0.000000 0.000000 0.000000 0.000000 0.000000 0.030281
#
#
# Mechanical properties :
#
#
# Convention : Reuss Voigt Hill
#
# Bulk Modulus (GPa) = 25.73573 25.90378 25.81976
# Shear Modulus (GPa) = 34.29775 35.01578 34.65677
#
# Velocity S-wave (km/s) = 3.70109 3.73963 3.72041
# Velocity P-wave (km/s) = 5.34252 5.38442 5.36351
#
# Compressibility (1/GPa) = 0.03885648
#
# Stress axis : x y z
#
# Youngs Moduli (GPa) = 72.82756 66.39833 77.20018
#
# Poissons Ratio (x) = 0.06534 -0.12837
# Poissons Ratio (y) = 0.07167 0.16389
# Poissons Ratio (z) = -0.12110 0.14096
#
# Static dielectric constant tensor:
#      x y z
#    x 2.032160 0.000000 0.000000 
#    y 0.000000 2.990670 0.000000 
#    z 0.000000 0.000000 2.114510 
# 
# From -- ./inp_files/2526.got.cif
#   From: 2010.05.17/outbox.cif.g08.bks.cpg/sg26_2_cif.got.tgz:2526.got - 2010.06.04 01:07:29.
