data_PCOD9338218
_publ_section_title
;
Structure prediction by ZEFSAII (Michael W. Deem and Ramdas Pophale) SiO2 
 PCOD9338218
Probable space group: P M C 21
;
_chemical_formula_sum "Si O2"
_cell_formula_units_Z 22
_cell_length_a 11.756735
_cell_length_b 4.822408
_cell_length_c 16.163817
_cell_angle_alpha 90.000000
_cell_angle_beta 90.000000
_cell_angle_gamma 90.000000
_cell_volume 916.420098
_symmetry_space_group_name_H-M "P M C 21"
_symmetry_group_IT_number 26
_symmetry_cell_setting 'orthorhombic'
loop_
_space_group_symop_operation_xyz
x,y,z
-x,-y,1/2+z
-x,y,z
x,-y,1/2+z
loop_
_atom_site_type_symbol
_atom_site_label
_atom_site_fract_x
_atom_site_fract_y
_atom_site_fract_z
Si Si1 0.000000 0.243816 0.335060
Si Si2 0.000000 0.846906 0.495945
Si Si3 0.251548 0.366545 0.351432
Si Si4 0.753913 0.244178 0.617749
Si Si5 0.758171 0.162079 0.959752
Si Si6 0.000000 0.867024 0.170375
Si Si7 0.633872 0.263710 0.183908
O O1 0.882344 0.415689 0.328412
O O2 0.000000 0.025270 0.258194
O O3 0.000000 0.093827 0.426113
O O4 0.881510 0.702610 0.479577
O O5 0.000000 0.924846 0.591786
O O6 0.302309 0.569014 0.421840
O O7 0.327793 0.388964 0.270762
O O8 0.247129 0.051153 0.383162
O O9 0.690400 0.536445 0.614970
O O10 0.745516 0.058065 0.534732
O O11 0.688078 0.039740 0.679701
O O12 0.881655 0.288772 0.651454
O O13 0.500000 0.252306 0.172815
#
# Coordination Sequence:
#
# PCOD9338218 Si02
#       7
#     2   2   4   4   4   2   4
#     4  10  19  36  64 101 136 178 216 276 345 416
#     4   8  19  33  58  93 139 167 201 270 333 400
#     4  11  22  39  65  95 130 170 218 270 337 398
#     4  11  24  44  69  99 135 173 222 278 340 409
#     4  10  21  40  63  93 130 170 213 270 335 403
#     4  10  20  39  66 106 135 173 221 272 344 418
#     4  12  26  45  65  94 133 178 229 283 329 394
#
# _framework density 24.006456
#
# number of rings (size 3 to 8) (size 9 to 14) (size 15 to 20)
#    0.000    1.455    1.818    3.273    2.545    1.455 
#    0.000   10.909    0.000    0.000    0.000    0.000 
#    0.000    0.000    0.000    0.000    0.000    0.000 
#
# Total GULP energy -122775.635242 kJ/mol
# GULP energy per Si atom -5580.710693 kJ/mol
# Density = 2.395182 g / cm^3
# Si number density = 24.006456 Si / 1000 Ang^3
#
#
#
# Elastic Constant Matrix: (Units=GPa)
#
#
# Indices 1 2 3 4 5 6 
#
# 1 121.4723 26.6439 6.4003 0.0000 0.0000 0.0000
# 2 26.6439 93.5374 14.7453 0.0000 0.0000 0.0000
# 3 6.4003 14.7453 102.6161 0.0000 0.0000 0.0000
# 4 0.0000 0.0000 0.0000 41.4927 0.0000 0.0000
# 5 0.0000 0.0000 0.0000 0.0000 9.7131 0.0000
# 6 0.0000 0.0000 0.0000 0.0000 0.0000 -5.4829
#
#
#
# Elastic Compliance Matrix: (Units=1/GPa)
#
#
# Indices 1 2 3 4 5 6 
#
# 1 0.008785 -0.002472 -0.000193 0.000000 0.000000 0.000000
# 2 -0.002472 0.011634 -0.001518 0.000000 0.000000 0.000000
# 3 -0.000193 -0.001518 0.009975 0.000000 0.000000 0.000000
# 4 0.000000 0.000000 0.000000 0.024101 0.000000 0.000000
# 5 0.000000 0.000000 0.000000 0.000000 0.102953 0.000000
# 6 0.000000 0.000000 0.000000 0.000000 0.000000 -0.182386
#
#
# Mechanical properties :
#
#
# Convention : Reuss Voigt Hill
#
# Bulk Modulus (GPa) = 45.39339 45.91165 45.65252
# Shear Modulus (GPa) = -541.71152 27.13367 -257.28892
#
# Velocity S-wave (km/s) = -15.03803 3.36559 -10.36376
# Velocity P-wave (km/s) = 16.80991 5.85399 11.14235
#
# Compressibility (1/GPa) = 0.02202964
#
# Stress axis : x y z
#
# Youngs Moduli (GPa) = 113.83458 85.95298 100.24909
#
# Poissons Ratio (x) = 0.21247 0.01932
# Poissons Ratio (y) = 0.28139 0.15214
# Poissons Ratio (z) = 0.02194 0.13044
#
# Static dielectric constant tensor:
#      x y z
#    x 1.933710 0.000000 0.000000 
#    y 0.000000 1.888270 0.000000 
#    z 0.000000 0.000000 2.047650 
# 
# From -- ./inp_files/4442.got.cif
#   From: 2010.05.17/outbox.cif.g08.bks.cpg/sg26_3_cif.got.tgz:4442.got - 2010.06.04 01:07:29.
