data_PCOD9338690
_publ_section_title
;
Structure prediction by ZEFSAII (Michael W. Deem and Ramdas Pophale) SiO2 
 PCOD9338690
Probable space group: P M C 21
;
_chemical_formula_sum "Si O2"
_cell_formula_units_Z 32
_cell_length_a 9.000000
_cell_length_b 12.000000
_cell_length_c 15.000000
_cell_angle_alpha 90.000000
_cell_angle_beta 90.000000
_cell_angle_gamma 90.000000
_cell_volume 1620.000000
_symmetry_space_group_name_H-M "P M C 21"
_symmetry_group_IT_number 26
_symmetry_cell_setting 'orthorhombic'
loop_
_space_group_symop_operation_xyz
x,y,z
-x,-y,1/2+z
-x,y,z
x,-y,1/2+z
loop_
_atom_site_type_symbol
_atom_site_label
_atom_site_fract_x
_atom_site_fract_y
_atom_site_fract_z
Si Si1 0.320424 0.572243 0.403640
Si Si2 0.333532 0.064324 0.930663
Si Si3 0.320974 0.148626 0.228880
Si Si4 0.824616 0.612650 0.019343
Si Si5 0.824169 0.088899 0.748968
Si Si6 0.179938 0.342600 0.718415
Si Si7 0.670905 0.266263 0.060514
Si Si8 0.672658 0.189661 0.436074
O O1 0.500000 0.578682 0.396680
O O2 0.266578 0.456187 0.445319
O O3 0.252445 0.604780 0.307560
O O4 0.265965 0.654517 0.483602
O O5 0.500000 0.073184 0.889010
O O6 0.216786 0.092614 0.854173
O O7 0.316245 0.939052 0.962728
O O8 0.329415 0.147164 0.012330
O O9 0.500000 0.140610 0.218538
O O10 0.263713 0.239605 0.157394
O O11 0.293034 0.188073 0.330080
O O12 0.254345 0.024733 0.215870
O O13 0.780535 0.598806 0.123833
O O14 0.000000 0.589272 0.011904
O O15 0.785883 0.738404 0.992453
O O16 0.777699 0.210860 0.712917
O O17 0.000000 0.077547 0.735679
O O18 0.000000 0.347237 0.727165
O O19 0.500000 0.304714 0.073869
O O20 0.500000 0.225615 0.448049
#
# Coordination Sequence:
#
# PCOD9338690 Si02
#       8
#     4   4   4   4   4   4   4   4
#     4  11  23  41  66  92 119 153 203 257 303 355
#     4   9  17  33  56  84 117 152 191 239 298 352
#     4   9  19  35  57  86 124 162 195 241 298 356
#     4  11  25  43  62  85 120 162 204 247 301 361
#     4  10  19  33  54  84 120 156 200 243 287 348
#     4  10  23  42  61  85 119 160 200 245 299 359
#     4   9  18  34  58  88 117 151 192 240 297 351
#     4   9  19  35  56  86 120 154 199 246 295 352
#
# _framework density 19.753086
#
# number of rings (size 3 to 8) (size 9 to 14) (size 15 to 20)
#    0.000    2.250    1.250    1.875    1.750    4.500 
#    0.000    3.125    0.000    0.000    0.000    0.000 
#    0.000    0.000    0.000    0.000    0.000    0.000 
#
# Total GULP energy -178378.111332 kJ/mol
# GULP energy per Si atom -5574.315979 kJ/mol
# Density = 1.970813 g / cm^3
# Si number density = 19.753086 Si / 1000 Ang^3
#
#
#
# Elastic Constant Matrix: (Units=GPa)
#
#
# Indices 1 2 3 4 5 6 
#
# 1 28.7570 9.8412 11.2025 0.0000 0.0000 0.0000
# 2 9.8412 24.8865 22.4207 0.0000 0.0000 0.0000
# 3 11.2025 22.4207 30.5279 0.0000 0.0000 0.0000
# 4 0.0000 0.0000 0.0000 21.6196 0.0000 0.0000
# 5 0.0000 0.0000 0.0000 0.0000 23.1063 0.0000
# 6 0.0000 0.0000 0.0000 0.0000 0.0000 25.1385
#
#
#
# Elastic Compliance Matrix: (Units=1/GPa)
#
#
# Indices 1 2 3 4 5 6 
#
# 1 0.041090 -0.007875 -0.009295 0.000000 0.000000 0.000000
# 2 -0.007875 0.120274 -0.085443 0.000000 0.000000 0.000000
# 3 -0.009295 -0.085443 0.098920 0.000000 0.000000 0.000000
# 4 0.000000 0.000000 0.000000 0.046254 0.000000 0.000000
# 5 0.000000 0.000000 0.000000 0.000000 0.043278 0.000000
# 6 0.000000 0.000000 0.000000 0.000000 0.000000 0.039780
#
#
# Mechanical properties :
#
#
# Convention : Reuss Voigt Hill
#
# Bulk Modulus (GPa) = 18.16267 19.01112 18.58690
# Shear Modulus (GPa) = 8.15428 16.68668 12.42048
#
# Velocity S-wave (km/s) = 2.03398 2.90963 2.51028
# Velocity P-wave (km/s) = 3.83809 4.57528 4.22280
#
# Compressibility (1/GPa) = 0.05505798
#
# Stress axis : x y z
#
# Youngs Moduli (GPa) = 24.33689 8.31434 10.10917
#
# Poissons Ratio (x) = 0.06547 0.09396
# Poissons Ratio (y) = 0.19165 0.86376
# Poissons Ratio (z) = 0.22621 0.71041
#
# Static dielectric constant tensor:
#      x y z
#    x 1.685590 0.000000 0.000000 
#    y 0.000000 1.750780 0.000000 
#    z 0.000000 0.000000 1.696960 
# 
# From -- ./inp_files/4313.got.cif
#   From: 2010.05.17/outbox.ucp.g08.bks.cvg/sg26_3_cif.got.tgz:4313.got - 2010.06.11 15:23:25.
