data_PCOD9338177
_publ_section_title
;
Structure prediction by ZEFSAII (Michael W. Deem and Ramdas Pophale) SiO2 
 PCOD9338177
Probable space group: P M C 21
;
_chemical_formula_sum "Si O2"
_cell_formula_units_Z 32
_cell_length_a 8.339067
_cell_length_b 11.667530
_cell_length_c 16.604778
_cell_angle_alpha 90.000000
_cell_angle_beta 90.000000
_cell_angle_gamma 90.000000
_cell_volume 1615.583701
_symmetry_space_group_name_H-M "P M C 21"
_symmetry_group_IT_number 26
_symmetry_cell_setting 'orthorhombic'
loop_
_space_group_symop_operation_xyz
x,y,z
-x,-y,1/2+z
-x,y,z
x,-y,1/2+z
loop_
_atom_site_type_symbol
_atom_site_label
_atom_site_fract_x
_atom_site_fract_y
_atom_site_fract_z
Si Si1 0.312407 0.062811 0.370320
Si Si2 0.806957 0.288220 0.673873
Si Si3 0.193663 0.082216 0.024770
Si Si4 0.192414 0.978541 0.195973
Si Si5 0.684254 0.425137 0.527668
Si Si6 0.194590 0.445737 0.823063
Si Si7 0.185425 0.317972 0.370597
Si Si8 0.194033 0.656460 0.495253
O O1 0.500000 0.042934 0.375326
O O2 0.275236 0.198272 0.374020
O O3 0.238459 0.995964 0.447457
O O4 0.253917 0.022453 0.282097
O O5 0.772088 0.155976 0.689104
O O6 0.711004 0.338507 0.599739
O O7 0.762539 0.365054 0.750014
O O8 0.000000 0.299026 0.659778
O O9 0.246527 0.214067 0.012343
O O10 0.000000 0.082029 0.027317
O O11 0.250749 0.036874 0.112368
O O12 0.000000 0.992977 0.197615
O O13 0.500000 0.424441 0.500247
O O14 0.799277 0.378759 0.457320
O O15 0.736119 0.554485 0.549902
O O16 0.249683 0.577706 0.815360
O O17 0.000000 0.452132 0.826391
O O18 0.245065 0.384052 0.905738
O O19 0.000000 0.293571 0.350880
O O20 0.000000 0.653818 0.499930
#
# Coordination Sequence:
#
# PCOD9338177 Si02
#       8
#     4   4   4   4   4   4   4   4
#     4  12  25  39  59  88 124 160 191 239 306 364
#     4  10  19  35  58  82 110 146 191 239 288 341
#     4  10  21  39  64  89 116 158 208 250 287 340
#     4  10  22  39  61  88 116 153 202 250 292 348
#     4  11  22  35  54  84 118 148 182 231 294 353
#     4   8  16  31  55  81 102 135 185 240 285 328
#     4  10  20  38  60  80 107 147 197 242 283 340
#     4   9  18  36  59  82 109 145 192 237 281 338
#
# _framework density 19.807082000000001
#
# number of rings (size 3 to 8) (size 9 to 14) (size 15 to 20)
#    0.000    2.000    0.000    4.875    0.000    5.500 
#    0.000    8.125    0.000    0.000    0.000    0.000 
#    0.000    0.000    0.000    0.000    0.000    0.000 
#
# Total GULP energy -178512.913442 kJ/mol
# GULP energy per Si atom -5578.528545 kJ/mol
# Density = 1.976200 g / cm^3
# Si number density = 19.807082 Si / 1000 Ang^3
#
#
#
# Elastic Constant Matrix: (Units=GPa)
#
#
# Indices 1 2 3 4 5 6 
#
# 1 16.3807 22.1228 10.1861 0.0000 0.0000 0.0000
# 2 22.1228 133.4499 40.7706 0.0000 0.0000 0.0000
# 3 10.1861 40.7706 76.7151 0.0000 0.0000 0.0000
# 4 0.0000 0.0000 0.0000 34.9122 0.0000 0.0000
# 5 0.0000 0.0000 0.0000 0.0000 -0.3008 0.0000
# 6 0.0000 0.0000 0.0000 0.0000 0.0000 -16.1530
#
#
#
# Elastic Compliance Matrix: (Units=1/GPa)
#
#
# Indices 1 2 3 4 5 6 
#
# 1 0.079805 -0.011929 -0.004256 0.000000 0.000000 0.000000
# 2 -0.011929 0.010729 -0.004118 0.000000 0.000000 0.000000
# 3 -0.004256 -0.004118 0.015789 0.000000 0.000000 0.000000
# 4 0.000000 0.000000 0.000000 0.028643 0.000000 0.000000
# 5 0.000000 0.000000 0.000000 0.000000 -3.324521 0.000000
# 6 0.000000 0.000000 0.000000 0.000000 0.000000 -0.061908
#
#
# Mechanical properties :
#
#
# Convention : Reuss Voigt Hill
#
# Bulk Modulus (GPa) = 15.21709 41.41162 28.31435
# Shear Modulus (GPa) = -1.56791 13.92277 6.17743
#
# Velocity S-wave (km/s) = -0.89068 2.65414 1.76793
# Velocity P-wave (km/s) = 2.57713 5.50867 4.30041
#
# Compressibility (1/GPa) = 0.06571559
#
# Stress axis : x y z
#
# Youngs Moduli (GPa) = 12.53050 93.20367 63.33527
#
# Poissons Ratio (x) = 1.11186 0.26958
# Poissons Ratio (y) = 0.14948 0.26082
# Poissons Ratio (z) = 0.05334 0.38382
#
# Static dielectric constant tensor:
#      x y z
#    x 1.688930 0.000000 0.000000 
#    y 0.000000 1.692940 0.000000 
#    z 0.000000 0.000000 1.707920 
# 
# From -- ./inp_files/4122.got.cif
#   From: 2010.05.17/outbox.cif.g08.bks.cpg/sg26_3_cif.got.tgz:4122.got - 2010.06.04 01:07:29.
