data_PCOD9338902
_publ_section_title
;
Structure prediction by ZEFSAII (Michael W. Deem and Ramdas Pophale) SiO2 
 PCOD9338902
Probable space group: P C C 2
;
_chemical_formula_sum "Si O2"
_cell_formula_units_Z 32
_cell_length_a 14.079214
_cell_length_b 11.476422
_cell_length_c 9.616812
_cell_angle_alpha 90.000000
_cell_angle_beta 90.000000
_cell_angle_gamma 90.000000
_cell_volume 1553.874879
_symmetry_space_group_name_H-M "P C C 2"
_symmetry_group_IT_number 27
_symmetry_cell_setting 'orthorhombic'
loop_
_space_group_symop_operation_xyz
x,y,z
-x,-y,z
-x,y,1/2+z
x,-y,1/2+z
loop_
_atom_site_type_symbol
_atom_site_label
_atom_site_fract_x
_atom_site_fract_y
_atom_site_fract_z
Si Si1 0.285104 0.845290 0.352330
Si Si2 0.393978 0.242790 0.594207
Si Si3 0.100399 0.723395 0.432601
Si Si4 0.667078 0.492254 0.152754
Si Si5 0.397330 0.926834 0.831698
Si Si6 0.947112 0.371165 0.737012
Si Si7 0.214178 0.508735 0.900550
Si Si8 0.606935 0.756460 0.107429
O O1 0.311264 0.802869 0.196033
O O2 0.177294 0.823803 0.402093
O O3 0.357370 0.774469 0.451800
O O4 0.321039 0.975619 0.369963
O O5 0.390774 0.383121 0.594760
O O6 0.397236 0.173845 0.449151
O O7 0.498622 0.218458 0.650265
O O8 0.072222 0.693234 0.591274
O O9 0.159451 0.610428 0.387743
O O10 0.009849 0.713739 0.333262
O O11 0.689465 0.487971 0.315679
O O12 0.629829 0.622376 0.134878
O O13 0.763783 0.475138 0.062510
O O14 0.351246 0.861451 0.698402
O O15 0.500000 0.000000 0.821937
O O16 0.850127 0.396575 0.822901
O O17 0.000000 0.500000 0.716553
#
# Coordination Sequence:
#
# PCOD9338902 Si02
#       8
#     4   4   4   4   4   4   4   4
#     4  12  24  41  65  98 135 173 237 297 323 403
#     4  12  24  40  64  95 134 185 232 284 341 404
#     4  11  22  39  61 100 136 170 229 287 339 410
#     4  12  23  38  62 100 143 177 220 284 359 409
#     4  12  25  43  68  95 129 185 249 279 327 402
#     4  10  21  36  65  95 137 184 220 280 355 424
#     4  11  20  37  58  93 141 172 221 274 344 425
#     4  12  23  42  63  94 137 184 230 288 340 403
#
# _framework density 20.593679999999999
#
# number of rings (size 3 to 8) (size 9 to 14) (size 15 to 20)
#    0.000    0.500    6.250    3.000    1.750    0.000 
#    0.000    3.750    0.000    0.000    0.000   28.000 
#    0.000    0.000    0.000    0.000    0.000    0.000 
#
# Total GULP energy -178250.135268 kJ/mol
# GULP energy per Si atom -5570.316727 kJ/mol
# Density = 2.054681 g / cm^3
# Si number density = 20.593680 Si / 1000 Ang^3
#
#
#
# Elastic Constant Matrix: (Units=GPa)
#
#
# Indices 1 2 3 4 5 6 
#
# 1 55.6382 17.2973 17.1049 0.0000 0.0000 0.0000
# 2 17.2973 72.5146 11.5129 0.0000 0.0000 0.0000
# 3 17.1049 11.5129 65.3748 0.0000 0.0000 0.0000
# 4 0.0000 0.0000 0.0000 23.9617 0.0000 0.0000
# 5 0.0000 0.0000 0.0000 0.0000 28.4983 0.0000
# 6 0.0000 0.0000 0.0000 0.0000 0.0000 25.3642
#
#
#
# Elastic Compliance Matrix: (Units=1/GPa)
#
#
# Indices 1 2 3 4 5 6 
#
# 1 0.020718 -0.004199 -0.004681 0.000000 0.000000 0.000000
# 2 -0.004199 0.015038 -0.001550 0.000000 0.000000 0.000000
# 3 -0.004681 -0.001550 0.016794 0.000000 0.000000 0.000000
# 4 0.000000 0.000000 0.000000 0.041733 0.000000 0.000000
# 5 0.000000 0.000000 0.000000 0.000000 0.035090 0.000000
# 6 0.000000 0.000000 0.000000 0.000000 0.000000 0.039426
#
#
# Mechanical properties :
#
#
# Convention : Reuss Voigt Hill
#
# Bulk Modulus (GPa) = 31.55519 31.70642 31.63081
# Shear Modulus (GPa) = 24.97237 25.40568 25.18902
#
# Velocity S-wave (km/s) = 3.48605 3.51617 3.50114
# Velocity P-wave (km/s) = 5.61778 5.64926 5.63354
#
# Compressibility (1/GPa) = 0.03169050
#
# Stress axis : x y z
#
# Youngs Moduli (GPa) = 48.26775 66.49860 59.54457
#
# Poissons Ratio (x) = 0.27921 0.27874
# Poissons Ratio (y) = 0.20266 0.09228
# Poissons Ratio (z) = 0.22595 0.10305
#
# Static dielectric constant tensor:
#      x y z
#    x 1.796360 0.000000 0.000000 
#    y 0.000000 1.769670 0.000000 
#    z 0.000000 0.000000 1.787300 
# 
# From -- ./inp_files/1622.got.cif
#   From: 2010.05.17/outbox.cif.g08.bks.cpg/sg27_1_cif.got.tgz:1622.got - 2010.06.04 01:11:05.
