data_PCOD9338217
_publ_section_title
;
Structure prediction by ZEFSAII (Michael W. Deem and Ramdas Pophale) SiO2 
 PCOD9338217
Probable space group: P M C 21
;
_chemical_formula_sum "Si O2"
_cell_formula_units_Z 32
_cell_length_a 8.335691
_cell_length_b 15.846510
_cell_length_c 11.540097
_cell_angle_alpha 90.000000
_cell_angle_beta 90.000000
_cell_angle_gamma 90.000000
_cell_volume 1524.350001
_symmetry_space_group_name_H-M "P M C 21"
_symmetry_group_IT_number 26
_symmetry_cell_setting 'orthorhombic'
loop_
_space_group_symop_operation_xyz
x,y,z
-x,-y,1/2+z
-x,y,z
x,-y,1/2+z
loop_
_atom_site_type_symbol
_atom_site_label
_atom_site_fract_x
_atom_site_fract_y
_atom_site_fract_z
Si Si1 0.688317 0.155840 0.761750
Si Si2 0.194809 0.260142 0.562940
Si Si3 0.191732 0.448628 0.622093
Si Si4 0.311322 0.990294 0.421158
Si Si5 0.193964 0.149764 0.099403
Si Si6 0.815054 0.706084 0.430617
Si Si7 0.684617 0.472981 0.878398
Si Si8 0.188777 0.163512 0.355102
O O1 0.500000 0.168621 0.788542
O O2 0.726109 0.183863 0.633223
O O3 0.727073 0.061702 0.802939
O O4 0.793624 0.221204 0.835347
O O5 0.244770 0.350340 0.613546
O O6 0.244088 0.243019 0.430473
O O7 0.000000 0.254919 0.570838
O O8 0.238547 0.487535 0.496248
O O9 0.251058 0.487252 0.745745
O O10 0.000000 0.450299 0.628627
O O11 0.500000 0.009448 0.424381
O O12 0.269657 0.923671 0.521610
O O13 0.214943 0.076441 0.423119
O O14 0.260012 0.149837 0.228805
O O15 0.000000 0.137909 0.094748
O O16 0.225543 0.242468 0.046303
O O17 0.707343 0.627066 0.399910
O O18 0.000000 0.677290 0.433457
O O19 0.500000 0.497753 0.878484
O O20 0.000000 0.176483 0.336955
#
# Coordination Sequence:
#
# PCOD9338217 Si02
#       8
#     4   4   4   4   4   4   4   4
#     4  10  20  35  58  85 117 153 196 247 301 360
#     4  10  22  39  62  89 119 158 208 256 307 372
#     4  11  24  44  69  97 131 174 223 271 329 401
#     4  10  22  37  55  84 118 157 200 248 306 369
#     4   9  20  38  59  84 116 155 202 255 305 365
#     4  10  19  36  63  90 116 154 204 249 302 371
#     4  12  25  42  66 100 137 171 214 272 333 395
#     4  10  22  39  58  85 118 156 203 258 311 365
#
# _framework density 20.992553000000001
#
# number of rings (size 3 to 8) (size 9 to 14) (size 15 to 20)
#    0.000    1.750    1.250    2.625    1.750    4.500 
#    0.000    2.500    0.000    0.000    0.000    0.000 
#    0.000    0.000    0.000    0.000    0.000    0.000 
#
# Total GULP energy -178480.318671 kJ/mol
# GULP energy per Si atom -5577.509958 kJ/mol
# Density = 2.094477 g / cm^3
# Si number density = 20.992553 Si / 1000 Ang^3
#
#
#
# Elastic Constant Matrix: (Units=GPa)
#
#
# Indices 1 2 3 4 5 6 
#
# 1 25.7870 -0.1455 19.5659 0.0000 0.0000 0.0000
# 2 -0.1455 28.8467 26.3894 0.0000 0.0000 0.0000
# 3 19.5659 26.3894 134.0207 0.0000 0.0000 0.0000
# 4 0.0000 0.0000 0.0000 24.9074 0.0000 0.0000
# 5 0.0000 0.0000 0.0000 0.0000 19.5219 0.0000
# 6 0.0000 0.0000 0.0000 0.0000 0.0000 10.5107
#
#
#
# Elastic Compliance Matrix: (Units=1/GPa)
#
#
# Indices 1 2 3 4 5 6 
#
# 1 0.044934 0.007596 -0.008056 0.000000 0.000000 0.000000
# 2 0.007596 0.043567 -0.009687 0.000000 0.000000 0.000000
# 3 -0.008056 -0.009687 0.010545 0.000000 0.000000 0.000000
# 4 0.000000 0.000000 0.000000 0.040149 0.000000 0.000000
# 5 0.000000 0.000000 0.000000 0.000000 0.051224 0.000000
# 6 0.000000 0.000000 0.000000 0.000000 0.000000 0.095141
#
#
# Mechanical properties :
#
#
# Convention : Reuss Voigt Hill
#
# Bulk Modulus (GPa) = 12.69809 31.14155 21.91982
# Shear Modulus (GPa) = 15.05548 20.51099 17.78324
#
# Velocity S-wave (km/s) = 2.68093 3.12919 2.91369
# Velocity P-wave (km/s) = 3.95540 5.28418 4.66732
#
# Compressibility (1/GPa) = 0.07875201
#
# Stress axis : x y z
#
# Youngs Moduli (GPa) = 22.25466 22.95342 94.83060
#
# Poissons Ratio (x) = -0.17436 0.76393
# Poissons Ratio (y) = -0.16905 0.91867
# Poissons Ratio (z) = 0.17928 0.22236
#
# Static dielectric constant tensor:
#      x y z
#    x 1.720050 0.000000 0.000000 
#    y 0.000000 1.721670 0.000000 
#    z 0.000000 0.000000 1.850180 
# 
# From -- ./inp_files/3050.got.cif
#   From: 2010.05.17/outbox.cif.g08.bks.cpg/sg26_2_cif.got.tgz:3050.got - 2010.06.04 01:07:29.
