data_PCOD9338470
_publ_section_title
;
Structure prediction by ZEFSAII (Michael W. Deem and Ramdas Pophale) SiO2 
 PCOD9338470
Probable space group: P M C 21
;
_chemical_formula_sum "Si O2"
_cell_formula_units_Z 32
_cell_length_a 14.087770
_cell_length_b 14.262383
_cell_length_c 9.281639
_cell_angle_alpha 90.000000
_cell_angle_beta 90.000000
_cell_angle_gamma 90.000000
_cell_volume 1864.914907
_symmetry_space_group_name_H-M "P M C 21"
_symmetry_group_IT_number 26
_symmetry_cell_setting 'orthorhombic'
loop_
_space_group_symop_operation_xyz
x,y,z
-x,-y,1/2+z
-x,y,z
x,-y,1/2+z
loop_
_atom_site_type_symbol
_atom_site_label
_atom_site_fract_x
_atom_site_fract_y
_atom_site_fract_z
Si Si1 0.387978 0.920244 0.046470
Si Si2 0.279113 0.702062 0.387320
Si Si3 0.725744 0.625517 0.697830
Si Si4 0.891386 0.566187 0.903524
Si Si5 0.387143 0.430465 0.680138
Si Si6 0.613612 0.720416 0.932583
Si Si7 0.108404 0.374501 0.732874
Si Si8 0.387870 0.895886 0.386051
O O1 0.500000 0.920074 0.007943
O O2 0.381818 0.921824 0.217860
O O3 0.349585 0.820556 0.989802
O O4 0.350834 0.015667 0.976845
O O5 0.248837 0.663161 0.541766
O O6 0.356254 0.631361 0.317334
O O7 0.189256 0.698008 0.279578
O O8 0.327442 0.802348 0.405602
O O9 0.815348 0.617407 0.803701
O O10 0.673315 0.525266 0.682292
O O11 0.653533 0.695107 0.777603
O O12 0.885878 0.458818 0.849306
O O13 0.000000 0.596882 0.876072
O O14 0.873244 0.582325 0.073414
O O15 0.500000 0.449636 0.681498
O O16 0.364016 0.364900 0.542376
O O17 0.500000 0.724650 0.929667
O O18 0.000000 0.338734 0.733331
O O19 0.500000 0.878129 0.419417
#
# Coordination Sequence:
#
# PCOD9338470 Si02
#       8
#     4   4   4   4   4   4   4   4
#     4   9  19  36  56  77 105 145 187 234 283 323
#     4  12  23  35  55  84 113 147 189 233 280 335
#     4  12  24  33  52  82 114 153 193 223 271 331
#     4  10  21  37  57  80 109 148 192 236 277 324
#     4  11  22  37  51  72 114 160 194 225 266 321
#     4  10  21  37  54  75 111 154 191 228 270 325
#     4  10  21  38  58  80 109 146 188 235 284 333
#     4  10  21  37  58  82 111 145 187 240 288 330
#
# _framework density 17.158961000000001
#
# number of rings (size 3 to 8) (size 9 to 14) (size 15 to 20)
#    0.000    1.500    2.500    3.000    1.750    4.500 
#    0.000    0.000    0.000    0.000    0.000    1.750 
#    0.000    0.000    0.000    0.000    0.000    0.000 
#
# Total GULP energy -178633.365458 kJ/mol
# GULP energy per Si atom -5582.292671 kJ/mol
# Density = 1.711991 g / cm^3
# Si number density = 17.158961 Si / 1000 Ang^3
#
#
#
# Elastic Constant Matrix: (Units=GPa)
#
#
# Indices 1 2 3 4 5 6 
#
# 1 80.3815 40.9972 39.6185 0.0000 0.0000 0.0000
# 2 40.9972 93.3080 36.1053 0.0000 0.0000 0.0000
# 3 39.6185 36.1053 88.3820 0.0000 0.0000 0.0000
# 4 0.0000 0.0000 0.0000 25.1695 0.0000 0.0000
# 5 0.0000 0.0000 0.0000 0.0000 25.4093 0.0000
# 6 0.0000 0.0000 0.0000 0.0000 0.0000 13.7158
#
#
#
# Elastic Compliance Matrix: (Units=1/GPa)
#
#
# Indices 1 2 3 4 5 6 
#
# 1 0.018253 -0.005765 -0.005827 0.000000 0.000000 0.000000
# 2 -0.005765 0.014550 -0.003360 0.000000 0.000000 0.000000
# 3 -0.005827 -0.003360 0.015299 0.000000 0.000000 0.000000
# 4 0.000000 0.000000 0.000000 0.039731 0.000000 0.000000
# 5 0.000000 0.000000 0.000000 0.000000 0.039356 0.000000
# 6 0.000000 0.000000 0.000000 0.000000 0.000000 0.072908
#
#
# Mechanical properties :
#
#
# Convention : Reuss Voigt Hill
#
# Bulk Modulus (GPa) = 54.94920 55.05706 55.00313
# Shear Modulus (GPa) = 21.18040 22.54896 21.86468
#
# Velocity S-wave (km/s) = 3.51716 3.62901 3.57353
# Velocity P-wave (km/s) = 6.97044 7.05094 7.01081
#
# Compressibility (1/GPa) = 0.01819863
#
# Stress axis : x y z
#
# Youngs Moduli (GPa) = 54.78502 68.72717 65.36352
#
# Poissons Ratio (x) = 0.39623 0.38088
# Poissons Ratio (y) = 0.31585 0.21960
# Poissons Ratio (z) = 0.31924 0.23090
#
# Static dielectric constant tensor:
#      x y z
#    x 1.597940 0.000000 0.000000 
#    y 0.000000 1.576920 0.000000 
#    z 0.000000 0.000000 1.602150 
# 
# From -- ./inp_files/2234.got.cif
#   From: 2010.05.17/outbox.cif.g08.bks.cpg/sg26_2_cif.got.tgz:2234.got - 2010.06.04 01:07:29.
