data_PCOD9338647
_publ_section_title
;
Structure prediction by ZEFSAII (Michael W. Deem and Ramdas Pophale) SiO2 
 PCOD9338647
Probable space group: P M C 21
;
_chemical_formula_sum "Si O2"
_cell_formula_units_Z 32
_cell_length_a 8.226333
_cell_length_b 14.824605
_cell_length_c 13.001023
_cell_angle_alpha 90.000000
_cell_angle_beta 90.000000
_cell_angle_gamma 90.000000
_cell_volume 1585.502542
_symmetry_space_group_name_H-M "P M C 21"
_symmetry_group_IT_number 26
_symmetry_cell_setting 'orthorhombic'
loop_
_space_group_symop_operation_xyz
x,y,z
-x,-y,1/2+z
-x,y,z
x,-y,1/2+z
loop_
_atom_site_type_symbol
_atom_site_label
_atom_site_fract_x
_atom_site_fract_y
_atom_site_fract_z
Si Si1 0.696779 0.345189 0.914240
Si Si2 0.806032 0.160222 0.456416
Si Si3 0.687132 0.185468 0.781588
Si Si4 0.303865 0.471102 0.727978
Si Si5 0.313183 0.319808 0.584052
Si Si6 0.193288 0.964484 0.140054
Si Si7 0.199802 0.151763 0.223161
Si Si8 0.806188 0.653969 0.644814
O O1 0.500000 0.342897 0.910274
O O2 0.753942 0.246261 0.874635
O O3 0.751387 0.420144 0.831375
O O4 0.751124 0.364759 0.028685
O O5 0.772647 0.261400 0.496914
O O6 0.738910 0.090135 0.541701
O O7 0.745591 0.144689 0.341551
O O8 0.000000 0.148848 0.454203
O O9 0.500000 0.161177 0.802576
O O10 0.687490 0.255347 0.685229
O O11 0.777555 0.097626 0.740594
O O12 0.500000 0.464600 0.725692
O O13 0.244385 0.413341 0.628544
O O14 0.254750 0.573996 0.717577
O O15 0.500000 0.333761 0.552176
O O16 0.000000 0.971226 0.125519
O O17 0.256611 0.064700 0.159632
O O18 0.253661 0.247255 0.177935
O O19 0.000000 0.150960 0.222711
O O20 0.000000 0.654966 0.648906
#
# Coordination Sequence:
#
# PCOD9338647 Si02
#       8
#     4   4   4   4   4   4   4   4
#     4   9  19  37  58  78 105 141 175 212 265 323
#     4   9  17  31  52  75 101 134 169 208 253 301
#     4   8  15  30  52  77 103 128 161 211 261 301
#     4   9  19  37  58  77 101 137 178 217 261 316
#     4   8  15  30  52  76 100 126 161 207 255 303
#     4   9  17  31  53  76  98 134 180 215 249 304
#     4   9  20  36  49  70 107 141 169 207 259 313
#     4  11  23  36  52  77 109 141 175 219 265 311
#
# _framework density 20.182877000000001
#
# number of rings (size 3 to 8) (size 9 to 14) (size 15 to 20)
#    0.000    3.000    0.000    1.875    0.000    3.500 
#    0.000   10.625    0.000    3.000    0.000    0.000 
#    0.000    0.000    0.000    0.000    0.000    0.000 
#
# Total GULP energy -178376.185135 kJ/mol
# GULP energy per Si atom -5574.255785 kJ/mol
# Density = 2.013694 g / cm^3
# Si number density = 20.182877 Si / 1000 Ang^3
#
#
#
# Elastic Constant Matrix: (Units=GPa)
#
#
# Indices 1 2 3 4 5 6 
#
# 1 6.3465 11.2945 8.9486 0.0000 0.0000 0.0000
# 2 11.2945 150.1126 50.9593 0.0000 0.0000 0.0000
# 3 8.9486 50.9593 89.7608 0.0000 0.0000 0.0000
# 4 0.0000 0.0000 0.0000 21.6373 0.0000 0.0000
# 5 0.0000 0.0000 0.0000 0.0000 27.8170 0.0000
# 6 0.0000 0.0000 0.0000 0.0000 0.0000 -82.7373
#
#
#
# Elastic Compliance Matrix: (Units=1/GPa)
#
#
# Indices 1 2 3 4 5 6 
#
# 1 0.194714 -0.009985 -0.013743 0.000000 0.000000 0.000000
# 2 -0.009985 0.008764 -0.003980 0.000000 0.000000 0.000000
# 3 -0.013743 -0.003980 0.014770 0.000000 0.000000 0.000000
# 4 0.000000 0.000000 0.000000 0.046217 0.000000 0.000000
# 5 0.000000 0.000000 0.000000 0.000000 0.035949 0.000000
# 6 0.000000 0.000000 0.000000 0.000000 0.000000 -0.012086
#
#
# Mechanical properties :
#
#
# Convention : Reuss Voigt Hill
#
# Bulk Modulus (GPa) = 6.14129 43.18052 24.66090
# Shear Modulus (GPa) = 12.56213 5.01123 8.78668
#
# Velocity S-wave (km/s) = 2.49753 1.57744 2.08878
# Velocity P-wave (km/s) = 3.37140 4.97582 4.25001
#
# Compressibility (1/GPa) = 0.16283236
#
# Stress axis : x y z
#
# Youngs Moduli (GPa) = 5.13574 114.10197 67.70286
#
# Poissons Ratio (x) = 1.13930 0.93044
# Poissons Ratio (y) = 0.05128 0.26947
# Poissons Ratio (z) = 0.07058 0.45414
#
# Static dielectric constant tensor:
#      x y z
#    x 1.716650 0.000000 0.000000 
#    y 0.000000 1.735030 0.000000 
#    z 0.000000 0.000000 1.731040 
# 
# From -- ./inp_files/3362.got.cif
#   From: 2010.05.17/outbox.cif.g08.bks.cpg/sg26_2_cif.got.tgz:3362.got - 2010.06.04 01:07:29.
