data_PCOD9338811
_publ_section_title
;
Structure prediction by ZEFSAII (Michael W. Deem and Ramdas Pophale) SiO2 
 PCOD9338811
Probable space group: P C C 2
;
_chemical_formula_sum "Si O2"
_cell_formula_units_Z 24
_cell_length_a 5.409599
_cell_length_b 8.042883
_cell_length_c 25.643206
_cell_angle_alpha 90.000000
_cell_angle_beta 90.000000
_cell_angle_gamma 90.000000
_cell_volume 1115.704399
_symmetry_space_group_name_H-M "P C C 2"
_symmetry_group_IT_number 27
_symmetry_cell_setting 'orthorhombic'
loop_
_space_group_symop_operation_xyz
x,y,z
-x,-y,z
-x,y,1/2+z
x,-y,1/2+z
loop_
_atom_site_type_symbol
_atom_site_label
_atom_site_fract_x
_atom_site_fract_y
_atom_site_fract_z
Si Si1 0.667366 0.242390 0.738440
Si Si2 0.002726 0.305173 0.063531
Si Si3 0.502781 0.798209 0.622693
Si Si4 0.500000 0.000000 0.916073
Si Si5 0.000000 0.000000 0.288133
Si Si6 0.330513 0.260450 0.837256
Si Si7 0.000000 0.500000 0.297174
Si Si8 0.000000 0.000000 0.983207
O O1 0.553517 0.257150 0.681815
O O2 0.464730 0.263911 0.782205
O O3 0.880529 0.369346 0.756696
O O4 0.787990 0.063750 0.749783
O O5 0.266930 0.268934 0.090604
O O6 0.000000 0.500000 0.047769
O O7 0.765247 0.268587 0.101027
O O8 0.985051 0.167023 0.018147
O O9 0.500000 0.000000 0.619849
O O10 0.508892 0.834439 0.879812
O O11 0.251166 0.004937 0.949760
O O12 0.097051 0.859695 0.326954
O O13 0.211617 0.441051 0.837844
#
# Coordination Sequence:
#
# PCOD9338811 Si02
#       8
#     4   4   4   2   2   4   2   2
#     4  11  24  39  66 105 151 201 236 288 357 442
#     4  12  28  52  79 111 150 192 249 320 385 450
#     4  12  25  45  79 112 151 203 249 297 371 456
#     4  12  26  46  86 100 138 196 256 308 390 450
#     4  10  19  37  64  92 146 188 245 275 340 422
#     4  11  22  43  65 104 140 195 236 298 354 437
#     4  10  26  40  64  96 170 184 244 300 352 430
#     4  12  27  55  78 110 144 188 259 331 390 448
#
# _framework density 21.511075999999999
#
# number of rings (size 3 to 8) (size 9 to 14) (size 15 to 20)
#    0.000    0.667    3.333    3.500   10.500    1.333 
#    1.500    0.000    0.000    0.000    0.000    0.000 
#    0.000    0.000    0.000    0.000    0.000    0.000 
#
# Total GULP energy -133993.907857 kJ/mol
# GULP energy per Si atom -5583.079494 kJ/mol
# Density = 2.146212 g / cm^3
# Si number density = 21.511076 Si / 1000 Ang^3
#
#
#
# Elastic Constant Matrix: (Units=GPa)
#
#
# Indices 1 2 3 4 5 6 
#
# 1 113.8199 23.6894 28.8213 0.0000 0.0000 0.0000
# 2 23.6894 117.9823 37.9279 0.0000 0.0000 0.0000
# 3 28.8213 37.9279 90.5289 0.0000 0.0000 0.0000
# 4 0.0000 0.0000 0.0000 -41.2481 0.0000 0.0000
# 5 0.0000 0.0000 0.0000 0.0000 47.7151 0.0000
# 6 0.0000 0.0000 0.0000 0.0000 0.0000 47.5238
#
#
#
# Elastic Compliance Matrix: (Units=1/GPa)
#
#
# Indices 1 2 3 4 5 6 
#
# 1 0.009678 -0.001101 -0.002620 0.000000 0.000000 0.000000
# 2 -0.001101 0.009920 -0.003806 0.000000 0.000000 0.000000
# 3 -0.002620 -0.003806 0.013475 0.000000 0.000000 0.000000
# 4 0.000000 0.000000 0.000000 -0.024244 0.000000 0.000000
# 5 0.000000 0.000000 0.000000 0.000000 0.020958 0.000000
# 6 0.000000 0.000000 0.000000 0.000000 0.000000 0.021042
#
#
# Mechanical properties :
#
#
# Convention : Reuss Voigt Hill
#
# Bulk Modulus (GPa) = 55.49373 55.91203 55.70288
# Shear Modulus (GPa) = 69.55093 26.25769 47.90431
#
# Velocity S-wave (km/s) = 5.69235 3.49758 4.72419
# Velocity P-wave (km/s) = 8.31008 6.50841 7.46381
#
# Compressibility (1/GPa) = 0.01802005
#
# Stress axis : x y z
#
# Youngs Moduli (GPa) = 103.32288 100.80306 74.21304
#
# Poissons Ratio (x) = 0.11099 0.19444
# Poissons Ratio (y) = 0.11376 0.28243
# Poissons Ratio (z) = 0.27070 0.38362
#
# Static dielectric constant tensor:
#      x y z
#    x 1.766250 0.000000 0.000000 
#    y 0.000000 1.942920 0.000000 
#    z 0.000000 0.000000 1.764170 
# 
# From -- ./inp_files/5008.got.cif
#   From: 2010.05.17/outbox.cif.g08.bks.cpg/sg27_3_cif.got.tgz:5008.got - 2010.06.04 01:11:05.
