data_PCOD9338828
_publ_section_title
;
Structure prediction by ZEFSAII (Michael W. Deem and Ramdas Pophale) SiO2 
 PCOD9338828
Probable space group: P C C 2
;
_chemical_formula_sum "Si O2"
_cell_formula_units_Z 32
_cell_length_a 8.772648
_cell_length_b 7.955851
_cell_length_c 23.745307
_cell_angle_alpha 90.000000
_cell_angle_beta 90.000000
_cell_angle_gamma 90.000000
_cell_volume 1657.277116
_symmetry_space_group_name_H-M "P C C 2"
_symmetry_group_IT_number 27
_symmetry_cell_setting 'orthorhombic'
loop_
_space_group_symop_operation_xyz
x,y,z
-x,-y,z
-x,y,1/2+z
x,-y,1/2+z
loop_
_atom_site_type_symbol
_atom_site_label
_atom_site_fract_x
_atom_site_fract_y
_atom_site_fract_z
Si Si1 0.324561 0.062868 0.920750
Si Si2 0.329160 0.298787 0.219522
Si Si3 0.313809 0.011620 0.794196
Si Si4 0.785207 0.183338 0.598214
Si Si5 0.594240 0.329453 0.503459
Si Si6 0.291562 0.862368 0.028123
Si Si7 0.902038 0.329654 0.103066
Si Si8 0.696629 0.680197 0.714348
O O1 0.261791 0.041286 0.858211
O O2 0.500000 0.000000 0.917143
O O3 0.333480 0.250488 0.946807
O O4 0.247548 0.948287 0.968941
O O5 0.273300 0.165703 0.265829
O O6 0.270567 0.235544 0.159445
O O7 0.277207 0.487902 0.233844
O O8 0.512817 0.302236 0.211331
O O9 0.259768 0.167521 0.755725
O O10 0.500000 0.000000 0.794162
O O11 0.717882 0.318271 0.553173
O O12 0.966239 0.190885 0.600726
O O13 0.729060 0.003686 0.575883
O O14 0.500000 0.500000 0.495522
O O15 0.464628 0.197259 0.523031
O O16 0.193280 0.702336 0.046465
O O17 0.785943 0.309746 0.155196
O O18 0.000000 0.500000 0.107924
#
# Coordination Sequence:
#
# PCOD9338828 Si02
#       8
#     4   4   4   4   4   4   4   4
#     4   8  17  36  56  83 114 144 192 239 281 343
#     4  10  20  35  57  85 114 152 190 237 293 342
#     4   9  18  36  58  83 114 148 192 244 290 337
#     4  11  21  34  56  82 114 153 186 232 289 349
#     4  10  20  35  57  88 115 149 185 238 294 344
#     4  10  21  36  56  83 115 150 188 232 292 349
#     4  12  22  35  54  83 120 150 185 242 289 347
#     4  10  21  35  55  85 117 148 193 239 288 348
#
# _framework density 19.308781
#
# number of rings (size 3 to 8) (size 9 to 14) (size 15 to 20)
#    0.000    2.000    1.250    3.750    1.750    2.000 
#    9.000    0.000    0.000    6.000    0.000    0.000 
#    0.000    0.000    0.000    0.000    0.000    0.000 
#
# Total GULP energy -178375.526950 kJ/mol
# GULP energy per Si atom -5574.235217 kJ/mol
# Density = 1.926483 g / cm^3
# Si number density = 19.308781 Si / 1000 Ang^3
#
#
#
# Elastic Constant Matrix: (Units=GPa)
#
#
# Indices 1 2 3 4 5 6 
#
# 1 31.7439 29.4772 22.1390 0.0000 0.0000 0.0000
# 2 29.4772 136.8099 68.4247 0.0000 0.0000 0.0000
# 3 22.1390 68.4247 116.6305 0.0000 0.0000 0.0000
# 4 0.0000 0.0000 0.0000 11.9517 0.0000 0.0000
# 5 0.0000 0.0000 0.0000 0.0000 -7.8870 0.0000
# 6 0.0000 0.0000 0.0000 0.0000 0.0000 20.6093
#
#
#
# Elastic Compliance Matrix: (Units=1/GPa)
#
#
# Indices 1 2 3 4 5 6 
#
# 1 0.040439 -0.006898 -0.003629 0.000000 0.000000 0.000000
# 2 -0.006898 0.011521 -0.005450 0.000000 0.000000 0.000000
# 3 -0.003629 -0.005450 0.012460 0.000000 0.000000 0.000000
# 4 0.000000 0.000000 0.000000 0.083670 0.000000 0.000000
# 5 0.000000 0.000000 0.000000 0.000000 -0.126790 0.000000
# 6 0.000000 0.000000 0.000000 0.000000 0.000000 0.048522
#
#
# Mechanical properties :
#
#
# Convention : Reuss Voigt Hill
#
# Bulk Modulus (GPa) = 30.80131 58.36288 44.58210
# Shear Modulus (GPa) = 44.40557 15.94434 30.17496
#
# Velocity S-wave (km/s) = 4.80078 2.87671 3.95746
# Velocity P-wave (km/s) = 6.83496 6.42851 6.63484
#
# Compressibility (1/GPa) = 0.03246615
#
# Stress axis : x y z
#
# Youngs Moduli (GPa) = 24.72890 86.79490 80.25398
#
# Poissons Ratio (x) = 0.59869 0.29127
# Poissons Ratio (y) = 0.17057 0.43739
# Poissons Ratio (z) = 0.08975 0.47304
#
# Static dielectric constant tensor:
#      x y z
#    x 1.709490 0.000000 0.000000 
#    y 0.000000 1.744230 0.000000 
#    z 0.000000 0.000000 1.663690 
# 
# From -- ./inp_files/5124.got.cif
#   From: 2010.05.17/outbox.cif.g08.bks.cpg/sg27_3_cif.got.tgz:5124.got - 2010.06.04 01:11:05.
