data_PCOD9338077
_publ_section_title
;
Structure prediction by ZEFSAII (Michael W. Deem and Ramdas Pophale) SiO2 
 PCOD9338077
Probable space group: P M C 21
;
_chemical_formula_sum "Si O2"
_cell_formula_units_Z 30
_cell_length_a 35.439530
_cell_length_b 6.818659
_cell_length_c 5.246230
_cell_angle_alpha 90.000000
_cell_angle_beta 90.000000
_cell_angle_gamma 90.000000
_cell_volume 1267.751848
_symmetry_space_group_name_H-M "P M C 21"
_symmetry_group_IT_number 26
_symmetry_cell_setting 'orthorhombic'
loop_
_space_group_symop_operation_xyz
x,y,z
-x,-y,1/2+z
-x,y,z
x,-y,1/2+z
loop_
_atom_site_type_symbol
_atom_site_label
_atom_site_fract_x
_atom_site_fract_y
_atom_site_fract_z
Si Si1 0.338423 0.636389 0.657080
Si Si2 0.500000 0.633927 0.726324
Si Si3 0.851384 0.270609 0.576719
Si Si4 0.957974 0.133925 0.231417
Si Si5 0.118572 0.289276 0.077532
Si Si6 0.579170 0.367429 0.116199
Si Si7 0.261447 0.210598 0.302294
Si Si8 0.231451 0.770485 0.303227
O O1 0.335905 0.513894 0.395255
O O2 0.380212 0.731883 0.657472
O O3 0.303504 0.782856 0.692126
O O4 0.500000 0.459495 0.510103
O O5 0.460298 0.741213 0.672350
O O6 0.864323 0.495430 0.533754
O O7 0.855137 0.189104 0.291602
O O8 0.809945 0.250453 0.689753
O O9 0.879562 0.197105 0.796803
O O10 0.923519 0.281885 0.186683
O O11 0.000000 0.223215 0.213992
O O12 0.955153 0.025109 0.502721
O O13 0.578625 0.540917 0.331777
O O14 0.259764 0.302387 0.583467
O O15 0.244211 0.995578 0.346298
O O16 0.235190 0.311174 0.088354
#
# Coordination Sequence:
#
# PCOD9338077 Si02
#       8
#     4   2   4   4   4   4   4   4
#     4  10  19  33  48  74 104 137 170 225 273 324
#     4   8  12  20  34  58  84 126 164 198 244 324
#     4  10  21  40  59  80 116 138 179 231 277 313
#     4  10  21  40  63  90 123 155 185 215 252 307
#     4  10  21  40  60  87 112 148 179 218 269 319
#     4   8  14  23  39  59  93 127 164 203 261 314
#     4  10  21  38  55  74  98 138 186 218 275 320
#     4  10  21  40  57  73 102 137 180 234 267 318
#
# _framework density 23.66394
#
# number of rings (size 3 to 8) (size 9 to 14) (size 15 to 20)
#    0.000    2.400    0.000    2.400    0.000    0.000 
#   28.800    2.667    0.000    0.000    0.000    0.000 
#    0.000    4.267    0.000    0.000    0.000   16.533 
#
# Total GULP energy -167355.899882 kJ/mol
# GULP energy per Si atom -5578.529996 kJ/mol
# Density = 2.361008 g / cm^3
# Si number density = 23.663940 Si / 1000 Ang^3
#
#
#
# Elastic Constant Matrix: (Units=GPa)
#
#
# Indices 1 2 3 4 5 6 
#
# 1 172.2990 6.4138 -15.1613 0.0000 0.0000 0.0000
# 2 6.4138 72.6672 -22.9240 0.0000 0.0000 0.0000
# 3 -15.1613 -22.9240 169.2227 0.0000 0.0000 0.0000
# 4 0.0000 0.0000 0.0000 -1.5596 0.0000 0.0000
# 5 0.0000 0.0000 0.0000 0.0000 38.3138 0.0000
# 6 0.0000 0.0000 0.0000 0.0000 0.0000 13.5378
#
#
#
# Elastic Compliance Matrix: (Units=1/GPa)
#
#
# Indices 1 2 3 4 5 6 
#
# 1 0.005859 -0.000367 0.000475 0.000000 0.000000 0.000000
# 2 -0.000367 0.014399 0.001918 0.000000 0.000000 0.000000
# 3 0.000475 0.001918 0.006212 0.000000 0.000000 0.000000
# 4 0.000000 0.000000 0.000000 -0.641170 0.000000 0.000000
# 5 0.000000 0.000000 0.000000 0.000000 0.026100 0.000000
# 6 0.000000 0.000000 0.000000 0.000000 0.000000 0.073867
#
#
# Mechanical properties :
#
#
# Convention : Reuss Voigt Hill
#
# Bulk Modulus (GPa) = 32.76431 38.98287 35.87359
# Shear Modulus (GPa) = -9.83071 39.78242 14.97585
#
# Velocity S-wave (km/s) = -2.04042 4.10462 2.51839
# Velocity P-wave (km/s) = 2.88524 6.24285 4.86301
#
# Compressibility (1/GPa) = 0.03052101
#
# Stress axis : x y z
#
# Youngs Moduli (GPa) = 170.66732 69.45057 160.98592
#
# Poissons Ratio (x) = 0.02551 -0.07650
# Poissons Ratio (y) = 0.06268 -0.30871
# Poissons Ratio (z) = -0.08110 -0.13318
#
# Static dielectric constant tensor:
#      x y z
#    x 1.950690 0.000000 0.000000 
#    y 0.000000 2.751230 0.000000 
#    z 0.000000 0.000000 2.009130 
# 
# From -- ./inp_files/1115.got.cif
#   From: 2010.05.17/outbox.cif.g08.bks.cpg/sg26_1_cif.got.tgz:1115.got - 2010.06.04 01:07:29.
