data_PCOD9338987
_publ_section_title
;
Structure prediction by ZEFSAII (Michael W. Deem and Ramdas Pophale) SiO2 
 PCOD9338987
Probable space group: P C C 2
;
_chemical_formula_sum "Si O2"
_cell_formula_units_Z 30
_cell_length_a 11.190269
_cell_length_b 13.242950
_cell_length_c 9.911754
_cell_angle_alpha 90.000000
_cell_angle_beta 90.000000
_cell_angle_gamma 90.000000
_cell_volume 1468.844362
_symmetry_space_group_name_H-M "P C C 2"
_symmetry_group_IT_number 27
_symmetry_cell_setting 'orthorhombic'
loop_
_space_group_symop_operation_xyz
x,y,z
-x,-y,z
-x,y,1/2+z
x,-y,1/2+z
loop_
_atom_site_type_symbol
_atom_site_label
_atom_site_fract_x
_atom_site_fract_y
_atom_site_fract_z
Si Si1 0.545701 0.714165 0.370110
Si Si2 0.274784 0.985063 0.286690
Si Si3 0.880005 0.811620 0.914189
Si Si4 0.572259 0.834751 0.623094
Si Si5 0.361324 0.466628 0.196983
Si Si6 0.500000 0.000000 0.458581
Si Si7 0.060659 0.889294 0.697689
Si Si8 0.293830 0.380157 0.923482
O O1 0.610021 0.761716 0.500915
O O2 0.485897 0.784430 0.254061
O O3 0.623859 0.632984 0.289788
O O4 0.427705 0.664483 0.434636
O O5 0.203057 0.909099 0.383839
O O6 0.322969 0.911020 0.168550
O O7 0.389515 0.023916 0.364929
O O8 0.192340 0.077536 0.244433
O O9 0.801117 0.710186 0.907954
O O10 0.985503 0.826285 0.806024
O O11 0.933118 0.827202 0.061447
O O12 0.473234 0.905011 0.552141
O O13 0.500000 0.500000 0.166547
O O14 0.300210 0.551084 0.290272
O O15 0.287130 0.443642 0.061943
O O16 0.000000 0.000000 0.675885
#
# Coordination Sequence:
#
# PCOD9338987 Si02
#       8
#     4   4   4   4   4   2   4   4
#     4  11  22  37  60  93 142 194 219 259 328 421
#     4  11  23  39  62  95 140 182 230 268 328 398
#     4  11  23  44  70  94 126 167 239 286 342 399
#     4  12  22  36  55  89 143 193 223 262 312 397
#     4  10  22  38  65  98 140 183 217 272 344 423
#     4  12  24  36  54  98 148 190 212 272 320 398
#     4  10  23  45  71  94 125 180 229 289 332 397
#     4  11  22  40  64  98 133 170 229 284 340 411
#
# _framework density 20.424219000000001
#
# number of rings (size 3 to 8) (size 9 to 14) (size 15 to 20)
#    0.000    1.067    4.000    3.600    1.867    3.200 
#    0.000    1.333    0.000    2.400    0.000    0.000 
#    0.000    0.000    0.000    0.000    0.000    0.000 
#
# Total GULP energy -167605.840665 kJ/mol
# GULP energy per Si atom -5586.861355 kJ/mol
# Density = 2.037773 g / cm^3
# Si number density = 20.424219 Si / 1000 Ang^3
#
#
#
# Elastic Constant Matrix: (Units=GPa)
#
#
# Indices 1 2 3 4 5 6 
#
# 1 67.1854 19.1728 52.0544 0.0000 0.0000 0.0000
# 2 19.1728 75.9269 57.4471 0.0000 0.0000 0.0000
# 3 52.0544 57.4471 145.4716 0.0000 0.0000 0.0000
# 4 0.0000 0.0000 0.0000 38.8247 0.0000 0.0000
# 5 0.0000 0.0000 0.0000 0.0000 21.1499 0.0000
# 6 0.0000 0.0000 0.0000 0.0000 0.0000 23.7955
#
#
#
# Elastic Compliance Matrix: (Units=1/GPa)
#
#
# Indices 1 2 3 4 5 6 
#
# 1 0.020609 0.000536 -0.007586 0.000000 0.000000 0.000000
# 2 0.000536 0.018796 -0.007614 0.000000 0.000000 0.000000
# 3 -0.007586 -0.007614 0.012596 0.000000 0.000000 0.000000
# 4 0.000000 0.000000 0.000000 0.025757 0.000000 0.000000
# 5 0.000000 0.000000 0.000000 0.000000 0.047282 0.000000
# 6 0.000000 0.000000 0.000000 0.000000 0.000000 0.042025
#
#
# Mechanical properties :
#
#
# Convention : Reuss Voigt Hill
#
# Bulk Modulus (GPa) = 44.10864 60.65918 52.38391
# Shear Modulus (GPa) = 24.51570 27.41466 25.96518
#
# Velocity S-wave (km/s) = 3.46833 3.66766 3.56939
# Velocity P-wave (km/s) = 6.13858 6.90650 6.53383
#
# Compressibility (1/GPa) = 0.02267130
#
# Stress axis : x y z
#
# Youngs Moduli (GPa) = 48.52271 53.20149 79.39238
#
# Poissons Ratio (x) = -0.02849 0.60227
# Poissons Ratio (y) = -0.02599 0.60453
# Poissons Ratio (z) = 0.36809 0.40510
#
# Static dielectric constant tensor:
#      x y z
#    x 1.735330 0.000000 0.000000 
#    y 0.000000 1.795530 0.000000 
#    z 0.000000 0.000000 1.777750 
# 
# From -- ./inp_files/1462.got.cif
#   From: 2010.05.17/outbox.cif.g08.bks.cpg/sg27_1_cif.got.tgz:1462.got - 2010.06.04 01:11:05.
