data_PCOD9338405
_publ_section_title
;
Structure prediction by ZEFSAII (Michael W. Deem and Ramdas Pophale) SiO2 
 PCOD9338405
Probable space group: P M C 21
;
_chemical_formula_sum "Si O2"
_cell_formula_units_Z 24
_cell_length_a 14.138204
_cell_length_b 9.420212
_cell_length_c 8.007462
_cell_angle_alpha 90.000000
_cell_angle_beta 90.000000
_cell_angle_gamma 90.000000
_cell_volume 1066.472857
_symmetry_space_group_name_H-M "P M C 21"
_symmetry_group_IT_number 26
_symmetry_cell_setting 'orthorhombic'
loop_
_space_group_symop_operation_xyz
x,y,z
-x,-y,1/2+z
-x,y,z
x,-y,1/2+z
loop_
_atom_site_type_symbol
_atom_site_label
_atom_site_fract_x
_atom_site_fract_y
_atom_site_fract_z
Si Si1 0.706913 0.021013 0.826890
Si Si2 0.199023 0.816198 0.617186
Si Si3 0.000000 0.731343 0.501575
Si Si4 0.000000 0.469137 0.322901
Si Si5 0.500000 0.758682 0.242876
Si Si6 0.789936 0.564997 0.847280
Si Si7 0.298872 0.685037 0.171756
Si Si8 0.500000 0.030295 0.421378
O O1 0.712869 0.146065 0.688606
O O2 0.788836 0.910224 0.784224
O O3 0.603773 0.946033 0.836922
O O4 0.726738 0.111967 0.992803
O O5 0.095654 0.817018 0.535074
O O6 0.221340 0.658152 0.679277
O O7 0.000000 0.640477 0.331623
O O8 0.000000 0.606365 0.642796
O O9 0.100283 0.422296 0.399894
O O10 0.407139 0.665527 0.225350
O O11 0.500000 0.856535 0.409860
O O12 0.500000 0.875192 0.089330
O O13 0.766596 0.404307 0.797031
O O14 0.723823 0.627974 0.989245
#
# Coordination Sequence:
#
# PCOD9338405 Si02
#       8
#     4   4   2   2   2   4   4   2
#     4  11  22  40  62  90 121 162 205 255 302 361
#     4  11  23  39  61  88 123 159 204 253 308 360
#     4  10  22  38  60  90 120 160 202 250 306 362
#     4  10  20  38  62  84 116 160 204 234 294 376
#     4  10  22  38  60  90 120 160 202 250 306 362
#     4  11  22  40  62  90 121 162 205 255 302 361
#     4  11  23  39  61  88 123 159 204 253 308 360
#     4  10  20  38  62  84 116 160 204 234 294 376
#
# _framework density 22.504089
#
# number of rings (size 3 to 8) (size 9 to 14) (size 15 to 20)
#    0.000    1.333    0.000    8.000    0.000    1.333 
#    0.000    6.667    0.000    0.000    0.000    0.000 
#    0.000    0.000    0.000    0.000    0.000    0.000 
#
# Total GULP energy -133928.720810 kJ/mol
# GULP energy per Si atom -5580.363367 kJ/mol
# Density = 2.245287 g / cm^3
# Si number density = 22.504089 Si / 1000 Ang^3
#
#
#
# Elastic Constant Matrix: (Units=GPa)
#
#
# Indices 1 2 3 4 5 6 
#
# 1 124.1395 33.7505 18.4043 0.0000 0.0000 0.0000
# 2 33.7505 73.2250 8.1223 0.0000 0.0000 0.0000
# 3 18.4043 8.1223 43.9819 0.0000 0.0000 0.0000
# 4 0.0000 0.0000 0.0000 51.3101 0.0000 0.0000
# 5 0.0000 0.0000 0.0000 0.0000 26.0683 0.0000
# 6 0.0000 0.0000 0.0000 0.0000 0.0000 35.9787
#
#
#
# Elastic Compliance Matrix: (Units=1/GPa)
#
#
# Indices 1 2 3 4 5 6 
#
# 1 0.009653 -0.004085 -0.003285 0.000000 0.000000 0.000000
# 2 -0.004085 0.015671 -0.001185 0.000000 0.000000 0.000000
# 3 -0.003285 -0.001185 0.024330 0.000000 0.000000 0.000000
# 4 0.000000 0.000000 0.000000 0.019489 0.000000 0.000000
# 5 0.000000 0.000000 0.000000 0.000000 0.038361 0.000000
# 6 0.000000 0.000000 0.000000 0.000000 0.000000 0.027794
#
#
# Mechanical properties :
#
#
# Convention : Reuss Voigt Hill
#
# Bulk Modulus (GPa) = 30.72687 40.21116 35.46902
# Shear Modulus (GPa) = 30.62690 34.74272 32.68481
#
# Velocity S-wave (km/s) = 3.69311 3.93344 3.81516
# Velocity P-wave (km/s) = 5.64526 6.20777 5.93318
#
# Compressibility (1/GPa) = 0.03254481
#
# Stress axis : x y z
#
# Youngs Moduli (GPa) = 103.59441 63.81333 41.10158
#
# Poissons Ratio (x) = 0.26067 0.13502
# Poissons Ratio (y) = 0.42317 0.04869
# Poissons Ratio (z) = 0.34030 0.07560
#
# Static dielectric constant tensor:
#      x y z
#    x 1.815350 0.000000 0.000000 
#    y 0.000000 1.827790 0.000000 
#    z 0.000000 0.000000 1.961190 
# 
# From -- ./inp_files/2162.got.cif
#   From: 2010.05.17/outbox.cif.g08.bks.cpg/sg26_2_cif.got.tgz:2162.got - 2010.06.04 01:07:29.
