data_PCOD9338249
_publ_section_title
;
Structure prediction by ZEFSAII (Michael W. Deem and Ramdas Pophale) SiO2 
 PCOD9338249
Probable space group: P M C 21
;
_chemical_formula_sum "Si O2"
_cell_formula_units_Z 24
_cell_length_a 7.294916
_cell_length_b 14.833042
_cell_length_c 8.510451
_cell_angle_alpha 90.000000
_cell_angle_beta 90.000000
_cell_angle_gamma 90.000000
_cell_volume 920.880120
_symmetry_space_group_name_H-M "P M C 21"
_symmetry_group_IT_number 26
_symmetry_cell_setting 'orthorhombic'
loop_
_space_group_symop_operation_xyz
x,y,z
-x,-y,1/2+z
-x,y,z
x,-y,1/2+z
loop_
_atom_site_type_symbol
_atom_site_label
_atom_site_fract_x
_atom_site_fract_y
_atom_site_fract_z
Si Si1 0.722311 0.869998 0.213380
Si Si2 0.278497 0.696675 0.384032
Si Si3 0.724077 0.040745 0.389998
Si Si4 0.709254 0.200736 0.189282
Si Si5 0.790099 0.531537 0.186977
Si Si6 0.222936 0.632427 0.879318
O O1 0.500000 0.868354 0.209589
O O2 0.779844 0.768716 0.250892
O O3 0.776109 0.938530 0.352810
O O4 0.784897 0.915069 0.052211
O O5 0.500000 0.691179 0.388238
O O6 0.211962 0.741284 0.546179
O O7 0.213190 0.598129 0.336939
O O8 0.500000 0.042698 0.391484
O O9 0.785946 0.106456 0.249024
O O10 0.500000 0.180936 0.141301
O O11 0.710546 0.268189 0.338131
O O12 0.712757 0.436309 0.242396
O O13 0.000000 0.513555 0.144505
O O14 0.711681 0.588159 0.042085
O O15 0.000000 0.635709 0.880526
#
# Coordination Sequence:
#
# PCOD9338249 Si02
#       6
#     4   4   4   4   4   4
#     4   9  16  27  45  70 101 135 169 206 248 295
#     4  10  20  33  51  77 106 135 169 209 252 297
#     4   9  16  27  45  70 101 135 169 206 248 295
#     4  10  20  33  51  77 106 135 169 209 252 297
#     4  10  21  37  56  76  99 131 170 209 252 304
#     4  10  21  37  56  76  99 131 170 209 252 304
#
# _framework density 26.062025999999999
#
# number of rings (size 3 to 8) (size 9 to 14) (size 15 to 20)
#    0.000    2.333    0.000    3.000    0.000    8.667 
#    0.000    0.000    0.000    1.000    0.000    0.000 
#    0.000    0.000    0.000    0.000    0.000    0.000 
#
# Total GULP energy -134311.340788 kJ/mol
# GULP energy per Si atom -5596.305866 kJ/mol
# Density = 2.600271 g / cm^3
# Si number density = 26.062026 Si / 1000 Ang^3
#
#
#
# Elastic Constant Matrix: (Units=GPa)
#
#
# Indices 1 2 3 4 5 6 
#
# 1 115.7841 -9.8867 -5.3062 0.0000 0.0000 0.0000
# 2 -9.8867 118.1925 -11.3777 0.0000 0.0000 0.0000
# 3 -5.3062 -11.3777 71.3369 0.0000 0.0000 0.0000
# 4 0.0000 0.0000 0.0000 47.1908 0.0000 0.0000
# 5 0.0000 0.0000 0.0000 0.0000 2.0539 0.0000
# 6 0.0000 0.0000 0.0000 0.0000 0.0000 11.0468
#
#
#
# Elastic Compliance Matrix: (Units=1/GPa)
#
#
# Indices 1 2 3 4 5 6 
#
# 1 0.008741 0.000806 0.000779 0.000000 0.000000 0.000000
# 2 0.000806 0.008667 0.001442 0.000000 0.000000 0.000000
# 3 0.000779 0.001442 0.014306 0.000000 0.000000 0.000000
# 4 0.000000 0.000000 0.000000 0.021191 0.000000 0.000000
# 5 0.000000 0.000000 0.000000 0.000000 0.486876 0.000000
# 6 0.000000 0.000000 0.000000 0.000000 0.000000 0.090524
#
#
# Mechanical properties :
#
#
# Convention : Reuss Voigt Hill
#
# Bulk Modulus (GPa) = 26.47691 28.01916 27.24804
# Shear Modulus (GPa) = 7.85126 34.18391 21.01758
#
# Velocity S-wave (km/s) = 1.73755 3.62558 2.84288
# Velocity P-wave (km/s) = 3.76917 5.31984 4.61017
#
# Compressibility (1/GPa) = 0.03776876
#
# Stress axis : x y z
#
# Youngs Moduli (GPa) = 114.39958 115.37957 69.90097
#
# Poissons Ratio (x) = -0.09302 -0.05444
# Poissons Ratio (y) = -0.09223 -0.10082
# Poissons Ratio (z) = -0.08909 -0.16641
#
# Static dielectric constant tensor:
#      x y z
#    x 2.021580 0.000000 0.000000 
#    y 0.000000 1.927090 0.000000 
#    z 0.000000 0.000000 2.086350 
# 
# From -- ./inp_files/1427.got.cif
#   From: 2010.05.17/outbox.cif.g08.bks.cpg/sg26_1_cif.got.tgz:1427.got - 2010.06.04 01:07:29.
