data_PCOD9338816
_publ_section_title
;
Structure prediction by ZEFSAII (Michael W. Deem and Ramdas Pophale) SiO2 
 PCOD9338816
Probable space group: P C C 2
;
_chemical_formula_sum "Si O2"
_cell_formula_units_Z 28
_cell_length_a 15.576227
_cell_length_b 8.898857
_cell_length_c 8.987867
_cell_angle_alpha 90.000000
_cell_angle_beta 90.000000
_cell_angle_gamma 90.000000
_cell_volume 1245.813787
_symmetry_space_group_name_H-M "P C C 2"
_symmetry_group_IT_number 27
_symmetry_cell_setting 'orthorhombic'
loop_
_space_group_symop_operation_xyz
x,y,z
-x,-y,z
-x,y,1/2+z
x,-y,1/2+z
loop_
_atom_site_type_symbol
_atom_site_label
_atom_site_fract_x
_atom_site_fract_y
_atom_site_fract_z
Si Si1 0.131324 0.311922 0.471870
Si Si2 0.735274 0.936743 0.458387
Si Si3 0.774781 0.509861 0.212331
Si Si4 0.628342 0.941490 0.197377
Si Si5 0.500000 0.000000 0.965217
Si Si6 0.060118 0.788709 0.463581
Si Si7 0.249512 0.297275 0.953443
Si Si8 0.000000 0.000000 0.714811
O O1 0.175947 0.148197 0.490229
O O2 0.170905 0.388357 0.325429
O O3 0.162912 0.407479 0.612192
O O4 0.029442 0.299571 0.461275
O O5 0.709574 0.879964 0.292469
O O6 0.671475 0.920395 0.602301
O O7 0.735053 0.119414 0.451114
O O8 0.721048 0.393048 0.312423
O O9 0.720750 0.613622 0.099700
O O10 0.571539 0.954325 0.346352
O O11 0.554815 0.891774 0.077183
O O12 0.145666 0.693570 0.459328
O O13 0.054872 0.890523 0.610901
O O14 0.057883 0.898354 0.321613
#
# Coordination Sequence:
#
# PCOD9338816 Si02
#       8
#     4   4   4   4   2   4   4   2
#     4  11  23  38  55  78 112 149 198 242 285 333
#     4  11  20  34  58  87 114 146 188 231 270 334
#     4  10  24  39  52  74 110 151 194 246 296 331
#     4   9  18  31  56  86 120 146 172 217 278 327
#     4   8  16  34  52  84 128 146 160 212 284 336
#     4  11  22  35  54  74 106 152 194 246 294 326
#     4  11  23  38  55  78 112 149 198 242 285 333
#     4  10  20  32  48  78 100 122 176 238 308 340
#
# _framework density 22.475269000000001
#
# number of rings (size 3 to 8) (size 9 to 14) (size 15 to 20)
#    0.000    1.714    0.000    5.143    0.000    5.714 
#    0.000    0.000    0.000    0.000    0.000    0.000 
#    0.000 1056.000    0.000    0.000    0.000    0.000 
#
# Total GULP energy -155913.852595 kJ/mol
# GULP energy per Si atom -5568.351878 kJ/mol
# Density = 2.242411 g / cm^3
# Si number density = 22.475269 Si / 1000 Ang^3
#
#
#
# Elastic Constant Matrix: (Units=GPa)
#
#
# Indices 1 2 3 4 5 6 
#
# 1 46.5842 13.2678 6.7535 0.0000 0.0000 0.0000
# 2 13.2678 112.1731 43.5689 0.0000 0.0000 0.0000
# 3 6.7535 43.5689 155.9676 0.0000 0.0000 0.0000
# 4 0.0000 0.0000 0.0000 34.0839 0.0000 0.0000
# 5 0.0000 0.0000 0.0000 0.0000 13.1105 0.0000
# 6 0.0000 0.0000 0.0000 0.0000 0.0000 -0.0838
#
#
#
# Elastic Compliance Matrix: (Units=1/GPa)
#
#
# Indices 1 2 3 4 5 6 
#
# 1 0.022224 -0.002529 -0.000256 0.000000 0.000000 0.000000
# 2 -0.002529 0.010288 -0.002764 0.000000 0.000000 0.000000
# 3 -0.000256 -0.002764 0.007195 0.000000 0.000000 0.000000
# 4 0.000000 0.000000 0.000000 0.029339 0.000000 0.000000
# 5 0.000000 0.000000 0.000000 0.000000 0.076275 0.000000
# 6 0.000000 0.000000 0.000000 0.000000 0.000000-11.937887
#
#
# Mechanical properties :
#
#
# Convention : Reuss Voigt Hill
#
# Bulk Modulus (GPa) = 34.95557 49.10061 42.02809
# Shear Modulus (GPa) = -0.42474 26.16444 12.86985
#
# Velocity S-wave (km/s) = -0.43519 3.41566 2.39555
# Velocity P-wave (km/s) = 3.91588 6.11960 5.13730
#
# Compressibility (1/GPa) = 0.02860774
#
# Stress axis : x y z
#
# Youngs Moduli (GPa) = 44.99643 97.20415 138.98819
#
# Poissons Ratio (x) = 0.24586 0.03555
# Poissons Ratio (y) = 0.11381 0.38420
# Poissons Ratio (z) = 0.01151 0.26870
#
# Static dielectric constant tensor:
#      x y z
#    x 1.999040 0.000000 0.000000 
#    y 0.000000 1.915560 0.000000 
#    z 0.000000 0.000000 1.913160 
# 
# From -- ./inp_files/1701.got.cif
#   From: 2010.05.17/outbox.cif.g08.bks.cpg/sg27_1_cif.got.tgz:1701.got - 2010.06.04 01:11:05.
