data_PCOD9338672
_publ_section_title
;
Structure prediction by ZEFSAII (Michael W. Deem and Ramdas Pophale) SiO2 
 PCOD9338672
Probable space group: P M C 21
;
_chemical_formula_sum "Si O2"
_cell_formula_units_Z 32
_cell_length_a 7.283090
_cell_length_b 19.501386
_cell_length_c 8.023039
_cell_angle_alpha 90.000000
_cell_angle_beta 90.000000
_cell_angle_gamma 90.000000
_cell_volume 1139.515032
_symmetry_space_group_name_H-M "P M C 21"
_symmetry_group_IT_number 26
_symmetry_cell_setting 'orthorhombic'
loop_
_space_group_symop_operation_xyz
x,y,z
-x,-y,1/2+z
-x,y,z
x,-y,1/2+z
loop_
_atom_site_type_symbol
_atom_site_label
_atom_site_fract_x
_atom_site_fract_y
_atom_site_fract_z
Si Si1 0.724323 0.891715 0.327750
Si Si2 0.780563 0.605271 0.410344
Si Si3 0.722955 0.761018 0.155375
Si Si4 0.279005 0.639965 0.938558
Si Si5 0.722587 0.148881 0.329465
Si Si6 0.718338 0.270695 0.117453
Si Si7 0.276535 0.020989 0.145641
Si Si8 0.786136 0.517532 0.720464
O O1 0.500000 0.887784 0.333988
O O2 0.785583 0.813641 0.299416
O O3 0.782536 0.935772 0.486302
O O4 0.777679 0.943021 0.177654
O O5 0.747806 0.685033 0.449951
O O6 0.708314 0.557737 0.260329
O O7 0.000000 0.599571 0.405881
O O8 0.706971 0.564530 0.574270
O O9 0.500000 0.755961 0.168048
O O10 0.787159 0.685131 0.096667
O O11 0.769264 0.808088 0.992840
O O12 0.500000 0.641375 0.941216
O O13 0.223771 0.562940 0.890724
O O14 0.217511 0.682176 0.772932
O O15 0.500000 0.146485 0.332210
O O16 0.782236 0.195480 0.171023
O O17 0.778359 0.071012 0.298210
O O18 0.500000 0.265809 0.126831
O O19 0.500000 0.018536 0.138527
O O20 0.000000 0.509601 0.682013
#
# Coordination Sequence:
#
# PCOD9338672 Si02
#       8
#     4   4   4   4   4   4   4   4
#     4   9  15  21  30  46  70 100 131 160 190 227
#     4   9  17  29  44  61  81 105 133 165 200 238
#     4   8  13  22  35  49  67  94 127 160 193 229
#     4   8  14  25  41  59  79 105 135 165 199 240
#     4   8  13  22  35  49  67  94 127 160 193 229
#     4   8  14  25  41  59  79 105 135 165 199 240
#     4   9  15  21  30  46  70 100 131 160 190 227
#     4   9  17  29  44  61  81 105 133 165 200 238
#
# _framework density 28.082121000000001
#
# number of rings (size 3 to 8) (size 9 to 14) (size 15 to 20)
#    0.000    3.500    0.000    2.250    0.000    3.500 
#    0.000    1.250    0.000    1.500    0.000    0.000 
#    0.000    1.000    0.000    1.750    0.000    2.500 
#
# Total GULP energy -178767.195708 kJ/mol
# GULP energy per Si atom -5586.474866 kJ/mol
# Density = 2.801820 g / cm^3
# Si number density = 28.082121 Si / 1000 Ang^3
#
#
#
# Elastic Constant Matrix: (Units=GPa)
#
#
# Indices 1 2 3 4 5 6 
#
# 1 124.6632 -4.7485 -6.4609 0.0000 0.0000 0.0000
# 2 -4.7485 234.8758 12.7228 0.0000 0.0000 0.0000
# 3 -6.4609 12.7228 77.9157 0.0000 0.0000 0.0000
# 4 0.0000 0.0000 0.0000 49.5372 0.0000 0.0000
# 5 0.0000 0.0000 0.0000 0.0000 -7.4046 0.0000
# 6 0.0000 0.0000 0.0000 0.0000 0.0000 19.3864
#
#
#
# Elastic Compliance Matrix: (Units=1/GPa)
#
#
# Indices 1 2 3 4 5 6 
#
# 1 0.008060 0.000128 0.000647 0.000000 0.000000 0.000000
# 2 0.000128 0.004298 -0.000691 0.000000 0.000000 0.000000
# 3 0.000647 -0.000691 0.013001 0.000000 0.000000 0.000000
# 4 0.000000 0.000000 0.000000 0.020187 0.000000 0.000000
# 5 0.000000 0.000000 0.000000 0.000000 -0.135051 0.000000
# 6 0.000000 0.000000 0.000000 0.000000 0.000000 0.051582
#
#
# Mechanical properties :
#
#
# Convention : Reuss Voigt Hill
#
# Bulk Modulus (GPa) = 39.17423 48.94237 44.05830
# Shear Modulus (GPa) = -169.01647 41.36655 -63.82496
#
# Velocity S-wave (km/s) = -7.76641 3.84221 -4.77256
# Velocity P-wave (km/s) = 8.15124 6.09504 3.82709
#
# Compressibility (1/GPa) = 0.02552699
#
# Stress axis : x y z
#
# Youngs Moduli (GPa) = 124.06880 232.68842 76.91753
#
# Poissons Ratio (x) = -0.02976 -0.04980
# Poissons Ratio (y) = -0.01587 0.05316
# Poissons Ratio (z) = -0.08033 0.16082
#
# Static dielectric constant tensor:
#      x y z
#    x 2.081770 0.000000 0.000000 
#    y 0.000000 2.150620 0.000000 
#    z 0.000000 0.000000 2.319110 
# 
# From -- ./inp_files/2008.got.cif
#   From: 2010.05.17/outbox.cif.g08.bks.cpg/sg26_2_cif.got.tgz:2008.got - 2010.06.04 01:07:29.
