data_PCOD9338233
_publ_section_title
;
Structure prediction by ZEFSAII (Michael W. Deem and Ramdas Pophale) SiO2 
 PCOD9338233
Probable space group: P M C 21
;
_chemical_formula_sum "Si O2"
_cell_formula_units_Z 24
_cell_length_a 8.333684
_cell_length_b 13.942805
_cell_length_c 10.322045
_cell_angle_alpha 90.000000
_cell_angle_beta 90.000000
_cell_angle_gamma 90.000000
_cell_volume 1199.369306
_symmetry_space_group_name_H-M "P M C 21"
_symmetry_group_IT_number 26
_symmetry_cell_setting 'orthorhombic'
loop_
_space_group_symop_operation_xyz
x,y,z
-x,-y,1/2+z
-x,y,z
x,-y,1/2+z
loop_
_atom_site_type_symbol
_atom_site_label
_atom_site_fract_x
_atom_site_fract_y
_atom_site_fract_z
Si Si1 0.305372 0.646092 0.353610
Si Si2 0.693096 0.574547 0.850604
Si Si3 0.809346 0.073161 0.200442
Si Si4 0.304087 0.280655 0.573620
Si Si5 0.191550 0.713191 0.629239
Si Si6 0.309309 0.070115 0.482637
O O1 0.500000 0.647077 0.356768
O O2 0.250871 0.535073 0.354408
O O3 0.253430 0.695202 0.219497
O O4 0.243339 0.697865 0.481616
O O5 0.500000 0.571712 0.856818
O O6 0.739749 0.629490 0.719880
O O7 0.750127 0.638062 0.972333
O O8 0.752568 0.182988 0.180623
O O9 0.769611 0.042822 0.346504
O O10 0.000000 0.070639 0.180146
O O11 0.729382 0.004529 0.095396
O O12 0.500000 0.281164 0.572975
O O13 0.252008 0.176005 0.525880
O O14 0.000000 0.710330 0.638605
O O15 0.500000 0.074691 0.462686
#
# Coordination Sequence:
#
# PCOD9338233 Si02
#       6
#     4   4   4   4   4   4
#     4  10  21  37  62  92 122 159 202 250 299 351
#     4  10  19  38  65  89 119 159 203 252 301 351
#     4  11  25  44  63  89 126 165 201 248 312 375
#     4   9  19  36  59  91 121 150 197 251 300 350
#     4  11  24  40  59  88 126 165 200 242 300 363
#     4  11  23  41  66  93 120 158 207 259 304 358
#
# _framework density 20.010515999999999
#
# number of rings (size 3 to 8) (size 9 to 14) (size 15 to 20)
#    0.000    1.667    1.667    2.500    2.333    5.333 
#    0.000    1.667    0.000    0.000    0.000    0.000 
#    0.000    0.000    0.000    0.000    0.000    0.000 
#
# Total GULP energy -134167.624993 kJ/mol
# GULP energy per Si atom -5590.317708 kJ/mol
# Density = 1.996497 g / cm^3
# Si number density = 20.010516 Si / 1000 Ang^3
#
#
#
# Elastic Constant Matrix: (Units=GPa)
#
#
# Indices 1 2 3 4 5 6 
#
# 1 4.7173 -1.4217 -13.4922 0.0000 0.0000 0.0000
# 2 -1.4217 54.8223 11.1834 0.0000 0.0000 0.0000
# 3 -13.4922 11.1834 120.8749 0.0000 0.0000 0.0000
# 4 0.0000 0.0000 0.0000 40.4124 0.0000 0.0000
# 5 0.0000 0.0000 0.0000 0.0000 1.5935 0.0000
# 6 0.0000 0.0000 0.0000 0.0000 0.0000 13.0747
#
#
#
# Elastic Compliance Matrix: (Units=1/GPa)
#
#
# Indices 1 2 3 4 5 6 
#
# 1 0.311458 0.001004 0.034672 0.000000 0.000000 0.000000
# 2 0.001004 0.018595 -0.001608 0.000000 0.000000 0.000000
# 3 0.034672 -0.001608 0.012292 0.000000 0.000000 0.000000
# 4 0.000000 0.000000 0.000000 0.024745 0.000000 0.000000
# 5 0.000000 0.000000 0.000000 0.000000 0.627562 0.000000
# 6 0.000000 0.000000 0.000000 0.000000 0.000000 0.076484
#
#
# Mechanical properties :
#
#
# Convention : Reuss Voigt Hill
#
# Bulk Modulus (GPa) = 2.43617 19.21705 10.82661
# Shear Modulus (GPa) = 4.38663 23.29245 13.83954
#
# Velocity S-wave (km/s) = 1.48220 3.41546 2.63271
# Velocity P-wave (km/s) = 2.03699 5.01778 3.82933
#
# Compressibility (1/GPa) = 0.41048101
#
# Stress axis : x y z
#
# Youngs Moduli (GPa) = 3.21071 53.77822 81.35378
#
# Poissons Ratio (x) = -0.05399 -2.82073
# Poissons Ratio (y) = -0.00322 0.13084
# Poissons Ratio (z) = -0.11132 0.08649
#
# Static dielectric constant tensor:
#      x y z
#    x 1.698780 0.000000 0.000000 
#    y 0.000000 1.694770 0.000000 
#    z 0.000000 0.000000 1.664260 
# 
# From -- ./inp_files/1423.got.cif
#   From: 2010.05.17/outbox.cif.g08.bks.cpg/sg26_1_cif.got.tgz:1423.got - 2010.06.04 01:07:29.
