data_PCOD9338645
_publ_section_title
;
Structure prediction by ZEFSAII (Michael W. Deem and Ramdas Pophale) SiO2 
 PCOD9338645
Probable space group: P M C 21
;
_chemical_formula_sum "Si O2"
_cell_formula_units_Z 16
_cell_length_a 12.871634
_cell_length_b 5.723210
_cell_length_c 9.315221
_cell_angle_alpha 90.000000
_cell_angle_beta 90.000000
_cell_angle_gamma 90.000000
_cell_volume 686.224986
_symmetry_space_group_name_H-M "P M C 21"
_symmetry_group_IT_number 26
_symmetry_cell_setting 'orthorhombic'
loop_
_space_group_symop_operation_xyz
x,y,z
-x,-y,1/2+z
-x,y,z
x,-y,1/2+z
loop_
_atom_site_type_symbol
_atom_site_label
_atom_site_fract_x
_atom_site_fract_y
_atom_site_fract_z
Si Si1 0.500000 0.782349 0.800900
Si Si2 0.000000 0.911844 0.873596
Si Si3 0.500000 0.412449 0.585420
Si Si4 0.678390 0.906493 0.223094
Si Si5 0.184908 0.159804 0.987841
Si Si6 0.000000 0.408856 0.894352
O O1 0.500000 0.670924 0.645261
O O2 0.399069 0.936043 0.817002
O O3 0.500000 0.578523 0.915216
O O4 0.106233 0.942096 0.961978
O O5 0.000000 0.653124 0.813684
O O6 0.000000 0.169088 0.797098
O O7 0.397580 0.272567 0.639561
O O8 0.752293 0.792434 0.341385
O O9 0.742222 0.079545 0.117658
O O10 0.102096 0.371327 0.993865
#
# Coordination Sequence:
#
# PCOD9338645 Si02
#       6
#     2   2   2   4   4   2
#     4  11  26  40  65  97 133 171 221 281 336 405
#     4   8  20  40  64 100 134 172 226 276 338 402
#     4  11  26  40  65  97 133 171 221 281 336 405
#     4  11  22  45  62  92 130 173 228 269 340 400
#     4   9  22  37  68  92 126 177 220 283 330 404
#     4   8  20  40  68  92 138 168 232 274 342 390
#
# _framework density 23.315967000000001
#
# number of rings (size 3 to 8) (size 9 to 14) (size 15 to 20)
#    1.500    0.500    2.500    0.000    3.500    8.000 
#    0.000    2.500    0.000    0.000    0.000    0.000 
#    0.000    0.000    0.000    0.000    0.000    0.000 
#
# Total GULP energy -89094.247730 kJ/mol
# GULP energy per Si atom -5568.390483 kJ/mol
# Density = 2.326290 g / cm^3
# Si number density = 23.315967 Si / 1000 Ang^3
#
#
#
# Elastic Constant Matrix: (Units=GPa)
#
#
# Indices 1 2 3 4 5 6 
#
# 1 126.7828 -4.0407 23.1071 0.0000 0.0000 0.0000
# 2 -4.0407 99.6634 -18.3954 0.0000 0.0000 0.0000
# 3 23.1071 -18.3954 49.8420 0.0000 0.0000 0.0000
# 4 0.0000 0.0000 0.0000 18.7086 0.0000 0.0000
# 5 0.0000 0.0000 0.0000 0.0000 -79.7060 0.0000
# 6 0.0000 0.0000 0.0000 0.0000 0.0000 -16.7234
#
#
#
# Elastic Compliance Matrix: (Units=1/GPa)
#
#
# Indices 1 2 3 4 5 6 
#
# 1 0.008632 -0.000417 -0.004156 0.000000 0.000000 0.000000
# 2 -0.000417 0.010787 0.004175 0.000000 0.000000 0.000000
# 3 -0.004156 0.004175 0.023531 0.000000 0.000000 0.000000
# 4 0.000000 0.000000 0.000000 0.053451 0.000000 0.000000
# 5 0.000000 0.000000 0.000000 0.000000 -0.012546 0.000000
# 6 0.000000 0.000000 0.000000 0.000000 0.000000 -0.059796
#
#
# Mechanical properties :
#
#
# Convention : Reuss Voigt Hill
#
# Bulk Modulus (GPa) = 23.72264 30.84780 27.28522
# Shear Modulus (GPa) = 128.51576 2.83031 65.67303
#
# Velocity S-wave (km/s) = 7.43229 1.10296 5.31297
# Velocity P-wave (km/s) = 9.15687 3.85760 7.02600
#
# Compressibility (1/GPa) = 0.04215383
#
# Stress axis : x y z
#
# Youngs Moduli (GPa) = 115.85335 92.70065 42.49763
#
# Poissons Ratio (x) = 0.03866 0.17660
# Poissons Ratio (y) = 0.04832 -0.17741
# Poissons Ratio (z) = 0.48144 -0.38700
#
# Static dielectric constant tensor:
#      x y z
#    x 1.925460 0.000000 0.000000 
#    y 0.000000 1.858950 0.000000 
#    z 0.000000 0.000000 1.842270 
# 
# From -- ./inp_files/2040.got.cif
#   From: 2010.05.17/outbox.cif.g08.bks.cpg/sg26_2_cif.got.tgz:2040.got - 2010.06.04 01:07:29.
