data_PCOD9338304
_publ_section_title
;
Structure prediction by ZEFSAII (Michael W. Deem and Ramdas Pophale) SiO2 
 PCOD9338304
Probable space group: P M C 21
;
_chemical_formula_sum "Si O2"
_cell_formula_units_Z 32
_cell_length_a 14.176744
_cell_length_b 14.084346
_cell_length_c 10.199686
_cell_angle_alpha 90.000000
_cell_angle_beta 90.000000
_cell_angle_gamma 90.000000
_cell_volume 2036.573014
_symmetry_space_group_name_H-M "P M C 21"
_symmetry_group_IT_number 26
_symmetry_cell_setting 'orthorhombic'
loop_
_space_group_symop_operation_xyz
x,y,z
-x,-y,1/2+z
-x,y,z
x,-y,1/2+z
loop_
_atom_site_type_symbol
_atom_site_label
_atom_site_fract_x
_atom_site_fract_y
_atom_site_fract_z
Si Si1 0.614042 0.926496 0.676320
Si Si2 0.108400 0.452337 0.566088
Si Si3 0.612747 0.572089 0.525156
Si Si4 0.702472 0.363345 0.523713
Si Si5 0.108936 0.388260 0.855336
Si Si6 0.613914 0.715372 0.760985
Si Si7 0.614378 0.088016 0.878566
Si Si8 0.299943 0.291379 0.812067
O O1 0.500000 0.925510 0.683333
O O2 0.644323 0.820645 0.717161
O O3 0.638648 0.944476 0.525535
O O4 0.645158 0.009111 0.774013
O O5 0.185128 0.378232 0.514333
O O6 0.120885 0.454004 0.724205
O O7 0.124240 0.549527 0.486123
O O8 0.000000 0.424798 0.541013
O O9 0.500000 0.561461 0.521701
O O10 0.659726 0.469345 0.533898
O O11 0.637982 0.638157 0.649469
O O12 0.646930 0.627998 0.396511
O O13 0.659275 0.313229 0.398013
O O14 0.682107 0.309184 0.658716
O O15 0.189103 0.308887 0.841563
O O16 0.000000 0.355167 0.854738
O O17 0.500000 0.715005 0.773314
O O18 0.500000 0.099400 0.871506
O O19 0.661554 0.189285 0.852583
#
# Coordination Sequence:
#
# PCOD9338304 Si02
#       8
#     4   4   4   4   4   4   4   4
#     4   9  19  35  53  72  97 130 167 213 258 293
#     4   9  18  32  49  70  98 131 171 214 250 287
#     4  11  21  34  47  66 105 144 172 202 241 290
#     4  11  22  31  48  75 102 138 175 200 242 303
#     4   9  18  33  52  74 100 132 170 213 257 298
#     4  10  21  35  49  70 103 137 169 208 249 292
#     4  10  20  35  54  75  99 129 169 216 260 300
#     4  11  21  33  51  76 102 133 172 210 254 305
#
# _framework density 15.712671
#
# number of rings (size 3 to 8) (size 9 to 14) (size 15 to 20)
#    0.000    2.000    2.500    1.500    3.500    3.000 
#    0.000    0.000    0.000    0.000    0.000    1.750 
#    0.000    0.000    0.000    0.000    0.000    0.000 
#
# Total GULP energy -178451.465402 kJ/mol
# GULP energy per Si atom -5576.608294 kJ/mol
# Density = 1.567691 g / cm^3
# Si number density = 15.712671 Si / 1000 Ang^3
#
#
#
# Elastic Constant Matrix: (Units=GPa)
#
#
# Indices 1 2 3 4 5 6 
#
# 1 47.1488 22.5051 34.6792 0.0000 0.0000 0.0000
# 2 22.5051 79.3545 48.2784 0.0000 0.0000 0.0000
# 3 34.6792 48.2784 104.3339 0.0000 0.0000 0.0000
# 4 0.0000 0.0000 0.0000 27.5838 0.0000 0.0000
# 5 0.0000 0.0000 0.0000 0.0000 20.2550 0.0000
# 6 0.0000 0.0000 0.0000 0.0000 0.0000 12.7629
#
#
#
# Elastic Compliance Matrix: (Units=1/GPa)
#
#
# Indices 1 2 3 4 5 6 
#
# 1 0.028661 -0.003246 -0.008024 0.000000 0.000000 0.000000
# 2 -0.003246 0.017907 -0.007207 0.000000 0.000000 0.000000
# 3 -0.008024 -0.007207 0.015587 0.000000 0.000000 0.000000
# 4 0.000000 0.000000 0.000000 0.036253 0.000000 0.000000
# 5 0.000000 0.000000 0.000000 0.000000 0.049371 0.000000
# 6 0.000000 0.000000 0.000000 0.000000 0.000000 0.078352
#
#
# Mechanical properties :
#
#
# Convention : Reuss Voigt Hill
#
# Bulk Modulus (GPa) = 39.68375 49.08473 44.38424
# Shear Modulus (GPa) = 18.41714 20.47864 19.44789
#
# Velocity S-wave (km/s) = 3.42734 3.61407 3.52194
# Velocity P-wave (km/s) = 6.40101 6.98012 6.69683
#
# Compressibility (1/GPa) = 0.02519923
#
# Stress axis : x y z
#
# Youngs Moduli (GPa) = 34.89039 55.84386 64.15709
#
# Poissons Ratio (x) = 0.18129 0.51482
# Poissons Ratio (y) = 0.11327 0.46238
# Poissons Ratio (z) = 0.27997 0.40247
#
# Static dielectric constant tensor:
#      x y z
#    x 1.530500 0.000000 0.000000 
#    y 0.000000 1.494110 0.000000 
#    z 0.000000 0.000000 1.538380 
# 
# From -- ./inp_files/2238.got.cif
#   From: 2010.05.17/outbox.cif.g08.bks.cpg/sg26_2_cif.got.tgz:2238.got - 2010.06.04 01:07:29.
