data_PCOD9338073
_publ_section_title
;
Structure prediction by ZEFSAII (Michael W. Deem and Ramdas Pophale) SiO2 
 PCOD9338073
Probable space group: P M C 21
;
_chemical_formula_sum "Si O2"
_cell_formula_units_Z 20
_cell_length_a 10.527335
_cell_length_b 20.287143
_cell_length_c 5.070269
_cell_angle_alpha 90.000000
_cell_angle_beta 90.000000
_cell_angle_gamma 90.000000
_cell_volume 1082.855072
_symmetry_space_group_name_H-M "P M C 21"
_symmetry_group_IT_number 26
_symmetry_cell_setting 'orthorhombic'
loop_
_space_group_symop_operation_xyz
x,y,z
-x,-y,1/2+z
-x,y,z
x,-y,1/2+z
loop_
_atom_site_type_symbol
_atom_site_label
_atom_site_fract_x
_atom_site_fract_y
_atom_site_fract_z
Si Si1 0.000000 0.952541 0.696511
Si Si2 0.138197 0.861870 0.037973
Si Si3 0.000000 0.738008 0.908000
Si Si4 0.647827 0.046877 0.741430
Si Si5 0.500000 0.543459 0.532528
Si Si6 0.224947 0.547148 0.426674
Si Si7 0.000000 0.649623 0.409391
O O1 0.882454 0.904943 0.771241
O O2 0.000000 0.993063 0.431136
O O3 0.122452 0.785478 0.960943
O O4 0.255758 0.892946 0.188613
O O5 0.000000 0.871739 0.182296
O O6 0.000000 0.679351 0.117006
O O7 0.000000 0.709219 0.616613
O O8 0.500000 0.068276 0.729819
O O9 0.667727 0.007251 0.011375
O O10 0.500000 0.520434 0.836264
O O11 0.366694 0.576360 0.463006
O O12 0.211715 0.508984 0.150524
O O13 0.121096 0.603161 0.452764
#
# Coordination Sequence:
#
# PCOD9338073 Si02
#       7
#     2   4   2   4   2   4   2
#     4   9  16  25  44  71  90 113 150 200 242 283
#     4   8  20  34  52  69 102 131 176 199 251 299
#     4   9  24  35  50  73  96 149 172 216 238 293
#     4  10  20  33  53  81 105 127 161 215 273 312
#     4   8  16  30  48  76 108 128 154 190 246 310
#     4  10  19  32  55  82 105 133 162 209 268 306
#     4  12  20  36  54  72 112 126 182 210 250 296
#
# _framework density 18.46969
#
# number of rings (size 3 to 8) (size 9 to 14) (size 15 to 20)
#    1.200    1.200    0.000    3.000    0.000    4.800 
#    0.000    0.000    4.400    0.000    0.000    0.000 
#    0.000    0.000    0.000    0.000    0.000    0.000 
#
# Total GULP energy -111362.697300 kJ/mol
# GULP energy per Si atom -5568.134865 kJ/mol
# Density = 1.842765 g / cm^3
# Si number density = 18.469690 Si / 1000 Ang^3
#
#
#
# Elastic Constant Matrix: (Units=GPa)
#
#
# Indices 1 2 3 4 5 6 
#
# 1 119.5687 34.5196 -2.3426 0.0000 0.0000 0.0000
# 2 34.5196 48.5503 -3.7236 0.0000 0.0000 0.0000
# 3 -2.3426 -3.7236 72.2674 0.0000 0.0000 0.0000
# 4 0.0000 0.0000 0.0000 21.6604 0.0000 0.0000
# 5 0.0000 0.0000 0.0000 0.0000 17.5075 0.0000
# 6 0.0000 0.0000 0.0000 0.0000 0.0000 -51.0670
#
#
#
# Elastic Compliance Matrix: (Units=1/GPa)
#
#
# Indices 1 2 3 4 5 6 
#
# 1 0.010524 -0.007486 -0.000045 0.000000 0.000000 0.000000
# 2 -0.007486 0.026004 0.001097 0.000000 0.000000 0.000000
# 3 -0.000045 0.001097 0.013893 0.000000 0.000000 0.000000
# 4 0.000000 0.000000 0.000000 0.046167 0.000000 0.000000
# 5 0.000000 0.000000 0.000000 0.000000 0.057119 0.000000
# 6 0.000000 0.000000 0.000000 0.000000 0.000000 -0.019582
#
#
# Mechanical properties :
#
#
# Convention : Reuss Voigt Hill
#
# Bulk Modulus (GPa) = 26.62857 33.03258 29.83058
# Shear Modulus (GPa) = 31.34638 11.74904 21.54771
#
# Velocity S-wave (km/s) = 4.12415 2.52489 3.41933
# Velocity P-wave (km/s) = 6.09319 5.14039 5.63696
#
# Compressibility (1/GPa) = 0.03755365
#
# Stress axis : x y z
#
# Youngs Moduli (GPa) = 95.02373 38.45586 71.98089
#
# Poissons Ratio (x) = 0.28787 0.00321
# Poissons Ratio (y) = 0.71133 -0.07898
# Poissons Ratio (z) = 0.00424 -0.04219
#
# Static dielectric constant tensor:
#      x y z
#    x 1.703050 0.000000 0.000000 
#    y 0.000000 1.613800 0.000000 
#    z 0.000000 0.000000 1.679250 
# 
# From -- ./inp_files/368.got.cif
#   From: 2010.05.17/outbox.cif.g08.bks.cpg/sg26_1_cif.got.tgz:368.got - 2010.06.04 01:07:29.
