data_PCOD9338095
_publ_section_title
;
Structure prediction by ZEFSAII (Michael W. Deem and Ramdas Pophale) SiO2 
 PCOD9338095
Probable space group: P M C 21
;
_chemical_formula_sum "Si O2"
_cell_formula_units_Z 32
_cell_length_a 11.445711
_cell_length_b 9.796217
_cell_length_c 14.315126
_cell_angle_alpha 90.000000
_cell_angle_beta 90.000000
_cell_angle_gamma 90.000000
_cell_volume 1605.078760
_symmetry_space_group_name_H-M "P M C 21"
_symmetry_group_IT_number 26
_symmetry_cell_setting 'orthorhombic'
loop_
_space_group_symop_operation_xyz
x,y,z
-x,-y,1/2+z
-x,y,z
x,-y,1/2+z
loop_
_atom_site_type_symbol
_atom_site_label
_atom_site_fract_x
_atom_site_fract_y
_atom_site_fract_z
Si Si1 0.138202 0.061485 0.880920
Si Si2 0.677658 0.439925 0.469576
Si Si3 0.631131 0.335833 0.275850
Si Si4 0.367095 0.894487 0.653013
Si Si5 0.363191 0.760874 0.451943
Si Si6 0.633573 0.392245 0.685106
Si Si7 0.128512 0.225065 0.477765
Si Si8 0.797800 0.139821 0.678000
O O1 0.249652 0.156558 0.912663
O O2 0.138682 0.080395 0.768751
O O3 0.000000 0.089908 0.911440
O O4 0.168533 0.910427 0.921144
O O5 0.621937 0.353901 0.385540
O O6 0.661958 0.598809 0.445252
O O7 0.630955 0.414205 0.573501
O O8 0.803177 0.367159 0.469164
O O9 0.500000 0.333614 0.234946
O O10 0.682399 0.196067 0.238148
O O11 0.685283 0.471758 0.232469
O O12 0.500000 0.939490 0.672587
O O13 0.365924 0.801835 0.561072
O O14 0.288293 0.024547 0.639120
O O15 0.500000 0.787871 0.418541
O O16 0.500000 0.371053 0.717820
O O17 0.715675 0.266003 0.707744
O O18 0.130441 0.187088 0.587732
O O19 0.000000 0.250186 0.442355
#
# Coordination Sequence:
#
# PCOD9338095 Si02
#       8
#     4   4   4   4   4   4   4   4
#     4  11  24  43  66  93 123 166 213 257 311 375
#     4  11  21  36  61  86 121 164 205 252 310 368
#     4  10  19  33  54  83 118 157 196 242 300 364
#     4  10  20  35  56  86 127 162 201 254 311 366
#     4  11  22  40  63  94 130 165 205 257 312 370
#     4  10  20  34  54  85 122 160 201 247 305 366
#     4  10  23  42  61  85 119 162 210 261 309 362
#     4  11  21  37  61  86 118 160 206 254 308 365
#
# _framework density 19.936717999999999
#
# number of rings (size 3 to 8) (size 9 to 14) (size 15 to 20)
#    0.000    1.500    2.500    3.375    0.000    2.500 
#    0.000    1.250    0.000    0.750    0.000    0.000 
#    0.000    0.000    0.000    0.000    0.000    0.000 
#
# Total GULP energy -178197.519607 kJ/mol
# GULP energy per Si atom -5568.672488 kJ/mol
# Density = 1.989134 g / cm^3
# Si number density = 19.936718 Si / 1000 Ang^3
#
#
#
# Elastic Constant Matrix: (Units=GPa)
#
#
# Indices 1 2 3 4 5 6 
#
# 1 97.7222 44.2873 10.8848 0.0000 0.0000 0.0000
# 2 44.2873 42.5673 -24.9808 0.0000 0.0000 0.0000
# 3 10.8848 -24.9808 64.0609 0.0000 0.0000 0.0000
# 4 0.0000 0.0000 0.0000 25.3235 0.0000 0.0000
# 5 0.0000 0.0000 0.0000 0.0000 -162.1217 0.0000
# 6 0.0000 0.0000 0.0000 0.0000 0.0000 11.5382
#
#
#
# Elastic Compliance Matrix: (Units=1/GPa)
#
#
# Indices 1 2 3 4 5 6 
#
# 1 0.041459 -0.061296 -0.030947 0.000000 0.000000 0.000000
# 2 -0.061296 0.121087 0.057633 0.000000 0.000000 0.000000
# 3 -0.030947 0.057633 0.043343 0.000000 0.000000 0.000000
# 4 0.000000 0.000000 0.000000 0.039489 0.000000 0.000000
# 5 0.000000 0.000000 0.000000 0.000000 -0.006168 0.000000
# 6 0.000000 0.000000 0.000000 0.000000 0.000000 0.086668
#
#
# Mechanical properties :
#
#
# Convention : Reuss Voigt Hill
#
# Bulk Modulus (GPa) = 7.31687 29.41477 18.36582
# Shear Modulus (GPa) = 11.34678 -13.44139 -1.04731
#
# Velocity S-wave (km/s) = 2.38825 -2.59936 -0.72557
# Velocity P-wave (km/s) = 3.35902 2.40358 2.92064
#
# Compressibility (1/GPa) = 0.13667040
#
# Stress axis : x y z
#
# Youngs Moduli (GPa) = 24.12015 8.25852 23.07186
#
# Poissons Ratio (x) = 0.50621 0.71400
# Poissons Ratio (y) = 1.47846 -1.32971
# Poissons Ratio (z) = 0.74645 -0.47597
#
# Static dielectric constant tensor:
#      x y z
#    x 2.298280 0.000000 0.000000 
#    y 0.000000 1.707350 0.000000 
#    z 0.000000 0.000000 1.722460 
# 
# From -- ./inp_files/4553.got.cif
#   From: 2010.05.17/outbox.cif.g08.bks.cpg/sg26_3_cif.got.tgz:4553.got - 2010.06.04 01:07:29.
