data_PCOD9338382
_publ_section_title
;
Structure prediction by ZEFSAII (Michael W. Deem and Ramdas Pophale) SiO2 
 PCOD9338382
Probable space group: P M C 21
;
_chemical_formula_sum "Si O2"
_cell_formula_units_Z 24
_cell_length_a 8.915547
_cell_length_b 7.699688
_cell_length_c 19.375455
_cell_angle_alpha 90.000000
_cell_angle_beta 90.000000
_cell_angle_gamma 90.000000
_cell_volume 1330.065508
_symmetry_space_group_name_H-M "P M C 21"
_symmetry_group_IT_number 26
_symmetry_cell_setting 'orthorhombic'
loop_
_space_group_symop_operation_xyz
x,y,z
-x,-y,1/2+z
-x,y,z
x,-y,1/2+z
loop_
_atom_site_type_symbol
_atom_site_label
_atom_site_fract_x
_atom_site_fract_y
_atom_site_fract_z
Si Si1 0.679295 0.506032 0.043300
Si Si2 0.680155 0.511198 0.204205
Si Si3 0.320312 0.188471 0.301246
Si Si4 0.179459 0.185883 0.793766
Si Si5 0.178736 0.793907 0.453586
Si Si6 0.820783 0.800511 0.950251
O O1 0.500000 0.520362 0.038074
O O2 0.720660 0.498274 0.123873
O O3 0.734100 0.335146 0.003159
O O4 0.754697 0.670427 0.006247
O O5 0.500000 0.535126 0.208881
O O6 0.717716 0.335657 0.245602
O O7 0.759826 0.671503 0.241461
O O8 0.500000 0.176194 0.306872
O O9 0.251789 0.236683 0.375678
O O10 0.253096 0.001695 0.281492
O O11 0.216590 0.238347 0.873001
O O12 0.000000 0.169797 0.789720
O O13 0.000000 0.766588 0.461710
O O14 0.210778 0.997230 0.466930
O O15 0.000000 0.780501 0.945019
#
# Coordination Sequence:
#
# PCOD9338382 Si02
#       6
#     4   4   4   4   4   4
#     4  11  23  37  55  81 113 148 184 225 275 329
#     4  10  23  39  54  79 114 149 185 225 272 329
#     4  10  20  37  61  84 109 145 186 230 277 325
#     4  10  21  37  59  85 111 143 184 231 279 327
#     4   9  20  38  58  81 109 141 180 227 274 324
#     4  10  21  38  59  84 112 142 183 232 277 328
#
# _framework density 18.044224
#
# number of rings (size 3 to 8) (size 9 to 14) (size 15 to 20)
#    0.000    2.000    0.000    4.000    0.000   10.667 
#    0.000    5.000    0.000    0.000    0.000    0.000 
#    0.000    0.000    0.000    0.000    0.000    0.000 
#
# Total GULP energy -134089.567403 kJ/mol
# GULP energy per Si atom -5587.065308 kJ/mol
# Density = 1.800315 g / cm^3
# Si number density = 18.044224 Si / 1000 Ang^3
#
#
#
# Elastic Constant Matrix: (Units=GPa)
#
#
# Indices 1 2 3 4 5 6 
#
# 1 54.9536 59.7574 65.0085 0.0000 0.0000 0.0000
# 2 59.7574 112.9739 106.2713 0.0000 0.0000 0.0000
# 3 65.0085 106.2713 140.1979 0.0000 0.0000 0.0000
# 4 0.0000 0.0000 0.0000 -19.9235 0.0000 0.0000
# 5 0.0000 0.0000 0.0000 0.0000 -80.8630 0.0000
# 6 0.0000 0.0000 0.0000 0.0000 0.0000 30.0161
#
#
#
# Elastic Compliance Matrix: (Units=1/GPa)
#
#
# Indices 1 2 3 4 5 6 
#
# 1 0.046682 -0.015091 -0.010207 0.000000 0.000000 0.000000
# 2 -0.015091 0.035725 -0.020082 0.000000 0.000000 0.000000
# 3 -0.010207 -0.020082 0.027088 0.000000 0.000000 0.000000
# 4 0.000000 0.000000 0.000000 -0.050192 0.000000 0.000000
# 5 0.000000 0.000000 0.000000 0.000000 -0.012367 0.000000
# 6 0.000000 0.000000 0.000000 0.000000 0.000000 0.033315
#
#
# Mechanical properties :
#
#
# Convention : Reuss Voigt Hill
#
# Bulk Modulus (GPa) = 53.37717 85.57778 69.47748
# Shear Modulus (GPa) = 28.20793 -9.01487 9.59653
#
# Velocity S-wave (km/s) = 3.95811 -2.23759 2.30865
# Velocity P-wave (km/s) = 7.10875 6.39170 6.75974
#
# Compressibility (1/GPa) = 0.01873460
#
# Stress axis : x y z
#
# Youngs Moduli (GPa) = 21.42169 27.99196 36.91692
#
# Poissons Ratio (x) = 0.42243 0.37680
# Poissons Ratio (y) = 0.32328 0.74136
# Poissons Ratio (z) = 0.21864 0.56213
#
# Static dielectric constant tensor:
#      x y z
#    x 1.600460 0.000000 0.000000 
#    y 0.000000 1.597890 0.000000 
#    z 0.000000 0.000000 1.591300 
# 
# From -- ./inp_files/4866.got.cif
#   From: 2010.05.17/outbox.cif.g08.bks.cpg/sg26_3_cif.got.tgz:4866.got - 2010.06.04 01:07:29.
