data_PCOD9338429
_publ_section_title
;
Structure prediction by ZEFSAII (Michael W. Deem and Ramdas Pophale) SiO2 
 PCOD9338429
Probable space group: P M C 21
;
_chemical_formula_sum "Si O2"
_cell_formula_units_Z 16
_cell_length_a 12.626198
_cell_length_b 7.233294
_cell_length_c 8.876213
_cell_angle_alpha 90.000000
_cell_angle_beta 90.000000
_cell_angle_gamma 90.000000
_cell_volume 810.655677
_symmetry_space_group_name_H-M "P M C 21"
_symmetry_group_IT_number 26
_symmetry_cell_setting 'orthorhombic'
loop_
_space_group_symop_operation_xyz
x,y,z
-x,-y,1/2+z
-x,y,z
x,-y,1/2+z
loop_
_atom_site_type_symbol
_atom_site_label
_atom_site_fract_x
_atom_site_fract_y
_atom_site_fract_z
Si Si1 0.703951 0.278203 0.154010
Si Si2 0.622817 0.417924 0.464157
Si Si3 0.874982 0.144807 0.960076
Si Si4 0.246481 0.872145 0.149890
O O1 0.682703 0.382099 0.308314
O O2 0.685311 0.059614 0.177456
O O3 0.633862 0.374530 0.026082
O O4 0.822961 0.280238 0.085325
O O5 0.500000 0.370126 0.445517
O O6 0.680592 0.287928 0.585949
O O7 0.817150 0.174581 0.801034
O O8 0.000000 0.158432 0.949023
O O9 0.836883 0.944184 0.023001
#
# Coordination Sequence:
#
# PCOD9338429 Si02
#       4
#     4   4   4   4
#     4  10  23  42  61  95 130 158 219 263 301 392
#     4  12  24  41  65  91 128 174 210 263 320 366
#     4  10  20  41  69  91 125 165 200 262 324 367
#     4  10  21  42  65  93 129 157 219 260 311 389
#
# _framework density 19.737110000000001
#
# number of rings (size 3 to 8) (size 9 to 14) (size 15 to 20)
#    1.500    0.000    2.500    3.000    0.000    2.000 
#    0.000    7.500    0.000    0.000    0.000    0.000 
#    0.000    0.000    0.000    0.000    0.000    0.000 
#
# Total GULP energy -89137.392790 kJ/mol
# GULP energy per Si atom -5571.087049 kJ/mol
# Density = 1.969219 g / cm^3
# Si number density = 19.737110 Si / 1000 Ang^3
#
#
#
# Elastic Constant Matrix: (Units=GPa)
#
#
# Indices 1 2 3 4 5 6 
#
# 1 107.6884 55.4419 60.0911 0.0000 0.0000 0.0000
# 2 55.4419 49.5686 38.6138 0.0000 0.0000 0.0000
# 3 60.0911 38.6138 105.6696 0.0000 0.0000 0.0000
# 4 0.0000 0.0000 0.0000 29.6723 0.0000 0.0000
# 5 0.0000 0.0000 0.0000 0.0000 -31.3035 0.0000
# 6 0.0000 0.0000 0.0000 0.0000 0.0000 19.6480
#
#
#
# Elastic Compliance Matrix: (Units=1/GPa)
#
#
# Indices 1 2 3 4 5 6 
#
# 1 0.023867 -0.022538 -0.005337 0.000000 0.000000 0.000000
# 2 -0.022538 0.049485 -0.005266 0.000000 0.000000 0.000000
# 3 -0.005337 -0.005266 0.014423 0.000000 0.000000 0.000000
# 4 0.000000 0.000000 0.000000 0.033701 0.000000 0.000000
# 5 0.000000 0.000000 0.000000 0.000000 -0.031945 0.000000
# 6 0.000000 0.000000 0.000000 0.000000 0.000000 0.050896
#
#
# Mechanical properties :
#
#
# Convention : Reuss Voigt Hill
#
# Bulk Modulus (GPa) = 46.52656 63.46891 54.99773
# Shear Modulus (GPa) = 23.37832 10.85534 17.11683
#
# Velocity S-wave (km/s) = 3.44537 2.34774 2.94809
# Velocity P-wave (km/s) = 6.28106 6.29096 6.28601
#
# Compressibility (1/GPa) = 0.02149310
#
# Stress axis : x y z
#
# Youngs Moduli (GPa) = 41.89799 20.20818 69.33520
#
# Poissons Ratio (x) = 0.45545 0.37003
# Poissons Ratio (y) = 0.94430 0.36512
# Poissons Ratio (z) = 0.22360 0.10642
#
# Static dielectric constant tensor:
#      x y z
#    x 1.655660 0.000000 0.000000 
#    y 0.000000 1.731710 0.000000 
#    z 0.000000 0.000000 1.717150 
# 
# From -- ./inp_files/1669.got.cif
#   From: 2010.05.17/outbox.cif.g08.bks.cpg/sg26_1_cif.got.tgz:1669.got - 2010.06.04 01:07:29.
