data_PCOD9338442
_publ_section_title
;
Structure prediction by ZEFSAII (Michael W. Deem and Ramdas Pophale) SiO2 
 PCOD9338442
Probable space group: P M C 21
;
_chemical_formula_sum "Si O2"
_cell_formula_units_Z 24
_cell_length_a 7.629972
_cell_length_b 12.476791
_cell_length_c 12.129485
_cell_angle_alpha 90.000000
_cell_angle_beta 90.000000
_cell_angle_gamma 90.000000
_cell_volume 1154.697449
_symmetry_space_group_name_H-M "P M C 21"
_symmetry_group_IT_number 26
_symmetry_cell_setting 'orthorhombic'
loop_
_space_group_symop_operation_xyz
x,y,z
-x,-y,1/2+z
-x,y,z
x,-y,1/2+z
loop_
_atom_site_type_symbol
_atom_site_label
_atom_site_fract_x
_atom_site_fract_y
_atom_site_fract_z
Si Si1 0.284906 0.653084 0.990740
Si Si2 0.205284 0.204974 0.080149
Si Si3 0.295604 0.162666 0.329161
Si Si4 0.285667 0.722324 0.234257
Si Si5 0.288270 0.412349 0.943831
Si Si6 0.293057 0.926468 0.364505
O O1 0.500000 0.649841 0.989130
O O2 0.223229 0.738713 0.900120
O O3 0.225675 0.532158 0.966464
O O4 0.230902 0.691838 0.111984
O O5 0.285848 0.186015 0.199554
O O6 0.000000 0.186205 0.090116
O O7 0.236393 0.325073 0.035367
O O8 0.274625 0.125178 0.985444
O O9 0.500000 0.156670 0.361828
O O10 0.217575 0.045482 0.354346
O O11 0.500000 0.723971 0.234884
O O12 0.230958 0.635588 0.326069
O O13 0.223273 0.837811 0.278663
O O14 0.500000 0.414163 0.942668
O O15 0.500000 0.934885 0.340193
#
# Coordination Sequence:
#
# PCOD9338442 Si02
#       6
#     4   4   4   4   4   4
#     4   9  18  30  54  87 112 136 178 235 288 332
#     4  11  23  38  56  79 115 155 187 225 277 340
#     4  10  21  35  59  89 113 142 186 236 282 329
#     4   8  15  29  50  80 110 135 171 225 283 328
#     4   9  18  34  57  81 108 143 185 234 281 332
#     4   9  19  36  60  84 110 143 185 237 281 327
#
# _framework density 20.784666999999999
#
# number of rings (size 3 to 8) (size 9 to 14) (size 15 to 20)
#    0.000    2.667    0.000    2.500    4.667    0.667 
#    0.000    0.833    0.000    1.000    0.000    0.000 
#    0.000    0.000    0.000    0.000    0.000    0.000 
#
# Total GULP energy -133964.935407 kJ/mol
# GULP energy per Si atom -5581.872309 kJ/mol
# Density = 2.073736 g / cm^3
# Si number density = 20.784667 Si / 1000 Ang^3
#
#
#
# Elastic Constant Matrix: (Units=GPa)
#
#
# Indices 1 2 3 4 5 6 
#
# 1 36.3544 -5.3134 -21.1923 0.0000 0.0000 0.0000
# 2 -5.3134 209.7865 101.5086 0.0000 0.0000 0.0000
# 3 -21.1923 101.5086 123.6858 0.0000 0.0000 0.0000
# 4 0.0000 0.0000 0.0000 -298.9517 0.0000 0.0000
# 5 0.0000 0.0000 0.0000 0.0000 -28.1737 0.0000
# 6 0.0000 0.0000 0.0000 0.0000 0.0000 -50.0710
#
#
#
# Elastic Compliance Matrix: (Units=1/GPa)
#
#
# Indices 1 2 3 4 5 6 
#
# 1 0.031676 -0.003025 0.007910 0.000000 0.000000 0.000000
# 2 -0.003025 0.008195 -0.007244 0.000000 0.000000 0.000000
# 3 0.007910 -0.007244 0.015386 0.000000 0.000000 0.000000
# 4 0.000000 0.000000 0.000000 -0.003345 0.000000 0.000000
# 5 0.000000 0.000000 0.000000 0.000000 -0.035494 0.000000
# 6 0.000000 0.000000 0.000000 0.000000 0.000000 -0.019972
#
#
# Mechanical properties :
#
#
# Convention : Reuss Voigt Hill
#
# Bulk Modulus (GPa) = 19.78700 57.75918 38.77309
# Shear Modulus (GPa) = 277.61002 -55.78436 110.91283
#
# Velocity S-wave (km/s) = 11.56956 -5.18628 7.31291
# Velocity P-wave (km/s) = 13.71181 2.83083 9.48683
#
# Compressibility (1/GPa) = 0.05053823
#
# Stress axis : x y z
#
# Youngs Moduli (GPa) = 31.56977 122.01999 64.99566
#
# Poissons Ratio (x) = 0.36913 -0.51412
# Poissons Ratio (y) = 0.09550 0.47084
# Poissons Ratio (z) = -0.24972 0.88394
#
# Static dielectric constant tensor:
#      x y z
#    x 1.759150 0.000000 0.000000 
#    y 0.000000 1.902860 0.000000 
#    z 0.000000 0.000000 1.699800 
# 
# From -- ./inp_files/2796.got.cif
#   From: 2010.05.17/outbox.cif.g08.bks.cpg/sg26_2_cif.got.tgz:2796.got - 2010.06.04 01:07:29.
