data_PCOD9338270
_publ_section_title
;
Structure prediction by ZEFSAII (Michael W. Deem and Ramdas Pophale) SiO2 
 PCOD9338270
Probable space group: P M C 21
;
_chemical_formula_sum "Si O2"
_cell_formula_units_Z 32
_cell_length_a 13.903152
_cell_length_b 14.306664
_cell_length_c 10.020407
_cell_angle_alpha 90.000000
_cell_angle_beta 90.000000
_cell_angle_gamma 90.000000
_cell_volume 1993.136352
_symmetry_space_group_name_H-M "P M C 21"
_symmetry_group_IT_number 26
_symmetry_cell_setting 'orthorhombic'
loop_
_space_group_symop_operation_xyz
x,y,z
-x,-y,1/2+z
-x,y,z
x,-y,1/2+z
loop_
_atom_site_type_symbol
_atom_site_label
_atom_site_fract_x
_atom_site_fract_y
_atom_site_fract_z
Si Si1 0.307089 0.289363 0.434170
Si Si2 0.385922 0.606929 0.186176
Si Si3 0.386770 0.279339 0.934835
Si Si4 0.891412 0.457175 0.187620
Si Si5 0.383386 0.087529 0.374138
Si Si6 0.616870 0.913947 0.562948
Si Si7 0.688716 0.399065 0.164843
Si Si8 0.108786 0.383250 0.478471
O O1 0.365130 0.347791 0.543743
O O2 0.336918 0.181978 0.430529
O O3 0.330933 0.333906 0.290904
O O4 0.194582 0.309776 0.463271
O O5 0.500000 0.593627 0.205671
O O6 0.348010 0.680447 0.296124
O O7 0.336696 0.506043 0.197079
O O8 0.500000 0.262861 0.913996
O O9 0.347612 0.183423 0.997965
O O10 0.371048 0.361290 0.041355
O O11 0.802824 0.395821 0.135250
O O12 0.881893 0.452279 0.348845
O O13 0.000000 0.424307 0.156419
O O14 0.881040 0.556330 0.113288
O O15 0.500000 0.096909 0.378086
O O16 0.354830 0.075496 0.218252
O O17 0.356562 0.999946 0.467225
O O18 0.500000 0.910737 0.564686
O O19 0.000000 0.345032 0.473754
#
# Coordination Sequence:
#
# PCOD9338270 Si02
#       8
#     4   4   4   4   4   4   4   4
#     4  11  21  33  51  76 101 132 173 209 254 305
#     4  11  23  32  45  70 105 142 172 201 237 297
#     4  10  21  35  49  70 103 137 169 207 249 294
#     4   9  18  31  48  70  97 129 167 209 246 287
#     4  10  20  34  53  74  99 129 169 217 258 299
#     4   9  19  35  53  72  96 130 168 212 259 294
#     4  11  20  33  50  70 101 138 174 201 246 299
#     4   9  18  33  52  74 100 131 169 212 256 299
#
# _framework density 16.055097
#
# number of rings (size 3 to 8) (size 9 to 14) (size 15 to 20)
#    0.000    2.000    2.500    1.500    3.500    2.500 
#    0.000    0.000    0.000    0.000    0.000    1.750 
#    0.000    0.000    0.000    0.000    0.000    0.000 
#
# Total GULP energy -178290.171015 kJ/mol
# GULP energy per Si atom -5571.567844 kJ/mol
# Density = 1.601855 g / cm^3
# Si number density = 16.055097 Si / 1000 Ang^3
#
#
#
# Elastic Constant Matrix: (Units=GPa)
#
#
# Indices 1 2 3 4 5 6 
#
# 1 23.6080 15.2867 8.6786 0.0000 0.0000 0.0000
# 2 15.2867 77.3340 12.6380 0.0000 0.0000 0.0000
# 3 8.6786 12.6380 23.3883 0.0000 0.0000 0.0000
# 4 0.0000 0.0000 0.0000 26.2512 0.0000 0.0000
# 5 0.0000 0.0000 0.0000 0.0000 15.8673 0.0000
# 6 0.0000 0.0000 0.0000 0.0000 0.0000 12.7035
#
#
#
# Elastic Compliance Matrix: (Units=1/GPa)
#
#
# Indices 1 2 3 4 5 6 
#
# 1 0.053206 -0.007997 -0.015422 0.000000 0.000000 0.000000
# 2 -0.007997 0.015385 -0.005346 0.000000 0.000000 0.000000
# 3 -0.015422 -0.005346 0.051368 0.000000 0.000000 0.000000
# 4 0.000000 0.000000 0.000000 0.038093 0.000000 0.000000
# 5 0.000000 0.000000 0.000000 0.000000 0.063023 0.000000
# 6 0.000000 0.000000 0.000000 0.000000 0.000000 0.078719
#
#
# Mechanical properties :
#
#
# Convention : Reuss Voigt Hill
#
# Bulk Modulus (GPa) = 16.01815 21.94854 18.98334
# Shear Modulus (GPa) = 13.22285 16.81287 15.01786
#
# Velocity S-wave (km/s) = 2.87294 3.23955 3.06174
# Velocity P-wave (km/s) = 4.58298 5.26245 4.93443
#
# Compressibility (1/GPa) = 0.06242920
#
# Stress axis : x y z
#
# Youngs Moduli (GPa) = 18.79490 64.99685 19.46752
#
# Poissons Ratio (x) = 0.51978 0.30022
# Poissons Ratio (y) = 0.15030 0.10408
# Poissons Ratio (z) = 0.28985 0.34748
#
# Static dielectric constant tensor:
#      x y z
#    x 1.556090 0.000000 0.000000 
#    y 0.000000 1.513500 0.000000 
#    z 0.000000 0.000000 1.556670 
# 
# From -- ./inp_files/2258.got.cif
#   From: 2010.05.17/outbox.cif.g08.bks.cpg/sg26_2_cif.got.tgz:2258.got - 2010.06.04 01:07:29.
