data_PCOD9338820
_publ_section_title
;
Structure prediction by ZEFSAII (Michael W. Deem and Ramdas Pophale) SiO2 
 PCOD9338820
Probable space group: P C C 2
;
_chemical_formula_sum "Si O2"
_cell_formula_units_Z 26
_cell_length_a 12.009115
_cell_length_b 5.238437
_cell_length_c 19.114023
_cell_angle_alpha 90.000000
_cell_angle_beta 90.000000
_cell_angle_gamma 90.000000
_cell_volume 1202.443927
_symmetry_space_group_name_H-M "P C C 2"
_symmetry_group_IT_number 27
_symmetry_cell_setting 'orthorhombic'
loop_
_space_group_symop_operation_xyz
x,y,z
-x,-y,z
-x,y,1/2+z
x,-y,1/2+z
loop_
_atom_site_type_symbol
_atom_site_label
_atom_site_fract_x
_atom_site_fract_y
_atom_site_fract_z
Si Si1 0.877962 0.941024 0.926750
Si Si2 0.428242 0.261483 0.312959
Si Si3 0.313631 0.711517 0.675302
Si Si4 0.262716 0.533167 0.924441
Si Si5 0.500000 0.000000 0.086324
Si Si6 0.685642 0.337220 0.067335
Si Si7 0.878652 0.936341 0.087190
O O1 0.803696 0.711948 0.894749
O O2 0.812528 0.209905 0.926192
O O3 0.898769 0.844158 0.007234
O O4 0.000000 0.000000 0.896157
O O5 0.500000 0.500000 0.284049
O O6 0.329985 0.227563 0.255769
O O7 0.370055 0.378624 0.381310
O O8 0.500000 0.000000 0.321275
O O9 0.408538 0.867736 0.634703
O O10 0.339387 0.431272 0.645543
O O11 0.193735 0.767872 0.640521
O O12 0.295868 0.463980 0.004692
O O13 0.422739 0.814815 0.042121
O O14 0.797840 0.176928 0.075222
O O15 0.000000 0.000000 0.116157
#
# Coordination Sequence:
#
# PCOD9338820 Si02
#       7
#     4   4   4   4   2   4   4
#     4  10  20  41  69  96 130 167 215 273 338 393
#     4  12  27  44  66  90 135 185 220 271 340 408
#     4  11  21  40  60  89 124 171 220 265 332 397
#     4  11  23  41  62  99 126 172 222 268 333 396
#     4  10  20  34  56  86 118 160 214 266 326 378
#     4  10  21  35  63  89 128 163 218 278 326 392
#     4   9  20  37  63  96 127 164 212 277 333 387
#
# _framework density 21.622630000000001
#
# number of rings (size 3 to 8) (size 9 to 14) (size 15 to 20)
#    0.000    1.538    2.308    2.769    3.231    1.846 
#    0.000    0.769    3.385    0.000    0.000    0.000 
#    0.000    0.000    0.000    0.000    0.000    0.000 
#
# Total GULP energy -144838.576728 kJ/mol
# GULP energy per Si atom -5570.714490 kJ/mol
# Density = 2.157342 g / cm^3
# Si number density = 21.622630 Si / 1000 Ang^3
#
#
#
# Elastic Constant Matrix: (Units=GPa)
#
#
# Indices 1 2 3 4 5 6 
#
# 1 125.9272 32.2712 10.0195 0.0000 0.0000 0.0000
# 2 32.2712 92.8659 0.0794 0.0000 0.0000 0.0000
# 3 10.0195 0.0794 54.3785 0.0000 0.0000 0.0000
# 4 0.0000 0.0000 0.0000 222.6120 0.0000 0.0000
# 5 0.0000 0.0000 0.0000 0.0000 28.4821 0.0000
# 6 0.0000 0.0000 0.0000 0.0000 0.0000 26.9860
#
#
#
# Elastic Compliance Matrix: (Units=1/GPa)
#
#
# Indices 1 2 3 4 5 6 
#
# 1 0.008859 -0.003077 -0.001628 0.000000 0.000000 0.000000
# 2 -0.003077 0.011837 0.000550 0.000000 0.000000 0.000000
# 3 -0.001628 0.000550 0.018689 0.000000 0.000000 0.000000
# 4 0.000000 0.000000 0.000000 0.004492 0.000000 0.000000
# 5 0.000000 0.000000 0.000000 0.000000 0.035110 0.000000
# 6 0.000000 0.000000 0.000000 0.000000 0.000000 0.037056
#
#
# Mechanical properties :
#
#
# Convention : Reuss Voigt Hill
#
# Bulk Modulus (GPa) = 32.18090 39.76798 35.97444
# Shear Modulus (GPa) = 37.11621 71.00279 54.05950
#
# Velocity S-wave (km/s) = 4.14762 5.73660 5.00556
# Velocity P-wave (km/s) = 6.15242 7.89366 7.07679
#
# Compressibility (1/GPa) = 0.03107433
#
# Stress axis : x y z
#
# Youngs Moduli (GPa) = 112.87687 84.48023 53.50807
#
# Poissons Ratio (x) = 0.25996 0.08710
# Poissons Ratio (y) = 0.34735 -0.02941
# Poissons Ratio (z) = 0.18375 -0.04644
#
# Static dielectric constant tensor:
#      x y z
#    x 1.805900 0.000000 0.000000 
#    y 0.000000 1.457090 0.000000 
#    z 0.000000 0.000000 1.797840 
# 
# From -- ./inp_files/4416.got.cif
#   From: 2010.05.17/outbox.cif.g08.bks.cpg/sg27_3_cif.got.tgz:4416.got - 2010.06.04 01:11:05.
