data_PCOD9338576
_publ_section_title
;
Structure prediction by ZEFSAII (Michael W. Deem and Ramdas Pophale) SiO2 
 PCOD9338576
Probable space group: P M C 21
;
_chemical_formula_sum "Si O2"
_cell_formula_units_Z 30
_cell_length_a 18.868811
_cell_length_b 4.908549
_cell_length_c 13.565910
_cell_angle_alpha 90.000000
_cell_angle_beta 90.000000
_cell_angle_gamma 90.000000
_cell_volume 1256.454010
_symmetry_space_group_name_H-M "P M C 21"
_symmetry_group_IT_number 26
_symmetry_cell_setting 'orthorhombic'
loop_
_space_group_symop_operation_xyz
x,y,z
-x,-y,1/2+z
-x,y,z
x,-y,1/2+z
loop_
_atom_site_type_symbol
_atom_site_label
_atom_site_fract_x
_atom_site_fract_y
_atom_site_fract_z
Si Si1 0.379344 0.240509 0.342930
Si Si2 0.629446 0.545276 0.627213
Si Si3 0.918266 0.259191 0.062432
Si Si4 0.799047 0.962356 0.321620
Si Si5 0.500000 0.682810 0.009184
Si Si6 0.920739 0.757461 0.931684
Si Si7 0.679994 0.257259 0.931911
Si Si8 0.215897 0.446250 0.190600
O O1 0.392100 0.327425 0.231504
O O2 0.440587 0.299684 0.420656
O O3 0.318931 0.436210 0.391954
O O4 0.363930 0.921062 0.353573
O O5 0.564635 0.358962 0.590758
O O6 0.641504 0.757189 0.536433
O O7 0.711558 0.444655 0.638741
O O8 0.851735 0.353644 0.126935
O O9 0.000000 0.302459 0.099935
O O10 0.912188 0.945601 0.029401
O O11 0.912611 0.446765 0.964483
O O12 0.867011 0.129809 0.352863
O O13 0.756513 0.877464 0.420455
O O14 0.809262 0.685517 0.262366
O O15 0.760084 0.171422 0.247567
O O16 0.000000 0.800142 0.895251
#
# Coordination Sequence:
#
# PCOD9338576 Si02
#       8
#     4   4   4   4   2   4   4   4
#     4  11  24  47  67 104 140 173 243 287 351 433
#     4  11  24  47  74 102 145 188 236 291 374 407
#     4  10  22  42  64  98 136 182 238 287 347 422
#     4  12  23  42  64 101 140 176 241 293 347 416
#     4  10  26  44  74 102 134 188 226 296 352 426
#     4  10  22  40  64  91 135 186 234 289 351 419
#     4  11  24  43  70 100 138 187 228 296 349 425
#     4  12  25  40  70 102 139 187 230 300 345 422
#
# _framework density 23.876719000000001
#
# number of rings (size 3 to 8) (size 9 to 14) (size 15 to 20)
#    0.000    1.067    2.667    2.800    0.000    9.600 
#    0.000    1.333    0.000    0.000    0.000    0.000 
#    0.000    0.000    0.000    0.000    0.000    0.000 
#
# Total GULP energy -167009.490443 kJ/mol
# GULP energy per Si atom -5566.983015 kJ/mol
# Density = 2.382237 g / cm^3
# Si number density = 23.876719 Si / 1000 Ang^3
#
#
#
# Elastic Constant Matrix: (Units=GPa)
#
#
# Indices 1 2 3 4 5 6 
#
# 1 114.0804 1.3493 14.3494 0.0000 0.0000 0.0000
# 2 1.3493 73.7066 12.0536 0.0000 0.0000 0.0000
# 3 14.3494 12.0536 78.5609 0.0000 0.0000 0.0000
# 4 0.0000 0.0000 0.0000 29.1785 0.0000 0.0000
# 5 0.0000 0.0000 0.0000 0.0000 40.8343 0.0000
# 6 0.0000 0.0000 0.0000 0.0000 0.0000 -16.4117
#
#
#
# Elastic Compliance Matrix: (Units=1/GPa)
#
#
# Indices 1 2 3 4 5 6 
#
# 1 0.008973 0.000106 -0.001655 0.000000 0.000000 0.000000
# 2 0.000106 0.013918 -0.002155 0.000000 0.000000 0.000000
# 3 -0.001655 -0.002155 0.013362 0.000000 0.000000 0.000000
# 4 0.000000 0.000000 0.000000 0.034272 0.000000 0.000000
# 5 0.000000 0.000000 0.000000 0.000000 0.024489 0.000000
# 6 0.000000 0.000000 0.000000 0.000000 0.000000 -0.060932
#
#
# Mechanical properties :
#
#
# Convention : Reuss Voigt Hill
#
# Bulk Modulus (GPa) = 34.66794 35.76139 35.21466
# Shear Modulus (GPa) = 97.84028 26.62659 62.23344
#
# Velocity S-wave (km/s) = 6.40829 3.34304 5.11088
# Velocity P-wave (km/s) = 8.32503 5.46912 7.04334
#
# Compressibility (1/GPa) = 0.02884510
#
# Stress axis : x y z
#
# Youngs Moduli (GPa) = 111.44931 71.85073 74.83948
#
# Poissons Ratio (x) = -0.00765 0.12388
# Poissons Ratio (y) = -0.01186 0.16127
# Poissons Ratio (z) = 0.18447 0.15483
#
# Static dielectric constant tensor:
#      x y z
#    x 1.990660 0.000000 0.000000 
#    y 0.000000 1.877180 0.000000 
#    z 0.000000 0.000000 1.936310 
# 
# From -- ./inp_files/3722.got.cif
#   From: 2010.05.17/outbox.cif.g08.bks.cpg/sg26_2_cif.got.tgz:3722.got - 2010.06.04 01:07:29.
