data_PCOD9338239
_publ_section_title
;
Structure prediction by ZEFSAII (Michael W. Deem and Ramdas Pophale) SiO2 
 PCOD9338239
Probable space group: P M C 21
;
_chemical_formula_sum "Si O2"
_cell_formula_units_Z 28
_cell_length_a 7.383393
_cell_length_b 21.346054
_cell_length_c 6.944554
_cell_angle_alpha 90.000000
_cell_angle_beta 90.000000
_cell_angle_gamma 90.000000
_cell_volume 1094.505501
_symmetry_space_group_name_H-M "P M C 21"
_symmetry_group_IT_number 26
_symmetry_cell_setting 'orthorhombic'
loop_
_space_group_symop_operation_xyz
x,y,z
-x,-y,1/2+z
-x,y,z
x,-y,1/2+z
loop_
_atom_site_type_symbol
_atom_site_label
_atom_site_fract_x
_atom_site_fract_y
_atom_site_fract_z
Si Si1 0.778634 0.180955 0.498630
Si Si2 0.208795 0.914672 0.448934
Si Si3 0.500000 0.445017 0.220964
Si Si4 0.208204 0.314791 0.600148
Si Si5 0.208981 0.050153 0.397199
Si Si6 0.500000 0.410159 0.666762
Si Si7 0.221435 0.214878 0.058889
Si Si8 0.207959 0.649614 0.641639
O O1 0.724526 0.242980 0.615353
O O2 0.719053 0.108389 0.524434
O O3 0.727301 0.198168 0.278851
O O4 0.000000 0.179809 0.506142
O O5 0.203671 0.925000 0.680095
O O6 0.283569 0.844252 0.430863
O O7 0.000000 0.911786 0.378674
O O8 0.292048 0.980881 0.385265
O O9 0.500000 0.420400 0.437406
O O10 0.500000 0.519343 0.240015
O O11 0.671900 0.412166 0.121877
O O12 0.325641 0.367407 0.703003
O O13 0.209961 0.330989 0.370102
O O14 0.000000 0.316279 0.661881
O O15 0.000000 0.039944 0.460273
O O16 0.274598 0.287104 0.035085
O O17 0.000000 0.214374 0.049885
O O18 0.000000 0.637449 0.592009
#
# Coordination Sequence:
#
# PCOD9338239 Si02
#       8
#     4   4   2   4   4   2   4   4
#     4   7  10  18  33  52  74 102 136 171 204 237
#     4   8  12  17  27  46  72 100 129 163 202 239
#     4  10  20  32  48  70  91 112 140 172 211 260
#     4   8  14  26  44  65  88 113 143 179 213 246
#     4   8  12  17  27  46  72 100 129 163 202 239
#     4  10  20  32  48  70  91 112 140 172 211 260
#     4   7  10  18  33  52  74 102 136 171 204 237
#     4   8  14  26  44  65  88 113 143 179 213 246
#
# _framework density 25.582328
#
# number of rings (size 3 to 8) (size 9 to 14) (size 15 to 20)
#    0.000    4.000    0.000    3.429    0.000    0.571 
#    0.000    0.000    0.000    1.714    0.000    5.000 
#    0.000    0.000    0.000    0.000    0.000    0.000 
#
# Total GULP energy -156324.717896 kJ/mol
# GULP energy per Si atom -5583.025639 kJ/mol
# Density = 2.552410 g / cm^3
# Si number density = 25.582328 Si / 1000 Ang^3
#
#
#
# Elastic Constant Matrix: (Units=GPa)
#
#
# Indices 1 2 3 4 5 6 
#
# 1 102.4936 78.4471 4.8041 0.0000 0.0000 0.0000
# 2 78.4471 296.9866 43.1090 0.0000 0.0000 0.0000
# 3 4.8041 43.1090 83.0144 0.0000 0.0000 0.0000
# 4 0.0000 0.0000 0.0000 55.8986 0.0000 0.0000
# 5 0.0000 0.0000 0.0000 0.0000 -9.6166 0.0000
# 6 0.0000 0.0000 0.0000 0.0000 0.0000 77.6535
#
#
#
# Elastic Compliance Matrix: (Units=1/GPa)
#
#
# Indices 1 2 3 4 5 6 
#
# 1 0.012314 -0.003406 0.001056 0.000000 0.000000 0.000000
# 2 -0.003406 0.004584 -0.002183 0.000000 0.000000 0.000000
# 3 0.001056 -0.002183 0.013119 0.000000 0.000000 0.000000
# 4 0.000000 0.000000 0.000000 0.017890 0.000000 0.000000
# 5 0.000000 0.000000 0.000000 0.000000 -0.103987 0.000000
# 6 0.000000 0.000000 0.000000 0.000000 0.000000 0.012878
#
#
# Mechanical properties :
#
#
# Convention : Reuss Voigt Hill
#
# Bulk Modulus (GPa) = 47.73193 81.69055 64.71124
# Shear Modulus (GPa) = -184.13548 48.52939 -67.80304
#
# Velocity S-wave (km/s) = -8.49317 4.36017 -5.15377
# Velocity P-wave (km/s) = 8.80226 7.57297 3.17254
#
# Compressibility (1/GPa) = 0.02095033
#
# Stress axis : x y z
#
# Youngs Moduli (GPa) = 81.20776 218.16320 76.22699
#
# Poissons Ratio (x) = 0.74306 -0.08050
# Poissons Ratio (y) = 0.27659 0.16642
# Poissons Ratio (z) = -0.08576 0.47629
#
# Static dielectric constant tensor:
#      x y z
#    x 2.087040 0.000000 0.000000 
#    y 0.000000 2.034280 0.000000 
#    z 0.000000 0.000000 2.126670 
# 
# From -- ./inp_files/3112.got.cif
#   From: 2010.05.17/outbox.cif.g08.bks.cpg/sg26_2_cif.got.tgz:3112.got - 2010.06.04 01:07:29.
