data_PCOD9338808
_publ_section_title
;
Structure prediction by ZEFSAII (Michael W. Deem and Ramdas Pophale) SiO2 
 PCOD9338808
Probable space group: P C C 2
;
_chemical_formula_sum "Si O2"
_cell_formula_units_Z 32
_cell_length_a 12.554045
_cell_length_b 11.428599
_cell_length_c 10.414502
_cell_angle_alpha 90.000000
_cell_angle_beta 90.000000
_cell_angle_gamma 90.000000
_cell_volume 1494.222196
_symmetry_space_group_name_H-M "P C C 2"
_symmetry_group_IT_number 27
_symmetry_cell_setting 'orthorhombic'
loop_
_space_group_symop_operation_xyz
x,y,z
-x,-y,z
-x,y,1/2+z
x,-y,1/2+z
loop_
_atom_site_type_symbol
_atom_site_label
_atom_site_fract_x
_atom_site_fract_y
_atom_site_fract_z
Si Si1 0.750910 0.488879 0.794290
Si Si2 0.468239 0.187667 0.890667
Si Si3 0.372467 0.502967 0.048629
Si Si4 0.429970 0.259038 0.627479
Si Si5 0.052549 0.629870 0.911794
Si Si6 0.318710 0.036689 0.363420
Si Si7 0.249525 0.920947 0.129333
Si Si8 0.103657 0.705135 0.198673
O O1 0.679855 0.446447 0.674620
O O2 0.831295 0.392414 0.850639
O O3 0.821323 0.596461 0.740931
O O4 0.680572 0.530379 0.915124
O O5 0.453899 0.279717 0.775837
O O6 0.583851 0.128880 0.862854
O O7 0.379154 0.087097 0.889780
O O8 0.472687 0.244353 0.030664
O O9 0.500000 0.500000 0.050753
O O10 0.354744 0.642819 0.068411
O O11 0.367902 0.136644 0.628661
O O12 0.000000 0.500000 0.919866
O O13 0.984791 0.705538 0.810602
O O14 0.058528 0.677833 0.056438
O O15 0.235926 0.054619 0.479279
O O16 0.260343 0.027877 0.227045
O O17 0.170506 0.824228 0.186098
#
# Coordination Sequence:
#
# PCOD9338808 Si02
#       8
#     4   4   4   4   4   4   4   4
#     4  11  22  42  59  87 127 170 207 250 301 358
#     4   9  18  32  54  82 112 160 219 252 285 353
#     4  12  26  37  56  86 134 181 206 239 301 363
#     4  10  20  34  52  78 121 162 209 253 285 345
#     4  10  21  39  68  94 118 154 207 259 309 358
#     4   9  18  33  58  84 116 159 198 255 313 360
#     4  10  19  37  59  86 119 148 196 253 317 371
#     4  11  22  40  68  94 117 151 207 271 314 367
#
# _framework density 21.415823
#
# number of rings (size 3 to 8) (size 9 to 14) (size 15 to 20)
#    0.000    1.750    2.500    2.250    5.250    3.000 
#    0.000    1.250    0.000    2.250    0.000    0.000 
#    0.000    0.000    0.000    0.000    0.000    0.000 
#
# Total GULP energy -178581.890969 kJ/mol
# GULP energy per Si atom -5580.684093 kJ/mol
# Density = 2.136708 g / cm^3
# Si number density = 21.415823 Si / 1000 Ang^3
#
#
#
# Elastic Constant Matrix: (Units=GPa)
#
#
# Indices 1 2 3 4 5 6 
#
# 1 79.2964 -3.0628 60.2312 0.0000 0.0000 0.0000
# 2 -3.0628 25.7839 18.6667 0.0000 0.0000 0.0000
# 3 60.2312 18.6667 183.6506 0.0000 0.0000 0.0000
# 4 0.0000 0.0000 0.0000 21.9562 0.0000 0.0000
# 5 0.0000 0.0000 0.0000 0.0000 38.5584 0.0000
# 6 0.0000 0.0000 0.0000 0.0000 0.0000 16.0587
#
#
#
# Elastic Compliance Matrix: (Units=1/GPa)
#
#
# Indices 1 2 3 4 5 6 
#
# 1 0.017854 0.006865 -0.006553 0.000000 0.000000 0.000000
# 2 0.006865 0.044504 -0.006775 0.000000 0.000000 0.000000
# 3 -0.006553 -0.006775 0.008283 0.000000 0.000000 0.000000
# 4 0.000000 0.000000 0.000000 0.045545 0.000000 0.000000
# 5 0.000000 0.000000 0.000000 0.000000 0.025935 0.000000
# 6 0.000000 0.000000 0.000000 0.000000 0.000000 0.062272
#
#
# Mechanical properties :
#
#
# Convention : Reuss Voigt Hill
#
# Bulk Modulus (GPa) = 17.32663 48.93346 33.13004
# Shear Modulus (GPa) = 21.13655 29.50770 25.32212
#
# Velocity S-wave (km/s) = 3.14500 3.71596 3.44234
# Velocity P-wave (km/s) = 4.61478 6.42728 5.59491
#
# Compressibility (1/GPa) = 0.05771464
#
# Stress axis : x y z
#
# Youngs Moduli (GPa) = 56.01089 22.46973 120.72952
#
# Poissons Ratio (x) = -0.15426 0.79116
# Poissons Ratio (y) = -0.38452 0.81795
# Poissons Ratio (z) = 0.36705 0.15223
#
# Static dielectric constant tensor:
#      x y z
#    x 1.798450 0.000000 0.000000 
#    y 0.000000 1.824120 0.000000 
#    z 0.000000 0.000000 1.832800 
# 
# From -- ./inp_files/1626.got.cif
#   From: 2010.05.17/outbox.cif.g08.bks.cpg/sg27_1_cif.got.tgz:1626.got - 2010.06.04 01:11:05.
