data_PCOD9338849
_publ_section_title
;
Structure prediction by ZEFSAII (Michael W. Deem and Ramdas Pophale) SiO2 
 PCOD9338849
Probable space group: P C C 2
;
_chemical_formula_sum "Si O2"
_cell_formula_units_Z 32
_cell_length_a 8.000534
_cell_length_b 14.384555
_cell_length_c 13.560603
_cell_angle_alpha 90.000000
_cell_angle_beta 90.000000
_cell_angle_gamma 90.000000
_cell_volume 1560.610081
_symmetry_space_group_name_H-M "P C C 2"
_symmetry_group_IT_number 27
_symmetry_cell_setting 'orthorhombic'
loop_
_space_group_symop_operation_xyz
x,y,z
-x,-y,z
-x,y,1/2+z
x,-y,1/2+z
loop_
_atom_site_type_symbol
_atom_site_label
_atom_site_fract_x
_atom_site_fract_y
_atom_site_fract_z
Si Si1 0.502672 0.607623 0.192250
Si Si2 0.820642 0.027042 0.364665
Si Si3 0.282366 0.170438 0.355172
Si Si4 0.432448 0.237215 0.536564
Si Si5 0.617427 0.858600 0.728194
Si Si6 0.133829 0.294052 0.199596
Si Si7 0.808838 0.678571 0.793605
Si Si8 0.813940 0.218455 0.483320
O O1 0.500000 0.500000 0.166881
O O2 0.433989 0.671307 0.103278
O O3 0.691310 0.647708 0.208851
O O4 0.363508 0.621491 0.278777
O O5 0.696208 0.051204 0.275688
O O6 0.843919 0.114140 0.439734
O O7 0.751073 0.929520 0.404180
O O8 0.000000 0.000000 0.323315
O O9 0.304326 0.238321 0.447494
O O10 0.449165 0.164355 0.288240
O O11 0.147678 0.211267 0.280101
O O12 0.411498 0.151617 0.612734
O O13 0.613674 0.224692 0.489680
O O14 0.752702 0.779399 0.752983
O O15 0.968771 0.351541 0.229524
O O16 0.121992 0.246502 0.091776
O O17 0.861470 0.701279 0.905222
#
# Coordination Sequence:
#
# PCOD9338849 Si02
#       8
#     4   4   4   4   4   4   4   4
#     4  10  22  43  67  98 128 160 211 266 322 393
#     4  11  24  37  56  90 129 170 225 273 303 374
#     4  12  20  39  62  89 125 169 215 256 319 371
#     4  10  20  39  67  88 122 170 214 259 327 389
#     4  10  20  38  58  88 120 168 212 259 313 365
#     4  11  23  41  69  92 127 171 207 265 327 384
#     4  10  20  39  66  92 127 164 206 261 316 384
#     4  10  20  42  61  91 128 168 218 266 314 376
#
# _framework density 20.504801
#
# number of rings (size 3 to 8) (size 9 to 14) (size 15 to 20)
#    0.000    1.500    6.250    1.875    0.000    5.500 
#    2.250    8.125    0.000    3.000    0.000    0.000 
#    0.000    0.000    0.000    0.000    0.000    0.000 
#
# Total GULP energy -178288.711461 kJ/mol
# GULP energy per Si atom -5571.522233 kJ/mol
# Density = 2.045813 g / cm^3
# Si number density = 20.504801 Si / 1000 Ang^3
#
#
#
# Elastic Constant Matrix: (Units=GPa)
#
#
# Indices 1 2 3 4 5 6 
#
# 1 89.6934 14.0879 25.4441 0.0000 0.0000 0.0000
# 2 14.0879 69.1080 4.0433 0.0000 0.0000 0.0000
# 3 25.4441 4.0433 81.9242 0.0000 0.0000 0.0000
# 4 0.0000 0.0000 0.0000 10.2880 0.0000 0.0000
# 5 0.0000 0.0000 0.0000 0.0000 23.0423 0.0000
# 6 0.0000 0.0000 0.0000 0.0000 0.0000 9.0959
#
#
#
# Elastic Compliance Matrix: (Units=1/GPa)
#
#
# Indices 1 2 3 4 5 6 
#
# 1 0.012594 -0.002345 -0.003796 0.000000 0.000000 0.000000
# 2 -0.002345 0.014949 -0.000009 0.000000 0.000000 0.000000
# 3 -0.003796 -0.000009 0.013386 0.000000 0.000000 0.000000
# 4 0.000000 0.000000 0.000000 0.097201 0.000000 0.000000
# 5 0.000000 0.000000 0.000000 0.000000 0.043398 0.000000
# 6 0.000000 0.000000 0.000000 0.000000 0.000000 0.109939
#
#
# Mechanical properties :
#
#
# Convention : Reuss Voigt Hill
#
# Bulk Modulus (GPa) = 34.93101 36.43067 35.68084
# Shear Modulus (GPa) = 15.95861 21.62861 18.79361
#
# Velocity S-wave (km/s) = 2.79281 3.25130 3.03074
# Velocity P-wave (km/s) = 5.24139 5.64802 5.44850
#
# Compressibility (1/GPa) = 0.02862786
#
# Stress axis : x y z
#
# Youngs Moduli (GPa) = 79.40130 66.89522 74.70620
#
# Poissons Ratio (x) = 0.15689 0.28357
# Poissons Ratio (y) = 0.18622 0.00070
# Poissons Ratio (z) = 0.30139 0.00063
#
# Static dielectric constant tensor:
#      x y z
#    x 1.791520 0.000000 0.000000 
#    y 0.000000 1.752090 0.000000 
#    z 0.000000 0.000000 1.764770 
# 
# From -- ./inp_files/2458.got.cif
#   From: 2010.05.17/outbox.cif.g08.bks.cpg/sg27_2_cif.got.tgz:2458.got - 2010.06.04 01:11:05.
