data_PCOD9338611
_publ_section_title
;
Structure prediction by ZEFSAII (Michael W. Deem and Ramdas Pophale) SiO2 
 PCOD9338611
Probable space group: P M C 21
;
_chemical_formula_sum "Si O2"
_cell_formula_units_Z 18
_cell_length_a 20.834878
_cell_length_b 6.520030
_cell_length_c 4.873074
_cell_angle_alpha 90.000000
_cell_angle_beta 90.000000
_cell_angle_gamma 90.000000
_cell_volume 661.978009
_symmetry_space_group_name_H-M "P M C 21"
_symmetry_group_IT_number 26
_symmetry_cell_setting 'orthorhombic'
loop_
_space_group_symop_operation_xyz
x,y,z
-x,-y,1/2+z
-x,y,z
x,-y,1/2+z
loop_
_atom_site_type_symbol
_atom_site_label
_atom_site_fract_x
_atom_site_fract_y
_atom_site_fract_z
Si Si1 0.500000 0.363980 0.839660
Si Si2 0.187911 0.943315 0.657281
Si Si3 0.073784 0.651342 0.809639
Si Si4 0.764817 0.341734 0.661895
Si Si5 0.367006 0.138423 0.825228
O O1 0.500000 0.567989 0.655416
O O2 0.435788 0.239353 0.776306
O O3 0.120471 0.845585 0.772026
O O4 0.185661 0.825318 0.349475
O O5 0.228780 0.111719 0.442810
O O6 0.082652 0.466212 0.594966
O O7 0.000000 0.722080 0.785563
O O8 0.777993 0.470790 0.383219
O O9 0.690942 0.288576 0.750545
O O10 0.361762 0.936108 0.637305
#
# Coordination Sequence:
#
# PCOD9338611 Si02
#       5
#     2   4   4   4   4
#     4  12  24  42  68 102 138 178 228 286 354 428
#     4  12  26  43  68 102 136 178 227 283 340 411
#     4  10  23  45  73 103 136 176 224 282 350 418
#     4  12  26  46  69  98 139 188 236 286 347 417
#     4  12  24  44  69 100 136 180 233 292 353 413
#
# _framework density 27.191236
#
# number of rings (size 3 to 8) (size 9 to 14) (size 15 to 20)
#    0.000    0.444    0.000    8.667    0.000    6.222 
#    0.000    0.000    0.000    1.333    0.000    0.000 
#    0.000    0.000    0.000    0.000    0.000    0.000 
#
# Total GULP energy -100469.349609 kJ/mol
# GULP energy per Si atom -5581.630534 kJ/mol
# Density = 2.712935 g / cm^3
# Si number density = 27.191236 Si / 1000 Ang^3
#
#
#
# Elastic Constant Matrix: (Units=GPa)
#
#
# Indices 1 2 3 4 5 6 
#
# 1 219.7478 67.0702 8.5947 0.0000 0.0000 0.0000
# 2 67.0702 177.4474 -6.7755 0.0000 0.0000 0.0000
# 3 8.5947 -6.7755 225.6083 0.0000 0.0000 0.0000
# 4 0.0000 0.0000 0.0000 55.6453 0.0000 0.0000
# 5 0.0000 0.0000 0.0000 0.0000 41.2290 0.0000
# 6 0.0000 0.0000 0.0000 0.0000 0.0000 60.1981
#
#
#
# Elastic Compliance Matrix: (Units=1/GPa)
#
#
# Indices 1 2 3 4 5 6 
#
# 1 0.005159 -0.001960 -0.000255 0.000000 0.000000 0.000000
# 2 -0.001960 0.006386 0.000266 0.000000 0.000000 0.000000
# 3 -0.000255 0.000266 0.004450 0.000000 0.000000 0.000000
# 4 0.000000 0.000000 0.000000 0.017971 0.000000 0.000000
# 5 0.000000 0.000000 0.000000 0.000000 0.024255 0.000000
# 6 0.000000 0.000000 0.000000 0.000000 0.000000 0.016612
#
#
# Mechanical properties :
#
#
# Convention : Reuss Voigt Hill
#
# Bulk Modulus (GPa) = 82.65704 84.50914 83.58309
# Shear Modulus (GPa) = 60.41370 68.34209 64.37789
#
# Velocity S-wave (km/s) = 4.71872 5.01881 4.87107
# Velocity P-wave (km/s) = 7.75582 8.04559 7.90204
#
# Compressibility (1/GPa) = 0.01209818
#
# Stress axis : x y z
#
# Youngs Moduli (GPa) = 193.84489 156.58447 224.70939
#
# Poissons Ratio (x) = 0.30685 0.05739
# Poissons Ratio (y) = 0.37986 -0.05987
# Poissons Ratio (z) = 0.04950 -0.04172
#
# Static dielectric constant tensor:
#      x y z
#    x 2.046600 0.000000 0.000000 
#    y 0.000000 2.203370 0.000000 
#    z 0.000000 0.000000 2.052300 
# 
# From -- ./inp_files/916.got.cif
#   From: 2010.05.17/outbox.cif.g08.bks.cpg/sg26_1_cif.got.tgz:916.got - 2010.06.04 01:07:29.
