data_PCOD9338333
_publ_section_title
;
Structure prediction by ZEFSAII (Michael W. Deem and Ramdas Pophale) SiO2 
 PCOD9338333
Probable space group: P M C 21
;
_chemical_formula_sum "Si O2"
_cell_formula_units_Z 32
_cell_length_a 13.292184
_cell_length_b 8.200937
_cell_length_c 13.591486
_cell_angle_alpha 90.000000
_cell_angle_beta 90.000000
_cell_angle_gamma 90.000000
_cell_volume 1481.585647
_symmetry_space_group_name_H-M "P M C 21"
_symmetry_group_IT_number 26
_symmetry_cell_setting 'orthorhombic'
loop_
_space_group_symop_operation_xyz
x,y,z
-x,-y,1/2+z
-x,y,z
x,-y,1/2+z
loop_
_atom_site_type_symbol
_atom_site_label
_atom_site_fract_x
_atom_site_fract_y
_atom_site_fract_z
Si Si1 0.112562 0.582667 0.771150
Si Si2 0.805395 0.015663 0.563974
Si Si3 0.387438 0.082667 0.833496
Si Si4 0.609003 0.171942 0.065066
Si Si5 0.694605 0.515663 0.040672
Si Si6 0.215397 0.732942 0.214998
Si Si7 0.890997 0.328059 0.039580
Si Si8 0.284603 0.232942 0.389648
O O1 0.142706 0.392048 0.770260
O O2 0.110524 0.635774 0.656522
O O3 0.201543 0.683394 0.821604
O O4 0.000000 0.611598 0.810656
O O5 0.702214 0.932272 0.604053
O O6 0.871975 0.864317 0.529691
O O7 0.843498 0.130132 0.651798
O O8 0.775633 0.127038 0.471513
O O9 0.500000 0.111597 0.793989
O O10 0.389476 0.135775 0.948124
O O11 0.298457 0.183394 0.783042
O O12 0.357294 0.892049 0.834386
O O13 0.500000 0.124582 0.104070
O O14 0.628025 0.364317 0.074954
O O15 0.724367 0.627038 0.133132
O O16 0.797786 0.432272 0.000593
O O17 0.656502 0.630132 0.952848
O O18 0.000000 0.375418 0.000576
#
# Coordination Sequence:
#
# PCOD9338333 Si02
#       8
#     4   4   4   4   4   4   4   4
#     4  10  21  36  55  78 107 144 180 221 273 322
#     4   9  19  34  55  79 104 140 177 220 270 314
#     4  10  21  36  55  78 107 144 180 221 273 322
#     4   9  18  34  54  77 105 136 174 219 270 323
#     4   9  19  34  55  79 104 140 177 220 270 314
#     4  10  20  36  54  77 110 141 181 225 265 320
#     4   9  18  34  54  77 105 136 174 219 270 323
#     4  10  20  36  54  77 110 141 181 225 265 320
#
# _framework density 21.598481
#
# number of rings (size 3 to 8) (size 9 to 14) (size 15 to 20)
#    0.000    2.500    0.000    1.500    0.000    3.000 
#    0.000    6.250    0.000    0.000    0.000    0.000 
#    0.000    0.000    0.000    0.000    0.000    0.000 
#
# Total GULP energy -178707.465601 kJ/mol
# GULP energy per Si atom -5584.608300 kJ/mol
# Density = 2.154932 g / cm^3
# Si number density = 21.598481 Si / 1000 Ang^3
#
#
#
# Elastic Constant Matrix: (Units=GPa)
#
#
# Indices 1 2 3 4 5 6 
#
# 1 39.5764 -5.2477 -12.7494 0.0000 0.0000 0.0000
# 2 -5.2477 90.2076 6.4491 0.0000 0.0000 0.0000
# 3 -12.7494 6.4491 32.6193 0.0000 0.0000 0.0000
# 4 0.0000 0.0000 0.0000 36.3014 0.0000 0.0000
# 5 0.0000 0.0000 0.0000 0.0000 11.5107 0.0000
# 6 0.0000 0.0000 0.0000 0.0000 0.0000 10.3792
#
#
#
# Elastic Compliance Matrix: (Units=1/GPa)
#
#
# Indices 1 2 3 4 5 6 
#
# 1 0.028977 0.000889 0.011150 0.000000 0.000000 0.000000
# 2 0.000889 0.011272 -0.001881 0.000000 0.000000 0.000000
# 3 0.011150 -0.001881 0.035387 0.000000 0.000000 0.000000
# 4 0.000000 0.000000 0.000000 0.027547 0.000000 0.000000
# 5 0.000000 0.000000 0.000000 0.000000 0.086875 0.000000
# 6 0.000000 0.000000 0.000000 0.000000 0.000000 0.096347
#
#
# Mechanical properties :
#
#
# Convention : Reuss Voigt Hill
#
# Bulk Modulus (GPa) = 10.42196 15.47859 12.95027
# Shear Modulus (GPa) = 16.77438 23.23502 20.00470
#
# Velocity S-wave (km/s) = 2.78986 3.28345 3.04667
# Velocity P-wave (km/s) = 3.90046 4.64293 4.28780
#
# Compressibility (1/GPa) = 0.09595128
#
# Stress axis : x y z
#
# Youngs Moduli (GPa) = 34.50957 88.71763 28.25912
#
# Poissons Ratio (x) = -0.07883 -0.31510
# Poissons Ratio (y) = -0.03066 0.05316
# Poissons Ratio (z) = -0.38479 0.16690
#
# Static dielectric constant tensor:
#      x y z
#    x 1.763650 0.000000 0.000000 
#    y 0.000000 1.790250 0.000000 
#    z 0.000000 0.000000 1.807460 
# 
# From -- ./inp_files/4668.got.cif
#   From: 2010.05.17/outbox.cif.g08.bks.cpg/sg26_3_cif.got.tgz:4668.got - 2010.06.04 01:07:29.
