data_PCOD9338800
_publ_section_title
;
Structure prediction by ZEFSAII (Michael W. Deem and Ramdas Pophale) SiO2 
 PCOD9338800
Probable space group: P C C 2
;
_chemical_formula_sum "Si O2"
_cell_formula_units_Z 28
_cell_length_a 9.192431
_cell_length_b 8.822135
_cell_length_c 19.327931
_cell_angle_alpha 90.000000
_cell_angle_beta 90.000000
_cell_angle_gamma 90.000000
_cell_volume 1567.434655
_symmetry_space_group_name_H-M "P C C 2"
_symmetry_group_IT_number 27
_symmetry_cell_setting 'orthorhombic'
loop_
_space_group_symop_operation_xyz
x,y,z
-x,-y,z
-x,y,1/2+z
x,-y,1/2+z
loop_
_atom_site_type_symbol
_atom_site_label
_atom_site_fract_x
_atom_site_fract_y
_atom_site_fract_z
Si Si1 0.346014 0.424777 0.855200
Si Si2 0.299746 0.391228 0.218033
Si Si3 0.439651 0.163447 0.758568
Si Si4 0.897300 0.789639 0.115772
Si Si5 0.231248 0.882771 0.132712
Si Si6 0.850110 0.572915 0.988089
Si Si7 0.359473 0.404100 0.586993
O O1 0.500000 0.500000 0.875483
O O2 0.282275 0.533131 0.793567
O O3 0.381321 0.264761 0.820480
O O4 0.245746 0.400111 0.920889
O O5 0.431669 0.268355 0.224404
O O6 0.167389 0.307877 0.179526
O O7 0.334806 0.527484 0.164193
O O8 0.306995 0.126878 0.707086
O O9 0.500000 0.000000 0.779760
O O10 0.068924 0.812610 0.129153
O O11 0.802737 0.944095 0.113496
O O12 0.876730 0.709900 0.041591
O O13 0.345014 0.777681 0.089579
O O14 0.000000 0.500000 0.965041
O O15 0.768125 0.453834 0.036795
O O16 0.500000 0.500000 0.563087
#
# Coordination Sequence:
#
# PCOD9338800 Si02
#       7
#     4   4   4   4   4   4   4
#     4  10  22  40  59  85 120 162 205 255 301 364
#     4  10  19  35  62  91 116 151 203 252 304 355
#     4  11  20  37  63  92 122 154 200 256 311 367
#     4  10  23  37  59  93 127 156 198 253 321 372
#     4  11  20  37  62  91 125 154 193 258 318 371
#     4  11  23  40  58  86 121 163 209 251 303 371
#     4  11  19  35  62  90 115 155 203 258 306 357
#
# _framework density 17.863582000000001
#
# number of rings (size 3 to 8) (size 9 to 14) (size 15 to 20)
#    0.000    1.429    5.714    0.857    0.000    1.143 
#    0.000    4.286    0.000    0.000    0.000    0.000 
#    0.000    0.000    0.000    0.000    0.000    0.000 
#
# Total GULP energy -155963.969286 kJ/mol
# GULP energy per Si atom -5570.141760 kJ/mol
# Density = 1.782292 g / cm^3
# Si number density = 17.863582 Si / 1000 Ang^3
#
#
#
# Elastic Constant Matrix: (Units=GPa)
#
#
# Indices 1 2 3 4 5 6 
#
# 1 76.2843 47.9393 57.5643 0.0000 0.0000 0.0000
# 2 47.9393 123.3187 47.7524 0.0000 0.0000 0.0000
# 3 57.5643 47.7524 112.6217 0.0000 0.0000 0.0000
# 4 0.0000 0.0000 0.0000 4.1992 0.0000 0.0000
# 5 0.0000 0.0000 0.0000 0.0000 33.7235 0.0000
# 6 0.0000 0.0000 0.0000 0.0000 0.0000 30.5193
#
#
#
# Elastic Compliance Matrix: (Units=1/GPa)
#
#
# Indices 1 2 3 4 5 6 
#
# 1 0.024103 -0.005503 -0.009986 0.000000 0.000000 0.000000
# 2 -0.005503 0.010958 -0.001834 0.000000 0.000000 0.000000
# 3 -0.009986 -0.001834 0.014761 0.000000 0.000000 0.000000
# 4 0.000000 0.000000 0.000000 0.238139 0.000000 0.000000
# 5 0.000000 0.000000 0.000000 0.000000 0.029653 0.000000
# 6 0.000000 0.000000 0.000000 0.000000 0.000000 0.032766
#
#
# Mechanical properties :
#
#
# Convention : Reuss Voigt Hill
#
# Bulk Modulus (GPa) = 65.89214 68.74852 67.32033
# Shear Modulus (GPa) = 12.81774 24.28633 18.55203
#
# Velocity S-wave (km/s) = 2.68159 3.69120 3.22613
# Velocity P-wave (km/s) = 6.82307 7.53229 7.18644
#
# Compressibility (1/GPa) = 0.01517632
#
# Stress axis : x y z
#
# Youngs Moduli (GPa) = 41.48908 91.25485 67.74534
#
# Poissons Ratio (x) = 0.50215 0.67653
# Poissons Ratio (y) = 0.22830 0.12423
# Poissons Ratio (z) = 0.41433 0.16734
#
# Static dielectric constant tensor:
#      x y z
#    x 1.618750 0.000000 0.000000 
#    y 0.000000 1.677670 0.000000 
#    z 0.000000 0.000000 1.580120 
# 
# From -- ./inp_files/4310.got.cif
#   From: 2010.05.17/outbox.cif.g08.bks.cpg/sg27_3_cif.got.tgz:4310.got - 2010.06.04 01:11:05.
