data_PCOD9338761
_publ_section_title
;
Structure prediction by ZEFSAII (Michael W. Deem and Ramdas Pophale) SiO2 
 PCOD9338761
Probable space group: P C C 2
;
_chemical_formula_sum "Si O2"
_cell_formula_units_Z 32
_cell_length_a 7.081843
_cell_length_b 6.856556
_cell_length_c 22.953973
_cell_angle_alpha 90.000000
_cell_angle_beta 90.000000
_cell_angle_gamma 90.000000
_cell_volume 1114.577286
_symmetry_space_group_name_H-M "P C C 2"
_symmetry_group_IT_number 27
_symmetry_cell_setting 'orthorhombic'
loop_
_space_group_symop_operation_xyz
x,y,z
-x,-y,z
-x,y,1/2+z
x,-y,1/2+z
loop_
_atom_site_type_symbol
_atom_site_label
_atom_site_fract_x
_atom_site_fract_y
_atom_site_fract_z
Si Si1 0.727561 0.470426 0.034980
Si Si2 0.728549 0.026810 0.628047
Si Si3 0.279590 0.993082 0.250664
Si Si4 0.221046 0.963237 0.373615
Si Si5 0.272512 0.481184 0.159322
Si Si6 0.285710 0.091152 0.005403
Si Si7 0.692703 0.618649 0.407912
Si Si8 0.725242 0.555074 0.284959
O O1 0.500000 0.500000 0.038681
O O2 0.789204 0.409986 0.100022
O O3 0.777357 0.694010 0.025477
O O4 0.776131 0.365037 0.973471
O O5 0.800290 0.929339 0.688041
O O6 0.760937 0.253665 0.644909
O O7 0.792736 0.977014 0.562343
O O8 0.500000 0.000000 0.623335
O O9 0.265264 0.872483 0.310672
O O10 0.230872 0.214684 0.270382
O O11 0.500000 0.000000 0.238949
O O12 0.339674 0.163405 0.383955
O O13 0.236101 0.879551 0.437861
O O14 0.000000 0.000000 0.367630
O O15 0.500000 0.500000 0.162959
O O16 0.205232 0.536469 0.224068
O O17 0.500000 0.000000 0.002505
O O18 0.500000 0.500000 0.415896
O O19 0.794072 0.524269 0.351637
O O20 0.500000 0.500000 0.287841
#
# Coordination Sequence:
#
# PCOD9338761 Si02
#       8
#     4   4   4   4   4   4   4   4
#     4   9  16  26  45  72  97 124 164 214 267 318
#     4   8  15  27  46  74 100 125 171 226 269 314
#     4   9  17  31  51  73  98 132 176 225 272 326
#     4  11  23  36  50  75 111 147 185 230 282 344
#     4   8  13  22  37  63  97 122 146 197 263 310
#     4  10  18  31  53  77 104 140 179 224 275 332
#     4   9  17  31  50  71  98 136 179 220 266 328
#     4   8  14  24  41  67  95 122 154 200 257 312
#
# _framework density 28.710436000000001
#
# number of rings (size 3 to 8) (size 9 to 14) (size 15 to 20)
#    0.000    3.000    0.000    1.875    0.000    4.000 
#    0.000    1.250    0.000    0.000    0.000    0.000 
#    0.000   20.000    0.000    0.000    0.000    0.000 
#
# Total GULP energy -178229.543466 kJ/mol
# GULP energy per Si atom -5569.673233 kJ/mol
# Density = 2.864509 g / cm^3
# Si number density = 28.710436 Si / 1000 Ang^3
#
#
#
# Elastic Constant Matrix: (Units=GPa)
#
#
# Indices 1 2 3 4 5 6 
#
# 1 108.4895 -19.3341 24.3917 0.0000 0.0000 0.0000
# 2 -19.3341 77.8966 42.8232 0.0000 0.0000 0.0000
# 3 24.3917 42.8232 447.1790 0.0000 0.0000 0.0000
# 4 0.0000 0.0000 0.0000 46.0902 0.0000 0.0000
# 5 0.0000 0.0000 0.0000 0.0000 -42.3495 0.0000
# 6 0.0000 0.0000 0.0000 0.0000 0.0000 -4.9848
#
#
#
# Elastic Compliance Matrix: (Units=1/GPa)
#
#
# Indices 1 2 3 4 5 6 
#
# 1 0.009921 0.002913 -0.000820 0.000000 0.000000 0.000000
# 2 0.002913 0.014406 -0.001539 0.000000 0.000000 0.000000
# 3 -0.000820 -0.001539 0.002428 0.000000 0.000000 0.000000
# 4 0.000000 0.000000 0.000000 0.021697 0.000000 0.000000
# 5 0.000000 0.000000 0.000000 0.000000 -0.023613 0.000000
# 6 0.000000 0.000000 0.000000 0.000000 0.000000 -0.200609
#
#
# Mechanical properties :
#
#
# Convention : Reuss Voigt Hill
#
# Bulk Modulus (GPa) = 35.88721 81.03629 58.46175
# Shear Modulus (GPa) = -29.83469 38.79679 4.48105
#
# Velocity S-wave (km/s) = -3.22710 3.68001 1.25066
# Velocity P-wave (km/s) = 1.16562 6.80759 4.74260
#
# Compressibility (1/GPa) = 0.02786508
#
# Stress axis : x y z
#
# Youngs Moduli (GPa) = 100.79571 69.41354 411.80929
#
# Poissons Ratio (x) = -0.20222 0.33774
# Poissons Ratio (y) = -0.29365 0.63357
# Poissons Ratio (z) = 0.08267 0.10679
#
# Static dielectric constant tensor:
#      x y z
#    x 2.166570 0.000000 0.000000 
#    y 0.000000 0.563730 0.000000 
#    z 0.000000 0.000000 2.332530 
# 
# From -- ./inp_files/5109.got.cif
#   From: 2010.05.17/outbox.cif.g08.bks.cpg/sg27_3_cif.got.tgz:5109.got - 2010.06.04 01:11:05.
