data_PCOD9338896
_publ_section_title
;
Structure prediction by ZEFSAII (Michael W. Deem and Ramdas Pophale) SiO2 
 PCOD9338896
Probable space group: P C C 2
;
_chemical_formula_sum "Si O2"
_cell_formula_units_Z 30
_cell_length_a 17.045241
_cell_length_b 5.348070
_cell_length_c 14.810224
_cell_angle_alpha 90.000000
_cell_angle_beta 90.000000
_cell_angle_gamma 90.000000
_cell_volume 1350.087313
_symmetry_space_group_name_H-M "P C C 2"
_symmetry_group_IT_number 27
_symmetry_cell_setting 'orthorhombic'
loop_
_space_group_symop_operation_xyz
x,y,z
-x,-y,z
-x,y,1/2+z
x,-y,1/2+z
loop_
_atom_site_type_symbol
_atom_site_label
_atom_site_fract_x
_atom_site_fract_y
_atom_site_fract_z
Si Si1 0.335557 0.001594 0.523300
Si Si2 0.272184 0.977289 0.334665
Si Si3 0.132775 0.746310 0.752484
Si Si4 0.322624 0.613174 0.181197
Si Si5 0.000000 0.000000 0.863850
Si Si6 0.191955 0.364248 0.079412
Si Si7 0.549691 0.247920 0.638152
Si Si8 0.874724 0.347234 0.400115
O O1 0.322608 0.074179 0.419431
O O2 0.259050 0.840657 0.554838
O O3 0.410741 0.828261 0.543051
O O4 0.349785 0.227886 0.593067
O O5 0.318825 0.792614 0.267753
O O6 0.200509 0.824463 0.379779
O O7 0.222234 0.179771 0.279282
O O8 0.127110 0.750408 0.645222
O O9 0.113895 0.498355 0.808607
O O10 0.070637 0.926570 0.798597
O O11 0.234920 0.554126 0.147086
O O12 0.375317 0.362741 0.194101
O O13 0.043690 0.210074 0.922028
O O14 0.155825 0.487802 0.990080
O O15 0.500000 0.500000 0.632301
O O16 0.500000 0.000000 0.669700
#
# Coordination Sequence:
#
# PCOD9338896 Si02
#       8
#     4   4   4   4   2   4   4   4
#     4  10  21  39  65  97 127 174 223 270 344 396
#     4  10  21  37  65  99 127 163 215 292 325 407
#     4  11  20  39  61  88 130 161 223 270 350 392
#     4  11  20  39  67 102 135 169 231 276 352 398
#     4  10  24  38  56  82 124 180 210 278 328 420
#     4  10  21  35  64  93 119 167 215 280 333 403
#     4  11  23  43  69  95 139 192 221 273 339 413
#     4  10  21  40  57  86 128 163 219 267 342 400
#
# _framework density 22.220787000000001
#
# number of rings (size 3 to 8) (size 9 to 14) (size 15 to 20)
#    0.000    1.600    4.000    1.200    0.000    0.533 
#    0.000    3.333    2.933    0.000    0.000    0.000 
#    0.000    0.000    0.000    0.000    0.000    0.000 
#
# Total GULP energy -167018.783365 kJ/mol
# GULP energy per Si atom -5567.292779 kJ/mol
# Density = 2.217021 g / cm^3
# Si number density = 22.220787 Si / 1000 Ang^3
#
#
#
# Elastic Constant Matrix: (Units=GPa)
#
#
# Indices 1 2 3 4 5 6 
#
# 1 83.2932 29.1491 29.6197 0.0000 0.0000 0.0000
# 2 29.1491 72.3736 12.3270 0.0000 0.0000 0.0000
# 3 29.6197 12.3270 91.7589 0.0000 0.0000 0.0000
# 4 0.0000 0.0000 0.0000 9.6613 0.0000 0.0000
# 5 0.0000 0.0000 0.0000 0.0000 18.6736 0.0000
# 6 0.0000 0.0000 0.0000 0.0000 0.0000 40.6464
#
#
#
# Elastic Compliance Matrix: (Units=1/GPa)
#
#
# Indices 1 2 3 4 5 6 
#
# 1 0.015438 -0.005495 -0.004245 0.000000 0.000000 0.000000
# 2 -0.005495 0.016096 -0.000389 0.000000 0.000000 0.000000
# 3 -0.004245 -0.000389 0.012321 0.000000 0.000000 0.000000
# 4 0.000000 0.000000 0.000000 0.103506 0.000000 0.000000
# 5 0.000000 0.000000 0.000000 0.000000 0.053552 0.000000
# 6 0.000000 0.000000 0.000000 0.000000 0.000000 0.024602
#
#
# Mechanical properties :
#
#
# Convention : Reuss Voigt Hill
#
# Bulk Modulus (GPa) = 42.37667 43.29082 42.83374
# Shear Modulus (GPa) = 19.71304 25.55159 22.63231
#
# Velocity S-wave (km/s) = 2.98173 3.39469 3.19489
# Velocity P-wave (km/s) = 5.56475 5.90675 5.73829
#
# Compressibility (1/GPa) = 0.02359789
#
# Stress axis : x y z
#
# Youngs Moduli (GPa) = 64.77348 62.12531 81.16410
#
# Poissons Ratio (x) = 0.34137 0.34457
# Poissons Ratio (y) = 0.35592 0.03155
# Poissons Ratio (z) = 0.27498 0.02415
#
# Static dielectric constant tensor:
#      x y z
#    x 1.784690 0.000000 0.000000 
#    y 0.000000 2.040080 0.000000 
#    z 0.000000 0.000000 1.815190 
# 
# From -- ./inp_files/3757.got.cif
#   From: 2010.05.17/outbox.cif.g08.bks.cpg/sg27_2_cif.got.tgz:3757.got - 2010.06.04 01:11:05.
