data_PCOD9338516
_publ_section_title
;
Structure prediction by ZEFSAII (Michael W. Deem and Ramdas Pophale) SiO2 
 PCOD9338516
Probable space group: P M C 21
;
_chemical_formula_sum "Si O2"
_cell_formula_units_Z 24
_cell_length_a 17.660710
_cell_length_b 5.089852
_cell_length_c 12.327766
_cell_angle_alpha 90.000000
_cell_angle_beta 90.000000
_cell_angle_gamma 90.000000
_cell_volume 1108.147818
_symmetry_space_group_name_H-M "P M C 21"
_symmetry_group_IT_number 26
_symmetry_cell_setting 'orthorhombic'
loop_
_space_group_symop_operation_xyz
x,y,z
-x,-y,1/2+z
-x,y,z
x,-y,1/2+z
loop_
_atom_site_type_symbol
_atom_site_label
_atom_site_fract_x
_atom_site_fract_y
_atom_site_fract_z
Si Si1 0.911101 0.605862 0.647280
Si Si2 0.657080 0.533047 0.927755
Si Si3 0.820852 0.111383 0.615408
Si Si4 0.684367 0.797454 0.625920
Si Si5 0.409972 0.968315 0.314781
Si Si6 0.207790 0.526048 0.291404
O O1 0.863844 0.378863 0.585344
O O2 0.876658 0.579281 0.770094
O O3 0.000000 0.569743 0.642573
O O4 0.882920 0.885665 0.606634
O O5 0.622774 0.815194 0.899524
O O6 0.746806 0.511275 0.900737
O O7 0.618458 0.320000 0.847480
O O8 0.646499 0.409993 0.045721
O O9 0.797252 0.180022 0.741700
O O10 0.742340 0.002260 0.567713
O O11 0.624439 0.949291 0.699076
O O12 0.739376 0.631894 0.705457
O O13 0.500000 0.978297 0.314955
#
# Coordination Sequence:
#
# PCOD9338516 Si02
#       6
#     4   4   4   4   4   4
#     4   9  16  28  53  81 113 151 184 225 291 336
#     4  11  23  38  64  85 111 155 195 231 285 341
#     4   9  17  31  53  82 107 143 194 227 274 328
#     4  10  21  39  62  83 113 153 193 237 284 333
#     4  11  24  40  56  86 121 144 187 242 283 345
#     4   8  19  36  54  87 111 142 197 236 269 331
#
# _framework density 21.657758000000001
#
# number of rings (size 3 to 8) (size 9 to 14) (size 15 to 20)
#    1.000    1.333    1.667    1.000    2.333    1.333 
#    0.000    0.000    0.000    5.000    0.000    0.000 
#    0.000    0.000    0.000    0.000    0.000    0.000 
#
# Total GULP energy -133747.152473 kJ/mol
# GULP energy per Si atom -5572.798020 kJ/mol
# Density = 2.160846 g / cm^3
# Si number density = 21.657758 Si / 1000 Ang^3
#
#
#
# Elastic Constant Matrix: (Units=GPa)
#
#
# Indices 1 2 3 4 5 6 
#
# 1 150.5666 36.4624 22.2166 0.0000 0.0000 0.0000
# 2 36.4624 117.8226 -1.7422 0.0000 0.0000 0.0000
# 3 22.2166 -1.7422 35.2490 0.0000 0.0000 0.0000
# 4 0.0000 0.0000 0.0000 17.4301 0.0000 0.0000
# 5 0.0000 0.0000 0.0000 0.0000 14.5197 0.0000
# 6 0.0000 0.0000 0.0000 0.0000 0.0000 23.4323
#
#
#
# Elastic Compliance Matrix: (Units=1/GPa)
#
#
# Indices 1 2 3 4 5 6 
#
# 1 0.008027 -0.002561 -0.005186 0.000000 0.000000 0.000000
# 2 -0.002561 0.009310 0.002074 0.000000 0.000000 0.000000
# 3 -0.005186 0.002074 0.031741 0.000000 0.000000 0.000000
# 4 0.000000 0.000000 0.000000 0.057372 0.000000 0.000000
# 5 0.000000 0.000000 0.000000 0.000000 0.068872 0.000000
# 6 0.000000 0.000000 0.000000 0.000000 0.000000 0.042676
#
#
# Mechanical properties :
#
#
# Convention : Reuss Voigt Hill
#
# Bulk Modulus (GPa) = 26.50185 46.39023 36.44604
# Shear Modulus (GPa) = 20.66797 27.52318 24.09558
#
# Velocity S-wave (km/s) = 3.09252 3.56873 3.33913
# Velocity P-wave (km/s) = 5.00148 6.20059 5.63303
#
# Compressibility (1/GPa) = 0.03773322
#
# Stress axis : x y z
#
# Youngs Moduli (GPa) = 124.58136 107.40592 31.50548
#
# Poissons Ratio (x) = 0.27504 0.16338
# Poissons Ratio (y) = 0.31902 -0.06535
# Poissons Ratio (z) = 0.64604 -0.22277
#
# Static dielectric constant tensor:
#      x y z
#    x 1.757750 0.000000 0.000000 
#    y 0.000000 1.839580 0.000000 
#    z 0.000000 0.000000 1.885550 
# 
# From -- ./inp_files/3636.got.cif
#   From: 2010.05.17/outbox.cif.g08.bks.cpg/sg26_2_cif.got.tgz:3636.got - 2010.06.04 01:07:29.
