data_PCOD9338726
_publ_section_title
;
Structure prediction by ZEFSAII (Michael W. Deem and Ramdas Pophale) SiO2 
 PCOD9338726
Probable space group: P C C 2
;
_chemical_formula_sum "Si O2"
_cell_formula_units_Z 28
_cell_length_a 24.463577
_cell_length_b 9.181508
_cell_length_c 5.536386
_cell_angle_alpha 90.000000
_cell_angle_beta 90.000000
_cell_angle_gamma 90.000000
_cell_volume 1243.541655
_symmetry_space_group_name_H-M "P C C 2"
_symmetry_group_IT_number 27
_symmetry_cell_setting 'orthorhombic'
loop_
_space_group_symop_operation_xyz
x,y,z
-x,-y,z
-x,y,1/2+z
x,-y,1/2+z
loop_
_atom_site_type_symbol
_atom_site_label
_atom_site_fract_x
_atom_site_fract_y
_atom_site_fract_z
Si Si1 0.978389 0.332271 0.738880
Si Si2 0.191995 0.335475 0.838852
Si Si3 0.354880 0.700478 0.666958
Si Si4 0.849844 0.331122 0.838918
Si Si5 0.684410 0.686911 0.668200
Si Si6 0.479140 0.331013 0.328950
Si Si7 0.716074 0.992390 0.132120
O O1 0.913780 0.330628 0.780665
O O2 0.000000 0.500000 0.724287
O O3 0.993657 0.266882 0.478471
O O4 0.169071 0.500045 0.862423
O O5 0.163081 0.266570 0.603274
O O6 0.255429 0.342002 0.771488
O O7 0.181884 0.269437 0.104587
O O8 0.355878 0.646018 0.387908
O O9 0.415772 0.688616 0.766231
O O10 0.324229 0.855124 0.635199
O O11 0.320659 0.631366 0.892344
O O12 0.680007 0.861113 0.633543
O O13 0.500000 0.500000 0.346450
O O14 0.490344 0.267038 0.594150
O O15 0.748250 0.000542 0.382203
#
# Coordination Sequence:
#
# PCOD9338726 Si02
#       7
#     4   4   4   4   4   4   4
#     4  10  16  25  41  58  77 117 176 210 232 271
#     4  10  18  30  43  62  94 125 158 195 240 287
#     4  10  19  35  55  73  96 122 157 195 230 279
#     4  10  19  30  40  60  96 130 163 202 241 283
#     4  10  19  32  52  74  92 122 160 192 236 286
#     4  10  21  38  55  75 101 128 154 189 238 280
#     4   8  16  30  51  72  92 114 149 192 230 270
#
# _framework density 22.516335999999999
#
# number of rings (size 3 to 8) (size 9 to 14) (size 15 to 20)
#    0.000    2.286    0.000    6.000    0.000    0.000 
#    0.000   17.143    0.000   23.143    0.000    0.000 
#    0.000    0.000    0.000    0.000    0.000 1568.571 
#
# Total GULP energy -155991.679700 kJ/mol
# GULP energy per Si atom -5571.131418 kJ/mol
# Density = 2.246509 g / cm^3
# Si number density = 22.516336 Si / 1000 Ang^3
#
#
#
# Elastic Constant Matrix: (Units=GPa)
#
#
# Indices 1 2 3 4 5 6 
#
# 1 71.0502 -8.4350 -12.6020 0.0000 0.0000 0.0000
# 2 -8.4350 57.2815 -3.2935 0.0000 0.0000 0.0000
# 3 -12.6020 -3.2935 212.2233 0.0000 0.0000 0.0000
# 4 0.0000 0.0000 0.0000 91.5152 0.0000 0.0000
# 5 0.0000 0.0000 0.0000 0.0000 47.7086 0.0000
# 6 0.0000 0.0000 0.0000 0.0000 0.0000 9.7616
#
#
#
# Elastic Compliance Matrix: (Units=1/GPa)
#
#
# Indices 1 2 3 4 5 6 
#
# 1 0.014493 0.002186 0.000895 0.000000 0.000000 0.000000
# 2 0.002186 0.017803 0.000406 0.000000 0.000000 0.000000
# 3 0.000895 0.000406 0.004771 0.000000 0.000000 0.000000
# 4 0.000000 0.000000 0.000000 0.010927 0.000000 0.000000
# 5 0.000000 0.000000 0.000000 0.000000 0.020961 0.000000
# 6 0.000000 0.000000 0.000000 0.000000 0.000000 0.102443
#
#
# Mechanical properties :
#
#
# Convention : Reuss Voigt Hill
#
# Bulk Modulus (GPa) = 22.70704 32.43267 27.56985
# Shear Modulus (GPa) = 27.91663 54.12277 41.01970
#
# Velocity S-wave (km/s) = 3.52495 4.90808 4.27286
# Velocity P-wave (km/s) = 5.16466 6.82308 6.05095
#
# Compressibility (1/GPa) = 0.04403920
#
# Stress axis : x y z
#
# Youngs Moduli (GPa) = 69.00034 56.17084 209.58055
#
# Poissons Ratio (x) = -0.12276 -0.18747
# Poissons Ratio (y) = -0.15080 -0.08510
# Poissons Ratio (z) = -0.06172 -0.02281
#
# Static dielectric constant tensor:
#      x y z
#    x 1.795150 0.000000 0.000000 
#    y 0.000000 1.865440 0.000000 
#    z 0.000000 0.000000 2.011790 
# 
# From -- ./inp_files/617.got.cif
#   From: 2010.05.17/outbox.cif.g08.bks.cpg/sg27_1_cif.got.tgz:617.got - 2010.06.04 01:11:05.
