data_PCOD9338934
_publ_section_title
;
Structure prediction by ZEFSAII (Michael W. Deem and Ramdas Pophale) SiO2 
 PCOD9338934
Probable space group: P C C 2
;
_chemical_formula_sum "Si O2"
_cell_formula_units_Z 32
_cell_length_a 14.286671
_cell_length_b 11.045000
_cell_length_c 9.219446
_cell_angle_alpha 90.000000
_cell_angle_beta 90.000000
_cell_angle_gamma 90.000000
_cell_volume 1454.794293
_symmetry_space_group_name_H-M "P C C 2"
_symmetry_group_IT_number 27
_symmetry_cell_setting 'orthorhombic'
loop_
_space_group_symop_operation_xyz
x,y,z
-x,-y,z
-x,y,1/2+z
x,-y,1/2+z
loop_
_atom_site_type_symbol
_atom_site_label
_atom_site_fract_x
_atom_site_fract_y
_atom_site_fract_z
Si Si1 0.583888 0.746516 0.677840
Si Si2 0.050892 0.133937 0.489243
Si Si3 0.096881 0.244809 0.179754
Si Si4 0.284123 0.636128 0.737304
Si Si5 0.409447 0.167222 0.352362
Si Si6 0.388584 0.508084 0.002579
Si Si7 0.321459 0.068026 0.863502
Si Si8 0.790530 0.986108 0.118846
O O1 0.576819 0.815591 0.524156
O O2 0.488079 0.760773 0.765058
O O3 0.609728 0.613924 0.624032
O O4 0.656453 0.804869 0.791040
O O5 0.065063 0.190248 0.332566
O O6 0.996371 0.236971 0.581788
O O7 0.150558 0.097988 0.557627
O O8 0.000000 0.000000 0.483399
O O9 0.172419 0.353165 0.204083
O O10 0.155810 0.138671 0.103516
O O11 0.314462 0.766917 0.800967
O O12 0.323700 0.549381 0.867243
O O13 0.341443 0.602916 0.590250
O O14 0.401787 0.026199 0.320107
O O15 0.500000 0.500000 0.960602
O O16 0.229059 0.020012 0.783779
O O17 0.303661 0.043494 0.030795
#
# Coordination Sequence:
#
# PCOD9338934 Si02
#       8
#     4   4   4   4   4   4   4   4
#     4  11  26  38  62  94 133 186 226 276 335 401
#     4  10  21  38  64  99 135 174 211 264 340 424
#     4  11  23  41  67  99 132 171 220 281 339 412
#     4  11  24  44  68  97 129 171 232 294 340 399
#     4  11  23  40  58  89 140 178 224 272 339 404
#     4  11  24  45  71  97 130 179 240 292 336 401
#     4  12  23  38  59  98 141 181 215 270 334 413
#     4  11  21  37  62  93 139 171 216 259 329 414
#
# _framework density 21.996238000000002
#
# number of rings (size 3 to 8) (size 9 to 14) (size 15 to 20)
#    0.000    1.000    5.000    1.875    7.000    2.000 
#    0.000    1.250    0.000    2.250    0.000    0.000 
#    0.000    0.000    0.000    0.000    0.000    0.000 
#
# Total GULP energy -178386.469041 kJ/mol
# GULP energy per Si atom -5574.577158 kJ/mol
# Density = 2.194617 g / cm^3
# Si number density = 21.996238 Si / 1000 Ang^3
#
#
#
# Elastic Constant Matrix: (Units=GPa)
#
#
# Indices 1 2 3 4 5 6 
#
# 1 71.4804 22.9953 47.0819 0.0000 0.0000 0.0000
# 2 22.9953 44.5805 24.9138 0.0000 0.0000 0.0000
# 3 47.0819 24.9138 109.8416 0.0000 0.0000 0.0000
# 4 0.0000 0.0000 0.0000 27.7863 0.0000 0.0000
# 5 0.0000 0.0000 0.0000 0.0000 30.9001 0.0000
# 6 0.0000 0.0000 0.0000 0.0000 0.0000 25.7208
#
#
#
# Elastic Compliance Matrix: (Units=1/GPa)
#
#
# Indices 1 2 3 4 5 6 
#
# 1 0.021096 -0.006674 -0.007529 0.000000 0.000000 0.000000
# 2 -0.006674 0.027799 -0.003444 0.000000 0.000000 0.000000
# 3 -0.007529 -0.003444 0.013112 0.000000 0.000000 0.000000
# 4 0.000000 0.000000 0.000000 0.035989 0.000000 0.000000
# 5 0.000000 0.000000 0.000000 0.000000 0.032362 0.000000
# 6 0.000000 0.000000 0.000000 0.000000 0.000000 0.038879
#
#
# Mechanical properties :
#
#
# Convention : Reuss Voigt Hill
#
# Bulk Modulus (GPa) = 37.43555 46.20937 41.82246
# Shear Modulus (GPa) = 23.42624 25.60888 24.51756
#
# Velocity S-wave (km/s) = 3.26699 3.41580 3.34222
# Velocity P-wave (km/s) = 5.59348 6.05065 5.82655
#
# Compressibility (1/GPa) = 0.02671258
#
# Stress axis : x y z
#
# Youngs Moduli (GPa) = 47.40283 35.97265 76.26439
#
# Poissons Ratio (x) = 0.24009 0.57416
# Poissons Ratio (y) = 0.31638 0.26269
# Poissons Ratio (z) = 0.35688 0.12391
#
# Static dielectric constant tensor:
#      x y z
#    x 1.930260 0.000000 0.000000 
#    y 0.000000 1.832080 0.000000 
#    z 0.000000 0.000000 1.785880 
# 
# From -- ./inp_files/1615.got.cif
#   From: 2010.05.17/outbox.cif.g08.bks.cpg/sg27_1_cif.got.tgz:1615.got - 2010.06.04 01:11:05.
