data_PCOD9338085
_publ_section_title
;
Structure prediction by ZEFSAII (Michael W. Deem and Ramdas Pophale) SiO2 
 PCOD9338085
Probable space group: P M C 21
;
_chemical_formula_sum "Si O2"
_cell_formula_units_Z 32
_cell_length_a 7.418086
_cell_length_b 16.409256
_cell_length_c 11.536296
_cell_angle_alpha 90.000000
_cell_angle_beta 90.000000
_cell_angle_gamma 90.000000
_cell_volume 1404.258771
_symmetry_space_group_name_H-M "P M C 21"
_symmetry_group_IT_number 26
_symmetry_cell_setting 'orthorhombic'
loop_
_space_group_symop_operation_xyz
x,y,z
-x,-y,1/2+z
-x,y,z
x,-y,1/2+z
loop_
_atom_site_type_symbol
_atom_site_label
_atom_site_fract_x
_atom_site_fract_y
_atom_site_fract_z
Si Si1 0.280571 0.658160 0.266490
Si Si2 0.296276 0.769772 0.821614
Si Si3 0.277544 0.653169 0.003645
Si Si4 0.202304 0.353944 0.134819
Si Si5 0.280610 0.031949 0.993962
Si Si6 0.289214 0.522322 0.443165
Si Si7 0.719989 0.054517 0.253015
Si Si8 0.718017 0.782433 0.448985
O O1 0.500000 0.654029 0.267550
O O2 0.220832 0.651582 0.136089
O O3 0.213832 0.584710 0.348220
O O4 0.234826 0.744286 0.325083
O O5 0.500000 0.794122 0.850749
O O6 0.301173 0.690155 0.739824
O O7 0.222585 0.849944 0.758879
O O8 0.212464 0.733634 0.937657
O O9 0.500000 0.653929 0.001000
O O10 0.215436 0.568387 0.947191
O O11 0.000000 0.371575 0.171870
O O12 0.275777 0.432865 0.068277
O O13 0.205457 0.282076 0.039527
O O14 0.500000 0.026521 0.994495
O O15 0.222532 0.015714 0.128439
O O16 0.228290 0.125615 0.970053
O O17 0.223315 0.982750 0.877992
O O18 0.500000 0.514253 0.416772
O O19 0.500000 0.049587 0.249095
O O20 0.500000 0.779080 0.463174
#
# Coordination Sequence:
#
# PCOD9338085 Si02
#       8
#     4   4   4   4   4   4   4   4
#     4   8  15  27  44  73 101 123 161 210 255 302
#     4  10  19  33  53  77 105 140 173 211 258 310
#     4   9  18  29  49  78 103 130 170 213 256 308
#     4  11  21  33  52  75 100 133 175 217 253 304
#     4   9  16  27  46  76 106 135 166 209 262 311
#     4   9  18  32  52  74  99 132 168 214 261 306
#     4   9  17  28  46  75 109 135 168 211 262 313
#     4   9  16  31  54  74  99 134 169 209 257 306
#
# _framework density 22.787824000000001
#
# number of rings (size 3 to 8) (size 9 to 14) (size 15 to 20)
#    0.000    2.750    1.250    1.875    1.750    1.000 
#    0.000    5.625    0.000    3.750    0.000    0.000 
#    0.000    0.000    0.000    0.000    0.000    0.000 
#
# Total GULP energy -178413.473416 kJ/mol
# GULP energy per Si atom -5575.421044 kJ/mol
# Density = 2.273596 g / cm^3
# Si number density = 22.787824 Si / 1000 Ang^3
#
#
#
# Elastic Constant Matrix: (Units=GPa)
#
#
# Indices 1 2 3 4 5 6 
#
# 1 67.6731 -1.9279 3.9622 0.0000 0.0000 0.0000
# 2 -1.9279 67.8143 54.6080 0.0000 0.0000 0.0000
# 3 3.9622 54.6080 158.9178 0.0000 0.0000 0.0000
# 4 0.0000 0.0000 0.0000 28.4145 0.0000 0.0000
# 5 0.0000 0.0000 0.0000 0.0000 -138.0128 0.0000
# 6 0.0000 0.0000 0.0000 0.0000 0.0000 0.7129
#
#
#
# Elastic Compliance Matrix: (Units=1/GPa)
#
#
# Indices 1 2 3 4 5 6 
#
# 1 0.014847 0.000996 -0.000712 0.000000 0.000000 0.000000
# 2 0.000996 0.020454 -0.007053 0.000000 0.000000 0.000000
# 3 -0.000712 -0.007053 0.008734 0.000000 0.000000 0.000000
# 4 0.000000 0.000000 0.000000 0.035193 0.000000 0.000000
# 5 0.000000 0.000000 0.000000 0.000000 -0.007246 0.000000
# 6 0.000000 0.000000 0.000000 0.000000 0.000000 1.402707
#
#
# Mechanical properties :
#
#
# Convention : Reuss Voigt Hill
#
# Bulk Modulus (GPa) = 32.79202 45.29888 39.04545
# Shear Modulus (GPa) = 3.33690 -5.92623 -1.29466
#
# Velocity S-wave (km/s) = 1.21141 -1.61439 -0.75457
# Velocity P-wave (km/s) = 4.04698 4.05545 4.05122
#
# Compressibility (1/GPa) = 0.03049522
#
# Stress axis : x y z
#
# Youngs Moduli (GPa) = 67.35370 48.88955 114.49445
#
# Poissons Ratio (x) = -0.04868 0.08156
# Poissons Ratio (y) = -0.06706 0.80758
# Poissons Ratio (z) = 0.04798 0.34484
#
# Static dielectric constant tensor:
#      x y z
#    x 1.890040 0.000000 0.000000 
#    y 0.000000 1.810690 0.000000 
#    z 0.000000 0.000000 1.880950 
# 
# From -- ./inp_files/3059.got.cif
#   From: 2010.05.17/outbox.cif.g08.bks.cpg/sg26_2_cif.got.tgz:3059.got - 2010.06.04 01:07:29.
