data_PCOD9338268
_publ_section_title
;
Structure prediction by ZEFSAII (Michael W. Deem and Ramdas Pophale) SiO2 
 PCOD9338268
Probable space group: P M C 21
;
_chemical_formula_sum "Si O2"
_cell_formula_units_Z 32
_cell_length_a 13.910263
_cell_length_b 14.086053
_cell_length_c 9.148762
_cell_angle_alpha 90.000000
_cell_angle_beta 90.000000
_cell_angle_gamma 90.000000
_cell_volume 1792.614847
_symmetry_space_group_name_H-M "P M C 21"
_symmetry_group_IT_number 26
_symmetry_cell_setting 'orthorhombic'
loop_
_space_group_symop_operation_xyz
x,y,z
-x,-y,1/2+z
-x,y,z
x,-y,1/2+z
loop_
_atom_site_type_symbol
_atom_site_label
_atom_site_fract_x
_atom_site_fract_y
_atom_site_fract_z
Si Si1 0.394054 0.278767 0.592810
Si Si2 0.384691 0.914921 0.740639
Si Si3 0.888314 0.958411 0.229282
Si Si4 0.388763 0.603863 0.359051
Si Si5 0.611938 0.605849 0.806548
Si Si6 0.706626 0.734367 0.581871
Si Si7 0.705953 0.908967 0.064260
Si Si8 0.112056 0.861934 0.544570
O O1 0.500000 0.239991 0.625152
O O2 0.382663 0.372412 0.688269
O O3 0.389994 0.312686 0.427591
O O4 0.323872 0.193786 0.621757
O O5 0.500000 0.916861 0.764500
O O6 0.355689 0.822133 0.645978
O O7 0.328072 0.914138 0.895607
O O8 0.348609 0.006807 0.650706
O O9 0.865010 0.921811 0.394024
O O10 0.817110 0.915507 0.108842
O O11 0.878641 0.069993 0.187450
O O12 0.500000 0.610736 0.406101
O O13 0.358829 0.494957 0.375473
O O14 0.332095 0.689511 0.432879
O O15 0.500000 0.594627 0.754072
O O16 0.685751 0.644974 0.687813
O O17 0.812859 0.776717 0.562514
O O18 0.000000 0.833936 0.533273
O O19 0.000000 0.934653 0.203560
#
# Coordination Sequence:
#
# PCOD9338268 Si02
#       8
#     4   4   4   4   4   4   4   4
#     4  10  20  34  52  76 112 150 187 235 283 341
#     4  12  25  37  53  80 120 161 193 231 284 357
#     4  10  21  39  60  84 116 157 203 251 293 338
#     4  10  21  35  57  85 111 147 197 242 288 349
#     4  10  20  37  57  81 114 149 191 244 294 345
#     4  12  22  37  59  84 115 156 194 242 295 355
#     4  12  23  38  54  80 116 157 195 235 289 352
#     4  10  22  39  60  88 118 153 200 254 300 345
#
# _framework density 17.851018
#
# number of rings (size 3 to 8) (size 9 to 14) (size 15 to 20)
#    0.000    1.250    2.500    4.500    1.750    2.000 
#    0.000    0.000    0.000    0.750    0.000    1.750 
#    0.000    0.000    0.000    0.000    0.000    0.000 
#
# Total GULP energy -178366.701995 kJ/mol
# GULP energy per Si atom -5573.959437 kJ/mol
# Density = 1.781039 g / cm^3
# Si number density = 17.851018 Si / 1000 Ang^3
#
#
#
# Elastic Constant Matrix: (Units=GPa)
#
#
# Indices 1 2 3 4 5 6 
#
# 1 94.4708 42.3447 31.7839 0.0000 0.0000 0.0000
# 2 42.3447 90.1067 21.7296 0.0000 0.0000 0.0000
# 3 31.7839 21.7296 75.0725 0.0000 0.0000 0.0000
# 4 0.0000 0.0000 0.0000 32.5284 0.0000 0.0000
# 5 0.0000 0.0000 0.0000 0.0000 23.1863 0.0000
# 6 0.0000 0.0000 0.0000 0.0000 0.0000 2.1307
#
#
#
# Elastic Compliance Matrix: (Units=1/GPa)
#
#
# Indices 1 2 3 4 5 6 
#
# 1 0.014726 -0.005823 -0.004549 0.000000 0.000000 0.000000
# 2 -0.005823 0.014234 -0.001654 0.000000 0.000000 0.000000
# 3 -0.004549 -0.001654 0.015725 0.000000 0.000000 0.000000
# 4 0.000000 0.000000 0.000000 0.030742 0.000000 0.000000
# 5 0.000000 0.000000 0.000000 0.000000 0.043129 0.000000
# 6 0.000000 0.000000 0.000000 0.000000 0.000000 0.469339
#
#
# Mechanical properties :
#
#
# Convention : Reuss Voigt Hill
#
# Bulk Modulus (GPa) = 48.47029 50.15183 49.31106
# Shear Modulus (GPa) = 8.07982 22.48851 15.28417
#
# Velocity S-wave (km/s) = 2.12981 3.55320 2.92928
# Velocity P-wave (km/s) = 5.76712 6.70741 6.25496
#
# Compressibility (1/GPa) = 0.02063119
#
# Stress axis : x y z
#
# Youngs Moduli (GPa) = 67.90727 70.25664 63.59182
#
# Poissons Ratio (x) = 0.40912 0.28928
# Poissons Ratio (y) = 0.39544 0.10521
# Poissons Ratio (z) = 0.30892 0.11623
#
# Static dielectric constant tensor:
#      x y z
#    x 1.611160 0.000000 0.000000 
#    y 0.000000 1.609700 0.000000 
#    z 0.000000 0.000000 1.673280 
# 
# From -- ./inp_files/1978.got.cif
#   From: 2010.05.17/outbox.cif.g08.bks.cpg/sg26_1_cif.got.tgz:1978.got - 2010.06.04 01:07:29.
