data_PCOD9338192
_publ_section_title
;
Structure prediction by ZEFSAII (Michael W. Deem and Ramdas Pophale) SiO2 
 PCOD9338192
Probable space group: P M C 21
;
_chemical_formula_sum "Si O2"
_cell_formula_units_Z 32
_cell_length_a 8.759731
_cell_length_b 11.688670
_cell_length_c 16.679184
_cell_angle_alpha 90.000000
_cell_angle_beta 90.000000
_cell_angle_gamma 90.000000
_cell_volume 1707.775061
_symmetry_space_group_name_H-M "P M C 21"
_symmetry_group_IT_number 26
_symmetry_cell_setting 'orthorhombic'
loop_
_space_group_symop_operation_xyz
x,y,z
-x,-y,1/2+z
-x,y,z
x,-y,1/2+z
loop_
_atom_site_type_symbol
_atom_site_label
_atom_site_fract_x
_atom_site_fract_y
_atom_site_fract_z
Si Si1 0.181514 0.943452 0.004450
Si Si2 0.316687 0.190815 0.960399
Si Si3 0.177346 0.285843 0.119787
Si Si4 0.324117 0.778845 0.880232
Si Si5 0.684859 0.574914 0.767226
Si Si6 0.683148 0.315711 0.796711
Si Si7 0.823597 0.148022 0.675030
Si Si8 0.170288 0.093338 0.248569
O O1 0.237232 0.903559 0.091976
O O2 0.000000 0.962248 0.008739
O O3 0.222762 0.837189 0.947621
O O4 0.254145 0.061831 0.973090
O O5 0.500000 0.185212 0.959673
O O6 0.263351 0.249589 0.877104
O O7 0.262761 0.267320 0.036078
O O8 0.247337 0.374232 0.184526
O O9 0.182385 0.163384 0.165902
O O10 0.000000 0.313601 0.105641
O O11 0.500000 0.770957 0.905746
O O12 0.273303 0.659322 0.840811
O O13 0.303559 0.864929 0.805573
O O14 0.500000 0.578740 0.760586
O O15 0.735130 0.446816 0.787802
O O16 0.500000 0.318049 0.801276
O O17 0.732978 0.247953 0.717615
O O18 0.000000 0.183062 0.662194
O O19 0.823125 0.040212 0.734528
O O20 0.000000 0.122199 0.281621
#
# Coordination Sequence:
#
# PCOD9338192 Si02
#       8
#     4   4   4   4   4   4   4   4
#     4  11  22  38  57  84 121 153 187 236 295 351
#     4  11  22  37  60  90 120 152 195 242 292 353
#     4  10  19  35  60  88 116 149 191 237 286 344
#     4  10  20  34  56  85 110 143 189 234 281 338
#     4   9  20  41  61  80 113 153 196 241 286 340
#     4  10  23  41  59  83 116 155 197 242 291 342
#     4  10  21  37  56  80 115 152 186 231 288 348
#     4   9  17  33  55  80 111 147 181 223 285 342
#
# _framework density 18.737829999999999
#
# number of rings (size 3 to 8) (size 9 to 14) (size 15 to 20)
#    0.000    2.000    1.250    2.250    0.000    6.000 
#    2.250    0.000    0.000    0.000    0.000    0.000 
#    0.000    0.000    0.000    0.000    0.000    0.000 
#
# Total GULP energy -178472.460914 kJ/mol
# GULP energy per Si atom -5577.264404 kJ/mol
# Density = 1.869518 g / cm^3
# Si number density = 18.737830 Si / 1000 Ang^3
#
#
#
# Elastic Constant Matrix: (Units=GPa)
#
#
# Indices 1 2 3 4 5 6 
#
# 1 34.7961 32.4862 22.0652 0.0000 0.0000 0.0000
# 2 32.4862 136.0403 68.7207 0.0000 0.0000 0.0000
# 3 22.0652 68.7207 81.6817 0.0000 0.0000 0.0000
# 4 0.0000 0.0000 0.0000 20.6590 0.0000 0.0000
# 5 0.0000 0.0000 0.0000 0.0000 28.1710 0.0000
# 6 0.0000 0.0000 0.0000 0.0000 0.0000 10.5531
#
#
#
# Elastic Compliance Matrix: (Units=1/GPa)
#
#
# Indices 1 2 3 4 5 6 
#
# 1 0.037940 -0.006753 -0.004568 0.000000 0.000000 0.000000
# 2 -0.006753 0.013986 -0.009942 0.000000 0.000000 0.000000
# 3 -0.004568 -0.009942 0.021841 0.000000 0.000000 0.000000
# 4 0.000000 0.000000 0.000000 0.048405 0.000000 0.000000
# 5 0.000000 0.000000 0.000000 0.000000 0.035498 0.000000
# 6 0.000000 0.000000 0.000000 0.000000 0.000000 0.094759
#
#
# Mechanical properties :
#
#
# Convention : Reuss Voigt Hill
#
# Bulk Modulus (GPa) = 32.00894 55.45137 43.73016
# Shear Modulus (GPa) = 16.37374 20.49302 18.43338
#
# Velocity S-wave (km/s) = 2.95927 3.31066 3.13988
# Velocity P-wave (km/s) = 5.36619 6.65368 6.04431
#
# Compressibility (1/GPa) = 0.03124127
#
# Stress axis : x y z
#
# Youngs Moduli (GPa) = 26.35760 71.50209 45.78486
#
# Poissons Ratio (x) = 0.48282 0.20914
# Poissons Ratio (y) = 0.17798 0.45521
# Poissons Ratio (z) = 0.12040 0.71090
#
# Static dielectric constant tensor:
#      x y z
#    x 1.670470 0.000000 0.000000 
#    y 0.000000 1.637470 0.000000 
#    z 0.000000 0.000000 1.683230 
# 
# From -- ./inp_files/4216.got.cif
#   From: 2010.05.17/outbox.cif.g08.bks.cpg/sg26_3_cif.got.tgz:4216.got - 2010.06.04 01:07:29.
