data_PCOD9338507
_publ_section_title
;
Structure prediction by ZEFSAII (Michael W. Deem and Ramdas Pophale) SiO2 
 PCOD9338507
Probable space group: P M C 21
;
_chemical_formula_sum "Si O2"
_cell_formula_units_Z 24
_cell_length_a 9.073971
_cell_length_b 24.372966
_cell_length_c 4.822120
_cell_angle_alpha 90.000000
_cell_angle_beta 90.000000
_cell_angle_gamma 90.000000
_cell_volume 1066.458066
_symmetry_space_group_name_H-M "P M C 21"
_symmetry_group_IT_number 26
_symmetry_cell_setting 'orthorhombic'
loop_
_space_group_symop_operation_xyz
x,y,z
-x,-y,1/2+z
-x,y,z
x,-y,1/2+z
loop_
_atom_site_type_symbol
_atom_site_label
_atom_site_fract_x
_atom_site_fract_y
_atom_site_fract_z
Si Si1 0.760622 0.612321 0.270920
Si Si2 0.828634 0.962496 0.246460
Si Si3 0.823897 0.197318 0.482389
Si Si4 0.000000 0.535769 0.544970
Si Si5 0.500000 0.462511 0.551828
Si Si6 0.675347 0.143142 0.980923
Si Si7 0.168298 0.317151 0.242200
O O1 0.636753 0.574494 0.138131
O O2 0.726912 0.658562 0.503114
O O3 0.862197 0.570767 0.444812
O O4 0.830432 0.643848 0.010910
O O5 0.722875 0.914589 0.346818
O O6 0.000000 0.944774 0.281280
O O7 0.807254 0.016387 0.436053
O O8 0.739578 0.188535 0.769378
O O9 0.794820 0.256780 0.349943
O O10 0.000000 0.191426 0.520297
O O11 0.759836 0.152887 0.268589
O O12 0.000000 0.520269 0.865888
O O13 0.500000 0.481996 0.235573
O O14 0.500000 0.147120 0.014485
O O15 0.000000 0.315810 0.127293
#
# Coordination Sequence:
#
# PCOD9338507 Si02
#       7
#     4   4   4   2   2   4   4
#     4  12  23  42  65  93 125 160 207 258 313 378
#     4  10  21  38  64  95 130 177 228 272 322 392
#     4  11  24  44  71  94 130 180 224 273 331 400
#     4  12  22  36  62  94 120 156 200 256 312 364
#     4  12  26  46  62  88 130 168 204 242 310 392
#     4  12  25  43  64 102 141 174 222 280 337 389
#     4  11  22  43  67  96 122 158 214 267 317 372
#
# _framework density 22.504398999999999
#
# number of rings (size 3 to 8) (size 9 to 14) (size 15 to 20)
#    0.000    0.667    1.667    7.000    0.000    4.667 
#    9.000    0.000    0.000    0.000    0.000    0.000 
#    0.000    0.000    0.000    0.000    0.000    0.000 
#
# Total GULP energy -134380.748709 kJ/mol
# GULP energy per Si atom -5599.197863 kJ/mol
# Density = 2.245318 g / cm^3
# Si number density = 22.504399 Si / 1000 Ang^3
#
#
#
# Elastic Constant Matrix: (Units=GPa)
#
#
# Indices 1 2 3 4 5 6 
#
# 1 65.6980 21.4672 -13.3388 0.0000 0.0000 0.0000
# 2 21.4672 82.5866 -3.9887 0.0000 0.0000 0.0000
# 3 -13.3388 -3.9887 77.7148 0.0000 0.0000 0.0000
# 4 0.0000 0.0000 0.0000 40.3048 0.0000 0.0000
# 5 0.0000 0.0000 0.0000 0.0000 18.0013 0.0000
# 6 0.0000 0.0000 0.0000 0.0000 0.0000 29.3296
#
#
#
# Elastic Compliance Matrix: (Units=1/GPa)
#
#
# Indices 1 2 3 4 5 6 
#
# 1 0.017192 -0.004337 0.002728 0.000000 0.000000 0.000000
# 2 -0.004337 0.013233 -0.000065 0.000000 0.000000 0.000000
# 3 0.002728 -0.000065 0.013332 0.000000 0.000000 0.000000
# 4 0.000000 0.000000 0.000000 0.024811 0.000000 0.000000
# 5 0.000000 0.000000 0.000000 0.000000 0.055552 0.000000
# 6 0.000000 0.000000 0.000000 0.000000 0.000000 0.034095
#
#
# Mechanical properties :
#
#
# Convention : Reuss Voigt Hill
#
# Bulk Modulus (GPa) = 24.74682 26.03097 25.38890
# Shear Modulus (GPa) = 28.56602 32.31779 30.44190
#
# Velocity S-wave (km/s) = 3.56666 3.79366 3.68191
# Velocity P-wave (km/s) = 5.28978 5.54809 5.42047
#
# Compressibility (1/GPa) = 0.04040923
#
# Stress axis : x y z
#
# Youngs Moduli (GPa) = 58.16569 75.57029 75.00477
#
# Poissons Ratio (x) = 0.32776 -0.20463
# Poissons Ratio (y) = 0.25227 0.00489
# Poissons Ratio (z) = -0.15869 0.00493
#
# Static dielectric constant tensor:
#      x y z
#    x 1.803090 0.000000 0.000000 
#    y 0.000000 1.852360 0.000000 
#    z 0.000000 0.000000 1.824950 
# 
# From -- ./inp_files/202.got.cif
#   From: 2010.05.17/outbox.cif.g08.bks.cpg/sg26_1_cif.got.tgz:202.got - 2010.06.04 01:07:29.
