data_PCOD9338255
_publ_section_title
;
Structure prediction by ZEFSAII (Michael W. Deem and Ramdas Pophale) SiO2 
 PCOD9338255
Probable space group: P M C 21
;
_chemical_formula_sum "Si O2"
_cell_formula_units_Z 32
_cell_length_a 15.422491
_cell_length_b 10.136882
_cell_length_c 9.213272
_cell_angle_alpha 90.000000
_cell_angle_beta 90.000000
_cell_angle_gamma 90.000000
_cell_volume 1440.365828
_symmetry_space_group_name_H-M "P M C 21"
_symmetry_group_IT_number 26
_symmetry_cell_setting 'orthorhombic'
loop_
_space_group_symop_operation_xyz
x,y,z
-x,-y,1/2+z
-x,y,z
x,-y,1/2+z
loop_
_atom_site_type_symbol
_atom_site_label
_atom_site_fract_x
_atom_site_fract_y
_atom_site_fract_z
Si Si1 0.348034 0.940316 0.992730
Si Si2 0.219130 0.726662 0.491259
Si Si3 0.899830 0.432873 0.178281
Si Si4 0.211384 0.310900 0.667436
Si Si5 0.899906 0.190550 0.406943
Si Si6 0.407859 0.688750 0.129196
Si Si7 0.406225 0.756663 0.470459
Si Si8 0.227862 0.046523 0.223312
O O1 0.301975 0.914470 0.839599
O O2 0.389229 0.086163 0.989155
O O3 0.409433 0.821421 0.033865
O O4 0.277486 0.939644 0.123701
O O5 0.144877 0.626160 0.534676
O O6 0.217220 0.764027 0.322645
O O7 0.318964 0.684654 0.524553
O O8 0.206680 0.850473 0.595495
O O9 0.841393 0.558018 0.211975
O O10 0.895503 0.317223 0.298745
O O11 0.000000 0.468490 0.155945
O O12 0.153705 0.237240 0.547094
O O13 0.307153 0.355592 0.610579
O O14 0.856872 0.064064 0.325616
O O15 0.000000 0.164584 0.441698
O O16 0.500000 0.615411 0.098288
O O17 0.410594 0.725290 0.299577
O O18 0.500000 0.723625 0.536026
#
# Coordination Sequence:
#
# PCOD9338255 Si02
#       8
#     4   4   4   4   4   4   4   4
#     4  11  18  35  57  83 113 156 197 241 287 338
#     4   9  21  37  56  89 124 151 186 248 300 345
#     4  10  21  38  62  90 116 149 197 248 299 356
#     4  11  20  35  60  85 118 155 196 243 296 348
#     4  10  21  38  59  86 119 152 192 246 299 353
#     4  10  20  33  52  83 119 155 193 236 286 343
#     4   9  18  33  55  85 118 156 195 237 285 341
#     4  10  21  35  59  83 119 150 194 243 296 344
#
# _framework density 22.21658
#
# number of rings (size 3 to 8) (size 9 to 14) (size 15 to 20)
#    0.000    2.000    2.500    1.500    0.000    2.000 
#    0.000    1.875    0.000    3.000    0.000    0.000 
#    0.000    0.000    0.000    0.000    0.000    0.000 
#
# Total GULP energy -178204.127638 kJ/mol
# GULP energy per Si atom -5568.878989 kJ/mol
# Density = 2.216601 g / cm^3
# Si number density = 22.216580 Si / 1000 Ang^3
#
#
#
# Elastic Constant Matrix: (Units=GPa)
#
#
# Indices 1 2 3 4 5 6 
#
# 1 198.0192 24.4212 32.2060 0.0000 0.0000 0.0000
# 2 24.4212 25.4103 5.9803 0.0000 0.0000 0.0000
# 3 32.2060 5.9803 100.3155 0.0000 0.0000 0.0000
# 4 0.0000 0.0000 0.0000 13.7643 0.0000 0.0000
# 5 0.0000 0.0000 0.0000 0.0000 -37.1681 0.0000
# 6 0.0000 0.0000 0.0000 0.0000 0.0000 28.0985
#
#
#
# Elastic Compliance Matrix: (Units=1/GPa)
#
#
# Indices 1 2 3 4 5 6 
#
# 1 0.005971 -0.005363 -0.001597 0.000000 0.000000 0.000000
# 2 -0.005363 0.044731 -0.000945 0.000000 0.000000 0.000000
# 3 -0.001597 -0.000945 0.010538 0.000000 0.000000 0.000000
# 4 0.000000 0.000000 0.000000 0.072652 0.000000 0.000000
# 5 0.000000 0.000000 0.000000 0.000000 -0.026905 0.000000
# 6 0.000000 0.000000 0.000000 0.000000 0.000000 0.035589
#
#
# Mechanical properties :
#
#
# Convention : Reuss Voigt Hill
#
# Bulk Modulus (GPa) = 22.01219 49.88443 35.94831
# Shear Modulus (GPa) = 28.81370 18.34812 23.58091
#
# Velocity S-wave (km/s) = 3.60522 2.87692 3.26146
# Velocity P-wave (km/s) = 5.22108 5.79120 5.51351
#
# Compressibility (1/GPa) = 0.04542937
#
# Stress axis : x y z
#
# Youngs Moduli (GPa) = 167.47085 22.35607 94.89736
#
# Poissons Ratio (x) = 0.11989 0.15158
# Poissons Ratio (y) = 0.89812 0.08967
# Poissons Ratio (z) = 0.26751 0.02112
#
# Static dielectric constant tensor:
#      x y z
#    x 1.858290 0.000000 0.000000 
#    y 0.000000 1.957110 0.000000 
#    z 0.000000 0.000000 1.801050 
# 
# From -- ./inp_files/2246.got.cif
#   From: 2010.05.17/outbox.cif.g08.bks.cpg/sg26_2_cif.got.tgz:2246.got - 2010.06.04 01:07:29.
