data_PCOD9338424
_publ_section_title
;
Structure prediction by ZEFSAII (Michael W. Deem and Ramdas Pophale) SiO2 
 PCOD9338424
Probable space group: P M C 21
;
_chemical_formula_sum "Si O2"
_cell_formula_units_Z 18
_cell_length_a 8.746332
_cell_length_b 5.032601
_cell_length_c 14.603370
_cell_angle_alpha 90.000000
_cell_angle_beta 90.000000
_cell_angle_gamma 90.000000
_cell_volume 642.793604
_symmetry_space_group_name_H-M "P M C 21"
_symmetry_group_IT_number 26
_symmetry_cell_setting 'orthorhombic'
loop_
_space_group_symop_operation_xyz
x,y,z
-x,-y,1/2+z
-x,y,z
x,-y,1/2+z
loop_
_atom_site_type_symbol
_atom_site_label
_atom_site_fract_x
_atom_site_fract_y
_atom_site_fract_z
Si Si1 0.000000 0.039300 0.838830
Si Si2 0.500000 0.218569 0.995298
Si Si3 0.754986 0.609894 0.274881
Si Si4 0.000000 0.331884 0.511231
Si Si5 0.000000 0.706462 0.662250
Si Si6 0.500000 0.711915 0.867145
Si Si7 0.676108 0.870521 0.100649
O O1 0.000000 0.968372 0.728122
O O2 0.852694 0.229365 0.849786
O O3 0.000000 0.785574 0.906505
O O4 0.500000 0.998951 0.912671
O O5 0.500000 0.487272 0.944019
O O6 0.645749 0.164203 0.059920
O O7 0.647183 0.381724 0.312327
O O8 0.683229 0.830760 0.208822
O O9 0.860056 0.450881 0.205212
O O10 0.000000 0.635597 0.553638
O O11 0.835368 0.220177 0.551898
O O12 0.500000 0.765080 0.083684
#
# Coordination Sequence:
#
# PCOD9338424 Si02
#       7
#     2   2   4   2   2   2   4
#     4  11  23  43  71 102 143 195 257 313 380 457
#     4  10  25  42  65 104 148 175 255 287 376 443
#     4  10  22  42  68  97 140 186 247 304 377 454
#     4  10  20  40  68  94 149 183 247 312 378 450
#     4   9  23  41  63 100 136 186 244 301 384 445
#     4  12  23  42  69 108 136 193 231 309 360 447
#     4   9  20  44  63  98 139 191 240 310 373 451
#
# _framework density 28.002766000000001
#
# number of rings (size 3 to 8) (size 9 to 14) (size 15 to 20)
#    0.667    1.333    1.111    2.000    6.222    0.000 
#    8.000   11.111    0.000    0.000    0.000    0.000 
#    0.000    0.000    0.000    0.000    0.000    0.000 
#
# Total GULP energy -100344.671751 kJ/mol
# GULP energy per Si atom -5574.703986 kJ/mol
# Density = 2.793903 g / cm^3
# Si number density = 28.002766 Si / 1000 Ang^3
#
#
#
# Elastic Constant Matrix: (Units=GPa)
#
#
# Indices 1 2 3 4 5 6 
#
# 1 168.9367 46.6379 50.3912 0.0000 0.0000 0.0000
# 2 46.6379 100.7657 44.8221 0.0000 0.0000 0.0000
# 3 50.3912 44.8221 132.9425 0.0000 0.0000 0.0000
# 4 0.0000 0.0000 0.0000 44.2038 0.0000 0.0000
# 5 0.0000 0.0000 0.0000 0.0000 29.7077 0.0000
# 6 0.0000 0.0000 0.0000 0.0000 0.0000 -285.9682
#
#
#
# Elastic Compliance Matrix: (Units=1/GPa)
#
#
# Indices 1 2 3 4 5 6 
#
# 1 0.007165 -0.002480 -0.001880 0.000000 0.000000 0.000000
# 2 -0.002480 0.012533 -0.003286 0.000000 0.000000 0.000000
# 3 -0.001880 -0.003286 0.009342 0.000000 0.000000 0.000000
# 4 0.000000 0.000000 0.000000 0.022622 0.000000 0.000000
# 5 0.000000 0.000000 0.000000 0.000000 0.033661 0.000000
# 6 0.000000 0.000000 0.000000 0.000000 0.000000 -0.003497
#
#
# Mechanical properties :
#
#
# Convention : Reuss Voigt Hill
#
# Bulk Modulus (GPa) = 72.72816 76.26080 74.49448
# Shear Modulus (GPa) = 49.16376 -25.02509 12.06933
#
# Velocity S-wave (km/s) = 4.19462 -2.99267 2.07832
# Velocity P-wave (km/s) = 7.03477 3.91804 5.69381
#
# Compressibility (1/GPa) = 0.01374983
#
# Stress axis : x y z
#
# Youngs Moduli (GPa) = 139.57371 79.78723 107.04041
#
# Poissons Ratio (x) = 0.19787 0.20119
# Poissons Ratio (y) = 0.34614 0.35170
# Poissons Ratio (z) = 0.26234 0.26215
#
# Static dielectric constant tensor:
#      x y z
#    x 2.200300 0.000000 0.000000 
#    y 0.000000 2.351500 0.000000 
#    z 0.000000 0.000000 2.238560 
# 
# From -- ./inp_files/4813.got.cif
#   From: 2010.05.17/outbox.cif.g08.bks.cpg/sg26_3_cif.got.tgz:4813.got - 2010.06.04 01:07:29.
