data_PCOD9338974
_publ_section_title
;
Structure prediction by ZEFSAII (Michael W. Deem and Ramdas Pophale) SiO2 
 PCOD9338974
Probable space group: P C C 2
;
_chemical_formula_sum "Si O2"
_cell_formula_units_Z 20
_cell_length_a 9.183676
_cell_length_b 5.234269
_cell_length_c 18.214841
_cell_angle_alpha 90.000000
_cell_angle_beta 90.000000
_cell_angle_gamma 90.000000
_cell_volume 875.584321
_symmetry_space_group_name_H-M "P C C 2"
_symmetry_group_IT_number 27
_symmetry_cell_setting 'orthorhombic'
loop_
_space_group_symop_operation_xyz
x,y,z
-x,-y,z
-x,y,1/2+z
x,-y,1/2+z
loop_
_atom_site_type_symbol
_atom_site_label
_atom_site_fract_x
_atom_site_fract_y
_atom_site_fract_z
Si Si1 0.500000 0.500000 0.110150
Si Si2 0.676462 0.463769 0.866889
Si Si3 0.242941 0.150301 0.141651
Si Si4 0.255627 0.227459 0.523698
Si Si5 0.324742 0.031453 0.782927
Si Si6 0.000000 0.500000 0.112518
O O1 0.381335 0.335122 0.152932
O O2 0.592793 0.313418 0.059521
O O3 0.500000 0.500000 0.873112
O O4 0.722981 0.743617 0.838113
O O5 0.723021 0.249328 0.808348
O O6 0.733896 0.334489 0.941753
O O7 0.092559 0.292367 0.156282
O O8 0.242152 0.060902 0.055919
O O9 0.269197 0.925015 0.200048
O O10 0.119580 0.362247 0.562377
O O11 0.500000 0.000000 0.783940
#
# Coordination Sequence:
#
# PCOD9338974 Si02
#       6
#     2   4   4   4   4   2
#     4  10  22  34  70 106 130 174 244 288 358 418
#     4  10  23  40  67 105 143 180 226 295 365 426
#     4  11  24  42  69 103 141 187 238 299 352 423
#     4  11  22  42  68  99 137 185 236 296 347 423
#     4  10  23  40  67 104 146 177 227 295 366 425
#     4  10  26  42  68  94 140 184 252 282 354 414
#
# _framework density 22.841887
#
# number of rings (size 3 to 8) (size 9 to 14) (size 15 to 20)
#    0.000    1.600    1.000    2.400   15.400    1.600 
#    0.000    1.000    0.000    0.000    0.000    0.000 
#    0.000    0.000    0.000    0.000    0.000    0.000 
#
# Total GULP energy -111592.921004 kJ/mol
# GULP energy per Si atom -5579.646050 kJ/mol
# Density = 2.278990 g / cm^3
# Si number density = 22.841887 Si / 1000 Ang^3
#
#
#
# Elastic Constant Matrix: (Units=GPa)
#
#
# Indices 1 2 3 4 5 6 
#
# 1 85.8140 30.1168 18.5664 0.0000 0.0000 0.0000
# 2 30.1168 120.9703 42.7792 0.0000 0.0000 0.0000
# 3 18.5664 42.7792 131.2152 0.0000 0.0000 0.0000
# 4 0.0000 0.0000 0.0000 13.4771 0.0000 0.0000
# 5 0.0000 0.0000 0.0000 0.0000 8.4973 0.0000
# 6 0.0000 0.0000 0.0000 0.0000 0.0000 22.9137
#
#
#
# Elastic Compliance Matrix: (Units=1/GPa)
#
#
# Indices 1 2 3 4 5 6 
#
# 1 0.012857 -0.002891 -0.000877 0.000000 0.000000 0.000000
# 2 -0.002891 0.009994 -0.002849 0.000000 0.000000 0.000000
# 3 -0.000877 -0.002849 0.008674 0.000000 0.000000 0.000000
# 4 0.000000 0.000000 0.000000 0.074200 0.000000 0.000000
# 5 0.000000 0.000000 0.000000 0.000000 0.117684 0.000000
# 6 0.000000 0.000000 0.000000 0.000000 0.000000 0.043642
#
#
# Mechanical properties :
#
#
# Convention : Reuss Voigt Hill
#
# Bulk Modulus (GPa) = 54.67016 57.88046 56.27531
# Shear Modulus (GPa) = 17.45919 25.41343 21.43631
#
# Velocity S-wave (km/s) = 2.76769 3.33915 3.06676
# Velocity P-wave (km/s) = 5.84804 6.34517 6.10167
#
# Compressibility (1/GPa) = 0.01829151
#
# Stress axis : x y z
#
# Youngs Moduli (GPa) = 77.77633 100.06232 115.28690
#
# Poissons Ratio (x) = 0.28927 0.10108
# Poissons Ratio (y) = 0.22485 0.32847
# Poissons Ratio (z) = 0.06819 0.28509
#
# Static dielectric constant tensor:
#      x y z
#    x 1.813560 0.000000 0.000000 
#    y 0.000000 1.960900 0.000000 
#    z 0.000000 0.000000 1.892770 
# 
# From -- ./inp_files/3925.got.cif
#   From: 2010.05.17/outbox.cif.g08.bks.cpg/sg27_2_cif.got.tgz:3925.got - 2010.06.04 01:11:05.
