data_PCOD9338111
_publ_section_title
;
Structure prediction by ZEFSAII (Michael W. Deem and Ramdas Pophale) SiO2 
 PCOD9338111
Probable space group: P M C 21
;
_chemical_formula_sum "Si O2"
_cell_formula_units_Z 32
_cell_length_a 8.771454
_cell_length_b 8.476629
_cell_length_c 20.541934
_cell_angle_alpha 90.000000
_cell_angle_beta 90.000000
_cell_angle_gamma 90.000000
_cell_volume 1527.341300
_symmetry_space_group_name_H-M "P M C 21"
_symmetry_group_IT_number 26
_symmetry_cell_setting 'orthorhombic'
loop_
_space_group_symop_operation_xyz
x,y,z
-x,-y,1/2+z
-x,y,z
x,-y,1/2+z
loop_
_atom_site_type_symbol
_atom_site_label
_atom_site_fract_x
_atom_site_fract_y
_atom_site_fract_z
Si Si1 0.176878 0.846561 0.041830
Si Si2 0.680286 0.171766 0.070389
Si Si3 0.331857 0.753201 0.164937
Si Si4 0.316060 0.369092 0.870254
Si Si5 0.832336 0.148116 0.207792
Si Si6 0.329357 0.061306 0.801715
Si Si7 0.816506 0.486261 0.005889
Si Si8 0.170790 0.488825 0.738193
O O1 0.257834 0.017004 0.030544
O O2 0.204566 0.822032 0.118650
O O3 0.000000 0.862072 0.024374
O O4 0.231721 0.671381 0.016990
O O5 0.500000 0.182480 0.060599
O O6 0.717831 0.137193 0.146616
O O7 0.754372 0.340684 0.050505
O O8 0.500000 0.766386 0.134934
O O9 0.336941 0.834810 0.235258
O O10 0.281120 0.578851 0.182784
O O11 0.500000 0.385292 0.870825
O O12 0.283768 0.182641 0.857907
O O13 0.241299 0.435950 0.934781
O O14 0.244455 0.455503 0.807978
O O15 0.842475 0.329857 0.224493
O O16 0.000000 0.090596 0.187432
O O17 0.783107 0.069951 0.275958
O O18 0.500000 0.000343 0.814847
O O19 0.000000 0.485447 0.011670
O O20 0.000000 0.415912 0.734955
#
# Coordination Sequence:
#
# PCOD9338111 Si02
#       8
#     4   4   4   4   4   4   4   4
#     4  11  23  40  64  92 125 166 210 261 318 380
#     4  12  25  41  65  97 133 170 212 264 321 383
#     4  10  19  33  56  87 118 153 195 244 305 369
#     4  10  22  42  64  87 117 159 210 258 309 373
#     4  11  22  36  58  91 127 161 203 254 312 376
#     4   9  19  35  57  85 118 153 194 245 303 364
#     4  11  25  45  67  92 125 168 217 267 319 379
#     4  10  21  36  57  87 121 160 203 249 305 370
#
# _framework density 20.951442
#
# number of rings (size 3 to 8) (size 9 to 14) (size 15 to 20)
#    0.000    1.500    1.250    4.875    0.000    9.500 
#    2.250    0.000    0.000    0.000    0.000    0.000 
#    0.000    0.000    0.000    0.000    0.000    0.000 
#
# Total GULP energy -178345.926459 kJ/mol
# GULP energy per Si atom -5573.310202 kJ/mol
# Density = 2.090376 g / cm^3
# Si number density = 20.951442 Si / 1000 Ang^3
#
#
#
# Elastic Constant Matrix: (Units=GPa)
#
#
# Indices 1 2 3 4 5 6 
#
# 1 52.3587 13.4767 -11.7893 0.0000 0.0000 0.0000
# 2 13.4767 75.9929 0.5202 0.0000 0.0000 0.0000
# 3 -11.7893 0.5202 37.6173 0.0000 0.0000 0.0000
# 4 0.0000 0.0000 0.0000 23.7573 0.0000 0.0000
# 5 0.0000 0.0000 0.0000 0.0000 23.1407 0.0000
# 6 0.0000 0.0000 0.0000 0.0000 0.0000 103.0820
#
#
#
# Elastic Compliance Matrix: (Units=1/GPa)
#
#
# Indices 1 2 3 4 5 6 
#
# 1 0.021638 -0.003884 0.006835 0.000000 0.000000 0.000000
# 2 -0.003884 0.013858 -0.001409 0.000000 0.000000 0.000000
# 3 0.006835 -0.001409 0.028745 0.000000 0.000000 0.000000
# 4 0.000000 0.000000 0.000000 0.042092 0.000000 0.000000
# 5 0.000000 0.000000 0.000000 0.000000 0.043214 0.000000
# 6 0.000000 0.000000 0.000000 0.000000 0.000000 0.009701
#
#
# Mechanical properties :
#
#
# Convention : Reuss Voigt Hill
#
# Bulk Modulus (GPa) = 14.85346 18.93159 16.89252
# Shear Modulus (GPa) = 27.99473 40.91342 34.45408
#
# Velocity S-wave (km/s) = 3.65933 4.42381 4.05961
# Velocity P-wave (km/s) = 4.99591 5.92866 5.48216
#
# Compressibility (1/GPa) = 0.06732438
#
# Stress axis : x y z
#
# Youngs Moduli (GPa) = 46.21558 72.16268 34.78858
#
# Poissons Ratio (x) = 0.28028 -0.23778
# Poissons Ratio (y) = 0.17950 0.04901
# Poissons Ratio (z) = -0.31588 0.10167
#
# Static dielectric constant tensor:
#      x y z
#    x 1.770260 0.000000 0.000000 
#    y 0.000000 1.825480 0.000000 
#    z 0.000000 0.000000 1.735100 
# 
# From -- ./inp_files/5582.got.cif
#   From: 2010.05.17/outbox.cif.g08.bks.cpg/sg26_3_cif.got.tgz:5582.got - 2010.06.04 01:07:29.
