data_PCOD9338245
_publ_section_title
;
Structure prediction by ZEFSAII (Michael W. Deem and Ramdas Pophale) SiO2 
 PCOD9338245
Probable space group: P M C 21
;
_chemical_formula_sum "Si O2"
_cell_formula_units_Z 32
_cell_length_a 7.409770
_cell_length_b 10.606978
_cell_length_c 18.019492
_cell_angle_alpha 90.000000
_cell_angle_beta 90.000000
_cell_angle_gamma 90.000000
_cell_volume 1416.246792
_symmetry_space_group_name_H-M "P M C 21"
_symmetry_group_IT_number 26
_symmetry_cell_setting 'orthorhombic'
loop_
_space_group_symop_operation_xyz
x,y,z
-x,-y,1/2+z
-x,y,z
x,-y,1/2+z
loop_
_atom_site_type_symbol
_atom_site_label
_atom_site_fract_x
_atom_site_fract_y
_atom_site_fract_z
Si Si1 0.705088 0.457131 0.207340
Si Si2 0.711703 0.263374 0.325243
Si Si3 0.782667 0.985320 0.310315
Si Si4 0.720543 0.527590 0.052035
Si Si5 0.294942 0.057729 0.982605
Si Si6 0.205901 0.721211 0.267850
Si Si7 0.280154 0.679910 0.439294
Si Si8 0.721568 0.787545 0.992962
O O1 0.500000 0.409254 0.199233
O O2 0.787946 0.372559 0.272624
O O3 0.787371 0.458562 0.125721
O O4 0.698893 0.603655 0.230286
O O5 0.500000 0.292169 0.336163
O O6 0.782984 0.247127 0.409049
O O7 0.731953 0.126290 0.287073
O O8 0.704723 0.967503 0.393327
O O9 0.722818 0.864597 0.262224
O O10 0.000000 0.977663 0.316177
O O11 0.500000 0.527718 0.054670
O O12 0.771374 0.448253 0.979688
O O13 0.775937 0.672635 0.045046
O O14 0.500000 0.066173 0.010245
O O15 0.217478 0.198022 0.986494
O O16 0.214359 0.928019 0.013509
O O17 0.210879 0.692669 0.356056
O O18 0.000000 0.719542 0.241663
O O19 0.500000 0.684797 0.435082
O O20 0.500000 0.793560 0.991772
#
# Coordination Sequence:
#
# PCOD9338245 Si02
#       8
#     4   4   4   4   4   4   4   4
#     4  10  20  33  49  71 100 133 166 200 240 286
#     4   9  17  30  49  72  96 123 158 198 239 286
#     4   9  17  29  47  71  96 121 155 201 245 283
#     4   9  17  29  46  70  98 125 156 196 240 285
#     4   8  14  25  44  69  94 120 151 190 238 287
#     4  10  20  33  50  73  99 127 162 202 242 288
#     4   9  16  29  50  72  94 122 157 198 242 287
#     4   8  13  24  43  66  91 117 147 187 232 276
#
# _framework density 22.594933000000001
#
# number of rings (size 3 to 8) (size 9 to 14) (size 15 to 20)
#    0.000    3.000    0.000    2.250    0.000    4.000 
#    0.000    1.875    0.000    7.500    0.000    7.000 
#    0.000    0.000    0.000    0.000    0.000    0.000 
#
# Total GULP energy -178391.991730 kJ/mol
# GULP energy per Si atom -5574.749742 kJ/mol
# Density = 2.254351 g / cm^3
# Si number density = 22.594933 Si / 1000 Ang^3
#
#
#
# Elastic Constant Matrix: (Units=GPa)
#
#
# Indices 1 2 3 4 5 6 
#
# 1 77.1966 -14.1255 -7.5137 0.0000 0.0000 0.0000
# 2 -14.1255 73.7588 -8.2298 0.0000 0.0000 0.0000
# 3 -7.5137 -8.2298 19.0983 0.0000 0.0000 0.0000
# 4 0.0000 0.0000 0.0000 4.2030 0.0000 0.0000
# 5 0.0000 0.0000 0.0000 0.0000 -0.1526 0.0000
# 6 0.0000 0.0000 0.0000 0.0000 0.0000 -5.8597
#
#
#
# Elastic Compliance Matrix: (Units=1/GPa)
#
#
# Indices 1 2 3 4 5 6 
#
# 1 0.014297 0.003535 0.007148 0.000000 0.000000 0.000000
# 2 0.003535 0.015117 0.007905 0.000000 0.000000 0.000000
# 3 0.007148 0.007905 0.058579 0.000000 0.000000 0.000000
# 4 0.000000 0.000000 0.000000 0.237923 0.000000 0.000000
# 5 0.000000 0.000000 0.000000 0.000000 -6.552069 0.000000
# 6 0.000000 0.000000 0.000000 0.000000 0.000000 -0.170658
#
#
# Mechanical properties :
#
#
# Convention : Reuss Voigt Hill
#
# Bulk Modulus (GPa) = 7.98915 12.25731 10.12323
# Shear Modulus (GPa) = -0.78220 12.96633 6.09207
#
# Velocity S-wave (km/s) = -0.58901 2.39814 1.64380
# Velocity P-wave (km/s) = 1.75525 3.62004 2.84478
#
# Compressibility (1/GPa) = 0.12516981
#
# Stress axis : x y z
#
# Youngs Moduli (GPa) = 69.94667 66.15160 17.07090
#
# Poissons Ratio (x) = -0.23388 -0.12202
# Poissons Ratio (y) = -0.24730 -0.13495
# Poissons Ratio (z) = -0.49999 -0.52293
#
# Static dielectric constant tensor:
#      x y z
#    x 1.887800 0.000000 0.000000 
#    y 0.000000 1.875580 0.000000 
#    z 0.000000 0.000000 1.812610 
# 
# From -- ./inp_files/5091.got.cif
#   From: 2010.05.17/outbox.cif.g08.bks.cpg/sg26_3_cif.got.tgz:5091.got - 2010.06.04 01:07:29.
