data_PCOD9338089
_publ_section_title
;
Structure prediction by ZEFSAII (Michael W. Deem and Ramdas Pophale) SiO2 
 PCOD9338089
Probable space group: P M C 21
;
_chemical_formula_sum "Si O2"
_cell_formula_units_Z 24
_cell_length_a 7.705219
_cell_length_b 9.759729
_cell_length_c 15.761589
_cell_angle_alpha 90.000000
_cell_angle_beta 90.000000
_cell_angle_gamma 90.000000
_cell_volume 1185.284880
_symmetry_space_group_name_H-M "P M C 21"
_symmetry_group_IT_number 26
_symmetry_cell_setting 'orthorhombic'
loop_
_space_group_symop_operation_xyz
x,y,z
-x,-y,1/2+z
-x,y,z
x,-y,1/2+z
loop_
_atom_site_type_symbol
_atom_site_label
_atom_site_fract_x
_atom_site_fract_y
_atom_site_fract_z
Si Si1 0.702571 0.355115 0.439080
Si Si2 0.202432 0.666259 0.446152
Si Si3 0.786278 0.844739 0.289031
Si Si4 0.793533 0.156552 0.287340
Si Si5 0.790484 0.338828 0.632560
Si Si6 0.213067 0.651013 0.636381
O O1 0.500000 0.375760 0.426173
O O2 0.787546 0.504350 0.426111
O O3 0.765207 0.242863 0.372558
O O4 0.734596 0.311177 0.536229
O O5 0.274905 0.757892 0.370410
O O6 0.274684 0.685021 0.541085
O O7 0.000000 0.703107 0.452225
O O8 0.731224 0.768469 0.202938
O O9 0.000000 0.842654 0.289496
O O10 0.727141 0.001682 0.292401
O O11 0.725548 0.244408 0.207819
O O12 0.000000 0.145198 0.274515
O O13 0.735284 0.494104 0.655029
O O14 0.000000 0.338082 0.632541
O O15 0.000000 0.651993 0.635826
#
# Coordination Sequence:
#
# PCOD9338089 Si02
#       6
#     4   4   4   4   4   4
#     4  11  22  35  51  75 103 139 180 215 252 301
#     4   9  17  34  56  78 102 132 170 216 260 305
#     4   9  18  31  55  85 107 130 168 211 259 312
#     4  10  19  33  53  80 109 137 167 209 259 311
#     4   9  17  33  54  76 101 134 173 217 259 301
#     4   8  15  28  51  76 100 130 166 206 253 300
#
# _framework density 20.248297000000001
#
# number of rings (size 3 to 8) (size 9 to 14) (size 15 to 20)
#    0.000    2.667    0.000    3.500    0.000    4.000 
#    0.000   14.167    0.000    0.000    0.000    0.000 
#    0.000    0.000    0.000    0.000    0.000    0.000 
#
# Total GULP energy -133943.382444 kJ/mol
# GULP energy per Si atom -5580.974269 kJ/mol
# Density = 2.020221 g / cm^3
# Si number density = 20.248297 Si / 1000 Ang^3
#
#
#
# Elastic Constant Matrix: (Units=GPa)
#
#
# Indices 1 2 3 4 5 6 
#
# 1 27.1822 -6.2416 -11.1979 0.0000 0.0000 0.0000
# 2 -6.2416 158.1957 145.1531 0.0000 0.0000 0.0000
# 3 -11.1979 145.1531 153.7920 0.0000 0.0000 0.0000
# 4 0.0000 0.0000 0.0000 -7.6044 0.0000 0.0000
# 5 0.0000 0.0000 0.0000 0.0000 -17.5290 0.0000
# 6 0.0000 0.0000 0.0000 0.0000 0.0000 -13.4643
#
#
#
# Elastic Compliance Matrix: (Units=1/GPa)
#
#
# Indices 1 2 3 4 5 6 
#
# 1 0.039241 -0.008011 0.010419 0.000000 0.000000 0.000000
# 2 -0.008011 0.048814 -0.046655 0.000000 0.000000 0.000000
# 3 0.010419 -0.046655 0.051295 0.000000 0.000000 0.000000
# 4 0.000000 0.000000 0.000000 -0.131502 0.000000 0.000000
# 5 0.000000 0.000000 0.000000 0.000000 -0.057048 0.000000
# 6 0.000000 0.000000 0.000000 0.000000 0.000000 -0.074270
#
#
# Mechanical properties :
#
#
# Convention : Reuss Voigt Hill
#
# Bulk Modulus (GPa) = 19.66392 66.06633 42.86513
# Shear Modulus (GPa) = -277.41172 6.37753 -135.51709
#
# Velocity S-wave (km/s) = -11.71761 1.77665 -8.18981
# Velocity P-wave (km/s) = 13.16577 6.07516 8.25923
#
# Compressibility (1/GPa) = 0.05085456
#
# Stress axis : x y z
#
# Youngs Moduli (GPa) = 25.48337 20.48607 19.49504
#
# Poissons Ratio (x) = 0.16412 -0.20311
# Poissons Ratio (y) = 0.20416 0.90954
# Poissons Ratio (z) = -0.26550 0.95578
#
# Static dielectric constant tensor:
#      x y z
#    x 1.735030 0.000000 0.000000 
#    y 0.000000 1.704100 0.000000 
#    z 0.000000 0.000000 1.709460 
# 
# From -- ./inp_files/3916.got.cif
#   From: 2010.05.17/outbox.cif.g08.bks.cpg/sg26_2_cif.got.tgz:3916.got - 2010.06.04 01:07:29.
