data_PCOD9338833
_publ_section_title
;
Structure prediction by ZEFSAII (Michael W. Deem and Ramdas Pophale) SiO2 
 PCOD9338833
Probable space group: P C C 2
;
_chemical_formula_sum "Si O2"
_cell_formula_units_Z 26
_cell_length_a 7.759994
_cell_length_b 9.762063
_cell_length_c 16.104165
_cell_angle_alpha 90.000000
_cell_angle_beta 90.000000
_cell_angle_gamma 90.000000
_cell_volume 1219.947673
_symmetry_space_group_name_H-M "P C C 2"
_symmetry_group_IT_number 27
_symmetry_cell_setting 'orthorhombic'
loop_
_space_group_symop_operation_xyz
x,y,z
-x,-y,z
-x,y,1/2+z
x,-y,1/2+z
loop_
_atom_site_type_symbol
_atom_site_label
_atom_site_fract_x
_atom_site_fract_y
_atom_site_fract_z
Si Si1 0.923798 0.360679 0.847630
Si Si2 0.500000 0.000000 0.661658
Si Si3 0.697596 0.998482 0.422148
Si Si4 0.697961 0.478163 0.998122
Si Si5 0.124644 0.242987 0.004419
Si Si6 0.160173 0.085211 0.254982
Si Si7 0.239110 0.801631 0.062735
O O1 0.785008 0.425030 0.912615
O O2 0.875941 0.242031 0.782402
O O3 0.000000 0.500000 0.807629
O O4 0.051496 0.286787 0.913729
O O5 0.345946 0.921560 0.709950
O O6 0.622150 0.889699 0.613872
O O7 0.747792 0.118150 0.486006
O O8 0.500000 0.000000 0.398733
O O9 0.808751 0.000220 0.339987
O O10 0.730523 0.858178 0.469845
O O11 0.500000 0.500000 0.980898
O O12 0.783804 0.617518 0.031141
O O13 0.719132 0.357853 0.064781
O O14 0.970619 0.194606 0.065140
O O15 0.000000 0.000000 0.214990
#
# Coordination Sequence:
#
# PCOD9338833 Si02
#       7
#     4   2   4   4   4   4   4
#     4   9  19  37  63  99 133 161 215 274 349 398
#     4  12  30  42  66  98 138 188 242 272 344 426
#     4  12  20  36  69 102 130 160 224 287 340 387
#     4  10  20  35  64 104 129 159 215 286 344 402
#     4  10  20  35  69 104 124 168 212 286 353 393
#     4  12  23  44  68  98 135 181 226 285 338 410
#     4  11  22  43  60  97 132 170 227 281 340 401
#
# _framework density 21.312389
#
# number of rings (size 3 to 8) (size 9 to 14) (size 15 to 20)
#    0.000    1.231    6.154    2.769    0.000    1.231 
#    0.000    0.000    3.385    0.000    0.000    0.000 
#    0.000    0.000    0.000    0.000    0.000    0.000 
#
# Total GULP energy -144886.004092 kJ/mol
# GULP energy per Si atom -5572.538619 kJ/mol
# Density = 2.126388 g / cm^3
# Si number density = 21.312389 Si / 1000 Ang^3
#
#
#
# Elastic Constant Matrix: (Units=GPa)
#
#
# Indices 1 2 3 4 5 6 
#
# 1 147.2184 68.4890 25.2541 0.0000 0.0000 0.0000
# 2 68.4890 149.1689 38.4324 0.0000 0.0000 0.0000
# 3 25.2541 38.4324 37.3885 0.0000 0.0000 0.0000
# 4 0.0000 0.0000 0.0000 14.8668 0.0000 0.0000
# 5 0.0000 0.0000 0.0000 0.0000 16.9510 0.0000
# 6 0.0000 0.0000 0.0000 0.0000 0.0000 31.2927
#
#
#
# Elastic Compliance Matrix: (Units=1/GPa)
#
#
# Indices 1 2 3 4 5 6 
#
# 1 0.008798 -0.003412 -0.002435 0.000000 0.000000 0.000000
# 2 -0.003412 0.010442 -0.008429 0.000000 0.000000 0.000000
# 3 -0.002435 -0.008429 0.037055 0.000000 0.000000 0.000000
# 4 0.000000 0.000000 0.000000 0.067264 0.000000 0.000000
# 5 0.000000 0.000000 0.000000 0.000000 0.058993 0.000000
# 6 0.000000 0.000000 0.000000 0.000000 0.000000 0.031956
#
#
# Mechanical properties :
#
#
# Convention : Reuss Voigt Hill
#
# Bulk Modulus (GPa) = 36.04530 66.45855 51.25192
# Shear Modulus (GPa) = 19.81700 26.06212 22.93956
#
# Velocity S-wave (km/s) = 3.05263 3.50074 3.28433
# Velocity P-wave (km/s) = 5.41980 6.89862 6.20344
#
# Compressibility (1/GPa) = 0.02774287
#
# Stress axis : x y z
#
# Youngs Moduli (GPa) = 113.66647 95.76689 26.98659
#
# Poissons Ratio (x) = 0.32675 0.06572
# Poissons Ratio (y) = 0.38782 0.22747
# Poissons Ratio (z) = 0.27680 0.80722
#
# Static dielectric constant tensor:
#      x y z
#    x 1.832450 0.000000 0.000000 
#    y 0.000000 1.797970 0.000000 
#    z 0.000000 0.000000 1.800560 
# 
# From -- ./inp_files/4307.got.cif
#   From: 2010.05.17/outbox.cif.g08.bks.cpg/sg27_3_cif.got.tgz:4307.got - 2010.06.04 01:11:05.
