data_PCOD9338482
_publ_section_title
;
Structure prediction by ZEFSAII (Michael W. Deem and Ramdas Pophale) SiO2 
 PCOD9338482
Probable space group: P M C 21
;
_chemical_formula_sum "Si O2"
_cell_formula_units_Z 32
_cell_length_a 9.670433
_cell_length_b 28.528992
_cell_length_c 5.389467
_cell_angle_alpha 90.000000
_cell_angle_beta 90.000000
_cell_angle_gamma 90.000000
_cell_volume 1486.887686
_symmetry_space_group_name_H-M "P M C 21"
_symmetry_group_IT_number 26
_symmetry_cell_setting 'orthorhombic'
loop_
_space_group_symop_operation_xyz
x,y,z
-x,-y,1/2+z
-x,y,z
x,-y,1/2+z
loop_
_atom_site_type_symbol
_atom_site_label
_atom_site_fract_x
_atom_site_fract_y
_atom_site_fract_z
Si Si1 0.334431 0.471118 0.521160
Si Si2 0.340169 0.969765 0.081204
Si Si3 0.153830 0.900167 0.821054
Si Si4 0.654537 0.245108 0.261012
Si Si5 0.653424 0.851816 0.491155
Si Si6 0.837123 0.316243 0.000159
Si Si7 0.153511 0.803354 0.092817
Si Si8 0.162322 0.376050 0.502996
O O1 0.500000 0.463361 0.520382
O O2 0.300028 0.500693 0.273293
O O3 0.255389 0.422076 0.515579
O O4 0.500000 0.952820 0.068369
O O5 0.226592 0.929545 0.037591
O O6 0.322029 0.003342 0.840327
O O7 0.268084 0.896095 0.606148
O O8 0.136147 0.845907 0.897628
O O9 0.000000 0.918034 0.757020
O O10 0.500000 0.263141 0.320376
O O11 0.636453 0.190819 0.185668
O O12 0.729947 0.274050 0.045386
O O13 0.767402 0.240920 0.478600
O O14 0.500000 0.863757 0.400756
O O15 0.750289 0.827750 0.291907
O O16 0.814787 0.349076 0.243004
O O17 0.000000 0.302011 0.005885
O O18 0.811243 0.343772 0.744706
O O19 0.000000 0.791138 0.182912
O O20 0.000000 0.388905 0.512114
#
# Coordination Sequence:
#
# PCOD9338482 Si02
#       8
#     4   4   4   4   4   4   4   4
#     4  10  21  37  59  87 118 151 192 243 300 357
#     4  10  23  42  63  90 122 160 201 243 299 363
#     4  10  22  39  59  87 118 153 197 245 301 357
#     4  10  22  38  56  84 115 153 203 249 298 357
#     4  10  21  37  59  86 117 152 197 250 298 356
#     4  10  22  39  58  84 119 159 199 246 297 355
#     4  10  21  37  59  86 117 153 196 248 303 359
#     4  10  22  39  59  86 118 155 201 244 296 358
#
# _framework density 21.521464000000002
#
# number of rings (size 3 to 8) (size 9 to 14) (size 15 to 20)
#    0.000    2.000    0.000    2.250    3.500    5.000 
#    0.000    0.000    0.000    0.000    0.000    0.000 
#    0.000    0.000    0.000    0.000    0.000    0.000 
#
# Total GULP energy -178639.575742 kJ/mol
# GULP energy per Si atom -5582.486742 kJ/mol
# Density = 2.147248 g / cm^3
# Si number density = 21.521464 Si / 1000 Ang^3
#
#
#
# Elastic Constant Matrix: (Units=GPa)
#
#
# Indices 1 2 3 4 5 6 
#
# 1 134.7013 48.0226 35.1407 0.0000 0.0000 0.0000
# 2 48.0226 95.4702 36.8038 0.0000 0.0000 0.0000
# 3 35.1407 36.8038 108.7661 0.0000 0.0000 0.0000
# 4 0.0000 0.0000 0.0000 39.7608 0.0000 0.0000
# 5 0.0000 0.0000 0.0000 0.0000 16.6178 0.0000
# 6 0.0000 0.0000 0.0000 0.0000 0.0000 32.3798
#
#
#
# Elastic Compliance Matrix: (Units=1/GPa)
#
#
# Indices 1 2 3 4 5 6 
#
# 1 0.009292 -0.004044 -0.001634 0.000000 0.000000 0.000000
# 2 -0.004044 0.013806 -0.003365 0.000000 0.000000 0.000000
# 3 -0.001634 -0.003365 0.010860 0.000000 0.000000 0.000000
# 4 0.000000 0.000000 0.000000 0.025150 0.000000 0.000000
# 5 0.000000 0.000000 0.000000 0.000000 0.060176 0.000000
# 6 0.000000 0.000000 0.000000 0.000000 0.000000 0.030883
#
#
# Mechanical properties :
#
#
# Convention : Reuss Voigt Hill
#
# Bulk Modulus (GPa) = 63.00113 64.31910 63.66011
# Shear Modulus (GPa) = 28.81103 32.34973 30.58038
#
# Velocity S-wave (km/s) = 3.66281 3.88124 3.77360
# Velocity P-wave (km/s) = 6.87207 7.07363 6.97358
#
# Compressibility (1/GPa) = 0.01587273
#
# Stress axis : x y z
#
# Youngs Moduli (GPa) = 107.62198 72.43273 92.07712
#
# Poissons Ratio (x) = 0.29293 0.15042
# Poissons Ratio (y) = 0.43524 0.30984
# Poissons Ratio (z) = 0.17581 0.24374
#
# Static dielectric constant tensor:
#      x y z
#    x 1.841280 0.000000 0.000000 
#    y 0.000000 1.785840 0.000000 
#    z 0.000000 0.000000 1.843280 
# 
# From -- ./inp_files/228.got.cif
#   From: 2010.05.17/outbox.cif.g08.bks.cpg/sg26_1_cif.got.tgz:228.got - 2010.06.04 01:07:29.
