data_PCOD9338625
_publ_section_title
;
Structure prediction by ZEFSAII (Michael W. Deem and Ramdas Pophale) SiO2 
 PCOD9338625
Probable space group: P M C 21
;
_chemical_formula_sum "Si O2"
_cell_formula_units_Z 24
_cell_length_a 10.544823
_cell_length_b 11.891435
_cell_length_c 8.876664
_cell_angle_alpha 90.000000
_cell_angle_beta 90.000000
_cell_angle_gamma 90.000000
_cell_volume 1113.072215
_symmetry_space_group_name_H-M "P M C 21"
_symmetry_group_IT_number 26
_symmetry_cell_setting 'orthorhombic'
loop_
_space_group_symop_operation_xyz
x,y,z
-x,-y,1/2+z
-x,y,z
x,-y,1/2+z
loop_
_atom_site_type_symbol
_atom_site_label
_atom_site_fract_x
_atom_site_fract_y
_atom_site_fract_z
Si Si1 0.651804 0.777680 0.502520
Si Si2 0.368620 0.120029 0.537636
Si Si3 0.252943 0.014149 0.807642
Si Si4 0.862948 0.787117 0.756343
Si Si5 0.645313 0.437861 0.783695
Si Si6 0.733744 0.358976 0.485388
O O1 0.500000 0.803122 0.529075
O O2 0.725013 0.875353 0.408906
O O3 0.740973 0.764802 0.649408
O O4 0.653847 0.665599 0.400667
O O5 0.500000 0.095147 0.617920
O O6 0.263834 0.060628 0.639286
O O7 0.353253 0.251758 0.523890
O O8 0.363551 0.065297 0.374292
O O9 0.145035 0.918277 0.808193
O O10 0.847618 0.703857 0.898987
O O11 0.000000 0.768186 0.682649
O O12 0.500000 0.442329 0.724477
O O13 0.743227 0.419681 0.646629
O O14 0.674070 0.551561 0.872376
#
# Coordination Sequence:
#
# PCOD9338625 Si02
#       6
#     4   4   4   4   4   4
#     4  11  23  41  69 105 140 178 228 287 349 417
#     4  11  20  35  60  95 137 175 219 276 339 399
#     4  11  22  37  61  97 132 179 220 278 337 412
#     4  11  27  48  68  97 138 186 238 288 346 417
#     4  11  22  40  68 105 144 180 228 288 355 416
#     4  11  24  41  64  97 136 186 230 283 339 413
#
# _framework density 21.561941000000001
#
# number of rings (size 3 to 8) (size 9 to 14) (size 15 to 20)
#    0.000    1.000    3.333    4.000    0.000    6.667 
#    0.000    4.167    0.000    0.000    0.000    0.000 
#    0.000    0.000    0.000    0.000    0.000    0.000 
#
# Total GULP energy -133672.888218 kJ/mol
# GULP energy per Si atom -5569.703676 kJ/mol
# Density = 2.151287 g / cm^3
# Si number density = 21.561941 Si / 1000 Ang^3
#
#
#
# Elastic Constant Matrix: (Units=GPa)
#
#
# Indices 1 2 3 4 5 6 
#
# 1 85.1186 15.9369 39.6778 0.0000 0.0000 0.0000
# 2 15.9369 135.2695 48.2219 0.0000 0.0000 0.0000
# 3 39.6778 48.2219 107.0168 0.0000 0.0000 0.0000
# 4 0.0000 0.0000 0.0000 47.0565 0.0000 0.0000
# 5 0.0000 0.0000 0.0000 0.0000 2.2971 0.0000
# 6 0.0000 0.0000 0.0000 0.0000 0.0000 -4.1492
#
#
#
# Elastic Compliance Matrix: (Units=1/GPa)
#
#
# Indices 1 2 3 4 5 6 
#
# 1 0.014210 0.000243 -0.005378 0.000000 0.000000 0.000000
# 2 0.000243 0.008812 -0.004061 0.000000 0.000000 0.000000
# 3 -0.005378 -0.004061 0.013168 0.000000 0.000000 0.000000
# 4 0.000000 0.000000 0.000000 0.021251 0.000000 0.000000
# 5 0.000000 0.000000 0.000000 0.000000 0.435330 0.000000
# 6 0.000000 0.000000 0.000000 0.000000 0.000000 -0.241012
#
#
# Mechanical properties :
#
#
# Convention : Reuss Voigt Hill
#
# Bulk Modulus (GPa) = 56.18533 59.45311 57.81922
# Shear Modulus (GPa) = 18.11053 23.94543 21.02798
#
# Velocity S-wave (km/s) = 2.90130 3.33609 3.12626
# Velocity P-wave (km/s) = 6.11045 6.51709 6.31704
#
# Compressibility (1/GPa) = 0.01779824
#
# Stress axis : x y z
#
# Youngs Moduli (GPa) = 70.37439 113.48710 75.94180
#
# Poissons Ratio (x) = -0.02758 0.40841
# Poissons Ratio (y) = -0.01710 0.30837
# Poissons Ratio (z) = 0.37847 0.46083
#
# Static dielectric constant tensor:
#      x y z
#    x 2.411110 0.000000 0.000000 
#    y 0.000000 1.793720 0.000000 
#    z 0.000000 0.000000 1.873750 
# 
# From -- ./inp_files/1807.got.cif
#   From: 2010.05.17/outbox.cif.g08.bks.cpg/sg26_1_cif.got.tgz:1807.got - 2010.06.04 01:07:29.
