data_PCOD9338547
_publ_section_title
;
Structure prediction by ZEFSAII (Michael W. Deem and Ramdas Pophale) SiO2 
 PCOD9338547
Probable space group: P M C 21
;
_chemical_formula_sum "Si O2"
_cell_formula_units_Z 24
_cell_length_a 17.122572
_cell_length_b 5.182258
_cell_length_c 9.689274
_cell_angle_alpha 90.000000
_cell_angle_beta 90.000000
_cell_angle_gamma 90.000000
_cell_volume 859.764025
_symmetry_space_group_name_H-M "P M C 21"
_symmetry_group_IT_number 26
_symmetry_cell_setting 'orthorhombic'
loop_
_space_group_symop_operation_xyz
x,y,z
-x,-y,1/2+z
-x,y,z
x,-y,1/2+z
loop_
_atom_site_type_symbol
_atom_site_label
_atom_site_fract_x
_atom_site_fract_y
_atom_site_fract_z
Si Si1 0.087552 0.461127 0.365080
Si Si2 0.500000 0.965180 0.359163
Si Si3 0.215068 0.784784 0.513131
Si Si4 0.332807 0.511970 0.205736
Si Si5 0.085969 0.960345 0.181717
Si Si6 0.332954 0.822632 0.954069
Si Si7 0.500000 0.301842 0.114071
O O1 0.159967 0.558008 0.454897
O O2 0.094690 0.178913 0.299611
O O3 0.000000 0.480295 0.428777
O O4 0.089000 0.676335 0.244218
O O5 0.580650 0.083674 0.415693
O O6 0.500000 0.024174 0.196071
O O7 0.500000 0.700956 0.447228
O O8 0.324462 0.226021 0.618002
O O9 0.153559 0.985333 0.575978
O O10 0.270589 0.957797 0.415445
O O11 0.322709 0.441188 0.366376
O O12 0.421014 0.432191 0.165468
O O13 0.269580 0.331787 0.131439
O O14 0.000000 0.001639 0.119775
#
# Coordination Sequence:
#
# PCOD9338547 Si02
#       7
#     4   2   4   4   4   4   2
#     4  10  24  45  69 101 143 191 243 299 369 448
#     4  10  21  44  66  95 143 187 257 307 393 453
#     4  12  25  41  71 103 146 183 250 305 386 435
#     4  11  26  43  71 101 145 191 253 307 388 453
#     4  10  24  45  70 101 143 192 243 300 369 449
#     4  11  26  45  69 106 143 200 247 322 376 465
#     4  10  21  44  66  99 135 197 243 313 379 467
#
# _framework density 27.914636999999999
#
# number of rings (size 3 to 8) (size 9 to 14) (size 15 to 20)
#    0.000    1.333    1.667    2.000    7.000    2.667 
#    0.000    5.000    0.000    0.000    0.000    0.000 
#    0.000    0.000    0.000    0.000    0.000    0.000 
#
# Total GULP energy -134558.372970 kJ/mol
# GULP energy per Si atom -5606.598874 kJ/mol
# Density = 2.785110 g / cm^3
# Si number density = 27.914637 Si / 1000 Ang^3
#
#
#
# Elastic Constant Matrix: (Units=GPa)
#
#
# Indices 1 2 3 4 5 6 
#
# 1 224.5795 43.2665 58.7785 0.0000 0.0000 0.0000
# 2 43.2665 78.3919 31.4078 0.0000 0.0000 0.0000
# 3 58.7785 31.4078 100.7261 0.0000 0.0000 0.0000
# 4 0.0000 0.0000 0.0000 49.7997 0.0000 0.0000
# 5 0.0000 0.0000 0.0000 0.0000 17.2877 0.0000
# 6 0.0000 0.0000 0.0000 0.0000 0.0000 31.4654
#
#
#
# Elastic Compliance Matrix: (Units=1/GPa)
#
#
# Indices 1 2 3 4 5 6 
#
# 1 0.005518 -0.002006 -0.002595 0.000000 0.000000 0.000000
# 2 -0.002006 0.015307 -0.003602 0.000000 0.000000 0.000000
# 3 -0.002595 -0.003602 0.012565 0.000000 0.000000 0.000000
# 4 0.000000 0.000000 0.000000 0.020080 0.000000 0.000000
# 5 0.000000 0.000000 0.000000 0.000000 0.057845 0.000000
# 6 0.000000 0.000000 0.000000 0.000000 0.000000 0.031781
#
#
# Mechanical properties :
#
#
# Convention : Reuss Voigt Hill
#
# Bulk Modulus (GPa) = 58.87751 74.51142 66.69447
# Shear Modulus (GPa) = 30.27291 37.72687 33.99989
#
# Velocity S-wave (km/s) = 3.29672 3.68028 3.49376
# Velocity P-wave (km/s) = 5.96900 6.69401 6.34187
#
# Compressibility (1/GPa) = 0.01698441
#
# Stress axis : x y z
#
# Youngs Moduli (GPa) = 181.21320 65.33003 79.58454
#
# Poissons Ratio (x) = 0.13106 0.20650
# Poissons Ratio (y) = 0.36354 0.28668
# Poissons Ratio (z) = 0.47019 0.23533
#
# Static dielectric constant tensor:
#      x y z
#    x 2.094890 0.000000 0.000000 
#    y 0.000000 2.184230 0.000000 
#    z 0.000000 0.000000 2.172800 
# 
# From -- ./inp_files/3650.got.cif
#   From: 2010.05.17/outbox.cif.g08.bks.cpg/sg26_2_cif.got.tgz:3650.got - 2010.06.04 01:07:29.
