data_PCOD9338586
_publ_section_title
;
Structure prediction by ZEFSAII (Michael W. Deem and Ramdas Pophale) SiO2 
 PCOD9338586
Probable space group: P M C 21
;
_chemical_formula_sum "Si O2"
_cell_formula_units_Z 20
_cell_length_a 10.524324
_cell_length_b 5.196498
_cell_length_c 15.302949
_cell_angle_alpha 90.000000
_cell_angle_beta 90.000000
_cell_angle_gamma 90.000000
_cell_volume 836.912598
_symmetry_space_group_name_H-M "P M C 21"
_symmetry_group_IT_number 26
_symmetry_cell_setting 'orthorhombic'
loop_
_space_group_symop_operation_xyz
x,y,z
-x,-y,1/2+z
-x,y,z
x,-y,1/2+z
loop_
_atom_site_type_symbol
_atom_site_label
_atom_site_fract_x
_atom_site_fract_y
_atom_site_fract_z
Si Si1 0.359276 0.915717 0.227680
Si Si2 0.133783 0.534361 0.859577
Si Si3 0.351719 0.088378 0.420295
Si Si4 0.222727 0.431034 0.175530
Si Si5 0.861897 0.835462 0.514600
O O1 0.500000 0.006919 0.205149
O O2 0.355062 0.902816 0.334038
O O3 0.332122 0.644068 0.182068
O O4 0.264312 0.139664 0.198411
O O5 0.138191 0.480861 0.757014
O O6 0.000000 0.680400 0.877122
O O7 0.262181 0.680313 0.886515
O O8 0.127529 0.283822 0.918536
O O9 0.500000 0.148929 0.439451
O O10 0.270659 0.988406 0.503356
O O11 0.159033 0.398808 0.082090
O O12 0.000000 0.956024 0.537932
#
# Coordination Sequence:
#
# PCOD9338586 Si02
#       5
#     4   4   4   4   4
#     4  10  22  42  67  95 135 175 221 278 341 404
#     4  10  22  43  66  94 134 179 223 281 339 397
#     4  10  22  41  66  96 130 177 224 279 340 403
#     4  11  23  42  66  99 131 180 228 275 337 403
#     4  11  24  42  65  98 133 175 227 279 334 405
#
# _framework density 23.897358000000001
#
# number of rings (size 3 to 8) (size 9 to 14) (size 15 to 20)
#    0.000    1.600    2.000    1.800    2.800    3.200 
#    0.000    2.000    0.000    0.000    0.000    0.000 
#    0.000    0.000    0.000    0.000    0.000    0.000 
#
# Total GULP energy -111488.988250 kJ/mol
# GULP energy per Si atom -5574.449412 kJ/mol
# Density = 2.384297 g / cm^3
# Si number density = 23.897358 Si / 1000 Ang^3
#
#
#
# Elastic Constant Matrix: (Units=GPa)
#
#
# Indices 1 2 3 4 5 6 
#
# 1 184.2205 7.7226 12.6101 0.0000 0.0000 0.0000
# 2 7.7226 39.5048 -1.3032 0.0000 0.0000 0.0000
# 3 12.6101 -1.3032 54.4990 0.0000 0.0000 0.0000
# 4 0.0000 0.0000 0.0000 31.6977 0.0000 0.0000
# 5 0.0000 0.0000 0.0000 0.0000 -0.3371 0.0000
# 6 0.0000 0.0000 0.0000 0.0000 0.0000 9.1767
#
#
#
# Elastic Compliance Matrix: (Units=1/GPa)
#
#
# Indices 1 2 3 4 5 6 
#
# 1 0.005566 -0.001131 -0.001315 0.000000 0.000000 0.000000
# 2 -0.001131 0.025563 0.000873 0.000000 0.000000 0.000000
# 3 -0.001315 0.000873 0.018674 0.000000 0.000000 0.000000
# 4 0.000000 0.000000 0.000000 0.031548 0.000000 0.000000
# 5 0.000000 0.000000 0.000000 0.000000 -2.966551 0.000000
# 6 0.000000 0.000000 0.000000 0.000000 0.000000 0.108972
#
#
# Mechanical properties :
#
#
# Convention : Reuss Voigt Hill
#
# Bulk Modulus (GPa) = 21.43316 35.14260 28.28788
# Shear Modulus (GPa) = -1.81322 25.38710 11.78694
#
# Velocity S-wave (km/s) = -0.87201 3.26289 2.22329
# Velocity P-wave (km/s) = 2.82391 5.37893 4.29577
#
# Compressibility (1/GPa) = 0.04665668
#
# Stress axis : x y z
#
# Youngs Moduli (GPa) = 179.67165 39.11855 53.55023
#
# Poissons Ratio (x) = 0.04426 0.07041
# Poissons Ratio (y) = 0.20328 -0.04675
# Poissons Ratio (z) = 0.23624 -0.03415
#
# Static dielectric constant tensor:
#      x y z
#    x 2.004260 0.000000 0.000000 
#    y 0.000000 1.915110 0.000000 
#    z 0.000000 0.000000 1.939550 
# 
# From -- ./inp_files/4406.got.cif
#   From: 2010.05.17/outbox.cif.g08.bks.cpg/sg26_3_cif.got.tgz:4406.got - 2010.06.04 01:07:29.
