data_PCOD9338657
_publ_section_title
;
Structure prediction by ZEFSAII (Michael W. Deem and Ramdas Pophale) SiO2 
 PCOD9338657
Probable space group: P M C 21
;
_chemical_formula_sum "Si O2"
_cell_formula_units_Z 24
_cell_length_a 17.637259
_cell_length_b 5.108725
_cell_length_c 12.530523
_cell_angle_alpha 90.000000
_cell_angle_beta 90.000000
_cell_angle_gamma 90.000000
_cell_volume 1129.049066
_symmetry_space_group_name_H-M "P M C 21"
_symmetry_group_IT_number 26
_symmetry_cell_setting 'orthorhombic'
loop_
_space_group_symop_operation_xyz
x,y,z
-x,-y,1/2+z
-x,y,z
x,-y,1/2+z
loop_
_atom_site_type_symbol
_atom_site_label
_atom_site_fract_x
_atom_site_fract_y
_atom_site_fract_z
Si Si1 0.910938 0.513424 0.483680
Si Si2 0.650785 0.295853 0.921819
Si Si3 0.849935 0.012066 0.606215
Si Si4 0.707819 0.735575 0.642701
Si Si5 0.586855 0.189148 0.319544
Si Si6 0.196487 0.658394 0.292132
O O1 0.883788 0.248866 0.539602
O O2 0.862964 0.541427 0.375490
O O3 0.000000 0.509275 0.462306
O O4 0.891982 0.752815 0.564746
O O5 0.604752 0.521391 0.861729
O O6 0.731401 0.256453 0.862275
O O7 0.606382 0.024848 0.909461
O O8 0.666602 0.389946 0.041822
O O9 0.846898 0.110741 0.728754
O O10 0.760749 0.957080 0.589941
O O11 0.645854 0.849468 0.722746
O O12 0.765411 0.545062 0.707543
O O13 0.500000 0.164058 0.286219
#
# Coordination Sequence:
#
# PCOD9338657 Si02
#       6
#     4   4   4   4   4   4
#     4  12  29  46  70 105 146 180 228 297 358 411
#     4  11  24  42  72  99 136 181 232 282 341 409
#     4  12  24  47  72 103 135 182 238 284 341 421
#     4  11  25  44  75 102 134 186 238 288 335 418
#     4  11  26  44  67 105 143 179 226 286 351 410
#     4  11  24  45  74 104 136 182 242 281 346 417
#
# _framework density 21.256826
#
# number of rings (size 3 to 8) (size 9 to 14) (size 15 to 20)
#    0.000    0.667    5.000    1.000    9.333    2.667 
#    0.000    0.000    0.000    0.000    0.000    0.000 
#    0.000    0.000    0.000    0.000    0.000    0.000 
#
# Total GULP energy -134087.568298 kJ/mol
# GULP energy per Si atom -5586.982012 kJ/mol
# Density = 2.120844 g / cm^3
# Si number density = 21.256826 Si / 1000 Ang^3
#
#
#
# Elastic Constant Matrix: (Units=GPa)
#
#
# Indices 1 2 3 4 5 6 
#
# 1 148.5601 28.5040 33.7890 0.0000 0.0000 0.0000
# 2 28.5040 70.1787 16.9624 0.0000 0.0000 0.0000
# 3 33.7890 16.9624 72.5631 0.0000 0.0000 0.0000
# 4 0.0000 0.0000 0.0000 19.4061 0.0000 0.0000
# 5 0.0000 0.0000 0.0000 0.0000 17.8008 0.0000
# 6 0.0000 0.0000 0.0000 0.0000 0.0000 22.5038
#
#
#
# Elastic Compliance Matrix: (Units=1/GPa)
#
#
# Indices 1 2 3 4 5 6 
#
# 1 0.007911 -0.002462 -0.003108 0.000000 0.000000 0.000000
# 2 -0.002462 0.015869 -0.002563 0.000000 0.000000 0.000000
# 3 -0.003108 -0.002563 0.015828 0.000000 0.000000 0.000000
# 4 0.000000 0.000000 0.000000 0.051530 0.000000 0.000000
# 5 0.000000 0.000000 0.000000 0.000000 0.056177 0.000000
# 6 0.000000 0.000000 0.000000 0.000000 0.000000 0.044437
#
#
# Mechanical properties :
#
#
# Convention : Reuss Voigt Hill
#
# Bulk Modulus (GPa) = 42.84341 49.97922 46.41131
# Shear Modulus (GPa) = 23.16986 26.07856 24.62421
#
# Velocity S-wave (km/s) = 3.30509 3.50642 3.40724
# Velocity P-wave (km/s) = 5.89608 6.32111 6.11229
#
# Compressibility (1/GPa) = 0.02334081
#
# Stress axis : x y z
#
# Youngs Moduli (GPa) = 126.41387 63.01704 63.18094
#
# Poissons Ratio (x) = 0.15513 0.19637
# Poissons Ratio (y) = 0.31120 0.16194
# Poissons Ratio (z) = 0.39290 0.16152
#
# Static dielectric constant tensor:
#      x y z
#    x 1.732040 0.000000 0.000000 
#    y 0.000000 1.821120 0.000000 
#    z 0.000000 0.000000 1.798230 
# 
# From -- ./inp_files/3637.got.cif
#   From: 2010.05.17/outbox.cif.g08.bks.cpg/sg26_2_cif.got.tgz:3637.got - 2010.06.04 01:07:29.
