data_PCOD9338675
_publ_section_title
;
Structure prediction by ZEFSAII (Michael W. Deem and Ramdas Pophale) SiO2 
 PCOD9338675
Probable space group: P M C 21
;
_chemical_formula_sum "Si O2"
_cell_formula_units_Z 32
_cell_length_a 9.031540
_cell_length_b 6.972551
_cell_length_c 21.835028
_cell_angle_alpha 90.000000
_cell_angle_beta 90.000000
_cell_angle_gamma 90.000000
_cell_volume 1375.014451
_symmetry_space_group_name_H-M "P M C 21"
_symmetry_group_IT_number 26
_symmetry_cell_setting 'orthorhombic'
loop_
_space_group_symop_operation_xyz
x,y,z
-x,-y,1/2+z
-x,y,z
x,-y,1/2+z
loop_
_atom_site_type_symbol
_atom_site_label
_atom_site_fract_x
_atom_site_fract_y
_atom_site_fract_z
Si Si1 0.329738 0.562298 0.272710
Si Si2 0.170287 0.383937 0.523133
Si Si3 0.166639 0.329669 0.656294
Si Si4 0.329887 0.016864 0.311690
Si Si5 0.169372 0.830022 0.560565
Si Si6 0.678258 0.494426 0.405363
Si Si7 0.178948 0.910553 0.431232
Si Si8 0.830873 0.887681 0.693225
O O1 0.500000 0.512661 0.261435
O O2 0.242226 0.545741 0.209149
O O3 0.326938 0.790359 0.291519
O O4 0.277792 0.457165 0.334789
O O5 0.233250 0.310357 0.588134
O O6 0.165388 0.612823 0.536864
O O7 0.260210 0.364947 0.460415
O O8 0.000000 0.318787 0.513424
O O9 0.158168 0.117089 0.682966
O O10 0.000000 0.402916 0.645934
O O11 0.500000 0.066659 0.324581
O O12 0.235775 0.032769 0.373843
O O13 0.266530 0.131465 0.253716
O O14 0.223454 0.952817 0.502180
O O15 0.000000 0.894822 0.572297
O O16 0.238054 0.824142 0.628053
O O17 0.500000 0.502537 0.407662
O O18 0.746836 0.704086 0.418330
O O19 0.000000 0.897342 0.430042
O O20 0.000000 0.816872 0.702536
#
# Coordination Sequence:
#
# PCOD9338675 Si02
#       8
#     4   4   4   4   4   4   4   4
#     4   8  15  26  40  59  84 109 136 170 209 246
#     4   9  17  29  43  63  88 112 137 173 214 252
#     4   9  17  27  43  65  86 107 138 175 210 246
#     4   9  16  26  40  62  88 111 138 177 214 248
#     4   8  15  27  44  63  85 110 138 170 209 253
#     4   9  16  26  41  63  86 110 141 178 212 248
#     4   9  15  25  42  63  85 112 142 176 214 252
#     4   9  16  28  45  64  84 111 142 173 208 251
#
# _framework density 23.272483000000001
#
# number of rings (size 3 to 8) (size 9 to 14) (size 15 to 20)
#    0.000    3.250    0.000    2.625    0.000    4.000 
#    0.000    3.125    0.000    1.500    0.000    8.750 
#    0.000    0.000    0.000    0.000    0.000    0.000 
#
# Total GULP energy -178545.730826 kJ/mol
# GULP energy per Si atom -5579.554088 kJ/mol
# Density = 2.321951 g / cm^3
# Si number density = 23.272483 Si / 1000 Ang^3
#
#
#
# Elastic Constant Matrix: (Units=GPa)
#
#
# Indices 1 2 3 4 5 6 
#
# 1 62.5498 8.1249 78.6353 0.0000 0.0000 0.0000
# 2 8.1249 62.3408 28.8347 0.0000 0.0000 0.0000
# 3 78.6353 28.8347 251.2615 0.0000 0.0000 0.0000
# 4 0.0000 0.0000 0.0000 51.2007 0.0000 0.0000
# 5 0.0000 0.0000 0.0000 0.0000 6.0251 0.0000
# 6 0.0000 0.0000 0.0000 0.0000 0.0000 4.7215
#
#
#
# Elastic Compliance Matrix: (Units=1/GPa)
#
#
# Indices 1 2 3 4 5 6 
#
# 1 0.026367 0.000402 -0.008298 0.000000 0.000000 0.000000
# 2 0.000402 0.016946 -0.002070 0.000000 0.000000 0.000000
# 3 -0.008298 -0.002070 0.006814 0.000000 0.000000 0.000000
# 4 0.000000 0.000000 0.000000 0.019531 0.000000 0.000000
# 5 0.000000 0.000000 0.000000 0.000000 0.165972 0.000000
# 6 0.000000 0.000000 0.000000 0.000000 0.000000 0.211795
#
#
# Mechanical properties :
#
#
# Convention : Reuss Voigt Hill
#
# Bulk Modulus (GPa) = 33.11902 67.48243 50.30072
# Shear Modulus (GPa) = 10.47287 29.75996 20.11641
#
# Velocity S-wave (km/s) = 2.12365 3.57986 2.94323
# Velocity P-wave (km/s) = 4.50278 6.79314 5.76289
#
# Compressibility (1/GPa) = 0.03019413
#
# Stress axis : x y z
#
# Youngs Moduli (GPa) = 37.92622 59.01040 146.74668
#
# Poissons Ratio (x) = -0.02370 1.21770
# Poissons Ratio (y) = -0.01523 0.30383
# Poissons Ratio (z) = 0.31471 0.12218
#
# Static dielectric constant tensor:
#      x y z
#    x 1.795500 0.000000 0.000000 
#    y 0.000000 2.028800 0.000000 
#    z 0.000000 0.000000 1.924880 
# 
# From -- ./inp_files/5051.got.cif
#   From: 2010.05.17/outbox.cif.g08.bks.cpg/sg26_3_cif.got.tgz:5051.got - 2010.06.04 01:07:29.
