data_PCOD9338120
_publ_section_title
;
Structure prediction by ZEFSAII (Michael W. Deem and Ramdas Pophale) SiO2 
 PCOD9338120
Probable space group: P M C 21
;
_chemical_formula_sum "Si O2"
_cell_formula_units_Z 22
_cell_length_a 30.819366
_cell_length_b 5.177433
_cell_length_c 5.007796
_cell_angle_alpha 90.000000
_cell_angle_beta 90.000000
_cell_angle_gamma 90.000000
_cell_volume 799.069983
_symmetry_space_group_name_H-M "P M C 21"
_symmetry_group_IT_number 26
_symmetry_cell_setting 'orthorhombic'
loop_
_space_group_symop_operation_xyz
x,y,z
-x,-y,1/2+z
-x,y,z
x,-y,1/2+z
loop_
_atom_site_type_symbol
_atom_site_label
_atom_site_fract_x
_atom_site_fract_y
_atom_site_fract_z
Si Si1 0.500000 0.183775 0.041410
Si Si2 0.773263 0.162279 0.194088
Si Si3 0.589006 0.836881 0.692530
Si Si4 0.135249 0.187448 0.113006
Si Si5 0.681197 0.620938 0.512486
Si Si6 0.046768 0.814364 0.473420
O O1 0.454220 0.318054 0.105611
O O2 0.500000 0.942577 0.251108
O O3 0.817054 0.313385 0.107120
O O4 0.726636 0.272385 0.119914
O O5 0.775361 0.091741 0.504827
O O6 0.635883 0.728587 0.620594
O O7 0.586535 0.088289 0.500517
O O8 0.133943 0.040629 0.393398
O O9 0.090885 0.337040 0.046452
O O10 0.681108 0.641818 0.192900
O O11 0.000000 0.681589 0.510302
O O12 0.047541 0.053927 0.683753
#
# Coordination Sequence:
#
# PCOD9338120 Si02
#       6
#     2   4   4   4   4   4
#     4   8  16  30  54  80  98 122 164 204 228 270
#     4  10  19  34  53  70  91 127 168 201 236 285
#     4  10  19  36  58  78 100 132 168 198 234 285
#     4   8  14  23  38  59  81 109 149 188 223 272
#     4  12  24  36  50  75 105 130 160 203 249 287
#     4   8  12  18  29  49  79 109 133 169 226 278
#
# _framework density 27.532008999999999
#
# number of rings (size 3 to 8) (size 9 to 14) (size 15 to 20)
#    0.000    2.545    0.000    3.273    0.000    0.000 
#    0.000    0.909    0.000    0.000    0.000    0.000 
#    0.000    1.455    0.000    0.000    0.000   11.636 
#
# Total GULP energy -122833.688929 kJ/mol
# GULP energy per Si atom -5583.349497 kJ/mol
# Density = 2.746935 g / cm^3
# Si number density = 27.532009 Si / 1000 Ang^3
#
#
#
# Elastic Constant Matrix: (Units=GPa)
#
#
# Indices 1 2 3 4 5 6 
#
# 1 278.3643 15.8530 17.9351 0.0000 0.0000 0.0000
# 2 15.8530 36.4444 25.0985 0.0000 0.0000 0.0000
# 3 17.9351 25.0985 127.1086 0.0000 0.0000 0.0000
# 4 0.0000 0.0000 0.0000 48.3022 0.0000 0.0000
# 5 0.0000 0.0000 0.0000 0.0000 33.0238 0.0000
# 6 0.0000 0.0000 0.0000 0.0000 0.0000 -90.5601
#
#
#
# Elastic Compliance Matrix: (Units=1/GPa)
#
#
# Indices 1 2 3 4 5 6 
#
# 1 0.003690 -0.001443 -0.000236 0.000000 0.000000 0.000000
# 2 -0.001443 0.032322 -0.006179 0.000000 0.000000 0.000000
# 3 -0.000236 -0.006179 0.009121 0.000000 0.000000 0.000000
# 4 0.000000 0.000000 0.000000 0.020703 0.000000 0.000000
# 5 0.000000 0.000000 0.000000 0.000000 0.030281 0.000000
# 6 0.000000 0.000000 0.000000 0.000000 0.000000 -0.011042
#
#
# Mechanical properties :
#
#
# Convention : Reuss Voigt Hill
#
# Bulk Modulus (GPa) = 33.99279 62.18782 48.09031
# Shear Modulus (GPa) = 45.21049 23.68856 34.44952
#
# Velocity S-wave (km/s) = 4.05669 2.93644 3.54114
# Velocity P-wave (km/s) = 5.85796 5.84238 5.85018
#
# Compressibility (1/GPa) = 0.02941800
#
# Stress axis : x y z
#
# Youngs Moduli (GPa) = 271.01994 30.93898 109.64235
#
# Poissons Ratio (x) = 0.04463 0.02585
# Poissons Ratio (y) = 0.39099 0.67743
# Poissons Ratio (z) = 0.06390 0.19116
#
# Static dielectric constant tensor:
#      x y z
#    x 2.281290 0.000000 0.000000 
#    y 0.000000 2.180260 0.000000 
#    z 0.000000 0.000000 2.104210 
# 
# From -- ./inp_files/1085.got.cif
#   From: 2010.05.17/outbox.cif.g08.bks.cpg/sg26_1_cif.got.tgz:1085.got - 2010.06.04 01:07:29.
