data_PCOD9338262
_publ_section_title
;
Structure prediction by ZEFSAII (Michael W. Deem and Ramdas Pophale) SiO2 
 PCOD9338262
Probable space group: P M C 21
;
_chemical_formula_sum "Si O2"
_cell_formula_units_Z 32
_cell_length_a 8.856411
_cell_length_b 10.460471
_cell_length_c 20.136369
_cell_angle_alpha 90.000000
_cell_angle_beta 90.000000
_cell_angle_gamma 90.000000
_cell_volume 1865.478137
_symmetry_space_group_name_H-M "P M C 21"
_symmetry_group_IT_number 26
_symmetry_cell_setting 'orthorhombic'
loop_
_space_group_symop_operation_xyz
x,y,z
-x,-y,1/2+z
-x,y,z
x,-y,1/2+z
loop_
_atom_site_type_symbol
_atom_site_label
_atom_site_fract_x
_atom_site_fract_y
_atom_site_fract_z
Si Si1 0.682321 0.144816 0.966940
Si Si2 0.818191 0.361702 0.721812
Si Si3 0.180482 0.359998 0.568015
Si Si4 0.181241 0.861921 0.321949
Si Si5 0.319155 0.147418 0.473674
Si Si6 0.681978 0.633575 0.568513
Si Si7 0.681917 0.365149 0.222234
Si Si8 0.682041 0.137050 0.319184
O O1 0.500000 0.147991 0.959545
O O2 0.755339 0.167611 0.895204
O O3 0.721717 0.000198 0.988750
O O4 0.727561 0.251550 0.020091
O O5 0.774206 0.337275 0.645057
O O6 0.771044 0.247182 0.770037
O O7 0.749744 0.498133 0.741895
O O8 0.000000 0.370716 0.724031
O O9 0.240473 0.248517 0.521058
O O10 0.247753 0.497846 0.548606
O O11 0.000000 0.365451 0.565062
O O12 0.000000 0.866188 0.323913
O O13 0.244378 0.001066 0.302598
O O14 0.500000 0.160314 0.480568
O O15 0.280998 0.168239 0.395972
O O16 0.500000 0.623234 0.566006
O O17 0.724753 0.659073 0.645302
O O18 0.500000 0.373241 0.225245
O O19 0.729766 0.250159 0.270119
O O20 0.500000 0.123413 0.315418
#
# Coordination Sequence:
#
# PCOD9338262 Si02
#       8
#     4   4   4   4   4   4   4   4
#     4   9  19  35  53  74 101 130 161 203 251 292
#     4   9  20  36  50  70 102 133 163 204 248 288
#     4  10  20  34  51  72 100 133 167 202 242 291
#     4  10  20  34  52  74 100 131 167 203 242 293
#     4   9  18  33  51  73 101 130 161 201 247 291
#     4   9  18  34  54  75 100 129 163 205 249 291
#     4   9  18  33  54  77  98 127 168 205 241 293
#     4   9  19  35  53  75 102 129 162 205 248 291
#
# _framework density 17.153780000000001
#
# number of rings (size 3 to 8) (size 9 to 14) (size 15 to 20)
#    0.000    2.750    0.000    1.500    0.000    6.500 
#    0.000    5.000    0.000    0.000    0.000    0.000 
#    0.000    0.000    0.000    0.000    0.000    0.000 
#
# Total GULP energy -178457.691883 kJ/mol
# GULP energy per Si atom -5576.802871 kJ/mol
# Density = 1.711474 g / cm^3
# Si number density = 17.153780 Si / 1000 Ang^3
#
#
#
# Elastic Constant Matrix: (Units=GPa)
#
#
# Indices 1 2 3 4 5 6 
#
# 1 16.2982 46.7347 35.1922 0.0000 0.0000 0.0000
# 2 46.7347 192.1247 126.9222 0.0000 0.0000 0.0000
# 3 35.1922 126.9222 101.3855 0.0000 0.0000 0.0000
# 4 0.0000 0.0000 0.0000 42.8689 0.0000 0.0000
# 5 0.0000 0.0000 0.0000 0.0000 22.4921 0.0000
# 6 0.0000 0.0000 0.0000 0.0000 0.0000 78.5937
#
#
#
# Elastic Compliance Matrix: (Units=1/GPa)
#
#
# Indices 1 2 3 4 5 6 
#
# 1 0.258620 -0.020843 -0.063678 0.000000 0.000000 0.000000
# 2 -0.020843 0.031770 -0.032537 0.000000 0.000000 0.000000
# 3 -0.063678 -0.032537 0.072699 0.000000 0.000000 0.000000
# 4 0.000000 0.000000 0.000000 0.023327 0.000000 0.000000
# 5 0.000000 0.000000 0.000000 0.000000 0.044460 0.000000
# 6 0.000000 0.000000 0.000000 0.000000 0.000000 0.012724
#
#
# Mechanical properties :
#
#
# Convention : Reuss Voigt Hill
#
# Bulk Modulus (GPa) = 7.75351 80.83405 44.29378
# Shear Modulus (GPa) = 6.93764 35.52156 21.22960
#
# Velocity S-wave (km/s) = 2.01325 4.55551 3.52178
# Velocity P-wave (km/s) = 3.15183 8.65423 6.51267
#
# Compressibility (1/GPa) = 0.12897381
#
# Stress axis : x y z
#
# Youngs Moduli (GPa) = 3.86668 31.47647 13.75532
#
# Poissons Ratio (x) = 0.65606 0.87591
# Poissons Ratio (y) = 0.08059 0.44756
# Poissons Ratio (z) = 0.24622 1.02415
#
# Static dielectric constant tensor:
#      x y z
#    x 1.575240 0.000000 0.000000 
#    y 0.000000 1.555450 0.000000 
#    z 0.000000 0.000000 1.571300 
# 
# From -- ./inp_files/5542.got.cif
#   From: 2010.05.17/outbox.cif.g08.bks.cpg/sg26_3_cif.got.tgz:5542.got - 2010.06.04 01:07:29.
