data_PCOD9338036
_publ_section_title
;
Structure prediction by ZEFSAII (Michael W. Deem and Ramdas Pophale) SiO2 
 PCOD9338036
Probable space group: P M C 21
;
_chemical_formula_sum "Si O2"
_cell_formula_units_Z 20
_cell_length_a 27.974271
_cell_length_b 5.371323
_cell_length_c 4.988396
_cell_angle_alpha 90.000000
_cell_angle_beta 90.000000
_cell_angle_gamma 90.000000
_cell_volume 749.550623
_symmetry_space_group_name_H-M "P M C 21"
_symmetry_group_IT_number 26
_symmetry_cell_setting 'orthorhombic'
loop_
_space_group_symop_operation_xyz
x,y,z
-x,-y,1/2+z
-x,y,z
x,-y,1/2+z
loop_
_atom_site_type_symbol
_atom_site_label
_atom_site_fract_x
_atom_site_fract_y
_atom_site_fract_z
Si Si1 0.599076 0.678089 0.839140
Si Si2 0.000000 0.616727 0.862219
Si Si3 0.500000 0.678654 0.702995
Si Si4 0.100015 0.160064 0.175933
Si Si5 0.198455 0.843481 0.834998
Si Si6 0.302802 0.346081 0.185955
O O1 0.598264 0.442551 0.631865
O O2 0.549677 0.815456 0.770085
O O3 0.650033 0.804217 0.777372
O O4 0.049762 0.722037 0.752724
O O5 0.000000 0.362983 0.682708
O O6 0.500000 0.558306 0.409203
O O7 0.149630 0.296810 0.252450
O O8 0.101292 0.917312 0.368266
O O9 0.250155 0.743160 0.759050
O O10 0.196420 0.089366 0.645993
O O11 0.306209 0.592402 0.373795
#
# Coordination Sequence:
#
# PCOD9338036 Si02
#       6
#     4   2   2   4   4   4
#     4   8  14  23  37  60  88 118 151 191 240 286
#     4  12  24  36  56  86 110 128 162 210 252 286
#     4   8  12  20  34  54  84 116 148 188 232 282
#     4  10  21  39  58  74 101 140 172 197 237 296
#     4  10  21  36  54  75  99 133 172 202 237 292
#     4  10  19  31  49  73 100 127 159 205 255 292
#
# _framework density 26.682656999999999
#
# number of rings (size 3 to 8) (size 9 to 14) (size 15 to 20)
#    0.000    2.400    0.000    3.000    0.000    1.600 
#    0.000    0.000    0.000    0.000    0.000    1.400 
#    0.000    0.000    0.000    0.000    0.000    0.000 
#
# Total GULP energy -111685.466647 kJ/mol
# GULP energy per Si atom -5584.273332 kJ/mol
# Density = 2.662193 g / cm^3
# Si number density = 26.682657 Si / 1000 Ang^3
#
#
#
# Elastic Constant Matrix: (Units=GPa)
#
#
# Indices 1 2 3 4 5 6 
#
# 1 301.3336 22.0024 10.3134 0.0000 0.0000 0.0000
# 2 22.0024 25.8003 15.9708 0.0000 0.0000 0.0000
# 3 10.3134 15.9708 104.9309 0.0000 0.0000 0.0000
# 4 0.0000 0.0000 0.0000 33.6313 0.0000 0.0000
# 5 0.0000 0.0000 0.0000 0.0000 52.2051 0.0000
# 6 0.0000 0.0000 0.0000 0.0000 0.0000 17.9750
#
#
#
# Elastic Compliance Matrix: (Units=1/GPa)
#
#
# Indices 1 2 3 4 5 6 
#
# 1 0.003540 -0.003095 0.000123 0.000000 0.000000 0.000000
# 2 -0.003095 0.045497 -0.006621 0.000000 0.000000 0.000000
# 3 0.000123 -0.006621 0.010526 0.000000 0.000000 0.000000
# 4 0.000000 0.000000 0.000000 0.029734 0.000000 0.000000
# 5 0.000000 0.000000 0.000000 0.000000 0.019155 0.000000
# 6 0.000000 0.000000 0.000000 0.000000 0.000000 0.055633
#
#
# Mechanical properties :
#
#
# Convention : Reuss Voigt Hill
#
# Bulk Modulus (GPa) = 24.76619 58.73753 41.75186
# Shear Modulus (GPa) = 25.41546 46.34749 35.88147
#
# Velocity S-wave (km/s) = 3.08962 4.17224 3.67106
# Velocity P-wave (km/s) = 4.69357 6.72839 5.80090
#
# Compressibility (1/GPa) = 0.04037763
#
# Stress axis : x y z
#
# Youngs Moduli (GPa) = 282.45509 21.97930 95.00605
#
# Poissons Ratio (x) = 0.06804 -0.01170
# Poissons Ratio (y) = 0.87433 0.62900
# Poissons Ratio (z) = -0.03479 0.14552
#
# Static dielectric constant tensor:
#      x y z
#    x 2.218020 0.000000 0.000000 
#    y 0.000000 2.238420 0.000000 
#    z 0.000000 0.000000 2.010170 
# 
# From -- ./inp_files/1005.got.cif
#   From: 2010.05.17/outbox.cif.g08.bks.cpg/sg26_1_cif.got.tgz:1005.got - 2010.06.04 01:07:29.
