data_PCOD9338182
_publ_section_title
;
Structure prediction by ZEFSAII (Michael W. Deem and Ramdas Pophale) SiO2 
 PCOD9338182
Probable space group: P M C 21
;
_chemical_formula_sum "Si O2"
_cell_formula_units_Z 32
_cell_length_a 7.653700
_cell_length_b 8.307552
_cell_length_c 19.467043
_cell_angle_alpha 90.000000
_cell_angle_beta 90.000000
_cell_angle_gamma 90.000000
_cell_volume 1237.782938
_symmetry_space_group_name_H-M "P M C 21"
_symmetry_group_IT_number 26
_symmetry_cell_setting 'orthorhombic'
loop_
_space_group_symop_operation_xyz
x,y,z
-x,-y,1/2+z
-x,y,z
x,-y,1/2+z
loop_
_atom_site_type_symbol
_atom_site_label
_atom_site_fract_x
_atom_site_fract_y
_atom_site_fract_z
Si Si1 0.200318 0.715686 0.085280
Si Si2 0.697313 0.973475 0.503773
Si Si3 0.202010 0.978790 0.255457
Si Si4 0.210675 0.677830 0.340421
Si Si5 0.294901 0.482884 0.464237
Si Si6 0.213415 0.491640 0.707879
Si Si7 0.287370 0.831633 0.879446
Si Si8 0.207160 0.814159 0.637657
O O1 0.299219 0.857083 0.046112
O O2 0.263929 0.658776 0.159389
O O3 0.000000 0.771845 0.090665
O O4 0.204372 0.557247 0.036219
O O5 0.500000 -0.073429 0.489656
O O6 0.779109 0.028020 0.431645
O O7 0.769159 0.844633 0.557283
O O8 0.279418 0.837961 0.302551
O O9 0.000000 0.932231 0.244145
O O10 0.211888 0.134532 0.304917
O O11 0.277488 0.036242 0.183040
O O12 0.266796 0.639586 0.417746
O O13 0.266990 0.539413 0.286011
O O14 0.000000 0.682434 0.342413
O O15 0.500000 0.467412 0.477734
O O16 0.236291 0.336136 0.414294
O O17 0.279738 0.651355 0.670511
O O18 0.000000 0.493325 0.706562
O O19 0.500000 0.835966 0.876708
O O20 0.000000 0.811162 0.649910
#
# Coordination Sequence:
#
# PCOD9338182 Si02
#       8
#     4   4   4   4   4   4   4   4
#     4  10  19  35  59  84 109 142 180 224 273 321
#     4  10  21  37  55  80 112 146 181 220 265 322
#     4  10  21  35  56  83 108 137 181 228 271 320
#     4  10  20  36  56  80 108 140 178 223 270 320
#     4  10  21  37  55  80 111 144 181 221 265 323
#     4   9  19  35  57  82 108 137 179 229 272 317
#     4   9  20  37  55  76 107 142 178 217 264 320
#     4  10  20  36  57  81 107 140 180 224 270 319
#
# _framework density 25.852672999999999
#
# number of rings (size 3 to 8) (size 9 to 14) (size 15 to 20)
#    0.000    2.250    0.000    3.375    0.000    8.000 
#    0.000    8.125    0.000    0.000    0.000    0.000 
#    0.000    0.000    0.000    0.000    0.000    0.000 
#
# Total GULP energy -178962.459588 kJ/mol
# GULP energy per Si atom -5592.576862 kJ/mol
# Density = 2.579383 g / cm^3
# Si number density = 25.852673 Si / 1000 Ang^3
#
#
#
# Elastic Constant Matrix: (Units=GPa)
#
#
# Indices 1 2 3 4 5 6 
#
# 1 58.5187 -1.6684 -3.6732 0.0000 0.0000 0.0000
# 2 -1.6684 70.9485 3.6570 0.0000 0.0000 0.0000
# 3 -3.6732 3.6570 138.4809 0.0000 0.0000 0.0000
# 4 0.0000 0.0000 0.0000 49.6326 0.0000 0.0000
# 5 0.0000 0.0000 0.0000 0.0000 41.6069 0.0000
# 6 0.0000 0.0000 0.0000 0.0000 0.0000 8.1978
#
#
#
# Elastic Compliance Matrix: (Units=1/GPa)
#
#
# Indices 1 2 3 4 5 6 
#
# 1 0.017127 0.000380 0.000444 0.000000 0.000000 0.000000
# 2 0.000380 0.014122 -0.000363 0.000000 0.000000 0.000000
# 3 0.000444 -0.000363 0.007243 0.000000 0.000000 0.000000
# 4 0.000000 0.000000 0.000000 0.020148 0.000000 0.000000
# 5 0.000000 0.000000 0.000000 0.000000 0.024034 0.000000
# 6 0.000000 0.000000 0.000000 0.000000 0.000000 0.121984
#
#
# Mechanical properties :
#
#
# Convention : Reuss Voigt Hill
#
# Bulk Modulus (GPa) = 25.37123 29.39767 27.38445
# Shear Modulus (GPa) = 23.05479 37.86297 30.45888
#
# Velocity S-wave (km/s) = 2.98950 3.83112 3.43617
# Velocity P-wave (km/s) = 4.66382 5.56470 5.13406
#
# Compressibility (1/GPa) = 0.03941472
#
# Stress axis : x y z
#
# Youngs Moduli (GPa) = 58.38642 70.80970 138.07239
#
# Poissons Ratio (x) = -0.02690 -0.06134
# Poissons Ratio (y) = -0.02218 0.05010
# Poissons Ratio (z) = -0.02594 0.02569
#
# Static dielectric constant tensor:
#      x y z
#    x 1.936870 0.000000 0.000000 
#    y 0.000000 2.141090 0.000000 
#    z 0.000000 0.000000 1.982650 
# 
# From -- ./inp_files/5343.got.cif
#   From: 2010.05.17/outbox.cif.g08.bks.cpg/sg26_3_cif.got.tgz:5343.got - 2010.06.04 01:07:29.
