data_PCOD9338100
_publ_section_title
;
Structure prediction by ZEFSAII (Michael W. Deem and Ramdas Pophale) SiO2 
 PCOD9338100
Probable space group: P M C 21
;
_chemical_formula_sum "Si O2"
_cell_formula_units_Z 18
_cell_length_a 18.614696
_cell_length_b 8.138600
_cell_length_c 5.384424
_cell_angle_alpha 90.000000
_cell_angle_beta 90.000000
_cell_angle_gamma 90.000000
_cell_volume 815.727124
_symmetry_space_group_name_H-M "P M C 21"
_symmetry_group_IT_number 26
_symmetry_cell_setting 'orthorhombic'
loop_
_space_group_symop_operation_xyz
x,y,z
-x,-y,1/2+z
-x,y,z
x,-y,1/2+z
loop_
_atom_site_type_symbol
_atom_site_label
_atom_site_fract_x
_atom_site_fract_y
_atom_site_fract_z
Si Si1 0.423385 0.608117 0.312080
Si Si2 0.896415 0.904768 0.789079
Si Si3 0.000000 0.393657 0.288946
Si Si4 0.739798 0.605740 0.286463
Si Si5 0.743038 0.959177 0.289589
O O1 0.500000 0.701803 0.294359
O O2 0.424416 0.517540 0.578716
O O3 0.342787 0.675665 0.291796
O O4 0.930994 0.726181 0.788979
O O5 0.918814 0.000039 0.539112
O O6 0.809831 0.912996 0.789119
O O7 0.000000 0.500021 0.538927
O O8 0.750818 0.497845 0.534482
O O9 0.779626 0.779308 0.289053
O O10 0.701581 0.000152 0.539505
#
# Coordination Sequence:
#
# PCOD9338100 Si02
#       5
#     4   4   2   4   4
#     4   8  14  25  44  72 104 134 169 221 277 315
#     4  10  21  41  62  82 113 151 178 209 273 338
#     4  12  24  40  64  92 112 136 184 234 264 308
#     4  10  19  33  55  82 106 137 188 235 263 309
#     4  10  21  38  56  78 111 153 181 212 274 335
#
# _framework density 22.066203999999999
#
# number of rings (size 3 to 8) (size 9 to 14) (size 15 to 20)
#    0.000    2.222    0.000    3.333    0.000    0.000 
#    0.000   26.667    0.000    1.333    0.000    0.000 
#    0.000    0.000    0.000    0.000    0.000    0.000 
#
# Total GULP energy -100298.147027 kJ/mol
# GULP energy per Si atom -5572.119279 kJ/mol
# Density = 2.201598 g / cm^3
# Si number density = 22.066204 Si / 1000 Ang^3
#
#
#
# Elastic Constant Matrix: (Units=GPa)
#
#
# Indices 1 2 3 4 5 6 
#
# 1 38.9773 -8.1264 -12.5896 0.0000 0.0000 0.0000
# 2 -8.1264 122.8418 82.8369 0.0000 0.0000 0.0000
# 3 -12.5896 82.8369 228.7002 0.0000 0.0000 0.0000
# 4 0.0000 0.0000 0.0000 47.0911 0.0000 0.0000
# 5 0.0000 0.0000 0.0000 0.0000-3812.3942 0.0000
# 6 0.0000 0.0000 0.0000 0.0000 0.0000 7.5730
#
#
#
# Elastic Compliance Matrix: (Units=1/GPa)
#
#
# Indices 1 2 3 4 5 6 
#
# 1 0.026214 0.001007 0.001078 0.000000 0.000000 0.000000
# 2 0.001007 0.010810 -0.003860 0.000000 0.000000 0.000000
# 3 0.001078 -0.003860 0.005830 0.000000 0.000000 0.000000
# 4 0.000000 0.000000 0.000000 0.021235 0.000000 0.000000
# 5 0.000000 0.000000 0.000000 0.000000 -0.000262 0.000000
# 6 0.000000 0.000000 0.000000 0.000000 0.000000 0.132049
#
#
# Mechanical properties :
#
#
# Convention : Reuss Voigt Hill
#
# Bulk Modulus (GPa) = 25.44211 57.19566 41.31889
# Shear Modulus (GPa) = 23.52636 -729.65281 -353.06322
#
# Velocity S-wave (km/s) = 3.26877 -18.20393 -12.66290
# Velocity P-wave (km/s) = 5.07951 20.39284 13.96543
#
# Compressibility (1/GPa) = 0.03930492
#
# Stress axis : x y z
#
# Youngs Moduli (GPa) = 38.14723 92.50547 171.52514
#
# Poissons Ratio (x) = -0.09315 -0.18496
# Poissons Ratio (y) = -0.03842 0.66210
# Poissons Ratio (z) = -0.04113 0.35708
#
# Static dielectric constant tensor:
#      x y z
#    x 1.957100 0.000000 0.000000 
#    y 0.000000 1.819300 0.000000 
#    z 0.000000 0.000000 1.911640 
# 
# From -- ./inp_files/934.got.cif
#   From: 2010.05.17/outbox.cif.g08.bks.cpg/sg26_1_cif.got.tgz:934.got - 2010.06.04 01:07:29.
