data_PCOD9338658
_publ_section_title
;
Structure prediction by ZEFSAII (Michael W. Deem and Ramdas Pophale) SiO2 
 PCOD9338658
Probable space group: P M C 21
;
_chemical_formula_sum "Si O2"
_cell_formula_units_Z 24
_cell_length_a 13.677737
_cell_length_b 4.790384
_cell_length_c 13.537658
_cell_angle_alpha 90.000000
_cell_angle_beta 90.000000
_cell_angle_gamma 90.000000
_cell_volume 887.009181
_symmetry_space_group_name_H-M "P M C 21"
_symmetry_group_IT_number 26
_symmetry_cell_setting 'orthorhombic'
loop_
_space_group_symop_operation_xyz
x,y,z
-x,-y,1/2+z
-x,y,z
x,-y,1/2+z
loop_
_atom_site_type_symbol
_atom_site_label
_atom_site_fract_x
_atom_site_fract_y
_atom_site_fract_z
Si Si1 0.000000 0.366236 0.049191
Si Si2 0.793815 0.900560 0.347000
Si Si3 0.000000 0.130601 0.419808
Si Si4 0.500000 0.318253 0.812480
Si Si5 0.192449 0.606801 0.140056
Si Si6 0.314035 0.919862 0.543764
Si Si7 0.500000 0.185560 0.436667
Si Si8 0.652602 0.278004 0.222765
O O1 0.094025 0.462720 0.108566
O O2 0.000000 0.042389 0.023052
O O3 0.000000 0.543308 0.946947
O O4 0.807357 0.687934 0.255260
O O5 0.899899 0.036430 0.367797
O O6 0.742369 0.776852 0.444507
O O7 0.721995 0.134583 0.301055
O O8 0.500000 0.988844 0.830907
O O9 0.407579 0.464079 0.761026
O O10 0.500000 0.481185 0.919013
O O11 0.225855 0.867345 0.076989
O O12 0.278952 0.378450 0.126567
O O13 0.398315 0.088537 0.480590
O O14 0.388855 0.938081 0.646177
#
# Coordination Sequence:
#
# PCOD9338658 Si02
#       8
#     2   4   2   2   4   4   2   4
#     4  12  27  49  74 115 148 196 254 308 383 444
#     4  11  24  46  72 108 146 200 254 305 385 444
#     4  12  27  47  78 105 150 198 250 310 369 462
#     4  12  27  49  74 115 148 196 254 308 383 444
#     4  11  26  44  75 107 155 197 250 321 373 455
#     4  11  24  46  72 108 146 200 254 305 385 444
#     4  12  27  47  78 105 150 198 250 310 369 462
#     4  11  26  44  75 107 155 197 250 321 373 455
#
# _framework density 27.057217999999999
#
# number of rings (size 3 to 8) (size 9 to 14) (size 15 to 20)
#    0.000    0.667    3.333    3.000    9.333    2.667 
#    0.000    0.000    0.000    0.000    0.000    0.000 
#    0.000    0.000    0.000    0.000    0.000    0.000 
#
# Total GULP energy -134106.085592 kJ/mol
# GULP energy per Si atom -5587.753566 kJ/mol
# Density = 2.699563 g / cm^3
# Si number density = 27.057218 Si / 1000 Ang^3
#
#
#
# Elastic Constant Matrix: (Units=GPa)
#
#
# Indices 1 2 3 4 5 6 
#
# 1 124.3322 -3.9664 25.7613 0.0000 0.0000 0.0000
# 2 -3.9664 99.8497 13.1676 0.0000 0.0000 0.0000
# 3 25.7613 13.1676 165.5559 0.0000 0.0000 0.0000
# 4 0.0000 0.0000 0.0000 15.8861 0.0000 0.0000
# 5 0.0000 0.0000 0.0000 0.0000 38.0373 0.0000
# 6 0.0000 0.0000 0.0000 0.0000 0.0000 1218.3431
#
#
#
# Elastic Compliance Matrix: (Units=1/GPa)
#
#
# Indices 1 2 3 4 5 6 
#
# 1 0.008336 0.000508 -0.001338 0.000000 0.000000 0.000000
# 2 0.000508 0.010152 -0.000886 0.000000 0.000000 0.000000
# 3 -0.001338 -0.000886 0.006319 0.000000 0.000000 0.000000
# 4 0.000000 0.000000 0.000000 0.062948 0.000000 0.000000
# 5 0.000000 0.000000 0.000000 0.000000 0.026290 0.000000
# 6 0.000000 0.000000 0.000000 0.000000 0.000000 0.000821
#
#
# Mechanical properties :
#
#
# Convention : Reuss Voigt Hill
#
# Bulk Modulus (GPa) = 46.78484 51.07361 48.92922
# Shear Modulus (GPa) = 39.86483 278.10500 158.98491
#
# Velocity S-wave (km/s) = 3.84259 10.14924 7.67374
# Velocity P-wave (km/s) = 6.08407 12.50040 9.83046
#
# Compressibility (1/GPa) = 0.02137445
#
# Stress axis : x y z
#
# Youngs Moduli (GPa) = 119.95738 98.50164 158.25576
#
# Poissons Ratio (x) = -0.04999 0.21167
# Poissons Ratio (y) = -0.06088 0.14028
# Poissons Ratio (z) = 0.16045 0.08731
#
# Static dielectric constant tensor:
#      x y z
#    x 2.473550 0.000000 0.000000 
#    y 0.000000 2.128000 0.000000 
#    z 0.000000 0.000000 2.231560 
# 
# From -- ./inp_files/4646.got.cif
#   From: 2010.05.17/outbox.cif.g08.bks.cpg/sg26_3_cif.got.tgz:4646.got - 2010.06.04 01:07:29.
