data_PCOD9338810
_publ_section_title
;
Structure prediction by ZEFSAII (Michael W. Deem and Ramdas Pophale) SiO2 
 PCOD9338810
Probable space group: P C C 2
;
_chemical_formula_sum "Si O2"
_cell_formula_units_Z 30
_cell_length_a 16.264891
_cell_length_b 10.312662
_cell_length_c 9.002145
_cell_angle_alpha 90.000000
_cell_angle_beta 90.000000
_cell_angle_gamma 90.000000
_cell_volume 1509.968700
_symmetry_space_group_name_H-M "P C C 2"
_symmetry_group_IT_number 27
_symmetry_cell_setting 'orthorhombic'
loop_
_space_group_symop_operation_xyz
x,y,z
-x,-y,z
-x,y,1/2+z
x,-y,1/2+z
loop_
_atom_site_type_symbol
_atom_site_label
_atom_site_fract_x
_atom_site_fract_y
_atom_site_fract_z
Si Si1 0.250555 0.755102 0.293600
Si Si2 0.147900 0.177979 0.261349
Si Si3 0.859537 0.940939 0.951357
Si Si4 0.759964 0.604263 0.106445
Si Si5 0.108211 0.390278 0.644581
Si Si6 0.500000 0.500000 0.437778
Si Si7 0.615077 0.600586 0.681759
Si Si8 0.007168 0.287361 0.884239
O O1 0.220357 0.887453 0.365066
O O2 0.252095 0.661604 0.440828
O O3 0.181170 0.711973 0.176547
O O4 0.335729 0.732904 0.209993
O O5 0.219813 0.281234 0.225498
O O6 0.061944 0.252709 0.263019
O O7 0.137090 0.089799 0.406459
O O8 0.149996 0.078353 0.125434
O O9 0.935513 0.841612 0.911584
O O10 0.842739 0.518832 0.103355
O O11 0.684218 0.512053 0.153662
O O12 0.043927 0.342584 0.522294
O O13 0.064615 0.392689 0.804626
O O14 0.552045 0.593807 0.545370
O O15 0.436121 0.569845 0.329441
#
# Coordination Sequence:
#
# PCOD9338810 Si02
#       8
#     4   4   4   4   4   2   4   4
#     4   9  20  39  58  82 117 158 192 253 290 362
#     4  11  24  39  60  81 112 158 214 258 307 353
#     4  10  23  41  55  80 111 157 216 259 304 353
#     4  10  22  41  58  87 121 159 198 251 302 376
#     4  10  23  38  57  79 114 151 202 247 326 360
#     4  10  20  32  62 100 124 156 180 222 306 390
#     4  10  19  37  61  93 130 150 188 235 299 381
#     4  11  22  40  57  80 111 155 202 274 313 359
#
# _framework density 19.867961999999999
#
# number of rings (size 3 to 8) (size 9 to 14) (size 15 to 20)
#    0.000    1.867    2.667    0.400    7.467    1.600 
#    4.800    0.000    0.000    0.000    0.000    5.600 
#    0.000    0.000    0.000    0.000    0.000    0.000 
#
# Total GULP energy -167302.915038 kJ/mol
# GULP energy per Si atom -5576.763835 kJ/mol
# Density = 1.982274 g / cm^3
# Si number density = 19.867962 Si / 1000 Ang^3
#
#
#
# Elastic Constant Matrix: (Units=GPa)
#
#
# Indices 1 2 3 4 5 6 
#
# 1 104.5963 22.6025 43.2352 0.0000 0.0000 0.0000
# 2 22.6025 46.7638 20.4666 0.0000 0.0000 0.0000
# 3 43.2352 20.4666 84.2469 0.0000 0.0000 0.0000
# 4 0.0000 0.0000 0.0000 23.5431 0.0000 0.0000
# 5 0.0000 0.0000 0.0000 0.0000 38.2499 0.0000
# 6 0.0000 0.0000 0.0000 0.0000 0.0000 15.7326
#
#
#
# Elastic Compliance Matrix: (Units=1/GPa)
#
#
# Indices 1 2 3 4 5 6 
#
# 1 0.012673 -0.003669 -0.005613 0.000000 0.000000 0.000000
# 2 -0.003669 0.024990 -0.004188 0.000000 0.000000 0.000000
# 3 -0.005613 -0.004188 0.015768 0.000000 0.000000 0.000000
# 4 0.000000 0.000000 0.000000 0.042475 0.000000 0.000000
# 5 0.000000 0.000000 0.000000 0.000000 0.026144 0.000000
# 6 0.000000 0.000000 0.000000 0.000000 0.000000 0.063562
#
#
# Mechanical properties :
#
#
# Convention : Reuss Voigt Hill
#
# Bulk Modulus (GPa) = 37.74735 45.35729 41.55232
# Shear Modulus (GPa) = 22.58527 25.45863 24.02195
#
# Velocity S-wave (km/s) = 3.37526 3.58354 3.48095
# Velocity P-wave (km/s) = 5.85065 6.32465 6.09227
#
# Compressibility (1/GPa) = 0.02649193
#
# Stress axis : x y z
#
# Youngs Moduli (GPa) = 78.90538 40.01533 63.42084
#
# Poissons Ratio (x) = 0.14682 0.35596
# Poissons Ratio (y) = 0.28951 0.26561
# Poissons Ratio (z) = 0.44286 0.16759
#
# Static dielectric constant tensor:
#      x y z
#    x 1.723630 0.000000 0.000000 
#    y 0.000000 1.754880 0.000000 
#    z 0.000000 0.000000 1.743400 
# 
# From -- ./inp_files/1604.got.cif
#   From: 2010.05.17/outbox.cif.g08.bks.cpg/sg27_1_cif.got.tgz:1604.got - 2010.06.04 01:11:05.
