data_PCOD9338742
_publ_section_title
;
Structure prediction by ZEFSAII (Michael W. Deem and Ramdas Pophale) SiO2 
 PCOD9338742
Probable space group: P C C 2
;
_chemical_formula_sum "Si O2"
_cell_formula_units_Z 20
_cell_length_a 9.246024
_cell_length_b 17.599927
_cell_length_c 5.295393
_cell_angle_alpha 90.000000
_cell_angle_beta 90.000000
_cell_angle_gamma 90.000000
_cell_volume 861.715847
_symmetry_space_group_name_H-M "P C C 2"
_symmetry_group_IT_number 27
_symmetry_cell_setting 'orthorhombic'
loop_
_space_group_symop_operation_xyz
x,y,z
-x,-y,z
-x,y,1/2+z
x,-y,1/2+z
loop_
_atom_site_type_symbol
_atom_site_label
_atom_site_fract_x
_atom_site_fract_y
_atom_site_fract_z
Si Si1 0.461779 0.088299 0.662140
Si Si2 0.157608 0.947987 0.961156
Si Si3 0.663684 0.532433 0.365121
Si Si4 0.401885 0.290585 0.425912
Si Si5 0.081986 0.221054 0.441730
O O1 0.565544 0.121070 0.441836
O O2 0.317138 0.085615 0.498130
O O3 0.500000 0.000000 0.708400
O O4 0.066604 0.871204 0.947287
O O5 0.144823 0.002144 0.207501
O O6 0.500000 0.500000 0.337204
O O7 0.734004 0.488265 0.598481
O O8 0.646180 0.621118 0.417692
O O9 0.497753 0.277281 0.678438
O O10 0.250682 0.244691 0.428057
O O11 0.994453 0.248980 0.197274
#
# Coordination Sequence:
#
# PCOD9338742 Si02
#       5
#     4   4   4   4   4
#     4  10  16  30  51  85 124 143 179 268 368 385
#     4  12  23  40  68  91 114 171 239 297 342 418
#     4  10  16  32  64 110 145 166 219 302 338 378
#     4  12  23  43  75 111 138 190 240 291 344 416
#     4  12  30  51  66  97 149 195 230 289 368 440
#
# _framework density 23.209503999999999
#
# number of rings (size 3 to 8) (size 9 to 14) (size 15 to 20)
#    0.000    0.800    8.000    2.400    0.000    4.000 
#    0.000    0.000    0.000    3.600    0.000    0.000 
#    0.000    0.000    0.000    0.000    0.000    0.000 
#
# Total GULP energy -111654.647014 kJ/mol
# GULP energy per Si atom -5582.732351 kJ/mol
# Density = 2.315668 g / cm^3
# Si number density = 23.209504 Si / 1000 Ang^3
#
#
#
# Elastic Constant Matrix: (Units=GPa)
#
#
# Indices 1 2 3 4 5 6 
#
# 1 86.4408 19.1768 40.0413 0.0000 0.0000 0.0000
# 2 19.1768 104.6105 15.0857 0.0000 0.0000 0.0000
# 3 40.0413 15.0857 234.5296 0.0000 0.0000 0.0000
# 4 0.0000 0.0000 0.0000 0.6298 0.0000 0.0000
# 5 0.0000 0.0000 0.0000 0.0000 67.1108 0.0000
# 6 0.0000 0.0000 0.0000 0.0000 0.0000 16.0374
#
#
#
# Elastic Compliance Matrix: (Units=1/GPa)
#
#
# Indices 1 2 3 4 5 6 
#
# 1 0.012996 -0.002082 -0.002085 0.000000 0.000000 0.000000
# 2 -0.002082 0.009982 -0.000287 0.000000 0.000000 0.000000
# 3 -0.002085 -0.000287 0.004638 0.000000 0.000000 0.000000
# 4 0.000000 0.000000 0.000000 1.587896 0.000000 0.000000
# 5 0.000000 0.000000 0.000000 0.000000 0.014901 0.000000
# 6 0.000000 0.000000 0.000000 0.000000 0.000000 0.062354
#
#
# Mechanical properties :
#
#
# Convention : Reuss Voigt Hill
#
# Bulk Modulus (GPa) = 53.44737 63.79871 58.62304
# Shear Modulus (GPa) = 2.92755 40.17405 21.55080
#
# Velocity S-wave (km/s) = 1.12432 4.16496 3.05049
# Velocity P-wave (km/s) = 4.97631 7.11878 6.14169
#
# Compressibility (1/GPa) = 0.01870999
#
# Stress axis : x y z
#
# Youngs Moduli (GPa) = 76.94530 100.17800 215.59816
#
# Poissons Ratio (x) = 0.20855 0.44951
# Poissons Ratio (y) = 0.16018 0.06181
# Poissons Ratio (z) = 0.16043 0.02872
#
# Static dielectric constant tensor:
#      x y z
#    x 1.917780 0.000000 0.000000 
#    y 0.000000 2.037430 0.000000 
#    z 0.000000 0.000000 2.021390 
# 
# From -- ./inp_files/136.got.cif
#   From: 2010.05.17/outbox.cif.g08.bks.cpg/sg27_1_cif.got.tgz:136.got - 2010.06.04 01:11:05.
