data_PCOD9338084
_publ_section_title
;
Structure prediction by ZEFSAII (Michael W. Deem and Ramdas Pophale) SiO2 
 PCOD9338084
Probable space group: P M C 21
;
_chemical_formula_sum "Si O2"
_cell_formula_units_Z 22
_cell_length_a 24.019700
_cell_length_b 8.145604
_cell_length_c 5.325325
_cell_angle_alpha 90.000000
_cell_angle_beta 90.000000
_cell_angle_gamma 90.000000
_cell_volume 1041.926273
_symmetry_space_group_name_H-M "P M C 21"
_symmetry_group_IT_number 26
_symmetry_cell_setting 'orthorhombic'
loop_
_space_group_symop_operation_xyz
x,y,z
-x,-y,1/2+z
-x,y,z
x,-y,1/2+z
loop_
_atom_site_type_symbol
_atom_site_label
_atom_site_fract_x
_atom_site_fract_y
_atom_site_fract_z
Si Si1 0.560527 0.888721 0.028240
Si Si2 0.919663 0.402960 0.954749
Si Si3 0.674934 0.102538 0.405263
Si Si4 0.197036 0.895052 0.956919
Si Si5 0.198778 0.539591 0.953962
Si Si6 0.000000 0.106373 0.990792
O O1 0.500000 0.804412 0.005519
O O2 0.561528 0.974890 0.302614
O O3 0.619184 0.797611 0.977379
O O4 0.937108 0.495202 0.700680
O O5 0.852528 0.410545 0.954693
O O6 0.946569 0.225017 0.966820
O O7 0.737726 0.161825 0.448602
O O8 0.672178 0.955700 0.615333
O O9 0.169426 0.717321 0.954130
O O10 0.186571 0.002958 0.709654
O O11 0.231633 0.499761 0.704074
O O12 0.000000 0.981161 0.759414
#
# Coordination Sequence:
#
# PCOD9338084 Si02
#       6
#     4   4   4   4   4   2
#     4   8  12  18  29  48  78 116 150 183 237 303
#     4  10  21  41  62  82 113 148 171 203 258 309
#     4   8  14  23  37  59  88 118 153 202 251 289
#     4  10  19  33  53  77 101 131 174 219 256 297
#     4  10  21  38  56  78 108 144 173 207 259 310
#     4  12  24  40  64  92 112 136 178 220 252 294
#
# _framework density 21.114739
#
# number of rings (size 3 to 8) (size 9 to 14) (size 15 to 20)
#    0.000    2.545    0.000    2.727    0.000    0.000 
#    0.000   21.818    0.000    0.000    0.000    0.000 
#    0.000    1.455    0.000    0.000    0.000   11.636 
#
# Total GULP energy -122474.703217 kJ/mol
# GULP energy per Si atom -5567.031964 kJ/mol
# Density = 2.106668 g / cm^3
# Si number density = 21.114739 Si / 1000 Ang^3
#
#
#
# Elastic Constant Matrix: (Units=GPa)
#
#
# Indices 1 2 3 4 5 6 
#
# 1 51.2996 -13.8292 -14.1527 0.0000 0.0000 0.0000
# 2 -13.8292 63.2176 33.1045 0.0000 0.0000 0.0000
# 3 -14.1527 33.1045 183.5346 0.0000 0.0000 0.0000
# 4 0.0000 0.0000 0.0000 34.8531 0.0000 0.0000
# 5 0.0000 0.0000 0.0000 0.0000 54.5861 0.0000
# 6 0.0000 0.0000 0.0000 0.0000 0.0000 4.6938
#
#
#
# Elastic Compliance Matrix: (Units=1/GPa)
#
#
# Indices 1 2 3 4 5 6 
#
# 1 0.020839 0.004105 0.000867 0.000000 0.000000 0.000000
# 2 0.004105 0.018277 -0.002980 0.000000 0.000000 0.000000
# 3 0.000867 -0.002980 0.006053 0.000000 0.000000 0.000000
# 4 0.000000 0.000000 0.000000 0.028692 0.000000 0.000000
# 5 0.000000 0.000000 0.000000 0.000000 0.018320 0.000000
# 6 0.000000 0.000000 0.000000 0.000000 0.000000 0.213047
#
#
# Mechanical properties :
#
#
# Convention : Reuss Voigt Hill
#
# Bulk Modulus (GPa) = 20.34530 34.25523 27.30026
# Shear Modulus (GPa) = 15.74165 38.35519 27.04842
#
# Velocity S-wave (km/s) = 2.73340 4.26668 3.58302
# Velocity P-wave (km/s) = 4.42927 6.36642 5.48406
#
# Compressibility (1/GPa) = 0.04915141
#
# Stress axis : x y z
#
# Youngs Moduli (GPa) = 47.98700 54.71381 165.20971
#
# Poissons Ratio (x) = -0.22459 -0.14316
# Poissons Ratio (y) = -0.19698 0.49234
# Poissons Ratio (z) = -0.04158 0.16305
#
# Static dielectric constant tensor:
#      x y z
#    x 1.905020 0.000000 0.000000 
#    y 0.000000 1.748660 0.000000 
#    z 0.000000 0.000000 1.860100 
# 
# From -- ./inp_files/1083.got.cif
#   From: 2010.05.17/outbox.cif.g08.bks.cpg/sg26_1_cif.got.tgz:1083.got - 2010.06.04 01:07:29.
