data_PCOD9338014
_publ_section_title
;
Structure prediction by ZEFSAII (Michael W. Deem and Ramdas Pophale) SiO2 
 PCOD9338014
Probable space group: P M C 21
;
_chemical_formula_sum "Si O2"
_cell_formula_units_Z 32
_cell_length_a 12.880866
_cell_length_b 13.661612
_cell_length_c 8.604839
_cell_angle_alpha 90.000000
_cell_angle_beta 90.000000
_cell_angle_gamma 90.000000
_cell_volume 1514.222719
_symmetry_space_group_name_H-M "P M C 21"
_symmetry_group_IT_number 26
_symmetry_cell_setting 'orthorhombic'
loop_
_space_group_symop_operation_xyz
x,y,z
-x,-y,1/2+z
-x,y,z
x,-y,1/2+z
loop_
_atom_site_type_symbol
_atom_site_label
_atom_site_fract_x
_atom_site_fract_y
_atom_site_fract_z
Si Si1 0.844406 0.859320 0.979260
Si Si2 0.616647 0.195074 0.551756
Si Si3 0.268045 0.127524 0.077268
Si Si4 0.615816 0.410708 0.419368
Si Si5 0.615811 0.269748 0.902933
Si Si6 0.119899 0.710986 0.735907
Si Si7 0.821958 0.030659 0.774400
Si Si8 0.721563 0.429572 0.098466
O O1 0.874352 0.752530 0.913891
O O2 0.882544 0.942033 0.858185
O O3 0.717928 0.860141 0.989387
O O4 0.875771 0.899802 0.148121
O O5 0.500000 0.151107 0.538703
O O6 0.616442 0.296590 0.458253
O O7 0.634363 0.225295 0.732116
O O8 0.190703 0.207219 0.151514
O O9 0.267075 0.031805 0.183966
O O10 0.371666 0.184439 0.031767
O O11 0.220060 0.094377 0.914278
O O12 0.500000 0.448127 0.458217
O O13 0.638780 0.423087 0.238005
O O14 0.703784 0.465417 0.520282
O O15 0.500000 0.310076 0.901198
O O16 0.692962 0.354404 0.959239
O O17 0.174177 0.609439 0.683614
O O18 0.000000 0.712087 0.689546
#
# Coordination Sequence:
#
# PCOD9338014 Si02
#       8
#     4   4   4   4   4   4   4   4
#     4  10  18  38  57  83 120 156 196 252 303 353
#     4  10  20  34  56  85 120 159 200 237 286 355
#     4   9  18  34  54  78 113 150 188 245 292 347
#     4  11  21  35  58  91 120 155 197 234 287 349
#     4  10  19  33  53  81 116 157 195 234 291 357
#     4  10  22  41  63  85 113 153 198 244 303 364
#     4   9  18  33  57  82 112 153 195 245 304 345
#     4  11  22  38  60  87 122 153 191 253 296 346
#
# _framework density 21.132954000000002
#
# number of rings (size 3 to 8) (size 9 to 14) (size 15 to 20)
#    0.000    2.000    2.500    1.875    0.000    1.000 
#    0.000   15.000    0.000    0.000    0.000    0.000 
#    0.000    0.000    0.000    0.000    0.000    0.000 
#
# Total GULP energy -178204.653211 kJ/mol
# GULP energy per Si atom -5568.895413 kJ/mol
# Density = 2.108485 g / cm^3
# Si number density = 21.132954 Si / 1000 Ang^3
#
#
#
# Elastic Constant Matrix: (Units=GPa)
#
#
# Indices 1 2 3 4 5 6 
#
# 1 98.0264 17.3746 13.4173 0.0000 0.0000 0.0000
# 2 17.3746 38.0572 7.1118 0.0000 0.0000 0.0000
# 3 13.4173 7.1118 94.8588 0.0000 0.0000 0.0000
# 4 0.0000 0.0000 0.0000 29.8055 0.0000 0.0000
# 5 0.0000 0.0000 0.0000 0.0000 -0.7117 0.0000
# 6 0.0000 0.0000 0.0000 0.0000 0.0000 -29.1624
#
#
#
# Elastic Compliance Matrix: (Units=1/GPa)
#
#
# Indices 1 2 3 4 5 6 
#
# 1 0.011237 -0.004902 -0.001222 0.000000 0.000000 0.000000
# 2 -0.004902 0.028788 -0.001465 0.000000 0.000000 0.000000
# 3 -0.001222 -0.001465 0.010825 0.000000 0.000000 0.000000
# 4 0.000000 0.000000 0.000000 0.033551 0.000000 0.000000
# 5 0.000000 0.000000 0.000000 0.000000 -1.405154 0.000000
# 6 0.000000 0.000000 0.000000 0.000000 0.000000 -0.034291
#
#
# Mechanical properties :
#
#
# Convention : Reuss Voigt Hill
#
# Bulk Modulus (GPa) = 28.03300 34.08332 31.05816
# Shear Modulus (GPa) = -3.76513 12.85554 4.54520
#
# Velocity S-wave (km/s) = -1.33623 2.46908 1.46814
# Velocity P-wave (km/s) = 3.30351 4.92865 4.19552
#
# Compressibility (1/GPa) = 0.03567225
#
# Stress axis : x y z
#
# Youngs Moduli (GPa) = 88.98823 34.73675 92.38174
#
# Poissons Ratio (x) = 0.17028 0.11289
# Poissons Ratio (y) = 0.43622 0.13533
# Poissons Ratio (z) = 0.10874 0.05089
#
# Static dielectric constant tensor:
#      x y z
#    x 1.804730 0.000000 0.000000 
#    y 0.000000 1.803910 0.000000 
#    z 0.000000 0.000000 1.805540 
# 
# From -- ./inp_files/1968.got.cif
#   From: 2010.05.17/outbox.cif.g08.bks.cpg/sg26_1_cif.got.tgz:1968.got - 2010.06.04 01:07:29.
