data_PCOD9338935
_publ_section_title
;
Structure prediction by ZEFSAII (Michael W. Deem and Ramdas Pophale) SiO2 
 PCOD9338935
Probable space group: P C C 2
;
_chemical_formula_sum "Si O2"
_cell_formula_units_Z 28
_cell_length_a 9.052654
_cell_length_b 5.219240
_cell_length_c 28.514855
_cell_angle_alpha 90.000000
_cell_angle_beta 90.000000
_cell_angle_gamma 90.000000
_cell_volume 1347.269124
_symmetry_space_group_name_H-M "P C C 2"
_symmetry_group_IT_number 27
_symmetry_cell_setting 'orthorhombic'
loop_
_space_group_symop_operation_xyz
x,y,z
-x,-y,z
-x,y,1/2+z
x,-y,1/2+z
loop_
_atom_site_type_symbol
_atom_site_label
_atom_site_fract_x
_atom_site_fract_y
_atom_site_fract_z
Si Si1 0.747169 0.206441 0.784820
Si Si2 0.101874 0.248983 0.083697
Si Si3 0.243903 0.843617 0.363745
Si Si4 0.323013 0.967743 0.953611
Si Si5 0.000000 0.500000 0.841977
Si Si6 0.321754 0.536702 0.508055
Si Si7 0.500000 0.500000 0.337454
Si Si8 0.900182 0.755952 0.192345
O O1 0.881547 0.358990 0.809213
O O2 0.595675 0.317666 0.804406
O O3 0.768749 0.236463 0.729799
O O4 0.759181 0.929879 0.809344
O O5 0.145438 0.211139 0.138208
O O6 0.000000 0.500000 0.081421
O O7 0.243339 0.336719 0.053250
O O8 0.000000 0.000000 0.070103
O O9 0.091834 0.700574 0.372162
O O10 0.385787 0.661731 0.368150
O O11 0.268383 0.071729 0.400474
O O12 0.274303 0.742512 0.988683
O O13 0.500000 0.000000 0.954430
O O14 0.276120 0.250775 0.969640
O O15 0.500000 0.500000 0.513988
O O16 0.000000 0.500000 0.196335
O O17 0.000000 0.000000 0.205208
#
# Coordination Sequence:
#
# PCOD9338935 Si02
#       8
#     4   4   4   4   2   4   2   4
#     4  11  21  39  58  89 127 166 213 261 314 378
#     4  10  21  41  67  93 126 164 209 265 334 390
#     4  11  23  39  61  89 125 173 215 262 316 379
#     4  10  22  38  65  90 122 167 212 252 321 386
#     4  10  22  36  60  84 124 164 208 264 308 368
#     4  10  22  41  65  94 123 163 214 267 320 389
#     4  10  24  36  60  86 128 168 216 262 320 364
#     4  10  21  38  65  92 121 170 211 255 321 397
#
# _framework density 20.782782999999998
#
# number of rings (size 3 to 8) (size 9 to 14) (size 15 to 20)
#    0.000    1.714    0.714    3.429    9.000    0.000 
#    2.571    1.429    0.000    1.714    0.000    0.000 
#    0.000    0.000    0.000    0.000    0.000    0.000 
#
# Total GULP energy -156236.173505 kJ/mol
# GULP energy per Si atom -5579.863339 kJ/mol
# Density = 2.073548 g / cm^3
# Si number density = 20.782783 Si / 1000 Ang^3
#
#
#
# Elastic Constant Matrix: (Units=GPa)
#
#
# Indices 1 2 3 4 5 6 
#
# 1 72.7445 34.0713 33.1127 0.0000 0.0000 0.0000
# 2 34.0713 121.1982 27.4902 0.0000 0.0000 0.0000
# 3 33.1127 27.4902 101.3436 0.0000 0.0000 0.0000
# 4 0.0000 0.0000 0.0000 0.0072 0.0000 0.0000
# 5 0.0000 0.0000 0.0000 0.0000 11.9449 0.0000
# 6 0.0000 0.0000 0.0000 0.0000 0.0000 24.9973
#
#
#
# Elastic Compliance Matrix: (Units=1/GPa)
#
#
# Indices 1 2 3 4 5 6 
#
# 1 0.017733 -0.003912 -0.004733 0.000000 0.000000 0.000000
# 2 -0.003912 0.009655 -0.001341 0.000000 0.000000 0.000000
# 3 -0.004733 -0.001341 0.011778 0.000000 0.000000 0.000000
# 4 0.000000 0.000000 0.000000138.154812 0.000000 0.000000
# 5 0.000000 0.000000 0.000000 0.000000 0.083718 0.000000
# 6 0.000000 0.000000 0.000000 0.000000 0.000000 0.040004
#
#
# Mechanical properties :
#
#
# Convention : Reuss Voigt Hill
#
# Bulk Modulus (GPa) = 52.09817 53.84830 52.97323
# Shear Modulus (GPa) = 0.03614 20.76402 10.40008
#
# Velocity S-wave (km/s) = 0.13202 3.16428 2.23943
# Velocity P-wave (km/s) = 5.01454 6.27029 5.67724
#
# Compressibility (1/GPa) = 0.01919453
#
# Stress axis : x y z
#
# Youngs Moduli (GPa) = 56.39112 103.57630 84.90690
#
# Poissons Ratio (x) = 0.40515 0.40187
# Poissons Ratio (y) = 0.22058 0.11385
# Poissons Ratio (z) = 0.26690 0.13888
#
# Static dielectric constant tensor:
#      x y z
#    x 1.791050 0.000000 0.000000 
#    y 0.000000 1.824870 0.000000 
#    z 0.000000 0.000000 1.766150 
# 
# From -- ./inp_files/5280.got.cif
#   From: 2010.05.17/outbox.cif.g08.bks.cpg/sg27_3_cif.got.tgz:5280.got - 2010.06.04 01:11:05.
