data_PCOD9338083
_publ_section_title
;
Structure prediction by ZEFSAII (Michael W. Deem and Ramdas Pophale) SiO2 
 PCOD9338083
Probable space group: P M C 21
;
_chemical_formula_sum "Si O2"
_cell_formula_units_Z 20
_cell_length_a 10.522425
_cell_length_b 5.222589
_cell_length_c 19.208136
_cell_angle_alpha 90.000000
_cell_angle_beta 90.000000
_cell_angle_gamma 90.000000
_cell_volume 1055.569689
_symmetry_space_group_name_H-M "P M C 21"
_symmetry_group_IT_number 26
_symmetry_cell_setting 'orthorhombic'
loop_
_space_group_symop_operation_xyz
x,y,z
-x,-y,1/2+z
-x,y,z
x,-y,1/2+z
loop_
_atom_site_type_symbol
_atom_site_label
_atom_site_fract_x
_atom_site_fract_y
_atom_site_fract_z
Si Si1 0.238973 0.717655 0.651730
Si Si2 0.140851 0.769363 0.218870
Si Si3 0.643832 0.523054 0.782651
Si Si4 0.346478 0.833443 0.916652
Si Si5 0.653887 0.328417 0.998507
O O1 0.150625 0.471680 0.666166
O O2 0.351325 0.662424 0.707712
O O3 0.288611 0.727660 0.573832
O O4 0.171930 0.974573 0.677150
O O5 0.253485 0.702583 0.273287
O O6 0.000000 0.781589 0.249695
O O7 0.500000 0.435704 0.798790
O O8 0.689309 0.721288 0.841414
O O9 0.500000 0.845967 0.914897
O O10 0.311180 0.610128 0.971243
O O11 0.303998 0.109711 0.943743
O O12 0.500000 0.319482 0.003307
#
# Coordination Sequence:
#
# PCOD9338083 Si02
#       5
#     4   4   4   4   4
#     4  10  21  35  59  84 108 150 191 234 271 333
#     4  10  22  38  59  82 112 152 189 232 286 334
#     4   9  21  36  59  90 115 144 191 240 279 329
#     4   9  19  32  51  79 120 152 175 223 290 341
#     4  10  19  33  52  83 119 148 178 227 292 339
#
# _framework density 18.947113999999999
#
# number of rings (size 3 to 8) (size 9 to 14) (size 15 to 20)
#    1.200    1.200    0.000    2.400    2.800    1.600 
#    0.000    0.000    0.000    7.200    0.000    0.000 
#    0.000    0.000    0.000    0.000    0.000    0.000 
#
# Total GULP energy -111354.133894 kJ/mol
# GULP energy per Si atom -5567.706695 kJ/mol
# Density = 1.890399 g / cm^3
# Si number density = 18.947114 Si / 1000 Ang^3
#
#
#
# Elastic Constant Matrix: (Units=GPa)
#
#
# Indices 1 2 3 4 5 6 
#
# 1 70.5407 12.7336 2.4037 0.0000 0.0000 0.0000
# 2 12.7336 97.0251 -11.4557 0.0000 0.0000 0.0000
# 3 2.4037 -11.4557 66.1610 0.0000 0.0000 0.0000
# 4 0.0000 0.0000 0.0000 20.1656 0.0000 0.0000
# 5 0.0000 0.0000 0.0000 0.0000 -112.8383 0.0000
# 6 0.0000 0.0000 0.0000 0.0000 0.0000 -20.5498
#
#
#
# Elastic Compliance Matrix: (Units=1/GPa)
#
#
# Indices 1 2 3 4 5 6 
#
# 1 0.014570 -0.002016 -0.000878 0.000000 0.000000 0.000000
# 2 -0.002016 0.010801 0.001943 0.000000 0.000000 0.000000
# 3 -0.000878 0.001943 0.015483 0.000000 0.000000 0.000000
# 4 0.000000 0.000000 0.000000 0.049589 0.000000 0.000000
# 5 0.000000 0.000000 0.000000 0.000000 -0.008862 0.000000
# 6 0.000000 0.000000 0.000000 0.000000 0.000000 -0.048662
#
#
# Mechanical properties :
#
#
# Convention : Reuss Voigt Hill
#
# Bulk Modulus (GPa) = 25.67271 26.78778 26.23024
# Shear Modulus (GPa) = 104.59286 -7.30815 48.64235
#
# Velocity S-wave (km/s) = 7.43790 -1.96609 5.07232
# Velocity P-wave (km/s) = 9.34571 3.00248 6.94108
#
# Compressibility (1/GPa) = 0.03895187
#
# Stress axis : x y z
#
# Youngs Moduli (GPa) = 68.63398 92.58725 64.58676
#
# Poissons Ratio (x) = 0.18665 0.05673
# Poissons Ratio (y) = 0.13836 -0.12552
# Poissons Ratio (z) = 0.06029 -0.17993
#
# Static dielectric constant tensor:
#      x y z
#    x 1.661760 0.000000 0.000000 
#    y 0.000000 1.675400 0.000000 
#    z 0.000000 0.000000 1.652170 
# 
# From -- ./inp_files/4374.got.cif
#   From: 2010.05.17/outbox.cif.g08.bks.cpg/sg26_3_cif.got.tgz:4374.got - 2010.06.04 01:07:29.
