data_PCOD9338256
_publ_section_title
;
Structure prediction by ZEFSAII (Michael W. Deem and Ramdas Pophale) SiO2 
 PCOD9338256
Probable space group: P M C 21
;
_chemical_formula_sum "Si O2"
_cell_formula_units_Z 24
_cell_length_a 9.926747
_cell_length_b 20.828810
_cell_length_c 5.403124
_cell_angle_alpha 90.000000
_cell_angle_beta 90.000000
_cell_angle_gamma 90.000000
_cell_volume 1117.162492
_symmetry_space_group_name_H-M "P M C 21"
_symmetry_group_IT_number 26
_symmetry_cell_setting 'orthorhombic'
loop_
_space_group_symop_operation_xyz
x,y,z
-x,-y,1/2+z
-x,y,z
x,-y,1/2+z
loop_
_atom_site_type_symbol
_atom_site_label
_atom_site_fract_x
_atom_site_fract_y
_atom_site_fract_z
Si Si1 0.150453 0.282535 0.264200
Si Si2 0.649182 0.346834 0.951629
Si Si3 0.349546 0.782534 0.152239
Si Si4 0.149184 0.846836 0.464821
Si Si5 0.837815 0.967195 0.785044
Si Si6 0.337817 0.532803 0.131424
O O1 0.250001 0.250001 0.458220
O O2 0.000000 0.297551 0.357916
O O3 0.230127 0.342044 0.145632
O O4 0.134559 0.225336 0.064397
O O5 0.500000 0.366247 0.052062
O O6 0.634559 0.274663 0.852049
O O7 0.684039 0.394922 0.728649
O O8 0.500000 0.797552 0.058528
O O9 0.269869 0.842043 0.270806
O O10 0.184049 0.894922 0.687803
O O11 0.000000 0.866250 0.364401
O O12 0.000000 0.974219 0.799903
O O13 0.788111 0.011271 0.554815
O O14 0.500000 0.525773 0.116564
O O15 0.288108 0.488730 0.361655
#
# Coordination Sequence:
#
# PCOD9338256 Si02
#       6
#     4   4   4   4   4   4
#     4  10  20  33  53  79 108 144 180 227 279 331
#     4   9  19  34  53  78 107 138 180 228 276 330
#     4  10  20  33  53  79 108 144 180 227 279 331
#     4   9  19  34  53  78 107 138 180 228 276 330
#     4   9  18  31  52  81 109 139 179 229 280 328
#     4   9  18  31  52  81 109 139 179 229 280 328
#
# _framework density 21.482997999999998
#
# number of rings (size 3 to 8) (size 9 to 14) (size 15 to 20)
#    0.000    2.667    0.000    1.000    4.667    1.333 
#    0.000    0.000    0.000    2.000    0.000    0.000 
#    0.000    0.000    0.000    0.000    0.000    0.000 
#
# Total GULP energy -133708.122738 kJ/mol
# GULP energy per Si atom -5571.171781 kJ/mol
# Density = 2.143410 g / cm^3
# Si number density = 21.482998 Si / 1000 Ang^3
#
#
#
# Elastic Constant Matrix: (Units=GPa)
#
#
# Indices 1 2 3 4 5 6 
#
# 1 119.0568 -0.6286 24.1924 0.0000 0.0000 0.0000
# 2 -0.6286 68.6666 -1.8014 0.0000 0.0000 0.0000
# 3 24.1924 -1.8014 51.3830 0.0000 0.0000 0.0000
# 4 0.0000 0.0000 0.0000 40.6474 0.0000 0.0000
# 5 0.0000 0.0000 0.0000 0.0000 21.6403 0.0000
# 6 0.0000 0.0000 0.0000 0.0000 0.0000 16.4079
#
#
#
# Elastic Compliance Matrix: (Units=1/GPa)
#
#
# Indices 1 2 3 4 5 6 
#
# 1 0.009288 -0.000030 -0.004374 0.000000 0.000000 0.000000
# 2 -0.000030 0.014577 0.000525 0.000000 0.000000 0.000000
# 3 -0.004374 0.000525 0.021540 0.000000 0.000000 0.000000
# 4 0.000000 0.000000 0.000000 0.024602 0.000000 0.000000
# 5 0.000000 0.000000 0.000000 0.000000 0.046210 0.000000
# 6 0.000000 0.000000 0.000000 0.000000 0.000000 0.060946
#
#
# Mechanical properties :
#
#
# Convention : Reuss Voigt Hill
#
# Bulk Modulus (GPa) = 26.56281 31.40347 28.98314
# Shear Modulus (GPa) = 25.32045 30.22870 27.77458
#
# Velocity S-wave (km/s) = 3.43684 3.75520 3.59954
# Velocity P-wave (km/s) = 5.30477 5.78374 5.54942
#
# Compressibility (1/GPa) = 0.03764661
#
# Stress axis : x y z
#
# Youngs Moduli (GPa) = 107.66568 68.60304 46.42626
#
# Poissons Ratio (x) = 0.00204 0.20307
# Poissons Ratio (y) = 0.00320 -0.02438
# Poissons Ratio (z) = 0.47094 -0.03602
#
# Static dielectric constant tensor:
#      x y z
#    x 1.878840 0.000000 0.000000 
#    y 0.000000 1.812710 0.000000 
#    z 0.000000 0.000000 1.859800 
# 
# From -- ./inp_files/179.got.cif
#   From: 2010.05.17/outbox.cif.g08.bks.cpg/sg26_1_cif.got.tgz:179.got - 2010.06.04 01:07:29.
