data_PCOD9338383
_publ_section_title
;
Structure prediction by ZEFSAII (Michael W. Deem and Ramdas Pophale) SiO2 
 PCOD9338383
Probable space group: P M C 21
;
_chemical_formula_sum "Si O2"
_cell_formula_units_Z 32
_cell_length_a 9.442347
_cell_length_b 14.607244
_cell_length_c 12.478491
_cell_angle_alpha 90.000000
_cell_angle_beta 90.000000
_cell_angle_gamma 90.000000
_cell_volume 1721.116667
_symmetry_space_group_name_H-M "P M C 21"
_symmetry_group_IT_number 26
_symmetry_cell_setting 'orthorhombic'
loop_
_space_group_symop_operation_xyz
x,y,z
-x,-y,1/2+z
-x,y,z
x,-y,1/2+z
loop_
_atom_site_type_symbol
_atom_site_label
_atom_site_fract_x
_atom_site_fract_y
_atom_site_fract_z
Si Si1 0.655500 0.370170 0.868840
Si Si2 0.661355 0.830110 0.468615
Si Si3 0.169365 0.738011 0.655302
Si Si4 0.669377 0.162694 0.561673
Si Si5 0.167813 0.450620 0.048558
Si Si6 0.329994 0.959776 0.272143
Si Si7 0.337578 0.373012 0.614412
Si Si8 0.830456 0.133461 0.342066
O O1 0.500000 0.405186 0.904292
O O2 0.659249 0.263578 0.900122
O O3 0.666063 0.378581 0.742750
O O4 0.779379 0.419490 0.932026
O O5 0.500000 0.849713 0.504598
O O6 0.757972 0.806207 0.569791
O O7 0.704280 0.907267 0.383668
O O8 0.214367 0.633973 0.626474
O O9 0.200177 0.773785 0.774568
O O10 0.000000 0.742239 0.639967
O O11 0.500000 0.153950 0.541772
O O12 0.700019 0.103299 0.668413
O O13 0.701361 0.269609 0.582786
O O14 0.756769 0.133058 0.457752
O O15 0.238775 0.546958 0.072674
O O16 0.000000 0.457740 0.054770
O O17 0.500000 0.977406 0.272494
O O18 0.238802 0.051372 0.274091
O O19 0.500000 0.388308 0.579328
O O20 0.000000 0.123373 0.350687
#
# Coordination Sequence:
#
# PCOD9338383 Si02
#       8
#     4   4   4   4   4   4   4   4
#     4   9  17  34  57  82 110 144 191 245 295 344
#     4   9  17  33  60  86 107 139 187 244 295 342
#     4   9  21  40  56  78 118 159 195 239 290 345
#     4  10  22  42  64  88 120 154 196 246 299 354
#     4  10  21  36  56  84 118 158 199 241 294 354
#     4  10  21  39  62  88 115 149 193 245 298 352
#     4  10  20  37  61  87 116 151 194 247 298 349
#     4  11  25  41  58  85 124 164 199 241 293 352
#
# _framework density 18.592580000000002
#
# number of rings (size 3 to 8) (size 9 to 14) (size 15 to 20)
#    0.000    2.250    1.250    0.750    1.750    4.500 
#    0.000    2.500    0.000    0.000    0.000    0.000 
#    0.000    0.000    0.000    0.000    0.000    0.000 
#
# Total GULP energy -178507.774452 kJ/mol
# GULP energy per Si atom -5578.367952 kJ/mol
# Density = 1.855026 g / cm^3
# Si number density = 18.592580 Si / 1000 Ang^3
#
#
#
# Elastic Constant Matrix: (Units=GPa)
#
#
# Indices 1 2 3 4 5 6 
#
# 1 46.9570 54.5282 31.2536 0.0000 0.0000 0.0000
# 2 54.5282 103.3019 41.5605 0.0000 0.0000 0.0000
# 3 31.2536 41.5605 56.3991 0.0000 0.0000 0.0000
# 4 0.0000 0.0000 0.0000 23.7917 0.0000 0.0000
# 5 0.0000 0.0000 0.0000 0.0000 15.4501 0.0000
# 6 0.0000 0.0000 0.0000 0.0000 0.0000 25.6563
#
#
#
# Elastic Compliance Matrix: (Units=1/GPa)
#
#
# Indices 1 2 3 4 5 6 
#
# 1 0.062551 -0.027109 -0.014686 0.000000 0.000000 0.000000
# 2 -0.027109 0.025509 -0.003775 0.000000 0.000000 0.000000
# 3 -0.014686 -0.003775 0.028651 0.000000 0.000000 0.000000
# 4 0.000000 0.000000 0.000000 0.042032 0.000000 0.000000
# 5 0.000000 0.000000 0.000000 0.000000 0.064725 0.000000
# 6 0.000000 0.000000 0.000000 0.000000 0.000000 0.038977
#
#
# Mechanical properties :
#
#
# Convention : Reuss Voigt Hill
#
# Bulk Modulus (GPa) = 39.10753 51.26029 45.18391
# Shear Modulus (GPa) = 13.80808 18.26732 16.03770
#
# Velocity S-wave (km/s) = 2.72815 3.13790 2.94017
# Velocity P-wave (km/s) = 5.56806 6.38425 5.99007
#
# Compressibility (1/GPa) = 0.02557052
#
# Stress axis : x y z
#
# Youngs Moduli (GPa) = 15.98693 39.20218 34.90340
#
# Poissons Ratio (x) = 1.06275 0.51259
# Poissons Ratio (y) = 0.43340 0.13175
# Poissons Ratio (z) = 0.23478 0.14798
#
# Static dielectric constant tensor:
#      x y z
#    x 1.631340 0.000000 0.000000 
#    y 0.000000 1.649670 0.000000 
#    z 0.000000 0.000000 1.633870 
# 
# From -- ./inp_files/2946.got.cif
#   From: 2010.05.17/outbox.cif.g08.bks.cpg/sg26_2_cif.got.tgz:2946.got - 2010.06.04 01:07:29.
