data_PCOD9338971
_publ_section_title
;
Structure prediction by ZEFSAII (Michael W. Deem and Ramdas Pophale) SiO2 
 PCOD9338971
Probable space group: P C C 2
;
_chemical_formula_sum "Si O2"
_cell_formula_units_Z 18
_cell_length_a 5.205498
_cell_length_b 6.262417
_cell_length_c 23.882664
_cell_angle_alpha 90.000000
_cell_angle_beta 90.000000
_cell_angle_gamma 90.000000
_cell_volume 778.550944
_symmetry_space_group_name_H-M "P C C 2"
_symmetry_group_IT_number 27
_symmetry_cell_setting 'orthorhombic'
loop_
_space_group_symop_operation_xyz
x,y,z
-x,-y,z
-x,y,1/2+z
x,-y,1/2+z
loop_
_atom_site_type_symbol
_atom_site_label
_atom_site_fract_x
_atom_site_fract_y
_atom_site_fract_z
Si Si1 0.750230 0.847504 0.531280
Si Si2 0.251909 0.147305 0.657238
Si Si3 0.248702 0.363940 0.774376
Si Si4 0.250046 0.866193 0.383827
Si Si5 0.000000 0.500000 0.951869
O O1 0.726133 0.758112 0.594845
O O2 0.822231 0.655672 0.489666
O O3 0.500000 0.000000 0.521721
O O4 0.000000 0.000000 0.530559
O O5 0.239322 0.305148 0.709293
O O6 0.500000 0.000000 0.665793
O O7 0.000000 0.000000 0.659101
O O8 0.500000 0.500000 0.785895
O O9 0.256505 0.167606 0.816981
O O10 0.000000 0.500000 0.788734
O O11 0.194174 0.641772 0.414190
O O12 0.500000 0.000000 0.400072
O O13 0.000000 0.000000 0.398461
#
# Coordination Sequence:
#
# PCOD9338971 Si02
#       5
#     4   4   4   4   2
#     4  10  25  48  73 108 146 192 244 299 365 433
#     4  10  21  43  71 102 143 185 232 292 366 433
#     4  12  24  43  72 109 143 183 239 297 367 438
#     4  12  28  49  75 106 146 193 245 302 368 433
#     4  12  28  50  76 108 146 204 248 314 352 444
#
# _framework density 23.119873999999999
#
# number of rings (size 3 to 8) (size 9 to 14) (size 15 to 20)
#    0.000    0.889    1.111    4.667    1.556    6.222 
#    0.000    0.000    0.000    0.000    0.000    0.000 
#    0.000    0.000    0.000    0.000    0.000    0.000 
#
# Total GULP energy -100809.605754 kJ/mol
# GULP energy per Si atom -5600.533653 kJ/mol
# Density = 2.306725 g / cm^3
# Si number density = 23.119874 Si / 1000 Ang^3
#
#
#
# Elastic Constant Matrix: (Units=GPa)
#
#
# Indices 1 2 3 4 5 6 
#
# 1 215.2262 60.3949 35.2644 0.0000 0.0000 0.0000
# 2 60.3949 89.2788 53.4704 0.0000 0.0000 0.0000
# 3 35.2644 53.4704 156.6760 0.0000 0.0000 0.0000
# 4 0.0000 0.0000 0.0000 45.0506 0.0000 0.0000
# 5 0.0000 0.0000 0.0000 0.0000 56.6592 0.0000
# 6 0.0000 0.0000 0.0000 0.0000 0.0000 41.6545
#
#
#
# Elastic Compliance Matrix: (Units=1/GPa)
#
#
# Indices 1 2 3 4 5 6 
#
# 1 0.005735 -0.003905 0.000042 0.000000 0.000000 0.000000
# 2 -0.003905 0.016737 -0.004833 0.000000 0.000000 0.000000
# 3 0.000042 -0.004833 0.008023 0.000000 0.000000 0.000000
# 4 0.000000 0.000000 0.000000 0.022197 0.000000 0.000000
# 5 0.000000 0.000000 0.000000 0.000000 0.017649 0.000000
# 6 0.000000 0.000000 0.000000 0.000000 0.000000 0.024007
#
#
# Mechanical properties :
#
#
# Convention : Reuss Voigt Hill
#
# Bulk Modulus (GPa) = 76.32082 84.38227 80.35155
# Shear Modulus (GPa) = 43.06334 49.47626 46.26980
#
# Velocity S-wave (km/s) = 4.32048 4.63102 4.47844
# Velocity P-wave (km/s) = 7.61389 8.07292 7.84676
#
# Compressibility (1/GPa) = 0.01310258
#
# Stress axis : x y z
#
# Youngs Moduli (GPa) = 174.36393 59.74817 124.64708
#
# Poissons Ratio (x) = 0.23330 -0.00520
# Poissons Ratio (y) = 0.68083 0.60243
# Poissons Ratio (z) = -0.00728 0.28877
#
# Static dielectric constant tensor:
#      x y z
#    x 1.798000 0.000000 0.000000 
#    y 0.000000 1.806010 0.000000 
#    z 0.000000 0.000000 1.889420 
# 
# From -- ./inp_files/4903.got.cif
#   From: 2010.05.17/outbox.cif.g08.bks.cpg/sg27_3_cif.got.tgz:4903.got - 2010.06.04 01:11:05.
