data_PCOD9338866
_publ_section_title
;
Structure prediction by ZEFSAII (Michael W. Deem and Ramdas Pophale) SiO2 
 PCOD9338866
Probable space group: P C C 2
;
_chemical_formula_sum "Si O2"
_cell_formula_units_Z 32
_cell_length_a 8.912674
_cell_length_b 14.097430
_cell_length_c 11.137671
_cell_angle_alpha 90.000000
_cell_angle_beta 90.000000
_cell_angle_gamma 90.000000
_cell_volume 1399.401559
_symmetry_space_group_name_H-M "P C C 2"
_symmetry_group_IT_number 27
_symmetry_cell_setting 'orthorhombic'
loop_
_space_group_symop_operation_xyz
x,y,z
-x,-y,z
-x,y,1/2+z
x,-y,1/2+z
loop_
_atom_site_type_symbol
_atom_site_label
_atom_site_fract_x
_atom_site_fract_y
_atom_site_fract_z
Si Si1 0.952058 0.402230 0.316170
Si Si2 0.953719 0.190875 0.376669
Si Si3 0.530715 0.288291 0.771860
Si Si4 0.216386 0.629125 0.651010
Si Si5 0.646187 0.778870 0.972243
Si Si6 0.557139 0.104688 0.143442
Si Si7 0.919575 0.897466 0.620392
Si Si8 0.641574 0.446353 0.201242
O O1 0.973998 0.304196 0.383157
O O2 0.780640 0.418055 0.282242
O O3 0.000000 0.500000 0.378525
O O4 0.049247 0.391100 0.193645
O O5 0.776613 0.170821 0.396596
O O6 0.983508 0.157667 0.239159
O O7 0.039188 0.144860 0.489153
O O8 0.694272 0.333275 0.769826
O O9 0.448114 0.296665 0.896755
O O10 0.507707 0.178608 0.741332
O O11 0.435162 0.346093 0.670186
O O12 0.258265 0.716095 0.566416
O O13 0.291919 0.528283 0.614881
O O14 0.531319 0.853838 0.027858
O O15 0.737619 0.103470 0.130178
O O16 0.500000 0.000000 0.169196
O O17 0.000000 0.000000 0.625315
O O18 0.500000 0.500000 0.261492
#
# Coordination Sequence:
#
# PCOD9338866 Si02
#       8
#     4   4   4   4   4   4   4   4
#     4  10  20  39  67 104 145 193 241 299 366 448
#     4  12  25  48  76 105 153 194 245 314 374 452
#     4  10  20  41  65  93 135 182 238 299 364 434
#     4   9  21  36  65  98 137 188 237 296 360 435
#     4  11  22  42  68 102 137 191 242 302 366 446
#     4  11  25  45  68  99 139 186 242 307 378 449
#     4  12  27  50  74 111 143 193 247 318 388 458
#     4   9  17  37  65  92 139 182 235 301 359 437
#
# _framework density 22.866918999999999
#
# number of rings (size 3 to 8) (size 9 to 14) (size 15 to 20)
#    0.000    1.500    2.500    1.875    1.750    1.500 
#    2.250   15.625    0.000    0.000    0.000    0.000 
#    0.000    0.000    0.000    0.000    0.000    0.000 
#
# Total GULP energy -178299.743282 kJ/mol
# GULP energy per Si atom -5571.866978 kJ/mol
# Density = 2.281487 g / cm^3
# Si number density = 22.866919 Si / 1000 Ang^3
#
#
#
# Elastic Constant Matrix: (Units=GPa)
#
#
# Indices 1 2 3 4 5 6 
#
# 1 109.4117 40.4263 33.2014 0.0000 0.0000 0.0000
# 2 40.4263 165.1997 32.9588 0.0000 0.0000 0.0000
# 3 33.2014 32.9588 75.5517 0.0000 0.0000 0.0000
# 4 0.0000 0.0000 0.0000 5.0058 0.0000 0.0000
# 5 0.0000 0.0000 0.0000 0.0000 32.9758 0.0000
# 6 0.0000 0.0000 0.0000 0.0000 0.0000 29.2957
#
#
#
# Elastic Compliance Matrix: (Units=1/GPa)
#
#
# Indices 1 2 3 4 5 6 
#
# 1 0.011067 -0.001904 -0.004033 0.000000 0.000000 0.000000
# 2 -0.001904 0.006958 -0.002199 0.000000 0.000000 0.000000
# 3 -0.004033 -0.002199 0.015967 0.000000 0.000000 0.000000
# 4 0.000000 0.000000 0.000000 0.199769 0.000000 0.000000
# 5 0.000000 0.000000 0.000000 0.000000 0.030325 0.000000
# 6 0.000000 0.000000 0.000000 0.000000 0.000000 0.034135
#
#
# Mechanical properties :
#
#
# Convention : Reuss Voigt Hill
#
# Bulk Modulus (GPa) = 56.42837 62.59289 59.51063
# Shear Modulus (GPa) = 15.60556 29.69389 22.64972
#
# Velocity S-wave (km/s) = 2.61521 3.60745 3.15064
# Velocity P-wave (km/s) = 5.81803 6.69206 6.27030
#
# Compressibility (1/GPa) = 0.01772158
#
# Stress axis : x y z
#
# Youngs Moduli (GPa) = 90.35893 143.72400 62.62742
#
# Poissons Ratio (x) = 0.27359 0.25257
# Poissons Ratio (y) = 0.17201 0.13770
# Poissons Ratio (z) = 0.36442 0.31601
#
# Static dielectric constant tensor:
#      x y z
#    x 1.887260 0.000000 0.000000 
#    y 0.000000 1.893290 0.000000 
#    z 0.000000 0.000000 1.944170 
# 
# From -- ./inp_files/2459.got.cif
#   From: 2010.05.17/outbox.cif.g08.bks.cpg/sg27_2_cif.got.tgz:2459.got - 2010.06.04 01:11:05.
