data_PCOD9338143
_publ_section_title
;
Structure prediction by ZEFSAII (Michael W. Deem and Ramdas Pophale) SiO2 
 PCOD9338143
Probable space group: P M C 21
;
_chemical_formula_sum "Si O2"
_cell_formula_units_Z 32
_cell_length_a 9.198131
_cell_length_b 14.833752
_cell_length_c 12.639417
_cell_angle_alpha 90.000000
_cell_angle_beta 90.000000
_cell_angle_gamma 90.000000
_cell_volume 1724.557371
_symmetry_space_group_name_H-M "P M C 21"
_symmetry_group_IT_number 26
_symmetry_cell_setting 'orthorhombic'
loop_
_space_group_symop_operation_xyz
x,y,z
-x,-y,1/2+z
-x,y,z
x,-y,1/2+z
loop_
_atom_site_type_symbol
_atom_site_label
_atom_site_fract_x
_atom_site_fract_y
_atom_site_fract_z
Si Si1 0.660172 0.367440 0.888530
Si Si2 0.667600 0.830081 0.486121
Si Si3 0.174548 0.740101 0.679624
Si Si4 0.676780 0.171144 0.591308
Si Si5 0.171335 0.446774 0.071550
Si Si6 0.676850 0.947965 0.291043
Si Si7 0.331233 0.373360 0.637413
Si Si8 0.674953 0.146782 0.348928
O O1 0.500000 0.401433 0.922433
O O2 0.663978 0.262199 0.918414
O O3 0.673491 0.377012 0.764245
O O4 0.783112 0.416893 0.954188
O O5 0.500000 0.851567 0.518076
O O6 0.762283 0.806171 0.588276
O O7 0.722753 0.904207 0.403126
O O8 0.218063 0.638101 0.645568
O O9 0.244946 0.772474 0.788889
O O10 0.000000 0.744667 0.682309
O O11 0.500000 0.171762 0.598613
O O12 0.727530 0.107888 0.688256
O O13 0.725235 0.274709 0.604696
O O14 0.713184 0.139736 0.473005
O O15 0.246278 0.540805 0.095977
O O16 0.000000 0.455553 0.082029
O O17 0.500000 0.942115 0.292183
O O18 0.714676 0.052930 0.291833
O O19 0.500000 0.379129 0.603833
O O20 0.500000 0.158846 0.341725
#
# Coordination Sequence:
#
# PCOD9338143 Si02
#       8
#     4   4   4   4   4   4   4   4
#     4   9  17  32  54  80 106 139 181 230 281 330
#     4   9  16  31  58  85 106 135 180 230 277 328
#     4  10  22  39  54  74 112 152 186 232 281 326
#     4   9  18  34  54  85 120 142 176 230 285 330
#     4  10  22  37  54  78 109 149 191 234 282 333
#     4   9  17  31  56  88 114 139 177 228 277 324
#     4  10  19  34  57  82 111 145 182 232 286 334
#     4  10  21  34  57  86 114 151 187 226 275 335
#
# _framework density 18.555486999999999
#
# number of rings (size 3 to 8) (size 9 to 14) (size 15 to 20)
#    0.000    2.500    1.250    0.750    1.750    3.000 
#    0.000    5.000    0.000    1.500    0.000    0.000 
#    0.000    0.000    0.000    0.000    0.000    0.000 
#
# Total GULP energy -178428.600584 kJ/mol
# GULP energy per Si atom -5575.893768 kJ/mol
# Density = 1.851325 g / cm^3
# Si number density = 18.555487 Si / 1000 Ang^3
#
#
#
# Elastic Constant Matrix: (Units=GPa)
#
#
# Indices 1 2 3 4 5 6 
#
# 1 26.7788 30.3414 16.0955 0.0000 0.0000 0.0000
# 2 30.3414 106.8698 44.0335 0.0000 0.0000 0.0000
# 3 16.0955 44.0335 55.4029 0.0000 0.0000 0.0000
# 4 0.0000 0.0000 0.0000 23.0453 0.0000 0.0000
# 5 0.0000 0.0000 0.0000 0.0000 -1.2586 0.0000
# 6 0.0000 0.0000 0.0000 0.0000 0.0000 10.0075
#
#
#
# Elastic Compliance Matrix: (Units=1/GPa)
#
#
# Indices 1 2 3 4 5 6 
#
# 1 0.056123 -0.013703 -0.005414 0.000000 0.000000 0.000000
# 2 -0.013703 0.017259 -0.009736 0.000000 0.000000 0.000000
# 3 -0.005414 -0.009736 0.027361 0.000000 0.000000 0.000000
# 4 0.000000 0.000000 0.000000 0.043393 0.000000 0.000000
# 5 0.000000 0.000000 0.000000 0.000000 -0.794518 0.000000
# 6 0.000000 0.000000 0.000000 0.000000 0.000000 0.099925
#
#
# Mechanical properties :
#
#
# Convention : Reuss Voigt Hill
#
# Bulk Modulus (GPa) = 23.23600 41.11026 32.17313
# Shear Modulus (GPa) = -10.45141 12.93090 1.23975
#
# Velocity S-wave (km/s) = -2.37587 2.64271 0.81828
# Velocity P-wave (km/s) = 2.24127 5.61385 4.27426
#
# Compressibility (1/GPa) = 0.04303667
#
# Stress axis : x y z
#
# Youngs Moduli (GPa) = 17.81787 57.93921 36.54871
#
# Poissons Ratio (x) = 0.79397 0.19786
# Poissons Ratio (y) = 0.24417 0.35586
# Poissons Ratio (z) = 0.09646 0.56412
#
# Static dielectric constant tensor:
#      x y z
#    x 1.626620 0.000000 0.000000 
#    y 0.000000 1.643020 0.000000 
#    z 0.000000 0.000000 1.642170 
# 
# From -- ./inp_files/3068.got.cif
#   From: 2010.05.17/outbox.cif.g08.bks.cpg/sg26_2_cif.got.tgz:3068.got - 2010.06.04 01:07:29.
