data_PCOD9338026
_publ_section_title
;
Structure prediction by ZEFSAII (Michael W. Deem and Ramdas Pophale) SiO2 
 PCOD9338026
Probable space group: P M C 21
;
_chemical_formula_sum "Si O2"
_cell_formula_units_Z 32
_cell_length_a 8.537562
_cell_length_b 6.980414
_cell_length_c 22.090831
_cell_angle_alpha 90.000000
_cell_angle_beta 90.000000
_cell_angle_gamma 90.000000
_cell_volume 1316.518919
_symmetry_space_group_name_H-M "P M C 21"
_symmetry_group_IT_number 26
_symmetry_cell_setting 'orthorhombic'
loop_
_space_group_symop_operation_xyz
x,y,z
-x,-y,1/2+z
-x,y,z
x,-y,1/2+z
loop_
_atom_site_type_symbol
_atom_site_label
_atom_site_fract_x
_atom_site_fract_y
_atom_site_fract_z
Si Si1 0.187124 0.210908 0.478220
Si Si2 0.185622 0.055002 0.358344
Si Si3 0.816877 0.575095 0.697142
Si Si4 0.815821 0.969233 0.229407
Si Si5 0.184793 0.508583 0.325918
Si Si6 0.677267 0.321125 0.075906
Si Si7 0.680848 0.614610 0.447582
Si Si8 0.677456 0.124458 0.606446
O O1 0.233800 0.045134 0.429235
O O2 0.296811 0.388160 0.460479
O O3 0.000000 0.249886 0.468951
O O4 0.217694 0.181524 0.549064
O O5 0.251582 0.955327 0.297649
O O6 0.203612 0.283835 0.343978
O O7 0.000000 0.013201 0.357471
O O8 0.806749 0.803559 0.712814
O O9 0.749562 0.475477 0.757737
O O10 0.745944 0.553757 0.630335
O O11 0.000000 0.528847 0.692526
O O12 0.740895 0.852424 0.174346
O O13 0.000000 0.922254 0.230763
O O14 0.245033 0.636274 0.381377
O O15 0.000000 0.541654 0.321807
O O16 0.500000 0.386173 0.064873
O O17 0.757942 0.311893 0.010171
O O18 0.670929 0.105464 0.098825
O O19 0.500000 0.673566 0.443118
O O20 0.500000 0.195832 0.600231
#
# Coordination Sequence:
#
# PCOD9338026 Si02
#       8
#     4   4   4   4   4   4   4   4
#     4  10  19  32  49  70  94 122 154 192 234 275
#     4   7  12  24  43  64  87 112 144 186 228 265
#     4   8  14  25  44  67  90 116 152 193 230 267
#     4   8  13  25  44  65  87 114 147 187 230 269
#     4   8  14  26  43  66  92 117 149 192 231 268
#     4   9  19  32  46  67  97 126 154 188 228 273
#     4  10  19  31  47  69  95 125 157 190 229 277
#     4  10  19  31  46  68  96 124 153 188 226 272
#
# _framework density 24.306526999999999
#
# number of rings (size 3 to 8) (size 9 to 14) (size 15 to 20)
#    0.000    3.250    0.000    3.375    0.000    2.000 
#    0.000    6.875    0.000    1.500    0.000    7.000 
#    0.000    0.000    0.000    0.000    0.000    0.000 
#
# Total GULP energy -178444.638935 kJ/mol
# GULP energy per Si atom -5576.394967 kJ/mol
# Density = 2.425120 g / cm^3
# Si number density = 24.306527 Si / 1000 Ang^3
#
#
#
# Elastic Constant Matrix: (Units=GPa)
#
#
# Indices 1 2 3 4 5 6 
#
# 1 30.7833 -10.4463 39.3892 0.0000 0.0000 0.0000
# 2 -10.4463 56.0577 34.7131 0.0000 0.0000 0.0000
# 3 39.3892 34.7131 255.9133 0.0000 0.0000 0.0000
# 4 0.0000 0.0000 0.0000 52.3239 0.0000 0.0000
# 5 0.0000 0.0000 0.0000 0.0000 14.1749 0.0000
# 6 0.0000 0.0000 0.0000 0.0000 0.0000 0.7306
#
#
#
# Elastic Compliance Matrix: (Units=1/GPa)
#
#
# Indices 1 2 3 4 5 6 
#
# 1 0.050338 0.015478 -0.009847 0.000000 0.000000 0.000000
# 2 0.015478 0.024234 -0.005670 0.000000 0.000000 0.000000
# 3 -0.009847 -0.005670 0.006192 0.000000 0.000000 0.000000
# 4 0.000000 0.000000 0.000000 0.019112 0.000000 0.000000
# 5 0.000000 0.000000 0.000000 0.000000 0.070547 0.000000
# 6 0.000000 0.000000 0.000000 0.000000 0.000000 1.368718
#
#
# Mechanical properties :
#
#
# Convention : Reuss Voigt Hill
#
# Bulk Modulus (GPa) = 12.39356 52.22959 32.31157
# Shear Modulus (GPa) = 3.19261 32.05243 17.62252
#
# Velocity S-wave (km/s) = 1.14732 3.63530 2.69553
# Velocity P-wave (km/s) = 2.62012 6.25740 4.79688
#
# Compressibility (1/GPa) = 0.08068709
#
# Stress axis : x y z
#
# Youngs Moduli (GPa) = 19.86569 41.26444 161.49126
#
# Poissons Ratio (x) = -0.63871 1.59027
# Poissons Ratio (y) = -0.30749 0.91558
# Poissons Ratio (z) = 0.19562 0.23395
#
# Static dielectric constant tensor:
#      x y z
#    x 1.858760 0.000000 0.000000 
#    y 0.000000 2.061430 0.000000 
#    z 0.000000 0.000000 2.034740 
# 
# From -- ./inp_files/5375.got.cif
#   From: 2010.05.17/outbox.cif.g08.bks.cpg/sg26_3_cif.got.tgz:5375.got - 2010.06.04 01:07:29.
