data_PCOD9338359
_publ_section_title
;
Structure prediction by ZEFSAII (Michael W. Deem and Ramdas Pophale) SiO2 
 PCOD9338359
Probable space group: P M C 21
;
_chemical_formula_sum "Si O2"
_cell_formula_units_Z 32
_cell_length_a 8.798645
_cell_length_b 14.559335
_cell_length_c 12.502488
_cell_angle_alpha 90.000000
_cell_angle_beta 90.000000
_cell_angle_gamma 90.000000
_cell_volume 1601.598970
_symmetry_space_group_name_H-M "P M C 21"
_symmetry_group_IT_number 26
_symmetry_cell_setting 'orthorhombic'
loop_
_space_group_symop_operation_xyz
x,y,z
-x,-y,1/2+z
-x,y,z
x,-y,1/2+z
loop_
_atom_site_type_symbol
_atom_site_label
_atom_site_fract_x
_atom_site_fract_y
_atom_site_fract_z
Si Si1 0.179826 0.443894 0.646040
Si Si2 0.328975 0.141140 0.719620
Si Si3 0.672374 0.337748 0.834152
Si Si4 0.819338 0.941411 0.424696
Si Si5 0.682841 0.771182 0.543593
Si Si6 0.818849 0.355131 0.214730
Si Si7 0.175575 0.148114 0.499305
Si Si8 0.320828 0.337586 0.444250
O O1 0.228027 0.404728 0.762199
O O2 0.215881 0.551837 0.649287
O O3 0.262145 0.390971 0.549549
O O4 0.000000 0.431370 0.632391
O O5 0.500000 0.115912 0.684458
O O6 0.335037 0.244192 0.765229
O O7 0.271390 0.080123 0.816943
O O8 0.210598 0.138884 0.624373
O O9 0.500000 0.374379 0.845200
O O10 0.727188 0.302047 0.949718
O O11 0.756850 0.868587 0.511932
O O12 0.000000 0.925429 0.411412
O O13 0.795768 0.047456 0.452780
O O14 0.500000 0.779565 0.539811
O O15 0.738988 0.729703 0.655041
O O16 0.760542 0.367997 0.335264
O O17 0.000000 0.341622 0.215384
O O18 0.280391 0.230100 0.457977
O O19 0.000000 0.173382 0.479796
O O20 0.500000 0.350687 0.435173
#
# Coordination Sequence:
#
# PCOD9338359 Si02
#       8
#     4   4   4   4   4   4   4   4
#     4  11  24  41  65  94 125 164 210 261 316 378
#     4  10  20  36  59  89 121 159 207 260 316 374
#     4   9  19  36  60  90 121 156 203 259 311 370
#     4  10  22  39  62  92 126 169 215 263 320 380
#     4  10  22  41  64  93 128 167 213 264 320 378
#     4  11  26  45  65  93 131 172 216 263 320 386
#     4  11  23  40  64  92 126 167 212 263 320 381
#     4  12  26  44  67  95 130 168 212 265 323 381
#
# _framework density 19.980032000000001
#
# number of rings (size 3 to 8) (size 9 to 14) (size 15 to 20)
#    0.000    1.500    1.250    4.125    1.750    7.500 
#    0.000    1.250    0.000    0.000    0.000    0.000 
#    0.000    0.000    0.000    0.000    0.000    0.000 
#
# Total GULP energy -178806.964504 kJ/mol
# GULP energy per Si atom -5587.717641 kJ/mol
# Density = 1.993456 g / cm^3
# Si number density = 19.980032 Si / 1000 Ang^3
#
#
#
# Elastic Constant Matrix: (Units=GPa)
#
#
# Indices 1 2 3 4 5 6 
#
# 1 48.4384 34.7100 5.8753 0.0000 0.0000 0.0000
# 2 34.7100 61.8207 17.6836 0.0000 0.0000 0.0000
# 3 5.8753 17.6836 42.0492 0.0000 0.0000 0.0000
# 4 0.0000 0.0000 0.0000 12.1339 0.0000 0.0000
# 5 0.0000 0.0000 0.0000 0.0000 42.3303 0.0000
# 6 0.0000 0.0000 0.0000 0.0000 0.0000 -253.6464
#
#
#
# Elastic Compliance Matrix: (Units=1/GPa)
#
#
# Indices 1 2 3 4 5 6 
#
# 1 0.035081 -0.020796 0.003844 0.000000 0.000000 0.000000
# 2 -0.020796 0.030716 -0.010012 0.000000 0.000000 0.000000
# 3 0.003844 -0.010012 0.027455 0.000000 0.000000 0.000000
# 4 0.000000 0.000000 0.000000 0.082413 0.000000 0.000000
# 5 0.000000 0.000000 0.000000 0.000000 0.023624 0.000000
# 6 0.000000 0.000000 0.000000 0.000000 0.000000 -0.003942
#
#
# Mechanical properties :
#
#
# Convention : Reuss Voigt Hill
#
# Bulk Modulus (GPa) = 25.42977 29.87179 27.65078
# Shear Modulus (GPa) = 19.05624 -33.56714 -7.25545
#
# Velocity S-wave (km/s) = 3.09166 -4.10327 -1.90768
# Velocity P-wave (km/s) = 5.04972 2.73236 3.00282
#
# Compressibility (1/GPa) = 0.03932400
#
# Stress axis : x y z
#
# Youngs Moduli (GPa) = 28.50583 32.55650 36.42335
#
# Poissons Ratio (x) = 0.67705 -0.14001
# Poissons Ratio (y) = 0.59281 0.36466
# Poissons Ratio (z) = -0.10958 0.32595
#
# Static dielectric constant tensor:
#      x y z
#    x 1.669640 0.000000 0.000000 
#    y 0.000000 1.708830 0.000000 
#    z 0.000000 0.000000 1.703770 
# 
# From -- ./inp_files/2974.got.cif
#   From: 2010.05.17/outbox.cif.g08.bks.cpg/sg26_2_cif.got.tgz:2974.got - 2010.06.04 01:07:29.
