data_PCOD9338301
_publ_section_title
;
Structure prediction by ZEFSAII (Michael W. Deem and Ramdas Pophale) SiO2 
 PCOD9338301
Probable space group: P M C 21
;
_chemical_formula_sum "Si O2"
_cell_formula_units_Z 32
_cell_length_a 9.122975
_cell_length_b 21.193969
_cell_length_c 6.972214
_cell_angle_alpha 90.000000
_cell_angle_beta 90.000000
_cell_angle_gamma 90.000000
_cell_volume 1348.091865
_symmetry_space_group_name_H-M "P M C 21"
_symmetry_group_IT_number 26
_symmetry_cell_setting 'orthorhombic'
loop_
_space_group_symop_operation_xyz
x,y,z
-x,-y,1/2+z
-x,y,z
x,-y,1/2+z
loop_
_atom_site_type_symbol
_atom_site_label
_atom_site_fract_x
_atom_site_fract_y
_atom_site_fract_z
Si Si1 0.334588 0.169195 0.502640
Si Si2 0.168253 0.332030 0.138851
Si Si3 0.165284 0.050582 0.396307
Si Si4 0.167468 0.087350 0.951885
Si Si5 0.825682 0.574884 0.137523
Si Si6 0.836346 0.710871 0.091157
Si Si7 0.672045 0.547989 0.757111
Si Si8 0.667526 0.207891 0.048378
O O1 0.500000 0.156204 0.557947
O O2 0.242416 0.104889 0.518320
O O3 0.274010 0.231684 0.604299
O O4 0.332576 0.187668 0.274657
O O5 0.165371 0.312354 0.367129
O O6 0.265461 0.395425 0.125848
O O7 0.233670 0.270276 0.038314
O O8 0.000000 0.345573 0.087055
O O9 0.157966 0.076578 0.181596
O O10 0.000000 0.041108 0.469719
O O11 0.229739 0.980161 0.383686
O O12 0.266837 0.148813 0.933364
O O13 0.000000 0.097968 0.883648
O O14 0.774946 0.513915 0.253593
O O15 0.000000 0.568187 0.083755
O O16 0.812805 0.646601 0.210171
O O17 0.704481 0.572371 0.969682
O O18 0.000000 0.734945 0.130122
O O19 0.500000 0.535996 0.722522
O O20 0.500000 0.221643 0.996967
#
# Coordination Sequence:
#
# PCOD9338301 Si02
#       8
#     4   4   4   4   4   4   4   4
#     4   9  16  25  41  65  91 116 146 186 232 274
#     4   9  16  28  46  68  94 125 159 196 237 285
#     4   9  17  29  45  64  88 116 148 183 221 268
#     4   9  17  29  45  65  88 117 149 183 223 270
#     4  10  20  35  53  74 101 135 170 203 244 299
#     4   8  15  27  45  67  91 120 156 195 233 274
#     4  11  21  33  51  77 105 132 164 207 253 294
#     4   9  16  26  42  66  92 117 148 191 235 274
#
# _framework density 23.737252000000002
#
# number of rings (size 3 to 8) (size 9 to 14) (size 15 to 20)
#    0.000    2.750    0.000    3.375    0.000    7.000 
#    0.000    0.000    0.000    1.500    0.000    3.500 
#    0.000    0.000    0.000    0.000    0.000    0.000 
#
# Total GULP energy -178784.420078 kJ/mol
# GULP energy per Si atom -5587.013127 kJ/mol
# Density = 2.368322 g / cm^3
# Si number density = 23.737252 Si / 1000 Ang^3
#
#
#
# Elastic Constant Matrix: (Units=GPa)
#
#
# Indices 1 2 3 4 5 6 
#
# 1 129.5374 82.1129 3.2711 0.0000 0.0000 0.0000
# 2 82.1129 163.0050 14.3226 0.0000 0.0000 0.0000
# 3 3.2711 14.3226 49.3766 0.0000 0.0000 0.0000
# 4 0.0000 0.0000 0.0000 42.2973 0.0000 0.0000
# 5 0.0000 0.0000 0.0000 0.0000 18.3338 0.0000
# 6 0.0000 0.0000 0.0000 0.0000 0.0000 8.5320
#
#
#
# Elastic Compliance Matrix: (Units=1/GPa)
#
#
# Indices 1 2 3 4 5 6 
#
# 1 0.011383 -0.005816 0.000933 0.000000 0.000000 0.000000
# 2 -0.005816 0.009267 -0.002303 0.000000 0.000000 0.000000
# 3 0.000933 -0.002303 0.020859 0.000000 0.000000 0.000000
# 4 0.000000 0.000000 0.000000 0.023642 0.000000 0.000000
# 5 0.000000 0.000000 0.000000 0.000000 0.054544 0.000000
# 6 0.000000 0.000000 0.000000 0.000000 0.000000 0.117206
#
#
# Mechanical properties :
#
#
# Convention : Reuss Voigt Hill
#
# Bulk Modulus (GPa) = 36.85027 60.14802 48.49915
# Shear Modulus (GPa) = 19.20728 29.98011 24.59369
#
# Velocity S-wave (km/s) = 2.84766 3.55772 3.22231
# Velocity P-wave (km/s) = 5.13519 6.50159 5.85836
#
# Compressibility (1/GPa) = 0.02713684
#
# Stress axis : x y z
#
# Youngs Moduli (GPa) = 87.85019 107.91040 47.94173
#
# Poissons Ratio (x) = 0.62762 -0.04473
# Poissons Ratio (y) = 0.51095 0.11040
# Poissons Ratio (z) = -0.08196 0.24849
#
# Static dielectric constant tensor:
#      x y z
#    x 1.799320 0.000000 0.000000 
#    y 0.000000 1.902000 0.000000 
#    z 0.000000 0.000000 2.068830 
# 
# From -- ./inp_files/3120.got.cif
#   From: 2010.05.17/outbox.cif.g08.bks.cpg/sg26_2_cif.got.tgz:3120.got - 2010.06.04 01:07:29.
