data_PCOD9338521
_publ_section_title
;
Structure prediction by ZEFSAII (Michael W. Deem and Ramdas Pophale) SiO2 
 PCOD9338521
Probable space group: P M C 21
;
_chemical_formula_sum "Si O2"
_cell_formula_units_Z 22
_cell_length_a 24.112054
_cell_length_b 7.765002
_cell_length_c 5.255183
_cell_angle_alpha 90.000000
_cell_angle_beta 90.000000
_cell_angle_gamma 90.000000
_cell_volume 983.928688
_symmetry_space_group_name_H-M "P M C 21"
_symmetry_group_IT_number 26
_symmetry_cell_setting 'orthorhombic'
loop_
_space_group_symop_operation_xyz
x,y,z
-x,-y,1/2+z
-x,y,z
x,-y,1/2+z
loop_
_atom_site_type_symbol
_atom_site_label
_atom_site_fract_x
_atom_site_fract_y
_atom_site_fract_z
Si Si1 0.662092 0.610646 0.384200
Si Si2 0.717869 0.069611 0.714116
Si Si3 0.563435 0.117080 0.876235
Si Si4 0.000000 0.119427 0.350823
Si Si5 0.841972 0.931078 0.717125
Si Si6 0.102424 0.385499 0.359254
O O1 0.663201 0.531824 0.664178
O O2 0.712797 0.740127 0.323657
O O3 0.607922 0.730915 0.356617
O O4 0.691736 0.049363 0.435151
O O5 0.780363 0.004064 0.674380
O O6 0.500000 0.183751 0.867195
O O7 0.569864 0.012992 0.139353
O O8 0.947541 0.248569 0.339032
O O9 0.000000 0.010159 0.611482
O O10 0.844222 0.736789 0.815151
O O11 0.868742 0.952529 0.439154
O O12 0.100336 0.478732 0.629743
#
# Coordination Sequence:
#
# PCOD9338521 Si02
#       6
#     4   4   4   2   4   4
#     4  12  24  38  60  92 124 156 197 256 313 350
#     4  10  21  41  63  82 115 162 207 247 294 366
#     4  10  21  39  63  88 118 162 205 239 292 371
#     4  12  24  42  68  94 126 172 208 236 294 376
#     4  10  21  41  63  86 118 164 206 243 299 368
#     4  12  24  41  64  97 130 157 201 261 308 346
#
# _framework density 22.359342999999999
#
# number of rings (size 3 to 8) (size 9 to 14) (size 15 to 20)
#    0.000    1.091    0.000    7.091    0.000    0.727 
#    0.000   21.818    0.000    0.000    0.000    0.000 
#    0.000    0.000    0.000    0.000    0.000    0.000 
#
# Total GULP energy -122996.171769 kJ/mol
# GULP energy per Si atom -5590.735080 kJ/mol
# Density = 2.230845 g / cm^3
# Si number density = 22.359343 Si / 1000 Ang^3
#
#
#
# Elastic Constant Matrix: (Units=GPa)
#
#
# Indices 1 2 3 4 5 6 
#
# 1 89.5023 29.4703 -11.7086 0.0000 0.0000 0.0000
# 2 29.4703 91.5417 10.0371 0.0000 0.0000 0.0000
# 3 -11.7086 10.0371 141.8598 0.0000 0.0000 0.0000
# 4 0.0000 0.0000 0.0000 61.6214 0.0000 0.0000
# 5 0.0000 0.0000 0.0000 0.0000 19.8336 0.0000
# 6 0.0000 0.0000 0.0000 0.0000 0.0000 39.1469
#
#
#
# Elastic Compliance Matrix: (Units=1/GPa)
#
#
# Indices 1 2 3 4 5 6 
#
# 1 0.012750 -0.004253 0.001353 0.000000 0.000000 0.000000
# 2 -0.004253 0.012428 -0.001230 0.000000 0.000000 0.000000
# 3 0.001353 -0.001230 0.007248 0.000000 0.000000 0.000000
# 4 0.000000 0.000000 0.000000 0.016228 0.000000 0.000000
# 5 0.000000 0.000000 0.000000 0.000000 0.050419 0.000000
# 6 0.000000 0.000000 0.000000 0.000000 0.000000 0.025545
#
#
# Mechanical properties :
#
#
# Convention : Reuss Voigt Hill
#
# Bulk Modulus (GPa) = 41.38045 42.05569 41.71807
# Shear Modulus (GPa) = 35.47744 43.79404 39.63574
#
# Velocity S-wave (km/s) = 3.98765 4.43046 4.21488
# Velocity P-wave (km/s) = 6.30468 6.70983 6.51041
#
# Compressibility (1/GPa) = 0.02416600
#
# Stress axis : x y z
#
# Youngs Moduli (GPa) = 78.42919 80.46271 137.96979
#
# Poissons Ratio (x) = 0.34222 -0.18671
# Poissons Ratio (y) = 0.33357 0.16975
# Poissons Ratio (z) = -0.10614 0.09900
#
# Static dielectric constant tensor:
#      x y z
#    x 2.012850 0.000000 0.000000 
#    y 0.000000 1.810100 0.000000 
#    z 0.000000 0.000000 1.874650 
# 
# From -- ./inp_files/1084.got.cif
#   From: 2010.05.17/outbox.cif.g08.bks.cpg/sg26_1_cif.got.tgz:1084.got - 2010.06.04 01:07:29.
