data_PCOD9338403
_publ_section_title
;
Structure prediction by ZEFSAII (Michael W. Deem and Ramdas Pophale) SiO2 
 PCOD9338403
Probable space group: P M C 21
;
_chemical_formula_sum "Si O2"
_cell_formula_units_Z 32
_cell_length_a 9.099791
_cell_length_b 13.359797
_cell_length_c 13.275717
_cell_angle_alpha 90.000000
_cell_angle_beta 90.000000
_cell_angle_gamma 90.000000
_cell_volume 1613.946977
_symmetry_space_group_name_H-M "P M C 21"
_symmetry_group_IT_number 26
_symmetry_cell_setting 'orthorhombic'
loop_
_space_group_symop_operation_xyz
x,y,z
-x,-y,1/2+z
-x,y,z
x,-y,1/2+z
loop_
_atom_site_type_symbol
_atom_site_label
_atom_site_fract_x
_atom_site_fract_y
_atom_site_fract_z
Si Si1 0.167278 0.607190 0.453580
Si Si2 0.677106 0.757661 0.981693
Si Si3 0.672579 0.452276 0.577337
Si Si4 0.824393 0.831821 0.385246
Si Si5 0.675546 0.113479 0.673795
Si Si6 0.677918 0.738342 0.758489
Si Si7 0.325059 0.893062 0.586820
Si Si8 0.832756 0.525170 0.755894
O O1 0.279593 0.558535 0.531323
O O2 0.207550 0.715726 0.412291
O O3 0.167103 0.528285 0.362900
O O4 0.000000 0.612663 0.494039
O O5 0.500000 0.769369 0.980860
O O6 0.708682 0.641352 0.005844
O O7 0.729460 0.822334 0.076959
O O8 0.726494 0.782056 0.867943
O O9 0.500000 0.449849 0.597106
O O10 0.763750 0.445637 0.679148
O O11 0.754033 0.859992 0.278231
O O12 0.757110 0.891143 0.480198
O O13 0.000000 0.844293 0.380657
O O14 0.500000 0.131869 0.685803
O O15 0.695728 0.997791 0.644137
O O16 0.500000 0.735632 0.758158
O O17 0.724404 0.804910 0.663010
O O18 0.739140 0.626273 0.754124
O O19 0.500000 0.881036 0.568204
O O20 0.000000 0.548516 0.728224
#
# Coordination Sequence:
#
# PCOD9338403 Si02
#       8
#     4   4   4   4   4   4   4   4
#     4  10  22  39  57  82 118 159 197 236 287 348
#     4   9  19  36  60  91 124 153 194 253 305 353
#     4  11  21  34  57  86 117 156 197 244 293 344
#     4  11  24  42  62  87 125 162 200 250 300 361
#     4  10  22  41  67  93 119 156 202 253 308 361
#     4  10  20  38  61  91 124 156 200 251 302 359
#     4  10  23  40  66  94 119 157 202 253 306 359
#     4  11  22  36  56  84 120 161 198 238 289 351
#
# _framework density 19.827169000000001
#
# number of rings (size 3 to 8) (size 9 to 14) (size 15 to 20)
#    0.000    1.750    1.250    2.625    1.750    4.500 
#    0.000    1.250    0.000    0.000    0.000    0.000 
#    0.000    0.000    0.000    0.000    0.000    0.000 
#
# Total GULP energy -178655.667359 kJ/mol
# GULP energy per Si atom -5582.989605 kJ/mol
# Density = 1.978204 g / cm^3
# Si number density = 19.827169 Si / 1000 Ang^3
#
#
#
# Elastic Constant Matrix: (Units=GPa)
#
#
# Indices 1 2 3 4 5 6 
#
# 1 30.6577 14.4675 25.0817 0.0000 0.0000 0.0000
# 2 14.4675 45.2515 13.9643 0.0000 0.0000 0.0000
# 3 25.0817 13.9643 117.6399 0.0000 0.0000 0.0000
# 4 0.0000 0.0000 0.0000 30.5168 0.0000 0.0000
# 5 0.0000 0.0000 0.0000 0.0000 14.5761 0.0000
# 6 0.0000 0.0000 0.0000 0.0000 0.0000 14.0550
#
#
#
# Elastic Compliance Matrix: (Units=1/GPa)
#
#
# Indices 1 2 3 4 5 6 
#
# 1 0.044880 -0.011829 -0.008165 0.000000 0.000000 0.000000
# 2 -0.011829 0.026057 -0.000571 0.000000 0.000000 0.000000
# 3 -0.008165 -0.000571 0.010309 0.000000 0.000000 0.000000
# 4 0.000000 0.000000 0.000000 0.032769 0.000000 0.000000
# 5 0.000000 0.000000 0.000000 0.000000 0.068605 0.000000
# 6 0.000000 0.000000 0.000000 0.000000 0.000000 0.071149
#
#
# Mechanical properties :
#
#
# Convention : Reuss Voigt Hill
#
# Bulk Modulus (GPa) = 24.92740 33.39733 29.16236
# Shear Modulus (GPa) = 16.21948 21.16528 18.69238
#
# Velocity S-wave (km/s) = 2.86325 3.27079 3.07378
# Velocity P-wave (km/s) = 4.85083 5.58076 5.22855
#
# Compressibility (1/GPa) = 0.04011651
#
# Stress axis : x y z
#
# Youngs Moduli (GPa) = 22.28154 38.37759 97.00213
#
# Poissons Ratio (x) = 0.45398 0.79199
# Poissons Ratio (y) = 0.26357 0.05538
# Poissons Ratio (z) = 0.18192 0.02191
#
# Static dielectric constant tensor:
#      x y z
#    x 1.670740 0.000000 0.000000 
#    y 0.000000 1.690390 0.000000 
#    z 0.000000 0.000000 1.729130 
# 
# From -- ./inp_files/3096.got.cif
#   From: 2010.05.17/outbox.cif.g08.bks.cpg/sg26_2_cif.got.tgz:3096.got - 2010.06.04 01:07:29.
