data_PCOD9338817
_publ_section_title
;
Structure prediction by ZEFSAII (Michael W. Deem and Ramdas Pophale) SiO2 
 PCOD9338817
Probable space group: P C C 2
;
_chemical_formula_sum "Si O2"
_cell_formula_units_Z 26
_cell_length_a 5.568425
_cell_length_b 7.319709
_cell_length_c 28.056780
_cell_angle_alpha 90.000000
_cell_angle_beta 90.000000
_cell_angle_gamma 90.000000
_cell_volume 1143.573327
_symmetry_space_group_name_H-M "P C C 2"
_symmetry_group_IT_number 27
_symmetry_cell_setting 'orthorhombic'
loop_
_space_group_symop_operation_xyz
x,y,z
-x,-y,z
-x,y,1/2+z
x,-y,1/2+z
loop_
_atom_site_type_symbol
_atom_site_label
_atom_site_fract_x
_atom_site_fract_y
_atom_site_fract_z
Si Si1 0.108921 0.800888 0.440730
Si Si2 0.109291 0.206044 0.536563
Si Si3 0.494605 0.220738 0.190115
Si Si4 0.972725 0.294859 0.336307
Si Si5 0.476560 0.288396 0.301145
Si Si6 0.500000 0.000000 0.498086
Si Si7 0.002731 0.223683 0.640903
O O1 0.090464 0.693542 0.392123
O O2 0.360744 0.864253 0.462377
O O3 0.968303 0.713825 0.485729
O O4 0.000000 0.000000 0.428637
O O5 0.031722 0.286568 0.586196
O O6 0.384834 0.149717 0.533485
O O7 0.000000 0.000000 0.533438
O O8 0.454128 0.279448 0.244438
O O9 0.756402 0.278869 0.169874
O O10 0.255913 0.280344 0.161407
O O11 0.500000 0.000000 0.188865
O O12 0.737007 0.204503 0.313347
O O13 0.000000 0.500000 0.315650
O O14 0.235653 0.212355 0.325973
O O15 0.500000 0.500000 0.317283
O O16 0.000000 0.000000 0.640338
#
# Coordination Sequence:
#
# PCOD9338817 Si02
#       7
#     4   4   4   4   4   2   4
#     4   9  19  31  51  80 109 136 173 215 260 310
#     4   8  16  27  46  75 108 139 166 202 252 313
#     4  10  20  33  52  79 105 130 172 218 261 300
#     4  10  22  38  57  76 101 141 181 215 263 317
#     4  10  22  39  56  74 101 138 180 217 263 319
#     4   8  16  28  48  76 108 142 168 208 262 308
#     4   9  18  29  50  77 108 137 165 207 258 307
#
# _framework density 22.735749999999999
#
# number of rings (size 3 to 8) (size 9 to 14) (size 15 to 20)
#    0.000    3.077    0.000    0.923   11.846    1.231 
#    0.000    0.000    0.000    1.846    0.000    0.000 
#    0.000    0.000    0.000    0.000    0.000    0.000 
#
# Total GULP energy -144751.808015 kJ/mol
# GULP energy per Si atom -5567.377231 kJ/mol
# Density = 2.268400 g / cm^3
# Si number density = 22.735750 Si / 1000 Ang^3
#
#
#
# Elastic Constant Matrix: (Units=GPa)
#
#
# Indices 1 2 3 4 5 6 
#
# 1 163.1198 2.9289 62.7392 0.0000 0.0000 0.0000
# 2 2.9289 68.1837 -16.2838 0.0000 0.0000 0.0000
# 3 62.7392 -16.2838 149.4958 0.0000 0.0000 0.0000
# 4 0.0000 0.0000 0.0000 -4.4116 0.0000 0.0000
# 5 0.0000 0.0000 0.0000 0.0000 -8.0096 0.0000
# 6 0.0000 0.0000 0.0000 0.0000 0.0000 -11.2972
#
#
#
# Elastic Compliance Matrix: (Units=1/GPa)
#
#
# Indices 1 2 3 4 5 6 
#
# 1 0.007388 -0.001086 -0.003219 0.000000 0.000000 0.000000
# 2 -0.001086 0.015218 0.002113 0.000000 0.000000 0.000000
# 3 -0.003219 0.002113 0.008270 0.000000 0.000000 0.000000
# 4 0.000000 0.000000 0.000000 -0.226674 0.000000 0.000000
# 5 0.000000 0.000000 0.000000 0.000000 -0.124850 0.000000
# 6 0.000000 0.000000 0.000000 0.000000 0.000000 -0.088518
#
#
# Mechanical properties :
#
#
# Convention : Reuss Voigt Hill
#
# Bulk Modulus (GPa) = 37.74618 53.28532 45.51575
# Shear Modulus (GPa) = -12.62781 17.35064 2.36142
#
# Velocity S-wave (km/s) = -2.35928 2.76550 1.02024
# Velocity P-wave (km/s) = 3.03588 5.80388 4.63150
#
# Compressibility (1/GPa) = 0.02649275
#
# Stress axis : x y z
#
# Youngs Moduli (GPa) = 135.35463 65.71321 120.91589
#
# Poissons Ratio (x) = 0.07137 0.38921
# Poissons Ratio (y) = 0.14701 -0.25554
# Poissons Ratio (z) = 0.43569 -0.13888
#
# Static dielectric constant tensor:
#      x y z
#    x 1.984150 0.000000 0.000000 
#    y 0.000000 1.904020 0.000000 
#    z 0.000000 0.000000 1.808780 
# 
# From -- ./inp_files/5204.got.cif
#   From: 2010.05.17/outbox.cif.g08.bks.cpg/sg27_3_cif.got.tgz:5204.got - 2010.06.04 01:11:05.
