data_PCOD9338440
_publ_section_title
;
Structure prediction by ZEFSAII (Michael W. Deem and Ramdas Pophale) SiO2 
 PCOD9338440
Probable space group: P M C 21
;
_chemical_formula_sum "Si O2"
_cell_formula_units_Z 32
_cell_length_a 10.047520
_cell_length_b 5.742301
_cell_length_c 24.654017
_cell_angle_alpha 90.000000
_cell_angle_beta 90.000000
_cell_angle_gamma 90.000000
_cell_volume 1422.435309
_symmetry_space_group_name_H-M "P M C 21"
_symmetry_group_IT_number 26
_symmetry_cell_setting 'orthorhombic'
loop_
_space_group_symop_operation_xyz
x,y,z
-x,-y,1/2+z
-x,y,z
x,-y,1/2+z
loop_
_atom_site_type_symbol
_atom_site_label
_atom_site_fract_x
_atom_site_fract_y
_atom_site_fract_z
Si Si1 0.842732 0.523667 0.135950
Si Si2 0.163021 0.017848 0.189055
Si Si3 0.351461 0.058663 0.487989
Si Si4 0.359411 0.892391 0.367449
Si Si5 0.348074 0.227028 0.273759
Si Si6 0.859772 0.608724 0.942051
Si Si7 0.852974 0.736558 0.532578
Si Si8 0.849527 0.556816 0.322576
O O1 0.798600 0.776655 0.158174
O O2 0.820563 0.479760 0.071969
O O3 0.000000 0.533693 0.145184
O O4 0.804143 0.267904 0.160122
O O5 0.000000 0.016937 0.199150
O O6 0.260718 0.038223 0.240813
O O7 0.500000 0.110201 0.506784
O O8 0.360904 0.912555 0.431837
O O9 0.262250 0.924798 0.531554
O O10 0.269356 0.276021 0.466393
O O11 0.500000 0.767768 0.351580
O O12 0.225964 0.776619 0.346661
O O13 0.364064 0.134019 0.335160
O O14 0.500000 0.263418 0.253068
O O15 0.248724 0.445792 0.278495
O O16 0.858634 0.597955 0.877391
O O17 0.000000 0.730271 0.958087
O O18 0.865068 0.360195 0.971619
O O19 0.000000 0.825407 0.549824
O O20 0.000000 0.593834 0.302351
#
# Coordination Sequence:
#
# PCOD9338440 Si02
#       8
#     4   4   4   4   4   4   4   4
#     4   9  21  41  69  95 125 161 211 274 333 380
#     4  10  22  43  66  96 124 161 216 275 328 381
#     4  11  22  36  56  85 124 167 203 246 302 372
#     4  10  22  38  56  82 122 165 203 244 302 375
#     4  11  24  42  62  87 120 167 207 251 316 383
#     4  10  21  35  56  87 122 158 202 250 300 363
#     4  10  21  39  63  90 118 160 205 255 312 374
#     4  11  22  36  58  90 123 159 203 255 305 366
#
# _framework density 22.496628999999999
#
# number of rings (size 3 to 8) (size 9 to 14) (size 15 to 20)
#    0.000    1.750    2.500    1.125    3.500    2.500 
#    0.000    1.250    0.000    0.000    0.000    0.000 
#    0.000    0.000    0.000    0.000    0.000    0.000 
#
# Total GULP energy -178199.017806 kJ/mol
# GULP energy per Si atom -5568.719306 kJ/mol
# Density = 2.244543 g / cm^3
# Si number density = 22.496629 Si / 1000 Ang^3
#
#
#
# Elastic Constant Matrix: (Units=GPa)
#
#
# Indices 1 2 3 4 5 6 
#
# 1 174.8268 35.5306 9.5789 0.0000 0.0000 0.0000
# 2 35.5306 60.9983 11.6887 0.0000 0.0000 0.0000
# 3 9.5789 11.6887 60.2926 0.0000 0.0000 0.0000
# 4 0.0000 0.0000 0.0000 42.5105 0.0000 0.0000
# 5 0.0000 0.0000 0.0000 0.0000 1.0859 0.0000
# 6 0.0000 0.0000 0.0000 0.0000 0.0000 113.6872
#
#
#
# Elastic Compliance Matrix: (Units=1/GPa)
#
#
# Indices 1 2 3 4 5 6 
#
# 1 0.006494 -0.003723 -0.000310 0.000000 0.000000 0.000000
# 2 -0.003723 0.019161 -0.003123 0.000000 0.000000 0.000000
# 3 -0.000310 -0.003123 0.017241 0.000000 0.000000 0.000000
# 4 0.000000 0.000000 0.000000 0.023524 0.000000 0.000000
# 5 0.000000 0.000000 0.000000 0.000000 0.920928 0.000000
# 6 0.000000 0.000000 0.000000 0.000000 0.000000 0.008796
#
#
# Mechanical properties :
#
#
# Convention : Reuss Voigt Hill
#
# Bulk Modulus (GPa) = 34.98597 45.52378 40.25488
# Shear Modulus (GPa) = 4.90204 47.41135 26.15670
#
# Velocity S-wave (km/s) = 1.47775 4.59572 3.41353
# Velocity P-wave (km/s) = 4.30082 6.95993 5.78522
#
# Compressibility (1/GPa) = 0.02858288
#
# Stress axis : x y z
#
# Youngs Moduli (GPa) = 153.99852 52.18934 58.00294
#
# Poissons Ratio (x) = 0.19430 0.01797
# Poissons Ratio (y) = 0.57334 0.18115
# Poissons Ratio (z) = 0.04772 0.16300
#
# Static dielectric constant tensor:
#      x y z
#    x 1.895740 0.000000 0.000000 
#    y 0.000000 1.901300 0.000000 
#    z 0.000000 0.000000 1.913950 
# 
# From -- ./inp_files/5676.got.cif
#   From: 2010.05.17/outbox.cif.g08.bks.cpg/sg26_3_cif.got.tgz:5676.got - 2010.06.04 01:07:29.
