data_PCOD9338602
_publ_section_title
;
Structure prediction by ZEFSAII (Michael W. Deem and Ramdas Pophale) SiO2 
 PCOD9338602
Probable space group: P M C 21
;
_chemical_formula_sum "Si O2"
_cell_formula_units_Z 24
_cell_length_a 17.029246
_cell_length_b 6.413807
_cell_length_c 10.220235
_cell_angle_alpha 90.000000
_cell_angle_beta 90.000000
_cell_angle_gamma 90.000000
_cell_volume 1116.277545
_symmetry_space_group_name_H-M "P M C 21"
_symmetry_group_IT_number 26
_symmetry_cell_setting 'orthorhombic'
loop_
_space_group_symop_operation_xyz
x,y,z
-x,-y,1/2+z
-x,y,z
x,-y,1/2+z
loop_
_atom_site_type_symbol
_atom_site_label
_atom_site_fract_x
_atom_site_fract_y
_atom_site_fract_z
Si Si1 0.812067 0.940613 0.286510
Si Si2 0.824007 0.338666 0.430325
Si Si3 0.591499 0.088289 0.898709
Si Si4 0.312067 0.440611 0.810946
Si Si5 0.091500 0.411710 0.698748
Si Si6 0.324008 0.838665 0.667132
O O1 0.750000 0.750001 0.298728
O O2 0.891059 0.825274 0.245889
O O3 0.825153 0.089813 0.410329
O O4 0.765980 0.088268 0.184622
O O5 0.734020 0.411734 0.412834
O O6 0.873289 0.436071 0.309303
O O7 0.861017 0.422594 0.563121
O O8 0.500000 0.049569 0.918210
O O9 0.638983 0.077405 0.034336
O O10 0.608941 0.325273 0.851567
O O11 0.626711 0.936070 0.788154
O O12 0.325154 0.589812 0.687127
O O13 0.000000 0.450430 0.679247
#
# Coordination Sequence:
#
# PCOD9338602 Si02
#       6
#     4   4   4   4   4   4
#     4   9  22  40  64  91 125 172 222 263 321 385
#     4  10  23  42  67  93 131 172 218 270 325 393
#     4  11  24  40  65  99 133 170 215 271 329 385
#     4   9  22  40  64  91 125 172 222 263 321 385
#     4  11  24  40  65  99 133 170 215 271 329 385
#     4  10  23  42  67  93 131 172 218 270 325 393
#
# _framework density 21.500031
#
# number of rings (size 3 to 8) (size 9 to 14) (size 15 to 20)
#    0.000    2.000    0.000    1.000   14.000    5.333 
#    0.000    0.000    0.000    0.000    0.000    0.000 
#    0.000    0.000    0.000    0.000    0.000    0.000 
#
# Total GULP energy -133911.396166 kJ/mol
# GULP energy per Si atom -5579.641507 kJ/mol
# Density = 2.145110 g / cm^3
# Si number density = 21.500031 Si / 1000 Ang^3
#
#
#
# Elastic Constant Matrix: (Units=GPa)
#
#
# Indices 1 2 3 4 5 6 
#
# 1 62.1630 7.7678 15.5667 0.0000 0.0000 0.0000
# 2 7.7678 88.3278 35.6044 0.0000 0.0000 0.0000
# 3 15.5667 35.6044 130.5602 0.0000 0.0000 0.0000
# 4 0.0000 0.0000 0.0000 25.1932 0.0000 0.0000
# 5 0.0000 0.0000 0.0000 0.0000 22.1493 0.0000
# 6 0.0000 0.0000 0.0000 0.0000 0.0000 27.6335
#
#
#
# Elastic Compliance Matrix: (Units=1/GPa)
#
#
# Indices 1 2 3 4 5 6 
#
# 1 0.016625 -0.000745 -0.001779 0.000000 0.000000 0.000000
# 2 -0.000745 0.012753 -0.003389 0.000000 0.000000 0.000000
# 3 -0.001779 -0.003389 0.008796 0.000000 0.000000 0.000000
# 4 0.000000 0.000000 0.000000 0.039693 0.000000 0.000000
# 5 0.000000 0.000000 0.000000 0.000000 0.045148 0.000000
# 6 0.000000 0.000000 0.000000 0.000000 0.000000 0.036188
#
#
# Mechanical properties :
#
#
# Convention : Reuss Voigt Hill
#
# Bulk Modulus (GPa) = 37.95358 44.32540 41.13949
# Shear Modulus (GPa) = 27.80680 29.80267 28.80474
#
# Velocity S-wave (km/s) = 3.60020 3.72717 3.66423
# Velocity P-wave (km/s) = 5.91380 6.25968 6.08920
#
# Compressibility (1/GPa) = 0.02634797
#
# Stress axis : x y z
#
# Youngs Moduli (GPa) = 60.14914 78.41250 113.69290
#
# Poissons Ratio (x) = 0.05841 0.20227
# Poissons Ratio (y) = 0.04481 0.38531
# Poissons Ratio (z) = 0.10701 0.26574
#
# Static dielectric constant tensor:
#      x y z
#    x 1.770960 0.000000 0.000000 
#    y 0.000000 1.852390 0.000000 
#    z 0.000000 0.000000 1.827000 
# 
# From -- ./inp_files/3632.got.cif
#   From: 2010.05.17/outbox.cif.g08.bks.cpg/sg26_2_cif.got.tgz:3632.got - 2010.06.04 01:07:29.
