data_PCOD9338042
_publ_section_title
;
Structure prediction by ZEFSAII (Michael W. Deem and Ramdas Pophale) SiO2 
 PCOD9338042
Probable space group: P M C 21
;
_chemical_formula_sum "Si O2"
_cell_formula_units_Z 32
_cell_length_a 11.561915
_cell_length_b 26.545566
_cell_length_c 5.035055
_cell_angle_alpha 90.000000
_cell_angle_beta 90.000000
_cell_angle_gamma 90.000000
_cell_volume 1545.346884
_symmetry_space_group_name_H-M "P M C 21"
_symmetry_group_IT_number 26
_symmetry_cell_setting 'orthorhombic'
loop_
_space_group_symop_operation_xyz
x,y,z
-x,-y,1/2+z
-x,y,z
x,-y,1/2+z
loop_
_atom_site_type_symbol
_atom_site_label
_atom_site_fract_x
_atom_site_fract_y
_atom_site_fract_z
Si Si1 0.741631 0.639705 0.566170
Si Si2 0.637507 0.467141 0.192244
Si Si3 0.871338 0.771323 0.372352
Si Si4 0.746219 0.865332 0.465267
Si Si5 0.633754 0.033664 0.840299
Si Si6 0.626996 0.737612 0.632908
Si Si7 0.374443 0.828940 0.970356
Si Si8 0.871062 0.324254 0.560073
O O1 0.706687 0.582756 0.617807
O O2 0.638546 0.677794 0.645953
O O3 0.781386 0.650972 0.266326
O O4 0.842010 0.658100 0.765906
O O5 0.500000 0.543568 0.672485
O O6 0.662679 0.488227 0.483983
O O7 0.855126 0.831847 0.369291
O O8 0.751187 0.753834 0.509732
O O9 0.868416 0.736423 0.108062
O O10 0.000000 0.760836 0.488446
O O11 0.727945 0.923915 0.407683
O O12 0.717789 0.854187 0.772198
O O13 0.648667 0.841046 0.273273
O O14 0.500000 0.052199 0.873695
O O15 0.645902 0.012679 0.543977
O O16 0.500000 0.749293 0.510392
O O17 0.626487 0.769668 0.904838
O O18 0.500000 0.849190 0.893242
O O19 0.000000 0.340600 0.632830
#
# Coordination Sequence:
#
# PCOD9338042 Si02
#       8
#     4   4   4   4   4   4   4   4
#     4  11  20  36  59  83 113 151 190 239 290 341
#     4  10  21  37  57  82 112 149 193 240 294 355
#     4   9  20  38  59  86 119 156 192 227 277 349
#     4  11  20  34  54  78 108 147 188 228 274 330
#     4  10  20  33  51  76 107 143 185 233 285 336
#     4   9  19  34  55  88 121 150 187 235 287 340
#     4  10  19  31  50  79 114 145 175 217 276 338
#     4  10  21  37  59  86 116 151 191 231 281 349
#
# _framework density 20.707322999999999
#
# number of rings (size 3 to 8) (size 9 to 14) (size 15 to 20)
#    0.000    2.000    0.000    4.125    0.000    2.500 
#    0.000   13.125    0.000    8.250    0.000    0.000 
#    0.000    0.000    0.000    0.000    0.000    0.000 
#
# Total GULP energy -178283.144950 kJ/mol
# GULP energy per Si atom -5571.348280 kJ/mol
# Density = 2.066019 g / cm^3
# Si number density = 20.707323 Si / 1000 Ang^3
#
#
#
# Elastic Constant Matrix: (Units=GPa)
#
#
# Indices 1 2 3 4 5 6 
#
# 1 95.8272 27.2057 6.0666 0.0000 0.0000 0.0000
# 2 27.2057 78.4719 -7.8678 0.0000 0.0000 0.0000
# 3 6.0666 -7.8678 47.6888 0.0000 0.0000 0.0000
# 4 0.0000 0.0000 0.0000 24.0972 0.0000 0.0000
# 5 0.0000 0.0000 0.0000 0.0000 21.0862 0.0000
# 6 0.0000 0.0000 0.0000 0.0000 0.0000 19.6768
#
#
#
# Elastic Compliance Matrix: (Units=1/GPa)
#
#
# Indices 1 2 3 4 5 6 
#
# 1 0.011800 -0.004313 -0.002213 0.000000 0.000000 0.000000
# 2 -0.004313 0.014534 0.002946 0.000000 0.000000 0.000000
# 3 -0.002213 0.002946 0.021737 0.000000 0.000000 0.000000
# 4 0.000000 0.000000 0.000000 0.041499 0.000000 0.000000
# 5 0.000000 0.000000 0.000000 0.000000 0.047424 0.000000
# 6 0.000000 0.000000 0.000000 0.000000 0.000000 0.050821
#
#
# Mechanical properties :
#
#
# Convention : Reuss Voigt Hill
#
# Bulk Modulus (GPa) = 24.44211 30.31077 27.37644
# Shear Modulus (GPa) = 23.96808 26.07759 25.02284
#
# Velocity S-wave (km/s) = 3.40585 3.55257 3.47998
# Velocity P-wave (km/s) = 5.22452 5.61223 5.42185
#
# Compressibility (1/GPa) = 0.04091299
#
# Stress axis : x y z
#
# Youngs Moduli (GPa) = 84.74617 68.80393 46.00479
#
# Poissons Ratio (x) = 0.29674 0.10179
# Poissons Ratio (y) = 0.36549 -0.13555
# Poissons Ratio (z) = 0.18751 -0.20273
#
# Static dielectric constant tensor:
#      x y z
#    x 1.762100 0.000000 0.000000 
#    y 0.000000 1.810200 0.000000 
#    z 0.000000 0.000000 1.744860 
# 
# From -- ./inp_files/499.got.cif
#   From: 2010.05.17/outbox.cif.g08.bks.cpg/sg26_1_cif.got.tgz:499.got - 2010.06.04 01:07:29.
