data_PCOD9338873
_publ_section_title
;
Structure prediction by ZEFSAII (Michael W. Deem and Ramdas Pophale) SiO2 
 PCOD9338873
Probable space group: P C C 2
;
_chemical_formula_sum "Si O2"
_cell_formula_units_Z 32
_cell_length_a 9.295273
_cell_length_b 11.176662
_cell_length_c 14.164661
_cell_angle_alpha 90.000000
_cell_angle_beta 90.000000
_cell_angle_gamma 90.000000
_cell_volume 1471.568395
_symmetry_space_group_name_H-M "P C C 2"
_symmetry_group_IT_number 27
_symmetry_cell_setting 'orthorhombic'
loop_
_space_group_symop_operation_xyz
x,y,z
-x,-y,z
-x,y,1/2+z
x,-y,1/2+z
loop_
_atom_site_type_symbol
_atom_site_label
_atom_site_fract_x
_atom_site_fract_y
_atom_site_fract_z
Si Si1 0.328607 0.503724 0.868550
Si Si2 0.859254 0.289389 0.424557
Si Si3 0.960695 0.134949 0.253783
Si Si4 0.299559 0.491042 0.662106
Si Si5 0.868352 0.637617 0.514594
Si Si6 0.778634 0.139643 0.606716
Si Si7 0.527272 0.704622 0.128324
Si Si8 0.260357 0.860725 0.094178
O O1 0.500000 0.500000 0.877517
O O2 0.263844 0.371578 0.880958
O O3 0.280032 0.547300 0.764409
O O4 0.254042 0.588856 0.944861
O O5 0.946270 0.220726 0.342850
O O6 0.799357 0.204282 0.506372
O O7 0.973429 0.375477 0.475401
O O8 0.807617 0.147167 0.199670
O O9 0.082282 0.156590 0.173485
O O10 0.000000 0.000000 0.285447
O O11 0.164968 0.429179 0.612968
O O12 0.368721 0.593789 0.594720
O O13 0.413233 0.382744 0.680081
O O14 0.843611 0.779450 0.530379
O O15 0.646264 0.201372 0.662233
O O16 0.745536 0.002278 0.580678
O O17 0.413789 0.795297 0.079439
#
# Coordination Sequence:
#
# PCOD9338873 Si02
#       8
#     4   4   4   4   4   4   4   4
#     4  12  27  44  69 104 136 183 232 287 350 407
#     4  12  26  43  70 102 140 181 235 284 341 419
#     4  10  24  43  70 100 137 182 225 282 347 406
#     4  10  23  45  72  92 142 180 221 288 346 408
#     4  11  25  43  70  99 138 184 226 280 347 415
#     4  11  24  42  71 100 134 184 226 286 344 407
#     4  10  20  40  71  96 125 180 225 277 344 404
#     4  10  22  45  69  98 138 176 224 284 346 407
#
# _framework density 21.745508000000001
#
# number of rings (size 3 to 8) (size 9 to 14) (size 15 to 20)
#    0.000    1.250    2.500    3.000   10.500    0.000 
#    0.000    1.250    0.000    1.500    0.000    0.000 
#    0.000    0.000    0.000    0.000    0.000    0.000 
#
# Total GULP energy -178340.409358 kJ/mol
# GULP energy per Si atom -5573.137792 kJ/mol
# Density = 2.169601 g / cm^3
# Si number density = 21.745508 Si / 1000 Ang^3
#
#
#
# Elastic Constant Matrix: (Units=GPa)
#
#
# Indices 1 2 3 4 5 6 
#
# 1 104.3837 45.7925 23.5768 0.0000 0.0000 0.0000
# 2 45.7925 143.8937 46.6753 0.0000 0.0000 0.0000
# 3 23.5768 46.6753 73.7601 0.0000 0.0000 0.0000
# 4 0.0000 0.0000 0.0000 26.4044 0.0000 0.0000
# 5 0.0000 0.0000 0.0000 0.0000 19.9772 0.0000
# 6 0.0000 0.0000 0.0000 0.0000 0.0000 26.9257
#
#
#
# Elastic Compliance Matrix: (Units=1/GPa)
#
#
# Indices 1 2 3 4 5 6 
#
# 1 0.011298 -0.003050 -0.001681 0.000000 0.000000 0.000000
# 2 -0.003050 0.009568 -0.005080 0.000000 0.000000 0.000000
# 3 -0.001681 -0.005080 0.017309 0.000000 0.000000 0.000000
# 4 0.000000 0.000000 0.000000 0.037872 0.000000 0.000000
# 5 0.000000 0.000000 0.000000 0.000000 0.050057 0.000000
# 6 0.000000 0.000000 0.000000 0.000000 0.000000 0.037139
#
#
# Mechanical properties :
#
#
# Convention : Reuss Voigt Hill
#
# Bulk Modulus (GPa) = 53.89906 61.56962 57.73434
# Shear Modulus (GPa) = 26.44806 28.39433 27.42119
#
# Velocity S-wave (km/s) = 3.49127 3.61744 3.55492
# Velocity P-wave (km/s) = 6.41031 6.76927 6.59223
#
# Compressibility (1/GPa) = 0.01855320
#
# Stress axis : x y z
#
# Youngs Moduli (GPa) = 88.51274 104.51589 57.77270
#
# Poissons Ratio (x) = 0.31878 0.09713
# Poissons Ratio (y) = 0.26997 0.29346
# Poissons Ratio (z) = 0.14880 0.53090
#
# Static dielectric constant tensor:
#      x y z
#    x 1.821750 0.000000 0.000000 
#    y 0.000000 1.821490 0.000000 
#    z 0.000000 0.000000 1.795580 
# 
# From -- ./inp_files/3468.got.cif
#   From: 2010.05.17/outbox.cif.g08.bks.cpg/sg27_2_cif.got.tgz:3468.got - 2010.06.04 01:11:05.
