data_PCOD9338478
_publ_section_title
;
Structure prediction by ZEFSAII (Michael W. Deem and Ramdas Pophale) SiO2 
 PCOD9338478
Probable space group: P M C 21
;
_chemical_formula_sum "Si O2"
_cell_formula_units_Z 20
_cell_length_a 8.069159
_cell_length_b 13.016097
_cell_length_c 7.801197
_cell_angle_alpha 90.000000
_cell_angle_beta 90.000000
_cell_angle_gamma 90.000000
_cell_volume 819.351578
_symmetry_space_group_name_H-M "P M C 21"
_symmetry_group_IT_number 26
_symmetry_cell_setting 'orthorhombic'
loop_
_space_group_symop_operation_xyz
x,y,z
-x,-y,1/2+z
-x,y,z
x,-y,1/2+z
loop_
_atom_site_type_symbol
_atom_site_label
_atom_site_fract_x
_atom_site_fract_y
_atom_site_fract_z
Si Si1 0.309700 0.844396 0.691440
Si Si2 0.186169 0.771516 0.142278
Si Si3 0.809395 0.037149 0.876739
Si Si4 0.500000 0.667568 0.994910
Si Si5 0.816767 0.650900 0.504925
Si Si6 0.500000 0.540151 0.642460
O O1 0.500000 0.817475 0.726826
O O2 0.306196 0.913801 0.519165
O O3 0.206627 0.744519 0.639260
O O4 0.232365 0.921363 0.828454
O O5 0.206012 0.887649 0.212350
O O6 0.333819 0.733571 0.022323
O O7 0.193980 0.702916 0.317302
O O8 0.000000 0.759506 0.071335
O O9 0.000000 0.045937 0.936377
O O10 0.500000 0.582225 0.146573
O O11 0.500000 0.598902 0.823680
O O12 0.666136 0.575434 0.543776
O O13 0.000000 0.604429 0.523505
#
# Coordination Sequence:
#
# PCOD9338478 Si02
#       6
#     4   4   4   2   4   2
#     4  11  21  35  59  90 124 164 209 250 299 356
#     4   9  21  41  66  92 120 164 207 251 309 365
#     4  10  21  37  57  86 124 167 207 247 300 356
#     4  12  26  42  69  88 129 154 199 260 310 370
#     4  10  21  42  67  90 125 164 206 256 308 366
#     4  12  26  44  63  98 117 162 201 250 316 372
#
# _framework density 24.409548000000001
#
# number of rings (size 3 to 8) (size 9 to 14) (size 15 to 20)
#    0.000    1.600    1.000    5.400    5.600    3.200 
#    0.000    2.000    0.000    0.000    0.000    0.000 
#    0.000    0.000    0.000    0.000    0.000    0.000 
#
# Total GULP energy -112090.742714 kJ/mol
# GULP energy per Si atom -5604.537136 kJ/mol
# Density = 2.435399 g / cm^3
# Si number density = 24.409548 Si / 1000 Ang^3
#
#
#
# Elastic Constant Matrix: (Units=GPa)
#
#
# Indices 1 2 3 4 5 6 
#
# 1 197.8836 50.7770 48.5785 0.0000 0.0000 0.0000
# 2 50.7770 96.9015 -0.7716 0.0000 0.0000 0.0000
# 3 48.5785 -0.7716 86.9285 0.0000 0.0000 0.0000
# 4 0.0000 0.0000 0.0000 37.3994 0.0000 0.0000
# 5 0.0000 0.0000 0.0000 0.0000 37.0091 0.0000
# 6 0.0000 0.0000 0.0000 0.0000 0.0000 24.5748
#
#
#
# Elastic Compliance Matrix: (Units=1/GPa)
#
#
# Indices 1 2 3 4 5 6 
#
# 1 0.006960 -0.003678 -0.003922 0.000000 0.000000 0.000000
# 2 -0.003678 0.012265 0.002164 0.000000 0.000000 0.000000
# 3 -0.003922 0.002164 0.013715 0.000000 0.000000 0.000000
# 4 0.000000 0.000000 0.000000 0.026738 0.000000 0.000000
# 5 0.000000 0.000000 0.000000 0.000000 0.027020 0.000000
# 6 0.000000 0.000000 0.000000 0.000000 0.000000 0.040692
#
#
# Mechanical properties :
#
#
# Convention : Reuss Voigt Hill
#
# Bulk Modulus (GPa) = 45.31623 64.32017 54.81820
# Shear Modulus (GPa) = 34.33628 38.67196 36.50412
#
# Velocity S-wave (km/s) = 3.75463 3.98464 3.87135
# Velocity P-wave (km/s) = 6.11569 6.89764 6.51840
#
# Compressibility (1/GPa) = 0.02206715
#
# Stress axis : x y z
#
# Youngs Moduli (GPa) = 143.67313 81.53601 72.91389
#
# Poissons Ratio (x) = 0.29993 0.28599
# Poissons Ratio (y) = 0.52849 -0.15782
# Poissons Ratio (z) = 0.56352 -0.17648
#
# Static dielectric constant tensor:
#      x y z
#    x 1.861720 0.000000 0.000000 
#    y 0.000000 1.904050 0.000000 
#    z 0.000000 0.000000 2.014080 
# 
# From -- ./inp_files/1336.got.cif
#   From: 2010.05.17/outbox.cif.g08.bks.cpg/sg26_1_cif.got.tgz:1336.got - 2010.06.04 01:07:29.
