data_PCOD9338346
_publ_section_title
;
Structure prediction by ZEFSAII (Michael W. Deem and Ramdas Pophale) SiO2 
 PCOD9338346
Probable space group: P M C 21
;
_chemical_formula_sum "Si O2"
_cell_formula_units_Z 32
_cell_length_a 7.769747
_cell_length_b 12.260424
_cell_length_c 15.826778
_cell_angle_alpha 90.000000
_cell_angle_beta 90.000000
_cell_angle_gamma 90.000000
_cell_volume 1507.665086
_symmetry_space_group_name_H-M "P M C 21"
_symmetry_group_IT_number 26
_symmetry_cell_setting 'orthorhombic'
loop_
_space_group_symop_operation_xyz
x,y,z
-x,-y,1/2+z
-x,y,z
x,-y,1/2+z
loop_
_atom_site_type_symbol
_atom_site_label
_atom_site_fract_x
_atom_site_fract_y
_atom_site_fract_z
Si Si1 0.198286 0.239712 0.959400
Si Si2 0.699391 0.007813 0.014640
Si Si3 0.706546 0.395348 0.616631
Si Si4 0.710522 0.235326 0.469741
Si Si5 0.796196 0.991344 0.205533
Si Si6 0.291765 0.784462 0.781989
Si Si7 0.208091 0.756619 0.272444
Si Si8 0.701720 0.360116 0.127281
O O1 0.207553 0.109311 0.971801
O O2 0.271495 0.266881 0.867130
O O3 0.000000 0.274388 0.962310
O O4 0.285483 0.296030 0.039326
O O5 0.500000 0.013949 0.988612
O O6 0.766575 0.887604 0.992478
O O7 0.711175 0.019107 0.115862
O O8 0.500000 0.401373 0.605605
O O9 0.772689 0.321427 0.539131
O O10 0.742173 0.332442 0.703523
O O11 0.775633 0.518392 0.618899
O O12 0.500000 0.234508 0.473383
O O13 0.761637 0.259039 0.373605
O O14 0.732035 0.875737 0.240820
O O15 0.000000 0.982014 0.190059
O O16 0.764304 0.090862 0.268731
O O17 0.500000 0.785051 0.779912
O O18 0.225081 0.712389 0.703778
O O19 0.000000 0.761850 0.277179
O O20 0.500000 0.373460 0.147417
#
# Coordination Sequence:
#
# PCOD9338346 Si02
#       8
#     4   4   4   4   4   4   4   4
#     4  11  23  39  59  84 119 156 190 235 288 344
#     4  11  20  34  58  86 114 148 190 234 288 348
#     4  10  21  39  61  85 114 152 197 242 287 335
#     4   9  19  35  57  84 114 147 187 236 288 339
#     4  11  21  35  57  85 116 150 187 232 288 348
#     4  10  20  36  57  83 115 149 187 235 288 342
#     4  10  23  40  58  85 119 154 192 235 287 345
#     4  10  22  38  59  86 115 150 196 243 286 335
#
# _framework density 21.224874
#
# number of rings (size 3 to 8) (size 9 to 14) (size 15 to 20)
#    0.000    1.750    2.500    1.875    0.000    3.000 
#    0.000    3.750    0.000    0.000    0.000    0.000 
#    0.000    0.000    0.000    0.000    0.000    0.000 
#
# Total GULP energy -178835.422509 kJ/mol
# GULP energy per Si atom -5588.606953 kJ/mol
# Density = 2.117657 g / cm^3
# Si number density = 21.224874 Si / 1000 Ang^3
#
#
#
# Elastic Constant Matrix: (Units=GPa)
#
#
# Indices 1 2 3 4 5 6 
#
# 1 28.4470 1.8216 -3.2033 0.0000 0.0000 0.0000
# 2 1.8216 127.3494 35.0978 0.0000 0.0000 0.0000
# 3 -3.2033 35.0978 98.7787 0.0000 0.0000 0.0000
# 4 0.0000 0.0000 0.0000 1.8178 0.0000 0.0000
# 5 0.0000 0.0000 0.0000 0.0000 43.8942 0.0000
# 6 0.0000 0.0000 0.0000 0.0000 0.0000 -28.7216
#
#
#
# Elastic Compliance Matrix: (Units=1/GPa)
#
#
# Indices 1 2 3 4 5 6 
#
# 1 0.035377 -0.000911 0.001471 0.000000 0.000000 0.000000
# 2 -0.000911 0.008728 -0.003131 0.000000 0.000000 0.000000
# 3 0.001471 -0.003131 0.011284 0.000000 0.000000 0.000000
# 4 0.000000 0.000000 0.000000 0.550125 0.000000 0.000000
# 5 0.000000 0.000000 0.000000 0.000000 0.022782 0.000000
# 6 0.000000 0.000000 0.000000 0.000000 0.000000 -0.034817
#
#
# Mechanical properties :
#
#
# Convention : Reuss Voigt Hill
#
# Bulk Modulus (GPa) = 19.90178 35.77861 27.84019
# Shear Modulus (GPa) = 8.12518 18.12202 13.12360
#
# Velocity S-wave (km/s) = 1.95869 2.92517 2.48929
# Velocity P-wave (km/s) = 3.80950 5.32000 4.62680
#
# Compressibility (1/GPa) = 0.05024676
#
# Stress axis : x y z
#
# Youngs Moduli (GPa) = 28.26682 114.56948 88.62262
#
# Poissons Ratio (x) = 0.10443 -0.13037
# Poissons Ratio (y) = 0.02576 0.27747
# Poissons Ratio (z) = -0.04158 0.35870
#
# Static dielectric constant tensor:
#      x y z
#    x 1.775510 0.000000 0.000000 
#    y 0.000000 1.737400 0.000000 
#    z 0.000000 0.000000 1.752940 
# 
# From -- ./inp_files/4101.got.cif
#   From: 2010.05.17/outbox.cif.g08.bks.cpg/sg26_3_cif.got.tgz:4101.got - 2010.06.04 01:07:29.
