data_PCOD9338747
_publ_section_title
;
Structure prediction by ZEFSAII (Michael W. Deem and Ramdas Pophale) SiO2 
 PCOD9338747
Probable space group: P C C 2
;
_chemical_formula_sum "Si O2"
_cell_formula_units_Z 20
_cell_length_a 8.105398
_cell_length_b 18.591387
_cell_length_c 5.513852
_cell_angle_alpha 90.000000
_cell_angle_beta 90.000000
_cell_angle_gamma 90.000000
_cell_volume 830.885617
_symmetry_space_group_name_H-M "P C C 2"
_symmetry_group_IT_number 27
_symmetry_cell_setting 'orthorhombic'
loop_
_space_group_symop_operation_xyz
x,y,z
-x,-y,z
-x,y,1/2+z
x,-y,1/2+z
loop_
_atom_site_type_symbol
_atom_site_label
_atom_site_fract_x
_atom_site_fract_y
_atom_site_fract_z
Si Si1 0.084320 0.173746 0.459340
Si Si2 0.811389 0.528550 0.748000
Si Si3 0.753284 0.693437 0.664329
Si Si4 0.804874 0.027048 0.111142
Si Si5 0.453661 0.229546 0.995290
O O1 0.135809 0.255989 0.498297
O O2 0.207089 0.110602 0.541161
O O3 0.953965 0.161269 0.678625
O O4 0.734915 0.492697 0.507127
O O5 0.810822 0.613917 0.709586
O O6 0.000000 0.500000 0.762105
O O7 0.721290 0.739492 0.910486
O O8 0.573096 0.700853 0.540519
O O9 0.735405 0.014646 0.378607
O O10 0.000000 0.000000 0.127166
O O11 0.529365 0.192536 0.754919
#
# Coordination Sequence:
#
# PCOD9338747 Si02
#       5
#     4   4   4   4   4
#     4  12  24  31  58  92 119 154 184 240 290 346
#     4  10  24  39  56  82 119 155 177 233 305 346
#     4  10  24  40  64  82 120 142 213 227 292 334
#     4  10  16  34  48  74 126 151 185 214 279 358
#     4   8  20  40  61  78 109 150 194 248 268 326
#
# _framework density 24.070699999999999
#
# number of rings (size 3 to 8) (size 9 to 14) (size 15 to 20)
#    1.200    0.800    4.000    0.000   11.200    0.000 
#    0.000    3.000    0.000    0.000    0.000    4.200 
#    0.000    0.000    0.000    0.000    0.000    0.000 
#
# Total GULP energy -111337.057560 kJ/mol
# GULP energy per Si atom -5566.852878 kJ/mol
# Density = 2.401591 g / cm^3
# Si number density = 24.070700 Si / 1000 Ang^3
#
#
#
# Elastic Constant Matrix: (Units=GPa)
#
#
# Indices 1 2 3 4 5 6 
#
# 1 27.5934 1.6055 7.7986 0.0000 0.0000 0.0000
# 2 1.6055 60.7911 12.1726 0.0000 0.0000 0.0000
# 3 7.7986 12.1726 165.7799 0.0000 0.0000 0.0000
# 4 0.0000 0.0000 0.0000 27.2340 0.0000 0.0000
# 5 0.0000 0.0000 0.0000 0.0000 16.6798 0.0000
# 6 0.0000 0.0000 0.0000 0.0000 0.0000 1.7233
#
#
#
# Elastic Compliance Matrix: (Units=1/GPa)
#
#
# Indices 1 2 3 4 5 6 
#
# 1 0.036753 -0.000634 -0.001682 0.000000 0.000000 0.000000
# 2 -0.000634 0.016706 -0.001197 0.000000 0.000000 0.000000
# 3 -0.001682 -0.001197 0.006199 0.000000 0.000000 0.000000
# 4 0.000000 0.000000 0.000000 0.036719 0.000000 0.000000
# 5 0.000000 0.000000 0.000000 0.000000 0.059953 0.000000
# 6 0.000000 0.000000 0.000000 0.000000 0.000000 0.580299
#
#
# Mechanical properties :
#
#
# Convention : Reuss Voigt Hill
#
# Bulk Modulus (GPa) = 18.99980 33.03534 26.01757
# Shear Modulus (GPa) = 6.56859 24.63327 15.60093
#
# Velocity S-wave (km/s) = 1.65372 3.20249 2.54860
# Velocity P-wave (km/s) = 3.39954 5.23724 4.41506
#
# Compressibility (1/GPa) = 0.05263214
#
# Stress axis : x y z
#
# Youngs Moduli (GPa) = 27.20870 59.85815 161.31327
#
# Poissons Ratio (x) = 0.03794 0.27139
# Poissons Ratio (y) = 0.01724 0.19307
# Poissons Ratio (z) = 0.04578 0.07164
#
# Static dielectric constant tensor:
#      x y z
#    x 2.001390 0.000000 0.000000 
#    y 0.000000 1.845950 0.000000 
#    z 0.000000 0.000000 2.033900 
# 
# From -- ./inp_files/275.got.cif
#   From: 2010.05.17/outbox.cif.g08.bks.cpg/sg27_1_cif.got.tgz:275.got - 2010.06.04 01:11:05.
