data_PCOD9338575
_publ_section_title
;
Structure prediction by ZEFSAII (Michael W. Deem and Ramdas Pophale) SiO2 
 PCOD9338575
Probable space group: P M C 21
;
_chemical_formula_sum "Si O2"
_cell_formula_units_Z 18
_cell_length_a 13.453923
_cell_length_b 4.813762
_cell_length_c 11.291339
_cell_angle_alpha 90.000000
_cell_angle_beta 90.000000
_cell_angle_gamma 90.000000
_cell_volume 731.272090
_symmetry_space_group_name_H-M "P M C 21"
_symmetry_group_IT_number 26
_symmetry_cell_setting 'orthorhombic'
loop_
_space_group_symop_operation_xyz
x,y,z
-x,-y,1/2+z
-x,y,z
x,-y,1/2+z
loop_
_atom_site_type_symbol
_atom_site_label
_atom_site_fract_x
_atom_site_fract_y
_atom_site_fract_z
Si Si1 0.000000 0.991096 0.517100
Si Si2 0.000000 0.507078 0.854094
Si Si3 0.832333 0.746354 0.686116
Si Si4 0.500000 0.325285 0.919777
Si Si5 0.294603 0.890255 0.360835
Si Si6 0.702264 0.581070 0.010698
O O1 0.000000 0.809907 0.396377
O O2 0.903056 0.907551 0.592265
O O3 0.000000 0.690960 0.974825
O O4 0.091522 0.595307 0.773030
O O5 0.763270 0.960252 0.757433
O O6 0.759532 0.523324 0.624600
O O7 0.588406 0.477434 0.999634
O O8 0.589148 0.174976 0.840834
O O9 0.293123 0.101337 0.473172
O O10 0.249253 0.602963 0.405556
#
# Coordination Sequence:
#
# PCOD9338575 Si02
#       6
#     2   2   4   2   4   4
#     4  11  26  45  66  94 134 161 212 271 314 378
#     4  11  26  45  66  94 134 161 212 271 314 378
#     4  11  24  41  70  96 122 177 210 253 330 382
#     4   8  22  42  62  86 142 154 214 266 318 346
#     4  10  22  40  63  92 132 165 211 262 311 375
#     4  10  22  40  63  92 132 165 211 262 311 375
#
# _framework density 24.614643999999998
#
# number of rings (size 3 to 8) (size 9 to 14) (size 15 to 20)
#    1.333    0.444    0.000    3.333    0.000    9.778 
#    0.000    0.000    0.000    0.000    0.000    0.000 
#    0.000    0.000    0.000    0.000    0.000    0.000 
#
# Total GULP energy -100244.585038 kJ/mol
# GULP energy per Si atom -5569.143613 kJ/mol
# Density = 2.455862 g / cm^3
# Si number density = 24.614644 Si / 1000 Ang^3
#
#
#
# Elastic Constant Matrix: (Units=GPa)
#
#
# Indices 1 2 3 4 5 6 
#
# 1 205.1350 24.3428 65.7865 0.0000 0.0000 0.0000
# 2 24.3428 79.3993 3.4573 0.0000 0.0000 0.0000
# 3 65.7865 3.4573 78.0018 0.0000 0.0000 0.0000
# 4 0.0000 0.0000 0.0000 26.5764 0.0000 0.0000
# 5 0.0000 0.0000 0.0000 0.0000 -5.8889 0.0000
# 6 0.0000 0.0000 0.0000 0.0000 0.0000 68.1724
#
#
#
# Elastic Compliance Matrix: (Units=1/GPa)
#
#
# Indices 1 2 3 4 5 6 
#
# 1 0.006951 -0.001880 -0.005779 0.000000 0.000000 0.000000
# 2 -0.001880 0.013127 0.001003 0.000000 0.000000 0.000000
# 3 -0.005779 0.001003 0.017650 0.000000 0.000000 0.000000
# 4 0.000000 0.000000 0.000000 0.037627 0.000000 0.000000
# 5 0.000000 0.000000 0.000000 0.000000 -0.169812 0.000000
# 6 0.000000 0.000000 0.000000 0.000000 0.000000 0.014669
#
#
# Mechanical properties :
#
#
# Convention : Reuss Voigt Hill
#
# Bulk Modulus (GPa) = 40.95451 61.07881 51.01666
# Shear Modulus (GPa) = -85.70931 35.70197 -25.00367
#
# Velocity S-wave (km/s) = -5.90729 3.81259 -3.19063
# Velocity P-wave (km/s) = 5.46385 6.65199 2.68285
#
# Compressibility (1/GPa) = 0.02441734
#
# Stress axis : x y z
#
# Youngs Moduli (GPa) = 143.85741 76.17819 56.65696
#
# Poissons Ratio (x) = 0.14318 0.32744
# Poissons Ratio (y) = 0.27038 -0.05685
# Poissons Ratio (z) = 0.83141 -0.07643
#
# Static dielectric constant tensor:
#      x y z
#    x 1.909350 0.000000 0.000000 
#    y 0.000000 1.968020 0.000000 
#    z 0.000000 0.000000 2.027000 
# 
# From -- ./inp_files/3411.got.cif
#   From: 2010.05.17/outbox.cif.g08.bks.cpg/sg26_2_cif.got.tgz:3411.got - 2010.06.04 01:07:29.
