data_PCOD9338640
_publ_section_title
;
Structure prediction by ZEFSAII (Michael W. Deem and Ramdas Pophale) SiO2 
 PCOD9338640
Probable space group: P M C 21
;
_chemical_formula_sum "Si O2"
_cell_formula_units_Z 32
_cell_length_a 8.306528
_cell_length_b 12.528184
_cell_length_c 14.612733
_cell_angle_alpha 90.000000
_cell_angle_beta 90.000000
_cell_angle_gamma 90.000000
_cell_volume 1520.684452
_symmetry_space_group_name_H-M "P M C 21"
_symmetry_group_IT_number 26
_symmetry_cell_setting 'orthorhombic'
loop_
_space_group_symop_operation_xyz
x,y,z
-x,-y,1/2+z
-x,y,z
x,-y,1/2+z
loop_
_atom_site_type_symbol
_atom_site_label
_atom_site_fract_x
_atom_site_fract_y
_atom_site_fract_z
Si Si1 0.311903 0.304156 0.617510
Si Si2 0.806372 0.015822 0.314143
Si Si3 0.810645 0.223718 0.798301
Si Si4 0.689901 0.360441 0.342464
Si Si5 0.815023 0.497936 0.498048
Si Si6 0.686580 0.277147 0.994446
Si Si7 0.193595 0.166644 0.468479
Si Si8 0.694650 0.790560 0.687929
O O1 0.500000 0.316603 0.599040
O O2 0.277712 0.296977 0.724624
O O3 0.221087 0.400884 0.567312
O O4 0.250085 0.194022 0.570306
O O5 0.763267 0.057362 0.416546
O O6 0.750427 0.105346 0.242663
O O7 0.000000 0.012482 0.311247
O O8 0.747012 0.897876 0.292546
O O9 0.783690 0.258342 0.902218
O O10 0.000000 0.225626 0.776329
O O11 0.500000 0.384896 0.338997
O O12 0.780251 0.454361 0.395357
O O13 0.720675 0.257918 0.407756
O O14 0.746878 0.315535 0.244564
O O15 0.702530 0.597935 0.517917
O O16 0.000000 0.530055 0.505804
O O17 0.500000 0.249785 0.978345
O O18 0.748370 0.213915 0.083219
O O19 0.000000 0.180297 0.463527
O O20 0.500000 0.788477 0.688859
#
# Coordination Sequence:
#
# PCOD9338640 Si02
#       8
#     4   4   4   4   4   4   4   4
#     4  11  22  38  60  87 116 153 196 242 291 346
#     4   9  20  37  60  86 117 153 191 237 291 342
#     4  11  24  42  59  83 117 155 196 240 289 346
#     4   9  16  31  55  84 114 146 185 235 285 337
#     4  11  22  38  60  87 117 153 193 240 290 345
#     4  11  24  42  59  83 118 155 193 240 291 345
#     4   9  16  31  55  85 115 146 186 235 283 336
#     4   9  20  37  60  87 116 149 192 237 284 343
#
# _framework density 21.043156
#
# number of rings (size 3 to 8) (size 9 to 14) (size 15 to 20)
#    0.000    2.000    0.000    5.250    0.000    5.000 
#    0.000    7.500    0.000    0.000    0.000    0.000 
#    0.000    0.000    0.000    0.000    0.000    0.000 
#
# Total GULP energy -178652.881615 kJ/mol
# GULP energy per Si atom -5582.902550 kJ/mol
# Density = 2.099526 g / cm^3
# Si number density = 21.043156 Si / 1000 Ang^3
#
#
#
# Elastic Constant Matrix: (Units=GPa)
#
#
# Indices 1 2 3 4 5 6 
#
# 1 36.0074 -11.4295 -3.4450 0.0000 0.0000 0.0000
# 2 -11.4295 48.2066 12.6293 0.0000 0.0000 0.0000
# 3 -3.4450 12.6293 101.1384 0.0000 0.0000 0.0000
# 4 0.0000 0.0000 0.0000 19.9524 0.0000 0.0000
# 5 0.0000 0.0000 0.0000 0.0000 23.9437 0.0000
# 6 0.0000 0.0000 0.0000 0.0000 0.0000 18.2786
#
#
#
# Elastic Compliance Matrix: (Units=1/GPa)
#
#
# Indices 1 2 3 4 5 6 
#
# 1 0.030034 0.007085 0.000138 0.000000 0.000000 0.000000
# 2 0.007085 0.023117 -0.002645 0.000000 0.000000 0.000000
# 3 0.000138 -0.002645 0.010222 0.000000 0.000000 0.000000
# 4 0.000000 0.000000 0.000000 0.050119 0.000000 0.000000
# 5 0.000000 0.000000 0.000000 0.000000 0.041765 0.000000
# 6 0.000000 0.000000 0.000000 0.000000 0.000000 0.054709
#
#
# Mechanical properties :
#
#
# Convention : Reuss Voigt Hill
#
# Bulk Modulus (GPa) = 13.78760 20.09577 16.94168
# Shear Modulus (GPa) = 22.22351 24.94145 23.58248
#
# Velocity S-wave (km/s) = 3.25328 3.44648 3.35128
# Velocity P-wave (km/s) = 4.54732 5.04065 4.80033
#
# Compressibility (1/GPa) = 0.07252893
#
# Stress axis : x y z
#
# Youngs Moduli (GPa) = 33.29544 43.25854 97.82367
#
# Poissons Ratio (x) = -0.30647 -0.01353
# Poissons Ratio (y) = -0.23589 0.25877
# Poissons Ratio (z) = -0.00461 0.11443
#
# Static dielectric constant tensor:
#      x y z
#    x 1.708900 0.000000 0.000000 
#    y 0.000000 1.779570 0.000000 
#    z 0.000000 0.000000 1.791740 
# 
# From -- ./inp_files/4262.got.cif
#   From: 2010.05.17/outbox.cif.g08.bks.cpg/sg26_3_cif.got.tgz:4262.got - 2010.06.04 01:07:29.
