data_PCOD9338284
_publ_section_title
;
Structure prediction by ZEFSAII (Michael W. Deem and Ramdas Pophale) SiO2 
 PCOD9338284
Probable space group: P M C 21
;
_chemical_formula_sum "Si O2"
_cell_formula_units_Z 32
_cell_length_a 12.959979
_cell_length_b 13.128899
_cell_length_c 10.245375
_cell_angle_alpha 90.000000
_cell_angle_beta 90.000000
_cell_angle_gamma 90.000000
_cell_volume 1743.253172
_symmetry_space_group_name_H-M "P M C 21"
_symmetry_group_IT_number 26
_symmetry_cell_setting 'orthorhombic'
loop_
_space_group_symop_operation_xyz
x,y,z
-x,-y,1/2+z
-x,y,z
x,-y,1/2+z
loop_
_atom_site_type_symbol
_atom_site_label
_atom_site_fract_x
_atom_site_fract_y
_atom_site_fract_z
Si Si1 0.881909 0.659996 0.669770
Si Si2 0.280906 0.482077 0.640890
Si Si3 0.620456 0.100905 0.637762
Si Si4 0.719094 0.982077 0.400278
Si Si5 0.881909 0.840004 0.871399
Si Si6 0.620456 0.399095 0.903406
Si Si7 0.801026 0.261947 0.624243
Si Si8 0.198974 0.761947 0.416926
O O1 0.803101 0.566893 0.680229
O O2 0.855704 0.750000 0.770585
O O3 0.869374 0.708510 0.526184
O O4 0.000000 0.628233 0.692670
O O5 0.348292 0.527816 0.523471
O O6 0.347822 0.451720 0.767081
O O7 0.221927 0.379702 0.596797
O O8 0.500000 0.125017 0.635304
O O9 0.652178 0.048280 0.774087
O O10 0.692262 0.200665 0.624747
O O11 0.651708 0.027816 0.517697
O O12 0.778073 0.879703 0.444372
O O13 0.803101 0.066893 0.360940
O O14 0.000000 0.871767 0.848498
O O15 0.869374 0.791491 0.014985
O O16 0.500000 0.374983 0.905864
O O17 0.692261 0.299335 0.916422
O O18 0.844052 0.250000 0.770584
#
# Coordination Sequence:
#
# PCOD9338284 Si02
#       8
#     4   4   4   4   4   4   4   4
#     4  10  21  37  56  78 106 140 176 217 266 314
#     4  10  20  36  55  79 109 139 176 219 262 312
#     4  10  20  34  55  80 107 141 177 216 264 315
#     4  10  20  36  55  79 109 139 176 219 262 312
#     4  10  21  37  56  78 106 140 176 217 266 314
#     4  10  20  34  55  80 107 141 177 216 264 315
#     4   9  20  36  53  77 107 137 176 221 260 310
#     4   9  20  36  53  77 107 137 176 221 260 310
#
# _framework density 18.356484999999999
#
# number of rings (size 3 to 8) (size 9 to 14) (size 15 to 20)
#    0.000    2.250    0.000    2.250    0.000    7.000 
#    0.000   15.000    0.000    8.250    0.000    0.000 
#    0.000    0.000    0.000    0.000    0.000    0.000 
#
# Total GULP energy -178654.565854 kJ/mol
# GULP energy per Si atom -5582.955183 kJ/mol
# Density = 1.831470 g / cm^3
# Si number density = 18.356485 Si / 1000 Ang^3
#
#
#
# Elastic Constant Matrix: (Units=GPa)
#
#
# Indices 1 2 3 4 5 6 
#
# 1 36.9400 14.6071 0.2475 0.0000 0.0000 0.0000
# 2 14.6071 71.9088 16.5953 0.0000 0.0000 0.0000
# 3 0.2475 16.5953 45.1699 0.0000 0.0000 0.0000
# 4 0.0000 0.0000 0.0000 28.4157 0.0000 0.0000
# 5 0.0000 0.0000 0.0000 0.0000 13.6849 0.0000
# 6 0.0000 0.0000 0.0000 0.0000 0.0000 7.1178
#
#
#
# Elastic Compliance Matrix: (Units=1/GPa)
#
#
# Indices 1 2 3 4 5 6 
#
# 1 0.029641 -0.006538 0.002240 0.000000 0.000000 0.000000
# 2 -0.006538 0.016637 -0.006077 0.000000 0.000000 0.000000
# 3 0.002240 -0.006077 0.024359 0.000000 0.000000 0.000000
# 4 0.000000 0.000000 0.000000 0.035192 0.000000 0.000000
# 5 0.000000 0.000000 0.000000 0.000000 0.073073 0.000000
# 6 0.000000 0.000000 0.000000 0.000000 0.000000 0.140493
#
#
# Mechanical properties :
#
#
# Convention : Reuss Voigt Hill
#
# Bulk Modulus (GPa) = 20.04522 24.10207 22.07364
# Shear Modulus (GPa) = 14.01448 18.01493 16.01471
#
# Velocity S-wave (km/s) = 2.76608 3.13612 2.95689
# Velocity P-wave (km/s) = 4.59840 5.12564 4.86916
#
# Compressibility (1/GPa) = 0.04988719
#
# Stress axis : x y z
#
# Youngs Moduli (GPa) = 33.73683 60.10716 41.05280
#
# Poissons Ratio (x) = 0.39298 -0.09194
# Poissons Ratio (y) = 0.22057 0.24946
# Poissons Ratio (z) = -0.07556 0.36524
#
# Static dielectric constant tensor:
#      x y z
#    x 1.600090 0.000000 0.000000 
#    y 0.000000 1.609590 0.000000 
#    z 0.000000 0.000000 1.638380 
# 
# From -- ./inp_files/3358.got.cif
#   From: 2010.05.17/outbox.cif.g08.bks.cpg/sg26_2_cif.got.tgz:3358.got - 2010.06.04 01:07:29.
