data_PCOD9338988
_publ_section_title
;
Structure prediction by ZEFSAII (Michael W. Deem and Ramdas Pophale) SiO2 
 PCOD9338988
Probable space group: P C C 2
;
_chemical_formula_sum "Si O2"
_cell_formula_units_Z 24
_cell_length_a 12.921898
_cell_length_b 8.834669
_cell_length_c 9.430618
_cell_angle_alpha 90.000000
_cell_angle_beta 90.000000
_cell_angle_gamma 90.000000
_cell_volume 1076.605874
_symmetry_space_group_name_H-M "P C C 2"
_symmetry_group_IT_number 27
_symmetry_cell_setting 'orthorhombic'
loop_
_space_group_symop_operation_xyz
x,y,z
-x,-y,z
-x,y,1/2+z
x,-y,1/2+z
loop_
_atom_site_type_symbol
_atom_site_label
_atom_site_fract_x
_atom_site_fract_y
_atom_site_fract_z
Si Si1 0.000000 0.000000 0.555020
Si Si2 0.229936 0.500268 0.580850
Si Si3 0.000000 0.500000 0.459713
Si Si4 0.924184 0.194098 0.809307
Si Si5 0.491829 0.178874 0.210055
Si Si6 0.425501 0.650098 0.441168
Si Si7 0.715753 0.318731 0.831758
O O1 0.924030 0.923917 0.440274
O O2 0.025275 0.867522 0.666233
O O3 0.107626 0.523534 0.547912
O O4 0.314137 0.612183 0.507802
O O5 0.258764 0.525706 0.744903
O O6 0.261150 0.347727 0.496820
O O7 0.023353 0.349668 0.365472
O O8 0.805472 0.215504 0.771259
O O9 0.582006 0.268780 0.290384
O O10 0.392146 0.246836 0.292385
O O11 0.500000 0.000000 0.221118
O O12 0.478675 0.234310 0.050475
O O13 0.500000 0.500000 0.434383
#
# Coordination Sequence:
#
# PCOD9338988 Si02
#       7
#     2   4   2   4   4   4   4
#     4  10  22  42  62  88 134 180 208 264 326 392
#     4  10  22  38  67  98 127 167 217 273 320 385
#     4  10  22  42  68  96 132 164 224 276 316 382
#     4  10  22  42  64  94 130 172 221 262 323 387
#     4  11  24  43  62  96 132 166 215 270 326 383
#     4  11  22  42  69  93 127 172 219 263 327 391
#     4  10  22  41  63  96 128 168 217 265 327 387
#
# _framework density 22.292280000000002
#
# number of rings (size 3 to 8) (size 9 to 14) (size 15 to 20)
#    0.000    1.667    1.667    2.000    2.333    8.667 
#   15.000    0.000    0.000    0.000    0.000    0.000 
#    0.000    0.000    0.000    0.000    0.000    0.000 
#
# Total GULP energy -133796.066970 kJ/mol
# GULP energy per Si atom -5574.836124 kJ/mol
# Density = 2.224154 g / cm^3
# Si number density = 22.292280 Si / 1000 Ang^3
#
#
#
# Elastic Constant Matrix: (Units=GPa)
#
#
# Indices 1 2 3 4 5 6 
#
# 1 90.0283 40.6402 29.5437 0.0000 0.0000 0.0000
# 2 40.6402 90.3715 19.3846 0.0000 0.0000 0.0000
# 3 29.5437 19.3846 107.1551 0.0000 0.0000 0.0000
# 4 0.0000 0.0000 0.0000 30.2321 0.0000 0.0000
# 5 0.0000 0.0000 0.0000 0.0000 -12.6608 0.0000
# 6 0.0000 0.0000 0.0000 0.0000 0.0000 17.8937
#
#
#
# Elastic Compliance Matrix: (Units=1/GPa)
#
#
# Indices 1 2 3 4 5 6 
#
# 1 0.014806 -0.006016 -0.002994 0.000000 0.000000 0.000000
# 2 -0.006016 0.013957 -0.000866 0.000000 0.000000 0.000000
# 3 -0.002994 -0.000866 0.010314 0.000000 0.000000 0.000000
# 4 0.000000 0.000000 0.000000 0.033077 0.000000 0.000000
# 5 0.000000 0.000000 0.000000 0.000000 -0.078984 0.000000
# 6 0.000000 0.000000 0.000000 0.000000 0.000000 0.055886
#
#
# Mechanical properties :
#
#
# Convention : Reuss Voigt Hill
#
# Bulk Modulus (GPa) = 51.74658 51.85464 51.80061
# Shear Modulus (GPa) = 66.44590 20.29210 43.36900
#
# Velocity S-wave (km/s) = 5.46547 3.02035 4.41554
# Velocity P-wave (km/s) = 7.94303 5.95610 7.02021
#
# Compressibility (1/GPa) = 0.01932495
#
# Stress axis : x y z
#
# Youngs Moduli (GPa) = 67.54116 71.65060 96.95218
#
# Poissons Ratio (x) = 0.43105 0.29025
# Poissons Ratio (y) = 0.40633 0.08397
# Poissons Ratio (z) = 0.20220 0.06206
#
# Static dielectric constant tensor:
#      x y z
#    x 1.883750 0.000000 0.000000 
#    y 0.000000 2.005400 0.000000 
#    z 0.000000 0.000000 1.831760 
# 
# From -- ./inp_files/1580.got.cif
#   From: 2010.05.17/outbox.cif.g08.bks.cpg/sg27_1_cif.got.tgz:1580.got - 2010.06.04 01:11:05.
