data_PCOD9338884
_publ_section_title
;
Structure prediction by ZEFSAII (Michael W. Deem and Ramdas Pophale) SiO2 
 PCOD9338884
Probable space group: P C C 2
;
_chemical_formula_sum "Si O2"
_cell_formula_units_Z 30
_cell_length_a 7.883298
_cell_length_b 11.516276
_cell_length_c 14.297432
_cell_angle_alpha 90.000000
_cell_angle_beta 90.000000
_cell_angle_gamma 90.000000
_cell_volume 1298.010029
_symmetry_space_group_name_H-M "P C C 2"
_symmetry_group_IT_number 27
_symmetry_cell_setting 'orthorhombic'
loop_
_space_group_symop_operation_xyz
x,y,z
-x,-y,z
-x,y,1/2+z
x,-y,1/2+z
loop_
_atom_site_type_symbol
_atom_site_label
_atom_site_fract_x
_atom_site_fract_y
_atom_site_fract_z
Si Si1 0.645514 0.288407 0.393700
Si Si2 0.806670 0.140526 0.653309
Si Si3 0.386770 0.910138 0.820277
Si Si4 0.680294 0.433948 0.211677
Si Si5 0.511943 0.736088 0.578483
Si Si6 0.987033 0.745499 0.008607
Si Si7 0.000000 0.500000 0.595567
Si Si8 0.262097 0.933911 0.009366
O O1 0.509277 0.198457 0.346153
O O2 0.701023 0.381102 0.315521
O O3 0.539983 0.332511 0.484578
O O4 0.818069 0.240707 0.444139
O O5 0.780333 0.113960 0.760390
O O6 0.656084 0.232197 0.634192
O O7 0.967406 0.207377 0.615551
O O8 0.795285 0.029313 0.583917
O O9 0.500000 0.000000 0.760765
O O10 0.327275 0.981870 0.911105
O O11 0.500000 0.500000 0.210980
O O12 0.647164 0.327994 0.140929
O O13 0.836137 0.503215 0.164823
O O14 0.584040 0.860814 0.550823
O O15 0.016186 0.610330 0.026404
O O16 0.131546 0.833136 0.975732
#
# Coordination Sequence:
#
# PCOD9338884 Si02
#       8
#     4   4   4   4   4   4   2   4
#     4  10  24  42  68 100 136 183 236 292 351 437
#     4  11  22  40  71  99 136 179 228 287 354 434
#     4  11  22  39  69 102 133 177 227 282 350 428
#     4  12  25  46  71 101 141 190 246 302 360 429
#     4  10  20  43  67  98 137 177 229 292 361 423
#     4  11  25  47  65  97 144 185 230 293 361 414
#     4  12  28  46  72 100 144 198 240 300 358 428
#     4  11  22  42  66 101 140 179 224 287 356 430
#
# _framework density 23.112302
#
# number of rings (size 3 to 8) (size 9 to 14) (size 15 to 20)
#    0.000    1.067    2.667    5.600    0.000    3.200 
#    2.400    2.667    0.000    0.000    0.000    0.000 
#    0.000    0.000    0.000    0.000    0.000    0.000 
#
# Total GULP energy -167282.400219 kJ/mol
# GULP energy per Si atom -5576.080007 kJ/mol
# Density = 2.305970 g / cm^3
# Si number density = 23.112302 Si / 1000 Ang^3
#
#
#
# Elastic Constant Matrix: (Units=GPa)
#
#
# Indices 1 2 3 4 5 6 
#
# 1 77.2617 19.2500 19.0875 0.0000 0.0000 0.0000
# 2 19.2500 79.5412 22.5697 0.0000 0.0000 0.0000
# 3 19.0875 22.5697 104.9923 0.0000 0.0000 0.0000
# 4 0.0000 0.0000 0.0000 18.2546 0.0000 0.0000
# 5 0.0000 0.0000 0.0000 0.0000 22.2319 0.0000
# 6 0.0000 0.0000 0.0000 0.0000 0.0000 36.9149
#
#
#
# Elastic Compliance Matrix: (Units=1/GPa)
#
#
# Indices 1 2 3 4 5 6 
#
# 1 0.014140 -0.002868 -0.001954 0.000000 0.000000 0.000000
# 2 -0.002868 0.013970 -0.002482 0.000000 0.000000 0.000000
# 3 -0.001954 -0.002482 0.010413 0.000000 0.000000 0.000000
# 4 0.000000 0.000000 0.000000 0.054781 0.000000 0.000000
# 5 0.000000 0.000000 0.000000 0.000000 0.044980 0.000000
# 6 0.000000 0.000000 0.000000 0.000000 0.000000 0.027089
#
#
# Mechanical properties :
#
#
# Convention : Reuss Voigt Hill
#
# Bulk Modulus (GPa) = 41.81207 42.62331 42.21769
# Shear Modulus (GPa) = 26.60227 28.87281 27.73754
#
# Velocity S-wave (km/s) = 3.39632 3.53829 3.46803
# Velocity P-wave (km/s) = 5.78879 5.93081 5.86023
#
# Compressibility (1/GPa) = 0.02391654
#
# Stress axis : x y z
#
# Youngs Moduli (GPa) = 70.71990 71.58034 96.03113
#
# Poissons Ratio (x) = 0.20527 0.18767
# Poissons Ratio (y) = 0.20280 0.23833
# Poissons Ratio (z) = 0.13820 0.17765
#
# Static dielectric constant tensor:
#      x y z
#    x 1.939540 0.000000 0.000000 
#    y 0.000000 1.952430 0.000000 
#    z 0.000000 0.000000 1.901050 
# 
# From -- ./inp_files/3408.got.cif
#   From: 2010.05.17/outbox.cif.g08.bks.cpg/sg27_2_cif.got.tgz:3408.got - 2010.06.04 01:11:05.
