data_PCOD9338901
_publ_section_title
;
Structure prediction by ZEFSAII (Michael W. Deem and Ramdas Pophale) SiO2 
 PCOD9338901
Probable space group: P C C 2
;
_chemical_formula_sum "Si O2"
_cell_formula_units_Z 20
_cell_length_a 5.499665
_cell_length_b 9.672175
_cell_length_c 19.155957
_cell_angle_alpha 90.000000
_cell_angle_beta 90.000000
_cell_angle_gamma 90.000000
_cell_volume 1018.976657
_symmetry_space_group_name_H-M "P C C 2"
_symmetry_group_IT_number 27
_symmetry_cell_setting 'orthorhombic'
loop_
_space_group_symop_operation_xyz
x,y,z
-x,-y,z
-x,y,1/2+z
x,-y,1/2+z
loop_
_atom_site_type_symbol
_atom_site_label
_atom_site_fract_x
_atom_site_fract_y
_atom_site_fract_z
Si Si1 0.731318 0.264292 0.853880
Si Si2 0.000000 0.500000 0.031787
Si Si3 0.000000 0.000000 0.836377
Si Si4 0.609934 0.858758 0.735412
Si Si5 0.000000 0.500000 0.277927
Si Si6 0.290750 0.604735 0.148843
Si Si7 0.500000 0.500000 0.947157
O O1 0.848477 0.117702 0.878452
O O2 0.574647 0.217586 0.787467
O O3 0.566545 0.360895 0.903516
O O4 0.933853 0.370833 0.825717
O O5 0.087106 0.613258 0.088730
O O6 0.756976 0.528828 0.987193
O O7 0.168522 0.091386 0.784677
O O8 0.648878 0.757983 0.671341
O O9 0.500000 0.000000 0.708238
O O10 0.791352 0.461529 0.222846
O O11 0.500000 0.500000 0.123418
#
# Coordination Sequence:
#
# PCOD9338901 Si02
#       7
#     4   2   2   4   2   4   2
#     4  11  22  37  66  98 137 165 218 273 350 402
#     4  11  27  42  64  98 123 181 232 280 314 371
#     4  10  22  38  58 106 134 168 202 264 360 418
#     4  10  21  36  61 102 131 163 199 266 353 413
#     4  11  19  32  66 102 125 163 198 272 350 399
#     4  11  20  39  65  95 135 161 220 276 330 390
#     4  12  26  44  66  96 132 180 238 280 318 392
#
# _framework density 19.627537
#
# number of rings (size 3 to 8) (size 9 to 14) (size 15 to 20)
#    0.000    1.200    5.000    1.800    2.800    0.000 
#    0.000    0.000    0.000    7.200    0.000    0.000 
#    0.000    0.000    0.000    0.000    0.000    0.000 
#
# Total GULP energy -111348.634264 kJ/mol
# GULP energy per Si atom -5567.431713 kJ/mol
# Density = 1.958286 g / cm^3
# Si number density = 19.627537 Si / 1000 Ang^3
#
#
#
# Elastic Constant Matrix: (Units=GPa)
#
#
# Indices 1 2 3 4 5 6 
#
# 1 93.8339 64.4992 40.1670 0.0000 0.0000 0.0000
# 2 64.4992 172.1629 61.2527 0.0000 0.0000 0.0000
# 3 40.1670 61.2527 72.4840 0.0000 0.0000 0.0000
# 4 0.0000 0.0000 0.0000 455.3463 0.0000 0.0000
# 5 0.0000 0.0000 0.0000 0.0000 32.5032 0.0000
# 6 0.0000 0.0000 0.0000 0.0000 0.0000 37.5813
#
#
#
# Elastic Compliance Matrix: (Units=1/GPa)
#
#
# Indices 1 2 3 4 5 6 
#
# 1 0.015669 -0.003977 -0.005323 0.000000 0.000000 0.000000
# 2 -0.003977 0.009315 -0.005668 0.000000 0.000000 0.000000
# 3 -0.005323 -0.005668 0.021535 0.000000 0.000000 0.000000
# 4 0.000000 0.000000 0.000000 0.002196 0.000000 0.000000
# 5 0.000000 0.000000 0.000000 0.000000 0.030766 0.000000
# 6 0.000000 0.000000 0.000000 0.000000 0.000000 0.026609
#
#
# Mechanical properties :
#
#
# Convention : Reuss Voigt Hill
#
# Bulk Modulus (GPa) = 60.29523 74.47985 67.38754
# Shear Modulus (GPa) = 35.32262 116.59031 75.95647
#
# Velocity S-wave (km/s) = 4.24683 7.71559 6.22760
# Velocity P-wave (km/s) = 7.40498 10.83526 9.27999
#
# Compressibility (1/GPa) = 0.01658506
#
# Stress axis : x y z
#
# Youngs Moduli (GPa) = 63.82074 107.35666 46.43546
#
# Poissons Ratio (x) = 0.42691 0.24715
# Poissons Ratio (y) = 0.25378 0.26319
# Poissons Ratio (z) = 0.33969 0.60848
#
# Static dielectric constant tensor:
#      x y z
#    x 1.823360 0.000000 0.000000 
#    y 0.000000 1.133980 0.000000 
#    z 0.000000 0.000000 1.683350 
# 
# From -- ./inp_files/3950.got.cif
#   From: 2010.05.17/outbox.cif.g08.bks.cpg/sg27_2_cif.got.tgz:3950.got - 2010.06.04 01:11:05.
