data_PCOD9338598
_publ_section_title
;
Structure prediction by ZEFSAII (Michael W. Deem and Ramdas Pophale) SiO2 
 PCOD9338598
Probable space group: P M C 21
;
_chemical_formula_sum "Si O2"
_cell_formula_units_Z 28
_cell_length_a 20.488781
_cell_length_b 4.982716
_cell_length_c 9.664678
_cell_angle_alpha 90.000000
_cell_angle_beta 90.000000
_cell_angle_gamma 90.000000
_cell_volume 986.664821
_symmetry_space_group_name_H-M "P M C 21"
_symmetry_group_IT_number 26
_symmetry_cell_setting 'orthorhombic'
loop_
_space_group_symop_operation_xyz
x,y,z
-x,-y,1/2+z
-x,y,z
x,-y,1/2+z
loop_
_atom_site_type_symbol
_atom_site_label
_atom_site_fract_x
_atom_site_fract_y
_atom_site_fract_z
Si Si1 0.928189 0.568778 0.679400
Si Si2 0.287568 0.358909 0.397304
Si Si3 0.571175 0.025369 0.644946
Si Si4 0.926637 0.066745 0.495659
Si Si5 0.178489 0.722719 0.343042
Si Si6 0.570239 0.351376 0.383479
Si Si7 0.284363 0.983969 0.153599
O O1 0.925715 0.872489 0.629494
O O2 0.871059 0.490929 0.779509
O O3 0.000000 0.511756 0.738118
O O4 0.921352 0.369149 0.548913
O O5 0.229962 0.559632 0.436135
O O6 0.360150 0.476907 0.420748
O O7 0.280720 0.091752 0.491688
O O8 0.283008 0.266722 0.236393
O O9 0.500000 0.139726 0.688303
O O10 0.571282 0.080637 0.480328
O O11 0.642655 0.127213 0.690530
O O12 0.570600 0.738151 0.722714
O O13 0.866417 0.949780 0.410629
O O14 0.000000 0.029584 0.435042
O O15 0.223259 0.839079 0.221948
O O16 0.500000 0.479139 0.416741
#
# Coordination Sequence:
#
# PCOD9338598 Si02
#       7
#     4   4   4   4   4   4   4
#     4  10  24  45  70 100 136 181 235 290 345 416
#     4  10  23  41  61 100 136 187 239 295 367 433
#     4   8  14  29  53  83 118 170 227 287 352 419
#     4  10  24  45  69  99 135 180 235 289 345 416
#     4  12  25  38  66  96 140 180 232 287 364 433
#     4   8  14  29  55  83 123 171 231 294 352 421
#     4  10  23  39  63  93 138 181 235 296 360 438
#
# _framework density 28.378433000000001
#
# number of rings (size 3 to 8) (size 9 to 14) (size 15 to 20)
#    0.000    2.286    0.000    1.286    6.000    1.143 
#    0.000    5.000    0.000    0.000    0.000    8.000 
#    0.000    0.000    0.000    0.000    0.000    0.000 
#
# Total GULP energy -156555.752886 kJ/mol
# GULP energy per Si atom -5591.276889 kJ/mol
# Density = 2.831384 g / cm^3
# Si number density = 28.378433 Si / 1000 Ang^3
#
#
#
# Elastic Constant Matrix: (Units=GPa)
#
#
# Indices 1 2 3 4 5 6 
#
# 1 270.3095 35.2253 59.4456 0.0000 0.0000 0.0000
# 2 35.2253 66.4522 25.5507 0.0000 0.0000 0.0000
# 3 59.4456 25.5507 82.4425 0.0000 0.0000 0.0000
# 4 0.0000 0.0000 0.0000 41.6402 0.0000 0.0000
# 5 0.0000 0.0000 0.0000 0.0000 41.8770 0.0000
# 6 0.0000 0.0000 0.0000 0.0000 0.0000 22.0318
#
#
#
# Elastic Compliance Matrix: (Units=1/GPa)
#
#
# Indices 1 2 3 4 5 6 
#
# 1 0.004492 -0.001289 -0.002839 0.000000 0.000000 0.000000
# 2 -0.001289 0.017454 -0.004480 0.000000 0.000000 0.000000
# 3 -0.002839 -0.004480 0.015565 0.000000 0.000000 0.000000
# 4 0.000000 0.000000 0.000000 0.024015 0.000000 0.000000
# 5 0.000000 0.000000 0.000000 0.000000 0.023879 0.000000
# 6 0.000000 0.000000 0.000000 0.000000 0.000000 0.045389
#
#
# Mechanical properties :
#
#
# Convention : Reuss Voigt Hill
#
# Bulk Modulus (GPa) = 49.27400 73.29417 61.28409
# Shear Modulus (GPa) = 32.30455 41.04199 36.67327
#
# Velocity S-wave (km/s) = 3.37760 3.80707 3.59875
# Velocity P-wave (km/s) = 5.71068 6.72373 6.23780
#
# Compressibility (1/GPa) = 0.02029468
#
# Stress axis : x y z
#
# Youngs Moduli (GPa) = 222.62308 57.29233 64.24533
#
# Poissons Ratio (x) = 0.07387 0.18241
# Poissons Ratio (y) = 0.28705 0.28780
# Poissons Ratio (z) = 0.63209 0.25666
#
# Static dielectric constant tensor:
#      x y z
#    x 2.150620 0.000000 0.000000 
#    y 0.000000 2.193850 0.000000 
#    z 0.000000 0.000000 2.212130 
# 
# From -- ./inp_files/3697.got.cif
#   From: 2010.05.17/outbox.cif.g08.bks.cpg/sg26_2_cif.got.tgz:3697.got - 2010.06.04 01:07:29.
