data_PCOD9338876
_publ_section_title
;
Structure prediction by ZEFSAII (Michael W. Deem and Ramdas Pophale) SiO2 
 PCOD9338876
Probable space group: P C C 2
;
_chemical_formula_sum "Si O2"
_cell_formula_units_Z 32
_cell_length_a 9.066592
_cell_length_b 12.996590
_cell_length_c 13.737932
_cell_angle_alpha 90.000000
_cell_angle_beta 90.000000
_cell_angle_gamma 90.000000
_cell_volume 1618.806180
_symmetry_space_group_name_H-M "P C C 2"
_symmetry_group_IT_number 27
_symmetry_cell_setting 'orthorhombic'
loop_
_space_group_symop_operation_xyz
x,y,z
-x,-y,z
-x,y,1/2+z
x,-y,1/2+z
loop_
_atom_site_type_symbol
_atom_site_label
_atom_site_fract_x
_atom_site_fract_y
_atom_site_fract_z
Si Si1 0.773626 0.847199 0.636070
Si Si2 0.891866 0.903828 0.425057
Si Si3 0.333372 0.039058 0.256553
Si Si4 0.284659 0.425716 0.816406
Si Si5 0.589990 0.368061 0.904317
Si Si6 0.428402 0.344762 0.630155
Si Si7 0.704416 0.731636 0.232855
Si Si8 0.976192 0.727216 0.787778
O O1 0.830162 0.863717 0.527303
O O2 0.634458 0.770797 0.637307
O O3 0.888843 0.789322 0.705354
O O4 0.736572 0.954235 0.686409
O O5 0.764356 0.947437 0.353665
O O6 0.976420 0.809893 0.370172
O O7 0.000000 0.000000 0.442396
O O8 0.316719 0.149856 0.204252
O O9 0.500000 0.000000 0.276295
O O10 0.418694 0.369618 0.873095
O O11 0.311364 0.539866 0.857794
O O12 0.335267 0.415318 0.704015
O O13 0.129704 0.365514 0.824889
O O14 0.652271 0.271075 0.846389
O O15 0.593245 0.376141 0.019262
O O16 0.595071 0.337947 0.669260
O O17 0.871698 0.693825 0.236291
#
# Coordination Sequence:
#
# PCOD9338876 Si02
#       8
#     4   4   4   4   4   4   4   4
#     4  11  23  41  59  89 128 170 216 259 320 392
#     4  11  24  37  62  93 130 177 217 269 324 393
#     4  11  22  42  60  88 130 171 213 270 324 387
#     4   9  22  40  66  89 124 166 204 262 334 387
#     4  10  21  40  65  95 122 161 214 268 319 389
#     4  10  20  41  63  90 123 160 213 269 313 386
#     4  10  22  37  63  92 124 166 211 264 325 378
#     4  10  22  43  61  91 132 169 209 269 325 395
#
# _framework density 19.767652999999999
#
# number of rings (size 3 to 8) (size 9 to 14) (size 15 to 20)
#    0.000    1.750    2.500    1.500    3.500    6.000 
#    2.250    0.000    0.000    3.000    0.000    0.000 
#    0.000    0.000    0.000    0.000    0.000    0.000 
#
# Total GULP energy -178468.583506 kJ/mol
# GULP energy per Si atom -5577.143235 kJ/mol
# Density = 1.972266 g / cm^3
# Si number density = 19.767653 Si / 1000 Ang^3
#
#
#
# Elastic Constant Matrix: (Units=GPa)
#
#
# Indices 1 2 3 4 5 6 
#
# 1 131.3303 55.0152 37.2158 0.0000 0.0000 0.0000
# 2 55.0152 90.7952 40.7550 0.0000 0.0000 0.0000
# 3 37.2158 40.7550 146.8840 0.0000 0.0000 0.0000
# 4 0.0000 0.0000 0.0000 23.8421 0.0000 0.0000
# 5 0.0000 0.0000 0.0000 0.0000 10.9273 0.0000
# 6 0.0000 0.0000 0.0000 0.0000 0.0000 35.7380
#
#
#
# Elastic Compliance Matrix: (Units=1/GPa)
#
#
# Indices 1 2 3 4 5 6 
#
# 1 0.010333 -0.005809 -0.001006 0.000000 0.000000 0.000000
# 2 -0.005809 0.015847 -0.002925 0.000000 0.000000 0.000000
# 3 -0.001006 -0.002925 0.007875 0.000000 0.000000 0.000000
# 4 0.000000 0.000000 0.000000 0.041943 0.000000 0.000000
# 5 0.000000 0.000000 0.000000 0.000000 0.091514 0.000000
# 6 0.000000 0.000000 0.000000 0.000000 0.000000 0.027981
#
#
# Mechanical properties :
#
#
# Convention : Reuss Voigt Hill
#
# Bulk Modulus (GPa) = 68.61861 70.55351 69.58606
# Shear Modulus (GPa) = 22.74467 29.83638 26.29052
#
# Velocity S-wave (km/s) = 3.39573 3.88925 3.65084
# Velocity P-wave (km/s) = 7.08255 7.47912 7.28354
#
# Compressibility (1/GPa) = 0.01457331
#
# Stress axis : x y z
#
# Youngs Moduli (GPa) = 96.77589 63.10403 126.99053
#
# Poissons Ratio (x) = 0.36660 0.12777
# Poissons Ratio (y) = 0.56222 0.37144
# Poissons Ratio (z) = 0.09737 0.18458
#
# Static dielectric constant tensor:
#      x y z
#    x 1.733380 0.000000 0.000000 
#    y 0.000000 1.762200 0.000000 
#    z 0.000000 0.000000 1.665290 
# 
# From -- ./inp_files/2436.got.cif
#   From: 2010.05.17/outbox.cif.g08.bks.cpg/sg27_2_cif.got.tgz:2436.got - 2010.06.04 01:11:05.
