data_PCOD9338361
_publ_section_title
;
Structure prediction by ZEFSAII (Michael W. Deem and Ramdas Pophale) SiO2 
 PCOD9338361
Probable space group: P M C 21
;
_chemical_formula_sum "Si O2"
_cell_formula_units_Z 32
_cell_length_a 9.543234
_cell_length_b 28.721717
_cell_length_c 5.296565
_cell_angle_alpha 90.000000
_cell_angle_beta 90.000000
_cell_angle_gamma 90.000000
_cell_volume 1451.778224
_symmetry_space_group_name_H-M "P M C 21"
_symmetry_group_IT_number 26
_symmetry_cell_setting 'orthorhombic'
loop_
_space_group_symop_operation_xyz
x,y,z
-x,-y,1/2+z
-x,y,z
x,-y,1/2+z
loop_
_atom_site_type_symbol
_atom_site_label
_atom_site_fract_x
_atom_site_fract_y
_atom_site_fract_z
Si Si1 0.169862 0.866179 0.603940
Si Si2 0.151385 0.300467 0.238567
Si Si3 0.350855 0.745207 0.423085
Si Si4 0.168257 0.975901 0.700536
Si Si5 0.154131 0.601537 0.470181
Si Si6 0.653239 0.348654 0.638201
Si Si7 0.333243 0.168252 0.600366
Si Si8 0.336921 0.530562 0.744158
O O1 0.187252 0.921576 0.647909
O O2 0.248989 0.853571 0.341177
O O3 0.000000 0.856493 0.595936
O O4 0.250586 0.842915 0.842730
O O5 0.215304 0.256024 0.097784
O O6 0.134316 0.345150 0.056690
O O7 0.000000 0.290034 0.353223
O O8 0.259143 0.320579 0.436449
O O9 0.500000 0.759846 0.544525
O O10 0.332887 0.777171 0.178890
O O11 0.364467 0.691114 0.350953
O O12 0.000000 0.983492 0.711846
O O13 0.224637 0.006550 0.468606
O O14 0.229762 0.572077 0.685934
O O15 0.000000 0.582851 0.405017
O O16 0.263028 0.607343 0.242665
O O17 0.500000 0.362008 0.546337
O O18 0.500000 0.154698 0.588503
O O19 0.500000 0.545601 0.728357
O O20 0.315050 0.504829 0.008957
#
# Coordination Sequence:
#
# PCOD9338361 Si02
#       8
#     4   4   4   4   4   4   4   4
#     4  11  23  40  64  96 126 161 216 268 317 379
#     4  10  21  36  57  87 119 149 190 251 308 356
#     4   9  21  39  57  80 110 157 209 245 292 365
#     4   9  17  32  58  89 120 156 202 261 318 372
#     4  10  22  39  58  85 119 153 192 241 302 358
#     4  10  20  36  60  85 112 151 201 248 292 355
#     4  11  24  42  63  88 129 175 212 257 319 387
#     4  10  23  42  63  90 121 156 200 245 292 354
#
# _framework density 22.041933
#
# number of rings (size 3 to 8) (size 9 to 14) (size 15 to 20)
#    0.000    2.000    0.000    2.625    3.500    5.500 
#    0.000    0.000    0.000    7.500    0.000    0.000 
#    0.000    0.000    0.000    0.000    0.000    0.000 
#
# Total GULP energy -178512.779522 kJ/mol
# GULP energy per Si atom -5578.524360 kJ/mol
# Density = 2.199176 g / cm^3
# Si number density = 22.041933 Si / 1000 Ang^3
#
#
#
# Elastic Constant Matrix: (Units=GPa)
#
#
# Indices 1 2 3 4 5 6 
#
# 1 150.4104 26.5108 41.7685 0.0000 0.0000 0.0000
# 2 26.5108 54.3961 14.4880 0.0000 0.0000 0.0000
# 3 41.7685 14.4880 80.7879 0.0000 0.0000 0.0000
# 4 0.0000 0.0000 0.0000 42.0080 0.0000 0.0000
# 5 0.0000 0.0000 0.0000 0.0000 27.4145 0.0000
# 6 0.0000 0.0000 0.0000 0.0000 0.0000 20.5553
#
#
#
# Elastic Compliance Matrix: (Units=1/GPa)
#
#
# Indices 1 2 3 4 5 6 
#
# 1 0.008208 -0.003014 -0.003703 0.000000 0.000000 0.000000
# 2 -0.003014 0.020413 -0.002102 0.000000 0.000000 0.000000
# 3 -0.003703 -0.002102 0.014670 0.000000 0.000000 0.000000
# 4 0.000000 0.000000 0.000000 0.023805 0.000000 0.000000
# 5 0.000000 0.000000 0.000000 0.000000 0.036477 0.000000
# 6 0.000000 0.000000 0.000000 0.000000 0.000000 0.048649
#
#
# Mechanical properties :
#
#
# Convention : Reuss Voigt Hill
#
# Bulk Modulus (GPa) = 38.98451 50.12543 44.55497
# Shear Modulus (GPa) = 28.02516 31.51738 29.77127
#
# Velocity S-wave (km/s) = 3.56960 3.78548 3.67913
# Velocity P-wave (km/s) = 5.89189 6.47277 6.18915
#
# Compressibility (1/GPa) = 0.02565121
#
# Stress axis : x y z
#
# Youngs Moduli (GPa) = 121.83126 48.98946 68.16765
#
# Poissons Ratio (x) = 0.14766 0.25244
# Poissons Ratio (y) = 0.36720 0.14331
# Poissons Ratio (z) = 0.45116 0.10299
#
# Static dielectric constant tensor:
#      x y z
#    x 1.891400 0.000000 0.000000 
#    y 0.000000 1.816680 0.000000 
#    z 0.000000 0.000000 1.853960 
# 
# From -- ./inp_files/256.got.cif
#   From: 2010.05.17/outbox.cif.g08.bks.cpg/sg26_1_cif.got.tgz:256.got - 2010.06.04 01:07:29.
