data_PCOD9338912
_publ_section_title
;
Structure prediction by ZEFSAII (Michael W. Deem and Ramdas Pophale) SiO2 
 PCOD9338912
Probable space group: P C C 2
;
_chemical_formula_sum "Si O2"
_cell_formula_units_Z 30
_cell_length_a 11.939537
_cell_length_b 5.700321
_cell_length_c 19.578196
_cell_angle_alpha 90.000000
_cell_angle_beta 90.000000
_cell_angle_gamma 90.000000
_cell_volume 1332.476230
_symmetry_space_group_name_H-M "P C C 2"
_symmetry_group_IT_number 27
_symmetry_cell_setting 'orthorhombic'
loop_
_space_group_symop_operation_xyz
x,y,z
-x,-y,z
-x,y,1/2+z
x,-y,1/2+z
loop_
_atom_site_type_symbol
_atom_site_label
_atom_site_fract_x
_atom_site_fract_y
_atom_site_fract_z
Si Si1 0.659476 0.912428 0.748810
Si Si2 0.302177 0.813997 0.486192
Si Si3 0.678243 0.817772 0.598917
Si Si4 0.612660 0.411896 0.816863
Si Si5 0.145072 0.371612 0.388959
Si Si6 0.500000 0.500000 0.537563
Si Si7 0.871931 0.533886 0.545945
Si Si8 0.157191 0.124204 0.852031
O O1 0.660661 0.956152 0.668337
O O2 0.622733 0.640337 0.765674
O O3 0.784318 0.895795 0.779209
O O4 0.605864 0.148948 0.783453
O O5 0.410343 0.648331 0.493356
O O6 0.198704 0.699888 0.528777
O O7 0.256202 0.868994 0.410920
O O8 0.330619 0.041735 0.528562
O O9 0.577394 0.641957 0.589335
O O10 0.797351 0.685811 0.597146
O O11 0.500000 0.500000 0.854271
O O12 0.724112 0.391872 0.863732
O O13 0.129870 0.352280 0.470224
O O14 0.101013 0.625080 0.364930
O O15 0.101199 0.126703 0.361169
O O16 0.000000 0.500000 0.566768
#
# Coordination Sequence:
#
# PCOD9338912 Si02
#       8
#     4   4   4   4   4   2   4   4
#     4  10  23  37  60  86 128 171 220 259 319 394
#     4  10  21  40  63  90 126 164 214 267 331 393
#     4  11  23  41  60  93 129 174 219 273 328 398
#     4  10  21  37  59  92 127 174 214 263 322 402
#     4   9  18  38  59  89 124 156 209 267 326 380
#     4  10  24  38  58  88 134 166 210 264 330 396
#     4  10  22  41  66  96 124 172 223 283 336 395
#     4   9  18  39  59  87 121 161 209 257 322 380
#
# _framework density 22.514474
#
# number of rings (size 3 to 8) (size 9 to 14) (size 15 to 20)
#    0.000    2.133    1.333    0.800    4.667    1.600 
#   19.200    4.000    0.000    7.200   10.400    0.000 
#    0.000    0.000    0.000    0.000    0.000    0.000 
#
# Total GULP energy -167176.500212 kJ/mol
# GULP energy per Si atom -5572.550007 kJ/mol
# Density = 2.246323 g / cm^3
# Si number density = 22.514474 Si / 1000 Ang^3
#
#
#
# Elastic Constant Matrix: (Units=GPa)
#
#
# Indices 1 2 3 4 5 6 
#
# 1 138.6732 55.8042 20.1519 0.0000 0.0000 0.0000
# 2 55.8042 156.7348 19.3469 0.0000 0.0000 0.0000
# 3 20.1519 19.3469 60.3655 0.0000 0.0000 0.0000
# 4 0.0000 0.0000 0.0000 48.2308 0.0000 0.0000
# 5 0.0000 0.0000 0.0000 0.0000 -1.0299 0.0000
# 6 0.0000 0.0000 0.0000 0.0000 0.0000 6.8755
#
#
#
# Elastic Compliance Matrix: (Units=1/GPa)
#
#
# Indices 1 2 3 4 5 6 
#
# 1 0.008638 -0.002831 -0.001976 0.000000 0.000000 0.000000
# 2 -0.002831 0.007571 -0.001481 0.000000 0.000000 0.000000
# 3 -0.001976 -0.001481 0.017700 0.000000 0.000000 0.000000
# 4 0.000000 0.000000 0.000000 0.020734 0.000000 0.000000
# 5 0.000000 0.000000 0.000000 0.000000 -0.970971 0.000000
# 6 0.000000 0.000000 0.000000 0.000000 0.000000 0.145444
#
#
# Mechanical properties :
#
#
# Convention : Reuss Voigt Hill
#
# Bulk Modulus (GPa) = 46.87923 60.70884 53.79403
# Shear Modulus (GPa) = -6.65606 28.17998 10.76196
#
# Velocity S-wave (km/s) = -1.72127 3.54169 2.18870
# Velocity P-wave (km/s) = 4.11299 6.61420 5.50746
#
# Compressibility (1/GPa) = 0.02133141
#
# Stress axis : x y z
#
# Youngs Moduli (GPa) = 115.77024 132.07984 56.49662
#
# Poissons Ratio (x) = 0.37398 0.11164
# Poissons Ratio (y) = 0.32780 0.08369
# Poissons Ratio (z) = 0.22877 0.19565
#
# Static dielectric constant tensor:
#      x y z
#    x 1.910050 0.000000 0.000000 
#    y 0.000000 1.919910 0.000000 
#    z 0.000000 0.000000 1.821670 
# 
# From -- ./inp_files/4865.got.cif
#   From: 2010.05.17/outbox.cif.g08.bks.cpg/sg27_3_cif.got.tgz:4865.got - 2010.06.04 01:11:05.
