data_PCOD9338578
_publ_section_title
;
Structure prediction by ZEFSAII (Michael W. Deem and Ramdas Pophale) SiO2 
 PCOD9338578
Probable space group: P M C 21
;
_chemical_formula_sum "Si O2"
_cell_formula_units_Z 20
_cell_length_a 11.807764
_cell_length_b 6.718308
_cell_length_c 9.767846
_cell_angle_alpha 90.000000
_cell_angle_beta 90.000000
_cell_angle_gamma 90.000000
_cell_volume 774.865596
_symmetry_space_group_name_H-M "P M C 21"
_symmetry_group_IT_number 26
_symmetry_cell_setting 'orthorhombic'
loop_
_space_group_symop_operation_xyz
x,y,z
-x,-y,1/2+z
-x,y,z
x,-y,1/2+z
loop_
_atom_site_type_symbol
_atom_site_label
_atom_site_fract_x
_atom_site_fract_y
_atom_site_fract_z
Si Si1 0.720256 0.009431 0.949240
Si Si2 0.128087 0.907031 0.707031
Si Si3 0.266364 0.574448 0.042081
Si Si4 0.500000 0.538965 0.079200
Si Si5 0.500000 0.242411 0.844521
Si Si6 0.873741 0.555864 0.295561
O O1 0.820931 0.018474 0.838226
O O2 0.610603 0.125257 0.895837
O O3 0.687744 0.775694 0.971006
O O4 0.778326 0.075431 0.089788
O O5 0.120528 0.677862 0.754608
O O6 0.000000 0.967977 0.667141
O O7 0.372618 0.467570 0.114288
O O8 0.178046 0.643122 0.156863
O O9 0.205842 0.443630 0.927630
O O10 0.500000 0.732811 0.180179
O O11 0.500000 0.460973 0.919320
O O12 0.000000 0.623629 0.328380
#
# Coordination Sequence:
#
# PCOD9338578 Si02
#       6
#     4   4   4   2   2   4
#     4  11  24  43  68 100 138 180 229 287 347 406
#     4  10  22  41  65  96 137 182 228 282 344 409
#     4  11  23  42  68  98 135 182 232 283 342 405
#     4  12  25  44  70 100 135 180 228 280 345 414
#     4  12  27  48  72 102 137 178 230 290 349 414
#     4  10  22  40  64  98 139 182 230 282 339 408
#
# _framework density 25.810925000000001
#
# number of rings (size 3 to 8) (size 9 to 14) (size 15 to 20)
#    0.000    1.200    0.000    5.400    0.000    6.400 
#    0.000    1.000    0.000    0.000    0.000    0.000 
#    0.000    0.000    0.000    0.000    0.000    0.000 
#
# Total GULP energy -111850.887412 kJ/mol
# GULP energy per Si atom -5592.544371 kJ/mol
# Density = 2.575218 g / cm^3
# Si number density = 25.810925 Si / 1000 Ang^3
#
#
#
# Elastic Constant Matrix: (Units=GPa)
#
#
# Indices 1 2 3 4 5 6 
#
# 1 213.6114 36.7108 51.6682 0.0000 0.0000 0.0000
# 2 36.7108 97.2016 27.7604 0.0000 0.0000 0.0000
# 3 51.6682 27.7604 114.2610 0.0000 0.0000 0.0000
# 4 0.0000 0.0000 0.0000 48.0577 0.0000 0.0000
# 5 0.0000 0.0000 0.0000 0.0000 49.9779 0.0000
# 6 0.0000 0.0000 0.0000 0.0000 0.0000 34.5567
#
#
#
# Elastic Compliance Matrix: (Units=1/GPa)
#
#
# Indices 1 2 3 4 5 6 
#
# 1 0.005441 -0.001453 -0.002107 0.000000 0.000000 0.000000
# 2 -0.001453 0.011443 -0.002123 0.000000 0.000000 0.000000
# 3 -0.002107 -0.002123 0.010221 0.000000 0.000000 0.000000
# 4 0.000000 0.000000 0.000000 0.020808 0.000000 0.000000
# 5 0.000000 0.000000 0.000000 0.000000 0.020009 0.000000
# 6 0.000000 0.000000 0.000000 0.000000 0.000000 0.028938
#
#
# Mechanical properties :
#
#
# Convention : Reuss Voigt Hill
#
# Bulk Modulus (GPa) = 63.54199 73.03919 68.29059
# Shear Modulus (GPa) = 44.06361 47.11409 45.58885
#
# Velocity S-wave (km/s) = 4.13627 4.27705 4.20725
# Velocity P-wave (km/s) = 6.89082 7.26293 7.07932
#
# Compressibility (1/GPa) = 0.01573762
#
# Stress axis : x y z
#
# Youngs Moduli (GPa) = 183.79569 87.38945 97.84145
#
# Poissons Ratio (x) = 0.12698 0.20618
# Poissons Ratio (y) = 0.26706 0.20773
# Poissons Ratio (z) = 0.38731 0.18554
#
# Static dielectric constant tensor:
#      x y z
#    x 1.971360 0.000000 0.000000 
#    y 0.000000 2.219250 0.000000 
#    z 0.000000 0.000000 1.946440 
# 
# From -- ./inp_files/1764.got.cif
#   From: 2010.05.17/outbox.cif.g08.bks.cpg/sg26_1_cif.got.tgz:1764.got - 2010.06.04 01:07:29.
