data_PCOD9338454
_publ_section_title
;
Structure prediction by ZEFSAII (Michael W. Deem and Ramdas Pophale) SiO2 
 PCOD9338454
Probable space group: P M C 21
;
_chemical_formula_sum "Si O2"
_cell_formula_units_Z 24
_cell_length_a 16.718006
_cell_length_b 5.173246
_cell_length_c 9.552025
_cell_angle_alpha 90.000000
_cell_angle_beta 90.000000
_cell_angle_gamma 90.000000
_cell_volume 826.119851
_symmetry_space_group_name_H-M "P M C 21"
_symmetry_group_IT_number 26
_symmetry_cell_setting 'orthorhombic'
loop_
_space_group_symop_operation_xyz
x,y,z
-x,-y,1/2+z
-x,y,z
x,-y,1/2+z
loop_
_atom_site_type_symbol
_atom_site_label
_atom_site_fract_x
_atom_site_fract_y
_atom_site_fract_z
Si Si1 0.500000 0.554286 0.541270
Si Si2 0.665614 0.065288 0.164651
Si Si3 0.163897 0.077422 0.779676
Si Si4 0.500000 0.812176 0.276644
Si Si5 0.000000 0.949464 0.780656
Si Si6 0.335675 0.310105 0.437992
Si Si7 0.000000 0.450433 0.972753
Si Si8 0.166078 0.571942 0.960466
O O1 0.500000 0.812423 0.445785
O O2 0.500000 0.476205 0.705046
O O3 0.417224 0.434571 0.488022
O O4 0.752385 0.951160 0.204264
O O5 0.581126 0.944897 0.220196
O O6 0.664650 0.982938 0.001034
O O7 0.668826 0.312260 0.269531
O O8 0.082386 0.001437 0.700592
O O9 0.158491 0.364827 0.836441
O O10 0.163860 0.863828 0.903457
O O11 0.000000 0.167163 0.903657
O O12 0.000000 0.667779 0.849632
O O13 0.258875 0.459149 0.502898
O O14 0.914468 0.505933 0.046032
#
# Coordination Sequence:
#
# PCOD9338454 Si02
#       8
#     2   4   4   2   2   4   2   4
#     4  10  21  36  56  84 118 156 202 252 307 366
#     4  10  21  37  57  84 117 157 203 253 307 366
#     4   9  17  32  54  82 115 153 196 245 298 356
#     4  10  21  36  56  84 118 156 202 252 307 366
#     4   8  14  26  49  78 110 148 192 240 294 352
#     4  10  21  37  57  84 117 157 203 253 307 366
#     4   8  14  26  49  78 110 148 192 240 294 352
#     4   9  17  32  54  82 115 153 196 245 298 356
#
# _framework density 29.051475
#
# number of rings (size 3 to 8) (size 9 to 14) (size 15 to 20)
#    0.000    2.667    0.000    1.500    0.000    1.333 
#    0.000   10.833    0.000    0.000    0.000   30.333 
#    0.000    0.000    0.000    0.000    0.000    0.000 
#
# Total GULP energy -133995.369698 kJ/mol
# GULP energy per Si atom -5583.140404 kJ/mol
# Density = 2.898535 g / cm^3
# Si number density = 29.051475 Si / 1000 Ang^3
#
#
#
# Elastic Constant Matrix: (Units=GPa)
#
#
# Indices 1 2 3 4 5 6 
#
# 1 315.7493 34.6433 51.5352 0.0000 0.0000 0.0000
# 2 34.6433 102.2984 37.3498 0.0000 0.0000 0.0000
# 3 51.5352 37.3498 103.6370 0.0000 0.0000 0.0000
# 4 0.0000 0.0000 0.0000 42.6515 0.0000 0.0000
# 5 0.0000 0.0000 0.0000 0.0000 -84.4723 0.0000
# 6 0.0000 0.0000 0.0000 0.0000 0.0000 31.9226
#
#
#
# Elastic Compliance Matrix: (Units=1/GPa)
#
#
# Indices 1 2 3 4 5 6 
#
# 1 0.003482 -0.000630 -0.001504 0.000000 0.000000 0.000000
# 2 -0.000630 0.011370 -0.003785 0.000000 0.000000 0.000000
# 3 -0.001504 -0.003785 0.011761 0.000000 0.000000 0.000000
# 4 0.000000 0.000000 0.000000 0.023446 0.000000 0.000000
# 5 0.000000 0.000000 0.000000 0.000000 -0.011838 0.000000
# 6 0.000000 0.000000 0.000000 0.000000 0.000000 0.031326
#
#
# Mechanical properties :
#
#
# Convention : Reuss Voigt Hill
#
# Bulk Modulus (GPa) = 67.67906 85.41569 76.54738
# Shear Modulus (GPa) = 57.93120 24.56413 41.24767
#
# Velocity S-wave (km/s) = 4.47037 2.91097 3.77213
# Velocity P-wave (km/s) = 7.07053 6.38464 6.73632
#
# Compressibility (1/GPa) = 0.01477562
#
# Stress axis : x y z
#
# Youngs Moduli (GPa) = 287.21549 87.94765 85.02635
#
# Poissons Ratio (x) = 0.05539 0.12791
# Poissons Ratio (y) = 0.18090 0.32179
# Poissons Ratio (z) = 0.43207 0.33285
#
# Static dielectric constant tensor:
#      x y z
#    x 2.271430 0.000000 0.000000 
#    y 0.000000 2.296330 0.000000 
#    z 0.000000 0.000000 2.245230 
# 
# From -- ./inp_files/3663.got.cif
#   From: 2010.05.17/outbox.cif.g08.bks.cpg/sg26_2_cif.got.tgz:3663.got - 2010.06.04 01:07:29.
