data_PCOD9338027
_publ_section_title
;
Structure prediction by ZEFSAII (Michael W. Deem and Ramdas Pophale) SiO2 
 PCOD9338027
Probable space group: P M C 21
;
_chemical_formula_sum "Si O2"
_cell_formula_units_Z 16
_cell_length_a 22.437120
_cell_length_b 5.067789
_cell_length_c 5.055410
_cell_angle_alpha 90.000000
_cell_angle_beta 90.000000
_cell_angle_gamma 90.000000
_cell_volume 574.833432
_symmetry_space_group_name_H-M "P M C 21"
_symmetry_group_IT_number 26
_symmetry_cell_setting 'orthorhombic'
loop_
_space_group_symop_operation_xyz
x,y,z
-x,-y,1/2+z
-x,y,z
x,-y,1/2+z
loop_
_atom_site_type_symbol
_atom_site_label
_atom_site_fract_x
_atom_site_fract_y
_atom_site_fract_z
Si Si1 0.876523 0.185720 0.843980
Si Si2 0.754349 0.839770 0.191459
Si Si3 0.000000 0.813402 0.209819
Si Si4 0.378417 0.338459 0.825226
Si Si5 0.500000 0.313695 0.672579
O O1 0.813005 0.319178 0.783277
O O2 0.877518 0.941768 0.632936
O O3 0.938073 0.331548 0.775842
O O4 0.687958 0.751080 0.258773
O O5 0.758728 0.095942 0.383296
O O6 0.000000 0.058622 0.420153
O O7 0.382707 0.593943 0.632605
O O8 0.436911 0.176911 0.734122
O O9 0.500000 0.445360 0.386336
#
# Coordination Sequence:
#
# PCOD9338027 Si02
#       5
#     4   4   2   4   2
#     4   8  14  23  37  57  84 112 140 176 218 256
#     4  10  19  31  46  69  97 120 144 186 234 268
#     4   8  12  20  34  54  78 108 142 174 208 252
#     4  10  19  33  51  69  89 120 156 186 218 268
#     4   8  16  30  48  66  86 114 152 188 216 254
#
# _framework density 27.834149
#
# number of rings (size 3 to 8) (size 9 to 14) (size 15 to 20)
#    0.000    3.000    0.000    1.500    0.000    0.000 
#    0.000    1.250    0.000    0.000    0.000    1.750 
#    0.000    0.000    0.000    0.000    0.000    0.000 
#
# Total GULP energy -89407.055523 kJ/mol
# GULP energy per Si atom -5587.940970 kJ/mol
# Density = 2.777080 g / cm^3
# Si number density = 27.834149 Si / 1000 Ang^3
#
#
#
# Elastic Constant Matrix: (Units=GPa)
#
#
# Indices 1 2 3 4 5 6 
#
# 1 331.1334 25.5479 14.1365 0.0000 0.0000 0.0000
# 2 25.5479 57.0364 37.0574 0.0000 0.0000 0.0000
# 3 14.1365 37.0574 142.4142 0.0000 0.0000 0.0000
# 4 0.0000 0.0000 0.0000 46.7693 0.0000 0.0000
# 5 0.0000 0.0000 0.0000 0.0000 53.6793 0.0000
# 6 0.0000 0.0000 0.0000 0.0000 0.0000 17.0217
#
#
#
# Elastic Compliance Matrix: (Units=1/GPa)
#
#
# Indices 1 2 3 4 5 6 
#
# 1 0.003129 -0.001444 0.000065 0.000000 0.000000 0.000000
# 2 -0.001444 0.021766 -0.005520 0.000000 0.000000 0.000000
# 3 0.000065 -0.005520 0.008452 0.000000 0.000000 0.000000
# 4 0.000000 0.000000 0.000000 0.021382 0.000000 0.000000
# 5 0.000000 0.000000 0.000000 0.000000 0.018629 0.000000
# 6 0.000000 0.000000 0.000000 0.000000 0.000000 0.058748
#
#
# Mechanical properties :
#
#
# Convention : Reuss Voigt Hill
#
# Bulk Modulus (GPa) = 51.15507 76.00753 63.58130
# Shear Modulus (GPa) = 32.80422 53.75022 43.27722
#
# Velocity S-wave (km/s) = 3.43674 4.39918 3.94740
# Velocity P-wave (km/s) = 5.84523 7.29180 6.60821
#
# Compressibility (1/GPa) = 0.01954840
#
# Stress axis : x y z
#
# Youngs Moduli (GPa) = 319.63861 45.94325 118.31846
#
# Poissons Ratio (x) = 0.06633 -0.00770
# Poissons Ratio (y) = 0.46144 0.65317
# Poissons Ratio (z) = -0.02081 0.25363
#
# Static dielectric constant tensor:
#      x y z
#    x 2.341660 0.000000 0.000000 
#    y 0.000000 2.258940 0.000000 
#    z 0.000000 0.000000 2.034960 
# 
# From -- ./inp_files/694.got.cif
#   From: 2010.05.17/outbox.cif.g08.bks.cpg/sg26_1_cif.got.tgz:694.got - 2010.06.04 01:07:29.
