data_PCOD9338671
_publ_section_title
;
Structure prediction by ZEFSAII (Michael W. Deem and Ramdas Pophale) SiO2 
 PCOD9338671
Probable space group: P M C 21
;
_chemical_formula_sum "Si O2"
_cell_formula_units_Z 32
_cell_length_a 7.206044
_cell_length_b 16.123361
_cell_length_c 9.756351
_cell_angle_alpha 90.000000
_cell_angle_beta 90.000000
_cell_angle_gamma 90.000000
_cell_volume 1133.547971
_symmetry_space_group_name_H-M "P M C 21"
_symmetry_group_IT_number 26
_symmetry_cell_setting 'orthorhombic'
loop_
_space_group_symop_operation_xyz
x,y,z
-x,-y,1/2+z
-x,y,z
x,-y,1/2+z
loop_
_atom_site_type_symbol
_atom_site_label
_atom_site_fract_x
_atom_site_fract_y
_atom_site_fract_z
Si Si1 0.774099 0.840523 0.985950
Si Si2 0.224330 0.994802 0.313113
Si Si3 0.775998 0.740516 0.734689
Si Si4 0.224838 0.353784 0.983109
Si Si5 0.726679 0.597554 0.070939
Si Si6 0.288700 0.516936 0.808927
Si Si7 0.774330 0.097028 0.062986
Si Si8 0.210764 0.761220 0.246630
O O1 0.730545 0.924810 0.907060
O O2 0.710412 0.766058 0.885282
O O3 0.000000 0.838376 0.993004
O O4 0.708666 0.828205 0.141135
O O5 0.285474 0.021661 0.162596
O O6 0.000000 0.989163 0.303725
O O7 0.286694 0.918383 0.407441
O O8 0.721521 0.662751 0.640511
O O9 0.722356 0.819299 0.639852
O O10 0.000000 0.739473 0.740886
O O11 0.292080 0.436223 0.909943
O O12 0.288134 0.277424 0.885880
O O13 0.000000 0.354907 0.976893
O O14 0.500000 0.597972 0.072548
O O15 0.791170 0.521273 0.169289
O O16 0.792917 0.679945 0.146807
O O17 0.791837 0.584628 0.914412
O O18 0.500000 0.538934 0.782500
O O19 0.000000 0.096621 0.061991
O O20 0.000000 0.786960 0.279437
#
# Coordination Sequence:
#
# PCOD9338671 Si02
#       8
#     4   4   4   4   4   4   4   4
#     4   8  14  24  36  52  77 107 136 166 201 239
#     4   8  13  20  30  46  70 101 135 166 195 231
#     4   8  14  24  36  52  77 107 136 166 201 239
#     4   9  17  28  42  61  83 106 134 167 200 236
#     4   9  18  32  47  62  82 107 133 163 200 240
#     4   9  18  32  47  62  82 107 133 163 200 240
#     4   8  13  20  30  46  70 101 135 166 195 231
#     4   9  17  28  42  61  83 106 134 167 200 236
#
# _framework density 28.229951
#
# number of rings (size 3 to 8) (size 9 to 14) (size 15 to 20)
#    0.000    3.500    0.000    1.500    0.000    2.500 
#    0.000    5.000    0.000    0.000    0.000    0.000 
#    0.000    1.000    0.000    2.250    0.000    4.500 
#
# Total GULP energy -178989.512389 kJ/mol
# GULP energy per Si atom -5593.422262 kJ/mol
# Density = 2.816570 g / cm^3
# Si number density = 28.229951 Si / 1000 Ang^3
#
#
#
# Elastic Constant Matrix: (Units=GPa)
#
#
# Indices 1 2 3 4 5 6 
#
# 1 154.8350 4.9195 12.4126 0.0000 0.0000 0.0000
# 2 4.9195 79.3493 8.2516 0.0000 0.0000 0.0000
# 3 12.4126 8.2516 200.1762 0.0000 0.0000 0.0000
# 4 0.0000 0.0000 0.0000 70.3520 0.0000 0.0000
# 5 0.0000 0.0000 0.0000 0.0000 14.5548 0.0000
# 6 0.0000 0.0000 0.0000 0.0000 0.0000 -8.4560
#
#
#
# Elastic Compliance Matrix: (Units=1/GPa)
#
#
# Indices 1 2 3 4 5 6 
#
# 1 0.006501 -0.000363 -0.000388 0.000000 0.000000 0.000000
# 2 -0.000363 0.012677 -0.000500 0.000000 0.000000 0.000000
# 3 -0.000388 -0.000500 0.005040 0.000000 0.000000 0.000000
# 4 0.000000 0.000000 0.000000 0.014214 0.000000 0.000000
# 5 0.000000 0.000000 0.000000 0.000000 0.068706 0.000000
# 6 0.000000 0.000000 0.000000 0.000000 0.000000 -0.118260
#
#
# Mechanical properties :
#
#
# Convention : Reuss Voigt Hill
#
# Bulk Modulus (GPa) = 46.04788 53.94753 49.99771
# Shear Modulus (GPa) = -3622.10245 42.54197 -1789.78024
#
# Velocity S-wave (km/s) = -35.85884 3.88620 -25.20668
# Velocity P-wave (km/s) = 41.20835 6.26803 28.79965
#
# Compressibility (1/GPa) = 0.02171653
#
# Stress axis : x y z
#
# Youngs Moduli (GPa) = 153.81943 78.88308 198.40158
#
# Poissons Ratio (x) = 0.02861 0.07701
# Poissons Ratio (y) = 0.05579 0.09922
# Poissons Ratio (z) = 0.05971 0.03945
#
# Static dielectric constant tensor:
#      x y z
#    x 2.085160 0.000000 0.000000 
#    y 0.000000 2.285120 0.000000 
#    z 0.000000 0.000000 2.138780 
# 
# From -- ./inp_files/2024.got.cif
#   From: 2010.05.17/outbox.cif.g08.bks.cpg/sg26_2_cif.got.tgz:2024.got - 2010.06.04 01:07:29.
