data_PCOD9338526
_publ_section_title
;
Structure prediction by ZEFSAII (Michael W. Deem and Ramdas Pophale) SiO2 
 PCOD9338526
Probable space group: P M C 21
;
_chemical_formula_sum "Si O2"
_cell_formula_units_Z 24
_cell_length_a 8.787960
_cell_length_b 10.224740
_cell_length_c 14.214865
_cell_angle_alpha 90.000000
_cell_angle_beta 90.000000
_cell_angle_gamma 90.000000
_cell_volume 1277.271096
_symmetry_space_group_name_H-M "P M C 21"
_symmetry_group_IT_number 26
_symmetry_cell_setting 'orthorhombic'
loop_
_space_group_symop_operation_xyz
x,y,z
-x,-y,1/2+z
-x,y,z
x,-y,1/2+z
loop_
_atom_site_type_symbol
_atom_site_label
_atom_site_fract_x
_atom_site_fract_y
_atom_site_fract_z
Si Si1 0.681452 0.775446 0.731900
Si Si2 0.678209 0.635738 0.055081
Si Si3 0.822624 0.402253 0.947718
Si Si4 0.182241 0.863196 0.929302
Si Si5 0.820684 0.483433 0.732510
Si Si6 0.818738 0.124362 0.040887
O O1 0.500000 0.766086 0.734586
O O2 0.742060 0.840776 0.827849
O O3 0.750744 0.628818 0.726113
O O4 0.734976 0.854553 0.639824
O O5 0.500000 0.664756 0.054548
O O6 0.740811 0.613292 0.159473
O O7 0.713371 0.498883 0.003601
O O8 0.767444 0.745346 0.997076
O O9 0.803429 0.429425 0.837712
O O10 0.000000 0.433236 0.971361
O O11 0.794483 0.254251 0.978765
O O12 0.000000 0.861703 0.917160
O O13 0.227015 0.997467 0.981264
O O14 0.000000 0.492691 0.710749
O O15 0.000000 0.114172 0.059890
#
# Coordination Sequence:
#
# PCOD9338526 Si02
#       6
#     4   4   4   4   4   4
#     4  12  24  39  63  95 130 167 207 259 326 381
#     4  12  24  38  61  94 128 164 209 264 319 372
#     4  10  21  39  65  92 120 161 212 266 310 369
#     4  11  24  43  66  92 127 173 217 261 310 378
#     4  11  22  38  64  94 127 167 215 262 312 377
#     4  10  23  43  67  93 124 166 218 262 311 377
#
# _framework density 18.790057999999998
#
# number of rings (size 3 to 8) (size 9 to 14) (size 15 to 20)
#    0.000    1.000    3.333    4.000    0.000    3.333 
#    0.000    3.333    0.000    0.000    0.000    0.000 
#    0.000    0.000    0.000    0.000    0.000    0.000 
#
# Total GULP energy -134212.803014 kJ/mol
# GULP energy per Si atom -5592.200126 kJ/mol
# Density = 1.874729 g / cm^3
# Si number density = 18.790058 Si / 1000 Ang^3
#
#
#
# Elastic Constant Matrix: (Units=GPa)
#
#
# Indices 1 2 3 4 5 6 
#
# 1 62.8321 25.3176 33.9667 0.0000 0.0000 0.0000
# 2 25.3176 91.1429 34.4196 0.0000 0.0000 0.0000
# 3 33.9667 34.4196 114.0920 0.0000 0.0000 0.0000
# 4 0.0000 0.0000 0.0000 25.8808 0.0000 0.0000
# 5 0.0000 0.0000 0.0000 0.0000 120.1062 0.0000
# 6 0.0000 0.0000 0.0000 0.0000 0.0000 -10.8021
#
#
#
# Elastic Compliance Matrix: (Units=1/GPa)
#
#
# Indices 1 2 3 4 5 6 
#
# 1 0.020037 -0.003739 -0.004837 0.000000 0.000000 0.000000
# 2 -0.003739 0.013080 -0.002833 0.000000 0.000000 0.000000
# 3 -0.004837 -0.002833 0.011060 0.000000 0.000000 0.000000
# 4 0.000000 0.000000 0.000000 0.038639 0.000000 0.000000
# 5 0.000000 0.000000 0.000000 0.000000 0.008326 0.000000
# 6 0.000000 0.000000 0.000000 0.000000 0.000000 -0.092575
#
#
# Mechanical properties :
#
#
# Convention : Reuss Voigt Hill
#
# Bulk Modulus (GPa) = 46.82008 50.60832 48.71420
# Shear Modulus (GPa) = 175.40939 38.66118 107.03528
#
# Velocity S-wave (km/s) = 9.67238 4.54093 7.55562
# Velocity P-wave (km/s) = 12.23566 7.38142 10.10438
#
# Compressibility (1/GPa) = 0.02135836
#
# Stress axis : x y z
#
# Youngs Moduli (GPa) = 49.90747 76.45110 90.41904
#
# Poissons Ratio (x) = 0.28586 0.43738
# Poissons Ratio (y) = 0.18661 0.25615
# Poissons Ratio (z) = 0.24142 0.21658
#
# Static dielectric constant tensor:
#      x y z
#    x 1.516930 0.000000 0.000000 
#    y 0.000000 1.623070 0.000000 
#    z 0.000000 0.000000 1.644180 
# 
# From -- ./inp_files/3953.got.cif
#   From: 2010.05.17/outbox.cif.g08.bks.cpg/sg26_2_cif.got.tgz:3953.got - 2010.06.04 01:07:29.
