data_PCOD9338465
_publ_section_title
;
Structure prediction by ZEFSAII (Michael W. Deem and Ramdas Pophale) SiO2 
 PCOD9338465
Probable space group: P M C 21
;
_chemical_formula_sum "Si O2"
_cell_formula_units_Z 24
_cell_length_a 8.438278
_cell_length_b 12.313274
_cell_length_c 12.268243
_cell_angle_alpha 90.000000
_cell_angle_beta 90.000000
_cell_angle_gamma 90.000000
_cell_volume 1274.705156
_symmetry_space_group_name_H-M "P M C 21"
_symmetry_group_IT_number 26
_symmetry_cell_setting 'orthorhombic'
loop_
_space_group_symop_operation_xyz
x,y,z
-x,-y,1/2+z
-x,y,z
x,-y,1/2+z
loop_
_atom_site_type_symbol
_atom_site_label
_atom_site_fract_x
_atom_site_fract_y
_atom_site_fract_z
Si Si1 0.807143 0.419528 0.783390
Si Si2 0.808366 0.661994 0.729612
Si Si3 0.191951 0.276253 0.986769
Si Si4 0.310545 0.836731 0.902618
Si Si5 0.810156 0.785107 0.142873
Si Si6 0.690087 0.920024 0.345291
O O1 0.751439 0.540880 0.759798
O O2 0.759926 0.369469 0.900124
O O3 0.758599 0.331513 0.692345
O O4 0.000000 0.421729 0.782654
O O5 0.755232 0.696804 0.608707
O O6 0.755943 0.748624 0.818868
O O7 0.000000 0.658948 0.727825
O O8 0.255962 0.163309 0.939325
O O9 0.000000 0.271093 0.985322
O O10 0.500000 0.835650 0.896352
O O11 0.255620 0.957991 0.870657
O O12 0.259423 0.808979 0.025111
O O13 0.758637 0.873709 0.232372
O O14 0.000000 0.784433 0.135812
O O15 0.500000 0.918662 0.338788
#
# Coordination Sequence:
#
# PCOD9338465 Si02
#       6
#     4   4   4   4   4   4
#     4   8  17  35  60  87 115 146 185 236 294 338
#     4  10  21  36  60  89 116 150 193 240 283 335
#     4   9  19  36  59  88 116 148 195 241 281 338
#     4  11  25  40  56  84 121 157 191 232 289 348
#     4  10  21  39  65  89 112 147 194 244 286 338
#     4  10  22  40  60  81 116 158 190 231 291 349
#
# _framework density 18.827881999999999
#
# number of rings (size 3 to 8) (size 9 to 14) (size 15 to 20)
#    0.000    2.333    0.000    2.500    4.667    3.333 
#    0.000    4.167    0.000    0.000    0.000    0.000 
#    0.000    0.000    0.000    0.000    0.000    0.000 
#
# Total GULP energy -133999.835462 kJ/mol
# GULP energy per Si atom -5583.326478 kJ/mol
# Density = 1.878503 g / cm^3
# Si number density = 18.827882 Si / 1000 Ang^3
#
#
#
# Elastic Constant Matrix: (Units=GPa)
#
#
# Indices 1 2 3 4 5 6 
#
# 1 13.1893 18.1085 10.5672 0.0000 0.0000 0.0000
# 2 18.1085 193.7385 117.2210 0.0000 0.0000 0.0000
# 3 10.5672 117.2210 161.9044 0.0000 0.0000 0.0000
# 4 0.0000 0.0000 0.0000 13.0132 0.0000 0.0000
# 5 0.0000 0.0000 0.0000 0.0000 18.9834 0.0000
# 6 0.0000 0.0000 0.0000 0.0000 0.0000 49.3045
#
#
#
# Elastic Compliance Matrix: (Units=1/GPa)
#
#
# Indices 1 2 3 4 5 6 
#
# 1 0.086994 -0.008356 0.000372 0.000000 0.000000 0.000000
# 2 -0.008356 0.009988 -0.006686 0.000000 0.000000 0.000000
# 3 0.000372 -0.006686 0.010993 0.000000 0.000000 0.000000
# 4 0.000000 0.000000 0.000000 0.076845 0.000000 0.000000
# 5 0.000000 0.000000 0.000000 0.000000 0.052678 0.000000
# 6 0.000000 0.000000 0.000000 0.000000 0.000000 0.020282
#
#
# Mechanical properties :
#
#
# Convention : Reuss Voigt Hill
#
# Bulk Modulus (GPa) = 12.71704 73.40283 43.05994
# Shear Modulus (GPa) = 15.95751 31.12258 23.54004
#
# Velocity S-wave (km/s) = 2.91442 4.07013 3.53976
# Velocity P-wave (km/s) = 4.25373 7.82041 6.29496
#
# Compressibility (1/GPa) = 0.07863464
#
# Stress axis : x y z
#
# Youngs Moduli (GPa) = 11.49502 100.11956 90.96695
#
# Poissons Ratio (x) = 0.83664 -0.03386
# Poissons Ratio (y) = 0.09606 0.60821
# Poissons Ratio (z) = -0.00428 0.66941
#
# Static dielectric constant tensor:
#      x y z
#    x 1.646800 0.000000 0.000000 
#    y 0.000000 1.641490 0.000000 
#    z 0.000000 0.000000 1.620760 
# 
# From -- ./inp_files/2791.got.cif
#   From: 2010.05.17/outbox.cif.g08.bks.cpg/sg26_2_cif.got.tgz:2791.got - 2010.06.04 01:07:29.
