data_PCOD9338779
_publ_section_title
;
Structure prediction by ZEFSAII (Michael W. Deem and Ramdas Pophale) SiO2 
 PCOD9338779
Probable space group: P C C 2
;
_chemical_formula_sum "Si O2"
_cell_formula_units_Z 26
_cell_length_a 10.978684
_cell_length_b 14.724615
_cell_length_c 8.580923
_cell_angle_alpha 90.000000
_cell_angle_beta 90.000000
_cell_angle_gamma 90.000000
_cell_volume 1387.165369
_symmetry_space_group_name_H-M "P C C 2"
_symmetry_group_IT_number 27
_symmetry_cell_setting 'orthorhombic'
loop_
_space_group_symop_operation_xyz
x,y,z
-x,-y,z
-x,y,1/2+z
x,-y,1/2+z
loop_
_atom_site_type_symbol
_atom_site_label
_atom_site_fract_x
_atom_site_fract_y
_atom_site_fract_z
Si Si1 0.151996 0.738843 0.369890
Si Si2 0.761494 0.713179 0.203252
Si Si3 0.749947 0.402529 0.148180
Si Si4 0.000000 0.000000 0.577089
Si Si5 0.052681 0.406006 0.383074
Si Si6 0.375644 0.555436 0.835983
Si Si7 0.081803 0.866852 0.827110
O O1 0.229563 0.750479 0.527731
O O2 0.232991 0.695140 0.231742
O O3 0.052721 0.816985 0.327805
O O4 0.060601 0.658104 0.414148
O O5 0.867333 0.641964 0.250715
O O6 0.644543 0.649690 0.240173
O O7 0.807059 0.796261 0.313595
O O8 0.722356 0.479950 0.276003
O O9 0.868698 0.414811 0.040142
O O10 0.646985 0.415866 0.015231
O O11 0.918935 0.932611 0.474201
O O12 0.081230 0.934097 0.681362
O O13 0.000000 0.500000 0.330929
O O14 0.500000 0.500000 0.820369
#
# Coordination Sequence:
#
# PCOD9338779 Si02
#       7
#     4   4   4   2   4   4   4
#     4  11  20  32  50  78 113 149 189 226 271 353
#     4  10  20  33  52  75 106 149 192 234 282 345
#     4  11  23  34  52  75 105 150 191 234 286 336
#     4  10  20  34  54  80 124 160 190 230 296 360
#     4  10  19  30  46  74 107 145 185 221 268 334
#     4  11  23  39  55  74 105 148 201 256 293 327
#     4  10  20  34  53  84 119 160 189 233 283 365
#
# _framework density 18.743259999999999
#
# number of rings (size 3 to 8) (size 9 to 14) (size 15 to 20)
#    0.000    1.538    1.538    6.000    4.308    2.462 
#    0.000    0.769    0.000    0.000    0.000    0.000 
#    0.000    7.385    0.000    0.154    0.000    0.000 
#
# Total GULP energy -144802.193415 kJ/mol
# GULP energy per Si atom -5569.315131 kJ/mol
# Density = 1.870060 g / cm^3
# Si number density = 18.743260 Si / 1000 Ang^3
#
#
#
# Elastic Constant Matrix: (Units=GPa)
#
#
# Indices 1 2 3 4 5 6 
#
# 1 57.2514 25.5249 15.6588 0.0000 0.0000 0.0000
# 2 25.5249 109.2779 29.1949 0.0000 0.0000 0.0000
# 3 15.6588 29.1949 94.5082 0.0000 0.0000 0.0000
# 4 0.0000 0.0000 0.0000 2.2462 0.0000 0.0000
# 5 0.0000 0.0000 0.0000 0.0000 13.8944 0.0000
# 6 0.0000 0.0000 0.0000 0.0000 0.0000 25.0004
#
#
#
# Elastic Compliance Matrix: (Units=1/GPa)
#
#
# Indices 1 2 3 4 5 6 
#
# 1 0.019846 -0.004095 -0.002023 0.000000 0.000000 0.000000
# 2 -0.004095 0.010819 -0.002664 0.000000 0.000000 0.000000
# 3 -0.002023 -0.002664 0.011739 0.000000 0.000000 0.000000
# 4 0.000000 0.000000 0.000000 0.445195 0.000000 0.000000
# 5 0.000000 0.000000 0.000000 0.000000 0.071972 0.000000
# 6 0.000000 0.000000 0.000000 0.000000 0.000000 0.039999
#
#
# Mechanical properties :
#
#
# Convention : Reuss Voigt Hill
#
# Bulk Modulus (GPa) = 40.25707 44.64384 42.45046
# Shear Modulus (GPa) = 7.99470 20.93878 14.46674
#
# Velocity S-wave (km/s) = 2.06752 3.34599 2.78121
# Velocity P-wave (km/s) = 5.21769 6.22879 5.74552
#
# Compressibility (1/GPa) = 0.02484036
#
# Stress axis : x y z
#
# Youngs Moduli (GPa) = 50.38818 92.42897 85.18498
#
# Poissons Ratio (x) = 0.37850 0.17235
# Poissons Ratio (y) = 0.20634 0.22691
# Poissons Ratio (z) = 0.10195 0.24620
#
# Static dielectric constant tensor:
#      x y z
#    x 1.718420 0.000000 0.000000 
#    y 0.000000 1.691770 0.000000 
#    z 0.000000 0.000000 1.747110 
# 
# From -- ./inp_files/1446.got.cif
#   From: 2010.05.17/outbox.cif.g08.bks.cpg/sg27_1_cif.got.tgz:1446.got - 2010.06.04 01:11:05.
