data_PCOD9338746
_publ_section_title
;
Structure prediction by ZEFSAII (Michael W. Deem and Ramdas Pophale) SiO2 
 PCOD9338746
Probable space group: P C C 2
;
_chemical_formula_sum "Si O2"
_cell_formula_units_Z 20
_cell_length_a 8.061621
_cell_length_b 9.092585
_cell_length_c 13.403459
_cell_angle_alpha 90.000000
_cell_angle_beta 90.000000
_cell_angle_gamma 90.000000
_cell_volume 982.486602
_symmetry_space_group_name_H-M "P C C 2"
_symmetry_group_IT_number 27
_symmetry_cell_setting 'orthorhombic'
loop_
_space_group_symop_operation_xyz
x,y,z
-x,-y,z
-x,y,1/2+z
x,-y,1/2+z
loop_
_atom_site_type_symbol
_atom_site_label
_atom_site_fract_x
_atom_site_fract_y
_atom_site_fract_z
Si Si1 0.500000 0.500000 0.311570
Si Si2 0.267873 0.248553 0.867874
Si Si3 0.062434 0.167290 0.673447
Si Si4 0.732127 0.248553 0.755267
Si Si5 0.500000 0.000000 0.311570
Si Si6 0.937566 0.832710 0.449693
O O1 0.618898 0.391466 0.372636
O O2 0.381102 0.391466 0.250504
O O3 0.188571 0.224207 0.757031
O O4 0.385108 0.105910 0.878500
O O5 0.109795 0.255254 0.938820
O O6 0.890205 0.255254 0.684320
O O7 0.129075 0.173500 0.561570
O O8 0.000000 0.000000 0.694456
O O9 0.614892 0.105910 0.744640
O O10 0.811429 0.224207 0.866110
O O11 0.000000 0.000000 0.428685
#
# Coordination Sequence:
#
# PCOD9338746 Si02
#       6
#     2   4   4   4   2   4
#     4  10  24  36  58  78 120 150 180 210 298 316
#     4  10  19  38  55  83 110 148 180 231 261 338
#     4  10  19  35  61  86 105 141 190 232 270 318
#     4  10  19  38  55  83 110 148 180 231 261 338
#     4  10  16  32  58  74 112 142 172 230 274 296
#     4  10  19  35  61  86 105 141 190 232 270 318
#
# _framework density 20.356511000000001
#
# number of rings (size 3 to 8) (size 9 to 14) (size 15 to 20)
#    0.000    2.000    4.000    1.200    0.000    3.200 
#    0.000   16.000    0.000    0.000    0.000    0.000 
#    0.000    0.000    0.000    0.000    0.000    0.000 
#
# Total GULP energy -111565.367626 kJ/mol
# GULP energy per Si atom -5578.268381 kJ/mol
# Density = 2.031018 g / cm^3
# Si number density = 20.356511 Si / 1000 Ang^3
#
#
#
# Elastic Constant Matrix: (Units=GPa)
#
#
# Indices 1 2 3 4 5 6 
#
# 1 101.3126 39.5867 5.0058 0.0000 0.0000 0.0000
# 2 39.5867 101.5267 -1.5216 0.0000 0.0000 0.0000
# 3 5.0058 -1.5216 92.1584 0.0000 0.0000 0.0000
# 4 0.0000 0.0000 0.0000 5.3607 0.0000 0.0000
# 5 0.0000 0.0000 0.0000 0.0000 6.2076 0.0000
# 6 0.0000 0.0000 0.0000 0.0000 0.0000 31.7351
#
#
#
# Elastic Compliance Matrix: (Units=1/GPa)
#
#
# Indices 1 2 3 4 5 6 
#
# 1 0.011691 -0.004569 -0.000710 0.000000 0.000000 0.000000
# 2 -0.004569 0.011638 0.000440 0.000000 0.000000 0.000000
# 3 -0.000710 0.000440 0.010897 0.000000 0.000000 0.000000
# 4 0.000000 0.000000 0.000000 0.186541 0.000000 0.000000
# 5 0.000000 0.000000 0.000000 0.000000 0.161092 0.000000
# 6 0.000000 0.000000 0.000000 0.000000 0.000000 0.031511
#
#
# Mechanical properties :
#
#
# Convention : Reuss Voigt Hill
#
# Bulk Modulus (GPa) = 40.73825 42.34884 41.54354
# Shear Modulus (GPa) = 11.59474 25.45583 18.52528
#
# Velocity S-wave (km/s) = 2.38918 3.54008 3.01996
# Velocity P-wave (km/s) = 5.25992 6.12848 5.71074
#
# Compressibility (1/GPa) = 0.02454696
#
# Stress axis : x y z
#
# Youngs Moduli (GPa) = 85.53697 85.92715 91.77056
#
# Poissons Ratio (x) = 0.39261 0.06520
# Poissons Ratio (y) = 0.39082 -0.04041
# Poissons Ratio (z) = 0.06077 -0.03784
#
# Static dielectric constant tensor:
#      x y z
#    x 1.744110 0.000000 0.000000 
#    y 0.000000 1.761550 0.000000 
#    z 0.000000 0.000000 1.688080 
# 
# From -- ./inp_files/3231.got.cif
#   From: 2010.05.17/outbox.cif.g08.bks.cpg/sg27_2_cif.got.tgz:3231.got - 2010.06.04 01:11:05.
