data_PCOD9338178
_publ_section_title
;
Structure prediction by ZEFSAII (Michael W. Deem and Ramdas Pophale) SiO2 
 PCOD9338178
Probable space group: P M C 21
;
_chemical_formula_sum "Si O2"
_cell_formula_units_Z 32
_cell_length_a 7.817150
_cell_length_b 14.904312
_cell_length_c 12.904678
_cell_angle_alpha 90.000000
_cell_angle_beta 90.000000
_cell_angle_gamma 90.000000
_cell_volume 1503.514259
_symmetry_space_group_name_H-M "P M C 21"
_symmetry_group_IT_number 26
_symmetry_cell_setting 'orthorhombic'
loop_
_space_group_symop_operation_xyz
x,y,z
-x,-y,1/2+z
-x,y,z
x,-y,1/2+z
loop_
_atom_site_type_symbol
_atom_site_label
_atom_site_fract_x
_atom_site_fract_y
_atom_site_fract_z
Si Si1 0.293598 0.871976 0.415060
Si Si2 0.193906 0.341728 0.248700
Si Si3 0.206058 0.754733 0.949832
Si Si4 0.709794 0.326916 0.859009
Si Si5 0.704961 0.367583 0.629111
Si Si6 0.700097 0.448283 0.051165
Si Si7 0.695811 0.835687 0.646243
Si Si8 0.201057 0.934064 0.836279
O O1 0.500000 0.875082 0.408738
O O2 0.237353 0.777256 0.366803
O O3 0.243763 0.866461 0.535205
O O4 0.227355 0.964646 0.370315
O O5 0.269715 0.315829 0.361196
O O6 0.285190 0.404907 0.165722
O O7 0.195673 0.245325 0.192044
O O8 0.000000 0.374466 0.261840
O O9 0.259364 0.855414 0.916261
O O10 0.000000 0.752237 0.944854
O O11 0.259987 0.721149 0.062264
O O12 0.500000 0.327008 0.861319
O O13 0.766627 0.364358 0.747649
O O14 0.769392 0.384459 0.959224
O O15 0.500000 0.378174 0.635457
O O16 0.776183 0.452561 0.565050
O O17 0.500000 0.457856 0.026042
O O18 0.500000 0.802280 0.635514
O O19 0.703737 0.914220 0.729419
O O20 0.000000 0.919295 0.819124
#
# Coordination Sequence:
#
# PCOD9338178 Si02
#       8
#     4   4   4   4   4   4   4   4
#     4  10  20  36  59  83 114 154 192 241 296 346
#     4  10  20  35  57  83 112 148 191 242 292 344
#     4   9  21  40  56  77 117 155 187 238 294 342
#     4   9  19  38  56  84 123 148 187 246 295 342
#     4  10  22  36  60  88 115 155 196 241 291 348
#     4  10  20  36  59  86 115 150 191 240 293 345
#     4  10  19  35  58  83 110 148 195 242 293 346
#     4  10  22  38  57  84 118 154 195 246 296 351
#
# _framework density 21.283470999999999
#
# number of rings (size 3 to 8) (size 9 to 14) (size 15 to 20)
#    0.000    2.250    1.250    1.875    1.750    5.500 
#    0.000    5.000    0.000    0.000    0.000    0.000 
#    0.000    0.000    0.000    0.000    0.000    0.000 
#
# Total GULP energy -178531.110012 kJ/mol
# GULP energy per Si atom -5579.097188 kJ/mol
# Density = 2.123503 g / cm^3
# Si number density = 21.283471 Si / 1000 Ang^3
#
#
#
# Elastic Constant Matrix: (Units=GPa)
#
#
# Indices 1 2 3 4 5 6 
#
# 1 25.4129 1.0462 2.9925 0.0000 0.0000 0.0000
# 2 1.0462 114.9146 50.8248 0.0000 0.0000 0.0000
# 3 2.9925 50.8248 88.5024 0.0000 0.0000 0.0000
# 4 0.0000 0.0000 0.0000 20.1652 0.0000 0.0000
# 5 0.0000 0.0000 0.0000 0.0000 79.7876 0.0000
# 6 0.0000 0.0000 0.0000 0.0000 0.0000 -2.7951
#
#
#
# Elastic Compliance Matrix: (Units=1/GPa)
#
#
# Indices 1 2 3 4 5 6 
#
# 1 0.039516 0.000310 -0.001514 0.000000 0.000000 0.000000
# 2 0.000310 0.011667 -0.006711 0.000000 0.000000 0.000000
# 3 -0.001514 -0.006711 0.015204 0.000000 0.000000 0.000000
# 4 0.000000 0.000000 0.000000 0.049590 0.000000 0.000000
# 5 0.000000 0.000000 0.000000 0.000000 0.012533 0.000000
# 6 0.000000 0.000000 0.000000 0.000000 0.000000 -0.357763
#
#
# Mechanical properties :
#
#
# Convention : Reuss Voigt Hill
#
# Bulk Modulus (GPa) = 19.77955 37.61743 28.69849
# Shear Modulus (GPa) = -25.43632 31.02927 2.79648
#
# Velocity S-wave (km/s) = -3.46080 3.82239 1.14751
# Velocity P-wave (km/s) = 2.57992 6.09867 3.90754
#
# Compressibility (1/GPa) = 0.05055726
#
# Stress axis : x y z
#
# Youngs Moduli (GPa) = 25.30641 85.70920 65.77144
#
# Poissons Ratio (x) = -0.02656 0.09959
# Poissons Ratio (y) = -0.00784 0.44138
# Poissons Ratio (z) = 0.03832 0.57517
#
# Static dielectric constant tensor:
#      x y z
#    x 1.786390 0.000000 0.000000 
#    y 0.000000 1.776200 0.000000 
#    z 0.000000 0.000000 1.780660 
# 
# From -- ./inp_files/2983.got.cif
#   From: 2010.05.17/outbox.cif.g08.bks.cpg/sg26_2_cif.got.tgz:2983.got - 2010.06.04 01:07:29.
