data_PCOD9338401
_publ_section_title
;
Structure prediction by ZEFSAII (Michael W. Deem and Ramdas Pophale) SiO2 
 PCOD9338401
Probable space group: P M C 21
;
_chemical_formula_sum "Si O2"
_cell_formula_units_Z 24
_cell_length_a 8.205348
_cell_length_b 14.340984
_cell_length_c 8.195424
_cell_angle_alpha 90.000000
_cell_angle_beta 90.000000
_cell_angle_gamma 90.000000
_cell_volume 964.378197
_symmetry_space_group_name_H-M "P M C 21"
_symmetry_group_IT_number 26
_symmetry_cell_setting 'orthorhombic'
loop_
_space_group_symop_operation_xyz
x,y,z
-x,-y,1/2+z
-x,y,z
x,-y,1/2+z
loop_
_atom_site_type_symbol
_atom_site_label
_atom_site_fract_x
_atom_site_fract_y
_atom_site_fract_z
Si Si1 0.804758 0.969903 0.286430
Si Si2 0.309682 0.139883 0.470770
Si Si3 0.811547 0.365098 0.190063
Si Si4 0.682854 0.518700 0.990419
Si Si5 0.190145 0.310856 0.660641
Si Si6 0.803533 0.199718 0.991933
O O1 0.757000 0.904904 0.442320
O O2 0.000000 0.960724 0.260897
O O3 0.763487 0.076206 0.327415
O O4 0.717302 0.923787 0.132769
O O5 0.500000 0.156588 0.445797
O O6 0.220797 0.236002 0.516043
O O7 0.720819 0.422446 0.329035
O O8 0.000000 0.355877 0.238059
O O9 0.800173 0.433050 0.032061
O O10 0.740455 0.264647 0.137915
O O11 0.500000 0.482803 0.989434
O O12 0.706756 0.597338 0.129483
O O13 0.232125 0.257337 0.826286
O O14 0.000000 0.336018 0.663281
O O15 0.000000 0.198358 0.011919
#
# Coordination Sequence:
#
# PCOD9338401 Si02
#       6
#     4   4   4   4   4   4
#     4  10  20  38  60  84 115 157 201 242 290 354
#     4  11  22  37  57  87 121 154 194 249 302 344
#     4  11  22  40  63  87 115 155 200 241 287 352
#     4  12  25  40  58  88 123 154 191 245 299 344
#     4  10  20  39  63  86 113 154 200 242 290 355
#     4   8  18  36  61  86 109 142 194 245 284 333
#
# _framework density 24.886500000000002
#
# number of rings (size 3 to 8) (size 9 to 14) (size 15 to 20)
#    0.000    1.667    0.000    6.500    0.000    2.667 
#    0.000   14.167    0.000    0.000    0.000    0.000 
#    0.000    0.000    0.000    0.000    0.000    0.000 
#
# Total GULP energy -134366.436079 kJ/mol
# GULP energy per Si atom -5598.601503 kJ/mol
# Density = 2.482986 g / cm^3
# Si number density = 24.886500 Si / 1000 Ang^3
#
#
#
# Elastic Constant Matrix: (Units=GPa)
#
#
# Indices 1 2 3 4 5 6 
#
# 1 72.4784 -2.9194 4.6613 0.0000 0.0000 0.0000
# 2 -2.9194 122.6198 3.0562 0.0000 0.0000 0.0000
# 3 4.6613 3.0562 57.6665 0.0000 0.0000 0.0000
# 4 0.0000 0.0000 0.0000 45.9964 0.0000 0.0000
# 5 0.0000 0.0000 0.0000 0.0000 28.0552 0.0000
# 6 0.0000 0.0000 0.0000 0.0000 0.0000 16.0936
#
#
#
# Elastic Compliance Matrix: (Units=1/GPa)
#
#
# Indices 1 2 3 4 5 6 
#
# 1 0.013885 0.000359 -0.001141 0.000000 0.000000 0.000000
# 2 0.000359 0.008175 -0.000462 0.000000 0.000000 0.000000
# 3 -0.001141 -0.000462 0.017458 0.000000 0.000000 0.000000
# 4 0.000000 0.000000 0.000000 0.021741 0.000000 0.000000
# 5 0.000000 0.000000 0.000000 0.000000 0.035644 0.000000
# 6 0.000000 0.000000 0.000000 0.000000 0.000000 0.062136
#
#
# Mechanical properties :
#
#
# Convention : Reuss Voigt Hill
#
# Bulk Modulus (GPa) = 27.00586 29.15121 28.07853
# Shear Modulus (GPa) = 28.75684 34.56018 31.65851
#
# Velocity S-wave (km/s) = 3.40298 3.73059 3.57054
# Velocity P-wave (km/s) = 5.12987 5.50413 5.32029
#
# Compressibility (1/GPa) = 0.03702900
#
# Stress axis : x y z
#
# Youngs Moduli (GPa) = 72.01977 122.31878 57.28080
#
# Poissons Ratio (x) = -0.04392 0.06538
# Poissons Ratio (y) = -0.02586 0.02648
# Poissons Ratio (z) = 0.08220 0.05655
#
# Static dielectric constant tensor:
#      x y z
#    x 1.842580 0.000000 0.000000 
#    y 0.000000 1.952150 0.000000 
#    z 0.000000 0.000000 2.101930 
# 
# From -- ./inp_files/1439.got.cif
#   From: 2010.05.17/outbox.cif.g08.bks.cpg/sg26_1_cif.got.tgz:1439.got - 2010.06.04 01:07:29.
