data_PCOD9338273
_publ_section_title
;
Structure prediction by ZEFSAII (Michael W. Deem and Ramdas Pophale) SiO2 
 PCOD9338273
Probable space group: P M C 21
;
_chemical_formula_sum "Si O2"
_cell_formula_units_Z 24
_cell_length_a 8.504801
_cell_length_b 7.820925
_cell_length_c 19.517214
_cell_angle_alpha 90.000000
_cell_angle_beta 90.000000
_cell_angle_gamma 90.000000
_cell_volume 1298.195506
_symmetry_space_group_name_H-M "P M C 21"
_symmetry_group_IT_number 26
_symmetry_cell_setting 'orthorhombic'
loop_
_space_group_symop_operation_xyz
x,y,z
-x,-y,1/2+z
-x,y,z
x,-y,1/2+z
loop_
_atom_site_type_symbol
_atom_site_label
_atom_site_fract_x
_atom_site_fract_y
_atom_site_fract_z
Si Si1 0.311809 0.993724 0.163740
Si Si2 0.811415 0.313580 0.754871
Si Si3 0.190441 0.999503 0.009536
Si Si4 0.311452 0.693891 0.759564
Si Si5 0.808866 0.696144 0.411362
Si Si6 0.809779 0.692660 0.911693
O O1 0.500000 0.993313 0.163721
O O2 0.252912 0.823800 0.201866
O O3 0.251613 0.001832 0.086391
O O4 0.258006 0.159126 0.207324
O O5 0.754512 0.506624 0.741469
O O6 0.760205 0.267980 0.832876
O O7 0.000000 0.311696 0.753245
O O8 0.000000 0.001628 0.011291
O O9 0.239385 0.829627 0.968191
O O10 0.245037 0.162841 0.965210
O O11 0.500000 0.686360 0.759018
O O12 0.254259 0.735898 0.836408
O O13 0.760889 0.501929 0.428164
O O14 0.000000 0.699893 0.411768
O O15 0.000000 0.695324 0.907528
#
# Coordination Sequence:
#
# PCOD9338273 Si02
#       6
#     4   4   4   4   4   4
#     4  11  24  38  52  78 117 152 182 221 273 334
#     4  10  20  37  62  85 106 140 187 236 278 319
#     4  10  20  34  53  77 107 143 182 223 268 322
#     4  10  21  37  57  82 113 148 183 224 276 332
#     4   8  16  32  54  79 103 129 171 225 271 313
#     4   9  18  34  56  81 106 136 181 231 272 318
#
# _framework density 18.487199
#
# number of rings (size 3 to 8) (size 9 to 14) (size 15 to 20)
#    0.000    2.333    0.000    3.500    0.000    6.000 
#    0.000    5.833    0.000    0.000    0.000    0.000 
#    0.000    0.000    0.000    0.000    0.000    0.000 
#
# Total GULP energy -133983.998815 kJ/mol
# GULP energy per Si atom -5582.666617 kJ/mol
# Density = 1.844512 g / cm^3
# Si number density = 18.487199 Si / 1000 Ang^3
#
#
#
# Elastic Constant Matrix: (Units=GPa)
#
#
# Indices 1 2 3 4 5 6 
#
# 1 21.5261 25.0981 24.3539 0.0000 0.0000 0.0000
# 2 25.0981 128.3696 114.3707 0.0000 0.0000 0.0000
# 3 24.3539 114.3707 148.6989 0.0000 0.0000 0.0000
# 4 0.0000 0.0000 0.0000 -4.6803 0.0000 0.0000
# 5 0.0000 0.0000 0.0000 0.0000 -44.1588 0.0000
# 6 0.0000 0.0000 0.0000 0.0000 0.0000 19.2920
#
#
#
# Elastic Compliance Matrix: (Units=1/GPa)
#
#
# Indices 1 2 3 4 5 6 
#
# 1 0.060481 -0.009530 -0.002575 0.000000 0.000000 0.000000
# 2 -0.009530 0.026253 -0.018631 0.000000 0.000000 0.000000
# 3 -0.002575 -0.018631 0.021477 0.000000 0.000000 0.000000
# 4 0.000000 0.000000 0.000000 -0.213662 0.000000 0.000000
# 5 0.000000 0.000000 0.000000 0.000000 -0.022646 0.000000
# 6 0.000000 0.000000 0.000000 0.000000 0.000000 0.051835
#
#
# Mechanical properties :
#
#
# Convention : Reuss Voigt Hill
#
# Bulk Modulus (GPa) = 21.39656 69.58222 45.48939
# Shear Modulus (GPa) = 6326.61397 3.07539 3164.84468
#
# Velocity S-wave (km/s) = 58.56269 1.29118 41.42014
# Velocity P-wave (km/s) = 67.70808 6.32002 48.08496
#
# Compressibility (1/GPa) = 0.04673648
#
# Stress axis : x y z
#
# Youngs Moduli (GPa) = 16.53421 38.09112 46.56159
#
# Poissons Ratio (x) = 0.36302 0.11991
# Poissons Ratio (y) = 0.15758 0.86750
# Poissons Ratio (z) = 0.04258 0.70969
#
# Static dielectric constant tensor:
#      x y z
#    x 1.630730 0.000000 0.000000 
#    y 0.000000 1.635120 0.000000 
#    z 0.000000 0.000000 1.602270 
# 
# From -- ./inp_files/4876.got.cif
#   From: 2010.05.17/outbox.cif.g08.bks.cpg/sg26_3_cif.got.tgz:4876.got - 2010.06.04 01:07:29.
