data_PCOD9338048
_publ_section_title
;
Structure prediction by ZEFSAII (Michael W. Deem and Ramdas Pophale) SiO2 
 PCOD9338048
Probable space group: P M C 21
;
_chemical_formula_sum "Si O2"
_cell_formula_units_Z 32
_cell_length_a 7.778349
_cell_length_b 11.089610
_cell_length_c 14.680843
_cell_angle_alpha 90.000000
_cell_angle_beta 90.000000
_cell_angle_gamma 90.000000
_cell_volume 1266.352735
_symmetry_space_group_name_H-M "P M C 21"
_symmetry_group_IT_number 26
_symmetry_cell_setting 'orthorhombic'
loop_
_space_group_symop_operation_xyz
x,y,z
-x,-y,1/2+z
-x,y,z
x,-y,1/2+z
loop_
_atom_site_type_symbol
_atom_site_label
_atom_site_fract_x
_atom_site_fract_y
_atom_site_fract_z
Si Si1 0.708318 0.188275 0.969700
Si Si2 0.792501 0.184513 0.635507
Si Si3 0.203562 0.662382 0.303848
Si Si4 0.303342 0.432368 0.189370
Si Si5 0.200678 0.581353 0.025974
Si Si6 0.300219 0.923295 0.649665
Si Si7 0.296902 0.697824 0.854927
Si Si8 0.289808 0.956196 0.856143
O O1 0.500000 0.187364 0.972551
O O2 0.760238 0.301718 0.907682
O O3 0.771033 0.070288 0.913320
O O4 0.769710 0.168829 0.073677
O O5 0.750440 0.222604 0.739820
O O6 0.730520 0.299792 0.578152
O O7 0.000000 0.175241 0.628698
O O8 0.711652 0.058145 0.608035
O O9 0.294747 0.550500 0.254858
O O10 0.000000 0.639433 0.292931
O O11 0.500000 0.401785 0.170112
O O12 0.227160 0.470228 0.093165
O O13 0.222485 0.332403 0.255484
O O14 0.000000 0.597655 0.014791
O O15 0.273185 0.589596 0.925382
O O16 0.500000 0.891679 0.662821
O O17 0.228731 0.944405 0.751083
O O18 0.500000 0.710488 0.841393
O O19 0.235720 0.825211 0.894574
O O20 0.500000 0.965615 0.856136
#
# Coordination Sequence:
#
# PCOD9338048 Si02
#       8
#     4   4   4   4   4   4   4   4
#     4  10  19  32  53  82 111 146 187 223 277 343
#     4   9  18  32  51  77 108 144 185 227 272 328
#     4  10  20  35  55  78 109 144 183 234 286 334
#     4  10  21  38  61  86 113 149 196 244 287 338
#     4  10  21  37  59  87 117 151 193 240 291 344
#     4  10  19  31  52  80 111 148 184 226 280 339
#     4  10  21  39  61  85 115 153 196 241 287 342
#     4   9  18  34  54  81 116 147 184 235 284 332
#
# _framework density 25.269423
#
# number of rings (size 3 to 8) (size 9 to 14) (size 15 to 20)
#    0.000    2.250    1.250    2.625    0.000    5.000 
#    2.250    1.250    0.000    0.000    0.000    0.000 
#    0.000    0.000    0.000    0.000    0.000    0.000 
#
# Total GULP energy -178805.949394 kJ/mol
# GULP energy per Si atom -5587.685919 kJ/mol
# Density = 2.521191 g / cm^3
# Si number density = 25.269423 Si / 1000 Ang^3
#
#
#
# Elastic Constant Matrix: (Units=GPa)
#
#
# Indices 1 2 3 4 5 6 
#
# 1 37.1712 -0.5963 2.6938 0.0000 0.0000 0.0000
# 2 -0.5963 81.7933 11.4056 0.0000 0.0000 0.0000
# 3 2.6938 11.4056 135.3357 0.0000 0.0000 0.0000
# 4 0.0000 0.0000 0.0000 39.6292 0.0000 0.0000
# 5 0.0000 0.0000 0.0000 0.0000 1087.4209 0.0000
# 6 0.0000 0.0000 0.0000 0.0000 0.0000-2959.4026
#
#
#
# Elastic Compliance Matrix: (Units=1/GPa)
#
#
# Indices 1 2 3 4 5 6 
#
# 1 0.026948 0.000274 -0.000560 0.000000 0.000000 0.000000
# 2 0.000274 0.012374 -0.001048 0.000000 0.000000 0.000000
# 3 -0.000560 -0.001048 0.007489 0.000000 0.000000 0.000000
# 4 0.000000 0.000000 0.000000 0.025234 0.000000 0.000000
# 5 0.000000 0.000000 0.000000 0.000000 0.000920 0.000000
# 6 0.000000 0.000000 0.000000 0.000000 0.000000 -0.000338
#
#
# Mechanical properties :
#
#
# Convention : Reuss Voigt Hill
#
# Bulk Modulus (GPa) = 22.65341 31.25627 26.95484
# Shear Modulus (GPa) = 55.55128 -350.41735 -147.43303
#
# Velocity S-wave (km/s) = 4.69375 -11.78870 -7.64664
# Velocity P-wave (km/s) = 6.19349 13.14922 8.20191
#
# Compressibility (1/GPa) = 0.04414347
#
# Stress axis : x y z
#
# Youngs Moduli (GPa) = 37.10917 80.81380 133.53781
#
# Poissons Ratio (x) = -0.02218 0.07472
# Poissons Ratio (y) = -0.01019 0.13999
# Poissons Ratio (z) = 0.02076 0.08472
#
# Static dielectric constant tensor:
#      x y z
#    x 1.660070 0.000000 0.000000 
#    y 0.000000 2.046680 0.000000 
#    z 0.000000 0.000000 2.037270 
# 
# From -- ./inp_files/4145.got.cif
#   From: 2010.05.17/outbox.cif.g08.bks.cpg/sg26_3_cif.got.tgz:4145.got - 2010.06.04 01:07:29.
