data_PCOD9338730
_publ_section_title
;
Structure prediction by ZEFSAII (Michael W. Deem and Ramdas Pophale) SiO2 
 PCOD9338730
Probable space group: P C C 2
;
_chemical_formula_sum "Si O2"
_cell_formula_units_Z 20
_cell_length_a 21.967804
_cell_length_b 7.103484
_cell_length_c 5.433224
_cell_angle_alpha 90.000000
_cell_angle_beta 90.000000
_cell_angle_gamma 90.000000
_cell_volume 847.843436
_symmetry_space_group_name_H-M "P C C 2"
_symmetry_group_IT_number 27
_symmetry_cell_setting 'orthorhombic'
loop_
_space_group_symop_operation_xyz
x,y,z
-x,-y,z
-x,y,1/2+z
x,-y,1/2+z
loop_
_atom_site_type_symbol
_atom_site_label
_atom_site_fract_x
_atom_site_fract_y
_atom_site_fract_z
Si Si1 0.337629 0.215961 0.305100
Si Si2 0.710003 0.212298 0.304794
Si Si3 0.974089 0.284626 0.198094
Si Si4 0.834426 0.620993 0.685788
Si Si5 0.476618 0.215287 0.134809
O O1 0.328968 0.296526 0.578555
O O2 0.407292 0.215273 0.222280
O O3 0.313255 0.001624 0.334732
O O4 0.299712 0.298225 0.076011
O O5 0.779579 0.232854 0.223018
O O6 0.901442 0.290690 0.201711
O O7 0.000000 0.500000 0.195937
O O8 0.000917 0.201385 0.446487
O O9 0.829536 0.522196 0.418314
O O10 0.515609 0.297408 0.361411
O O11 0.500000 0.000000 0.102419
#
# Coordination Sequence:
#
# PCOD9338730 Si02
#       5
#     4   4   4   4   4
#     4  10  19  35  49  71 108 132 169 190 245 310
#     4  10  20  32  49  69 100 145 158 198 240 300
#     4  10  16  30  48  69  97 119 148 207 263 287
#     4  12  21  32  50  77 105 123 169 204 247 308
#     4  10  16  25  46  74  99 119 150 212 256 285
#
# _framework density 23.589258999999998
#
# number of rings (size 3 to 8) (size 9 to 14) (size 15 to 20)
#    0.000    1.600    4.000    7.200    0.000    0.000 
#    0.000    0.000    0.000    0.000    0.000   16.800 
#    0.000  195.200    0.000    0.000    0.000    0.000 
#
# Total GULP energy -111746.985870 kJ/mol
# GULP energy per Si atom -5587.349294 kJ/mol
# Density = 2.353557 g / cm^3
# Si number density = 23.589259 Si / 1000 Ang^3
#
#
#
# Elastic Constant Matrix: (Units=GPa)
#
#
# Indices 1 2 3 4 5 6 
#
# 1 129.0458 -12.8033 -12.1171 0.0000 0.0000 0.0000
# 2 -12.8033 75.5580 -9.4511 0.0000 0.0000 0.0000
# 3 -12.1171 -9.4511 204.3146 0.0000 0.0000 0.0000
# 4 0.0000 0.0000 0.0000 -17.1969 0.0000 0.0000
# 5 0.0000 0.0000 0.0000 0.0000 44.0789 0.0000
# 6 0.0000 0.0000 0.0000 0.0000 0.0000 22.0848
#
#
#
# Elastic Compliance Matrix: (Units=1/GPa)
#
#
# Indices 1 2 3 4 5 6 
#
# 1 0.007940 0.001412 0.000536 0.000000 0.000000 0.000000
# 2 0.001412 0.013563 0.000711 0.000000 0.000000 0.000000
# 3 0.000536 0.000711 0.004959 0.000000 0.000000 0.000000
# 4 0.000000 0.000000 0.000000 -0.058150 0.000000 0.000000
# 5 0.000000 0.000000 0.000000 0.000000 0.022687 0.000000
# 6 0.000000 0.000000 0.000000 0.000000 0.000000 0.045280
#
#
# Mechanical properties :
#
#
# Convention : Reuss Voigt Hill
#
# Bulk Modulus (GPa) = 31.46474 37.79725 34.63100
# Shear Modulus (GPa) = 120.32863 39.34601 79.83732
#
# Velocity S-wave (km/s) = 7.14987 4.08850 5.82394
# Velocity P-wave (km/s) = 9.02931 6.19239 7.74190
#
# Compressibility (1/GPa) = 0.03178160
#
# Stress axis : x y z
#
# Youngs Moduli (GPa) = 125.94982 73.72910 201.64906
#
# Poissons Ratio (x) = -0.10414 -0.10813
# Poissons Ratio (y) = -0.17790 -0.14341
# Poissons Ratio (z) = -0.06754 -0.05243
#
# Static dielectric constant tensor:
#      x y z
#    x 1.824690 0.000000 0.000000 
#    y 0.000000 2.237680 0.000000 
#    z 0.000000 0.000000 1.972920 
# 
# From -- ./inp_files/138.got.cif
#   From: 2010.05.17/outbox.cif.g08.bks.cpg/sg27_1_cif.got.tgz:138.got - 2010.06.04 01:11:05.
