data_PCOD9338721
_publ_section_title
;
Structure prediction by ZEFSAII (Michael W. Deem and Ramdas Pophale) SiO2 
 PCOD9338721
Probable space group: P C C 2
;
_chemical_formula_sum "Si O2"
_cell_formula_units_Z 24
_cell_length_a 27.770005
_cell_length_b 7.154203
_cell_length_c 5.466970
_cell_angle_alpha 90.000000
_cell_angle_beta 90.000000
_cell_angle_gamma 90.000000
_cell_volume 1086.135247
_symmetry_space_group_name_H-M "P C C 2"
_symmetry_group_IT_number 27
_symmetry_cell_setting 'orthorhombic'
loop_
_space_group_symop_operation_xyz
x,y,z
-x,-y,z
-x,y,1/2+z
x,-y,1/2+z
loop_
_atom_site_type_symbol
_atom_site_label
_atom_site_fract_x
_atom_site_fract_y
_atom_site_fract_z
Si Si1 0.772314 0.795807 0.961930
Si Si2 0.373444 0.879323 0.976166
Si Si3 0.019187 0.711218 0.559967
Si Si4 0.480982 0.216449 0.392799
Si Si5 0.115465 0.884779 0.445915
Si Si6 0.267702 0.775180 0.961943
O O1 0.754922 0.704129 0.712195
O O2 0.747578 0.003076 0.961609
O O3 0.829608 0.817171 0.962273
O O4 0.754448 0.704094 0.210712
O O5 0.424894 0.780231 0.958887
O O6 0.325093 0.758469 0.964422
O O7 0.371790 0.011383 0.734882
O O8 0.074997 0.728465 0.490408
O O9 0.000000 0.500000 0.584342
O O10 0.009377 0.795474 0.828116
O O11 0.510018 0.295741 0.623289
O O12 0.500000 0.000000 0.370491
O O13 0.109038 0.973349 0.175808
#
# Coordination Sequence:
#
# PCOD9338721 Si02
#       6
#     4   4   4   4   4   4
#     4  10  16  27  38  59  86 106 127 170 221 266
#     4  12  16  20  31  42  55  91 127 151 211 281
#     4  10  23  42  57  73 102 135 160 188 231 285
#     4  10  16  22  26  35  53  75 115 173 211 247
#     4  12  21  32  55  80 100 123 157 197 238 280
#     4  10  16  25  36  51  80 107 127 165 221 289
#
# _framework density 22.096695
#
# number of rings (size 3 to 8) (size 9 to 14) (size 15 to 20)
#    0.000    1.333   10.000    1.000    0.000    2.000 
#    0.000    0.000    0.000    0.000    0.000    0.000 
#    0.000    0.000    0.000    0.000    0.000    0.000 
#
# Total GULP energy -133958.443202 kJ/mol
# GULP energy per Si atom -5581.601800 kJ/mol
# Density = 2.204640 g / cm^3
# Si number density = 22.096695 Si / 1000 Ang^3
#
#
#
# Elastic Constant Matrix: (Units=GPa)
#
#
# Indices 1 2 3 4 5 6 
#
# 1 142.3924 2.5203 -6.2435 0.0000 0.0000 0.0000
# 2 2.5203 66.5599 -3.0800 0.0000 0.0000 0.0000
# 3 -6.2435 -3.0800 196.2339 0.0000 0.0000 0.0000
# 4 0.0000 0.0000 0.0000 -20.9014 0.0000 0.0000
# 5 0.0000 0.0000 0.0000 0.0000 42.8278 0.0000
# 6 0.0000 0.0000 0.0000 0.0000 0.0000 -14.9523
#
#
#
# Elastic Compliance Matrix: (Units=1/GPa)
#
#
# Indices 1 2 3 4 5 6 
#
# 1 0.007037 -0.000256 0.000220 0.000000 0.000000 0.000000
# 2 -0.000256 0.015044 0.000228 0.000000 0.000000 0.000000
# 3 0.000220 0.000228 0.005107 0.000000 0.000000 0.000000
# 4 0.000000 0.000000 0.000000 -0.047844 0.000000 0.000000
# 5 0.000000 0.000000 0.000000 0.000000 0.023349 0.000000
# 6 0.000000 0.000000 0.000000 0.000000 0.000000 -0.066879
#
#
# Mechanical properties :
#
#
# Convention : Reuss Voigt Hill
#
# Bulk Modulus (GPa) = 36.27002 43.50888 39.88945
# Shear Modulus (GPa) = -90.28744 28.86078 -30.71333
#
# Velocity S-wave (km/s) = -6.39913 3.61794 -3.73225
# Velocity P-wave (km/s) = 6.17646 6.09800 0.69391
#
# Compressibility (1/GPa) = 0.02757098
#
# Stress axis : x y z
#
# Youngs Moduli (GPa) = 142.10553 66.47032 195.82758
#
# Poissons Ratio (x) = 0.01704 -0.04306
# Poissons Ratio (y) = 0.03642 -0.04464
# Poissons Ratio (z) = -0.03124 -0.01515
#
# Static dielectric constant tensor:
#      x y z
#    x 1.768270 0.000000 0.000000 
#    y 0.000000 1.774040 0.000000 
#    z 0.000000 0.000000 1.857520 
# 
# From -- ./inp_files/655.got.cif
#   From: 2010.05.17/outbox.cif.g08.bks.cpg/sg27_1_cif.got.tgz:655.got - 2010.06.04 01:11:05.
