data_PCOD9338870
_publ_section_title
;
Structure prediction by ZEFSAII (Michael W. Deem and Ramdas Pophale) SiO2 
 PCOD9338870
Probable space group: P C C 2
;
_chemical_formula_sum "Si O2"
_cell_formula_units_Z 30
_cell_length_a 8.195376
_cell_length_b 18.310688
_cell_length_c 9.321636
_cell_angle_alpha 90.000000
_cell_angle_beta 90.000000
_cell_angle_gamma 90.000000
_cell_volume 1398.832411
_symmetry_space_group_name_H-M "P C C 2"
_symmetry_group_IT_number 27
_symmetry_cell_setting 'orthorhombic'
loop_
_space_group_symop_operation_xyz
x,y,z
-x,-y,z
-x,y,1/2+z
x,-y,1/2+z
loop_
_atom_site_type_symbol
_atom_site_label
_atom_site_fract_x
_atom_site_fract_y
_atom_site_fract_z
Si Si1 0.107409 0.337282 0.541580
Si Si2 0.000000 0.000000 0.838565
Si Si3 0.435313 0.416660 0.906950
Si Si4 0.680460 0.775833 0.694210
Si Si5 0.106996 0.899898 0.082945
Si Si6 0.861634 0.222759 0.498670
Si Si7 0.614708 0.314718 0.681201
Si Si8 0.051613 0.577697 0.311016
O O1 0.263576 0.296612 0.605559
O O2 0.025199 0.364823 0.686675
O O3 0.015265 0.273111 0.458837
O O4 0.077740 0.405111 0.437099
O O5 0.089831 0.054764 0.729723
O O6 0.886350 0.046408 0.946850
O O7 0.500000 0.500000 0.918643
O O8 0.564017 0.367164 0.815295
O O9 0.245528 0.419002 0.849956
O O10 0.420332 0.372948 0.054761
O O11 0.758306 0.782971 0.852841
O O12 0.493771 0.757630 0.710094
O O13 0.743757 0.844399 0.604077
O O14 0.942456 0.851163 0.058548
O O15 0.771239 0.271180 0.618427
O O16 0.000000 0.500000 0.252094
#
# Coordination Sequence:
#
# PCOD9338870 Si02
#       8
#     4   2   4   4   4   4   4   4
#     4  11  21  41  61  83 119 148 216 274 317 369
#     4  10  20  40  68 110 132 178 198 244 324 366
#     4  12  28  44  56  88 124 171 225 271 344 403
#     4  11  22  42  63  97 125 163 216 263 310 377
#     4  10  22  39  73 100 138 164 212 260 300 384
#     4  11  22  42  63  97 125 163 216 263 310 377
#     4  12  23  44  66  83 132 170 216 280 318 393
#     4  12  26  41  58  85 116 159 212 277 329 398
#
# _framework density 21.446458
#
# number of rings (size 3 to 8) (size 9 to 14) (size 15 to 20)
#    0.000    0.800    6.667    0.800    3.733    3.200 
#    0.000    0.000    0.000    4.800    0.000    0.000 
#    0.000    0.000    0.000    0.000    0.000    0.000 
#
# Total GULP energy -167016.575249 kJ/mol
# GULP energy per Si atom -5567.219175 kJ/mol
# Density = 2.139764 g / cm^3
# Si number density = 21.446458 Si / 1000 Ang^3
#
#
#
# Elastic Constant Matrix: (Units=GPa)
#
#
# Indices 1 2 3 4 5 6 
#
# 1 34.4202 31.7787 14.2360 0.0000 0.0000 0.0000
# 2 31.7787 118.8990 35.2307 0.0000 0.0000 0.0000
# 3 14.2360 35.2307 85.8958 0.0000 0.0000 0.0000
# 4 0.0000 0.0000 0.0000 29.4102 0.0000 0.0000
# 5 0.0000 0.0000 0.0000 0.0000 10.2210 0.0000
# 6 0.0000 0.0000 0.0000 0.0000 0.0000 19.4456
#
#
#
# Elastic Compliance Matrix: (Units=1/GPa)
#
#
# Indices 1 2 3 4 5 6 
#
# 1 0.039034 -0.009694 -0.002493 0.000000 0.000000 0.000000
# 2 -0.009694 0.011982 -0.003308 0.000000 0.000000 0.000000
# 3 -0.002493 -0.003308 0.013412 0.000000 0.000000 0.000000
# 4 0.000000 0.000000 0.000000 0.034002 0.000000 0.000000
# 5 0.000000 0.000000 0.000000 0.000000 0.097838 0.000000
# 6 0.000000 0.000000 0.000000 0.000000 0.000000 0.051425
#
#
# Mechanical properties :
#
#
# Convention : Reuss Voigt Hill
#
# Bulk Modulus (GPa) = 29.90652 44.63396 37.27024
# Shear Modulus (GPa) = 17.25162 22.34668 19.79915
#
# Velocity S-wave (km/s) = 2.83928 3.23147 3.04170
# Velocity P-wave (km/s) = 4.97229 5.89747 5.45453
#
# Compressibility (1/GPa) = 0.03343753
#
# Stress axis : x y z
#
# Youngs Moduli (GPa) = 25.61876 83.46172 74.56074
#
# Poissons Ratio (x) = 0.80908 0.18590
# Poissons Ratio (y) = 0.24835 0.24662
# Poissons Ratio (z) = 0.06387 0.27606
#
# Static dielectric constant tensor:
#      x y z
#    x 1.939810 0.000000 0.000000 
#    y 0.000000 1.780800 0.000000 
#    z 0.000000 0.000000 1.815670 
# 
# From -- ./inp_files/1275.got.cif
#   From: 2010.05.17/outbox.cif.g08.bks.cpg/sg27_1_cif.got.tgz:1275.got - 2010.06.04 01:11:05.
