data_PCOD9338000
_publ_section_title
;
Structure prediction by ZEFSAII (Michael W. Deem and Ramdas Pophale) SiO2 
 PCOD9338000
Probable space group: P M C 21
;
_chemical_formula_sum "Si O2"
_cell_formula_units_Z 32
_cell_length_a 8.435650
_cell_length_b 11.146070
_cell_length_c 14.455911
_cell_angle_alpha 90.000000
_cell_angle_beta 90.000000
_cell_angle_gamma 90.000000
_cell_volume 1359.207569
_symmetry_space_group_name_H-M "P M C 21"
_symmetry_group_IT_number 26
_symmetry_cell_setting 'orthorhombic'
loop_
_space_group_symop_operation_xyz
x,y,z
-x,-y,1/2+z
-x,y,z
x,-y,1/2+z
loop_
_atom_site_type_symbol
_atom_site_label
_atom_site_fract_x
_atom_site_fract_y
_atom_site_fract_z
Si Si1 0.818061 0.685269 0.225430
Si Si2 0.191860 0.678507 0.565820
Si Si3 0.311650 0.076629 0.629323
Si Si4 0.813596 0.159786 0.903287
Si Si5 0.814041 0.186230 0.461689
Si Si6 0.685334 0.933277 0.795421
Si Si7 0.190062 0.446590 0.451143
Si Si8 0.316490 0.563980 0.744405
O O1 0.770090 0.804746 0.171062
O O2 0.809686 0.726415 0.332921
O O3 0.711830 0.570489 0.205246
O O4 0.000000 0.653088 0.203757
O O5 0.240232 0.792500 0.503219
O O6 0.248199 0.561199 0.507626
O O7 0.253251 0.658677 0.669293
O O8 0.000000 0.679330 0.567233
O O9 0.500000 0.085297 0.641262
O O10 0.267665 0.083634 0.522531
O O11 0.258211 0.964945 0.692098
O O12 0.713812 0.057398 0.852293
O O13 0.000000 0.121363 0.907476
O O14 0.751589 0.317764 0.487853
O O15 0.000000 0.180488 0.479109
O O16 0.779847 0.163346 0.354210
O O17 0.500000 0.902530 0.795156
O O18 0.229615 0.443788 0.342768
O O19 0.000000 0.447031 0.459940
O O20 0.500000 0.586959 0.761033
#
# Coordination Sequence:
#
# PCOD9338000 Si02
#       8
#     4   4   4   4   4   4   4   4
#     4  10  18  34  59  85 116 154 198 248 291 347
#     4  10  20  38  62  87 118 157 200 247 300 359
#     4  10  21  38  62  93 122 157 202 252 311 363
#     4   9  18  35  61  86 109 146 197 247 292 346
#     4  11  23  40  65  92 120 161 210 254 298 359
#     4  10  22  40  62  88 123 159 194 249 308 360
#     4  10  22  42  63  87 119 160 204 251 301 352
#     4  12  24  35  54  88 125 162 197 240 301 368
#
# _framework density 23.543132
#
# number of rings (size 3 to 8) (size 9 to 14) (size 15 to 20)
#    0.000    1.750    1.250    3.375    0.000    5.000 
#    2.250    0.000    0.000    0.000    0.000    0.000 
#    0.000    0.000    0.000    0.000    0.000    0.000 
#
# Total GULP energy -178965.648475 kJ/mol
# GULP energy per Si atom -5592.676515 kJ/mol
# Density = 2.348955 g / cm^3
# Si number density = 23.543132 Si / 1000 Ang^3
#
#
#
# Elastic Constant Matrix: (Units=GPa)
#
#
# Indices 1 2 3 4 5 6 
#
# 1 14.2276 -3.5832 -11.2757 0.0000 0.0000 0.0000
# 2 -3.5832 61.3832 4.0184 0.0000 0.0000 0.0000
# 3 -11.2757 4.0184 105.8226 0.0000 0.0000 0.0000
# 4 0.0000 0.0000 0.0000 37.6166 0.0000 0.0000
# 5 0.0000 0.0000 0.0000 0.0000 18.6701 0.0000
# 6 0.0000 0.0000 0.0000 0.0000 0.0000 15.9059
#
#
#
# Elastic Compliance Matrix: (Units=1/GPa)
#
#
# Indices 1 2 3 4 5 6 
#
# 1 0.077739 0.004006 0.008131 0.000000 0.000000 0.000000
# 2 0.004006 0.016538 -0.000201 0.000000 0.000000 0.000000
# 3 0.008131 -0.000201 0.010324 0.000000 0.000000 0.000000
# 4 0.000000 0.000000 0.000000 0.026584 0.000000 0.000000
# 5 0.000000 0.000000 0.000000 0.000000 0.053562 0.000000
# 6 0.000000 0.000000 0.000000 0.000000 0.000000 0.062870
#
#
# Mechanical properties :
#
#
# Convention : Reuss Voigt Hill
#
# Bulk Modulus (GPa) = 7.78380 17.75029 12.76705
# Shear Modulus (GPa) = 18.75688 27.25678 23.00683
#
# Velocity S-wave (km/s) = 2.82565 3.40625 3.12944
# Velocity P-wave (km/s) = 3.73619 4.79853 4.30029
#
# Compressibility (1/GPa) = 0.12847192
#
# Stress axis : x y z
#
# Youngs Moduli (GPa) = 12.86358 60.46648 96.86343
#
# Poissons Ratio (x) = -0.24220 -0.78761
# Poissons Ratio (y) = -0.05153 0.01949
# Poissons Ratio (z) = -0.10460 0.01217
#
# Static dielectric constant tensor:
#      x y z
#    x 1.791950 0.000000 0.000000 
#    y 0.000000 1.945150 0.000000 
#    z 0.000000 0.000000 1.942370 
# 
# From -- ./inp_files/4160.got.cif
#   From: 2010.05.17/outbox.cif.g08.bks.cpg/sg26_3_cif.got.tgz:4160.got - 2010.06.04 01:07:29.
