data_PCOD9339136
_publ_section_title
;
Structure prediction by ZEFSAII (Michael W. Deem and Ramdas Pophale) SiO2 
 PCOD9339136
Probable space group: P C C 2
;
_chemical_formula_sum "Si O2"
_cell_formula_units_Z 18
_cell_length_a 5.338618
_cell_length_b 5.345509
_cell_length_c 24.960739
_cell_angle_alpha 90.000000
_cell_angle_beta 90.000000
_cell_angle_gamma 90.000000
_cell_volume 712.320348
_symmetry_space_group_name_H-M "P C C 2"
_symmetry_group_IT_number 27
_symmetry_cell_setting 'orthorhombic'
loop_
_space_group_symop_operation_xyz
x,y,z
-x,-y,z
-x,y,1/2+z
x,-y,1/2+z
loop_
_atom_site_type_symbol
_atom_site_label
_atom_site_fract_x
_atom_site_fract_y
_atom_site_fract_z
Si Si1 0.500000 0.000000 0.495360
Si Si2 0.248422 0.672412 0.412141
Si Si3 0.860797 0.257454 0.064775
Si Si4 0.656006 0.242104 0.177961
Si Si5 0.752188 0.332677 0.294257
O O1 0.291173 0.884791 0.456079
O O2 0.600042 0.783344 0.534479
O O3 0.500000 0.500000 0.414846
O O4 0.242276 0.794473 0.352408
O O5 0.000000 0.500000 0.417898
O O6 0.842499 0.277535 0.128936
O O7 0.000000 0.500000 0.044056
O O8 0.000000 0.000000 0.054208
O O9 0.500000 0.500000 0.180190
O O10 0.751249 0.187434 0.238064
O O11 0.500000 0.000000 0.161649
O O12 0.500000 0.500000 0.294456
O O13 0.000000 0.500000 0.292060
#
# Coordination Sequence:
#
# PCOD9339136 Si02
#       5
#     2   4   4   4   4
#     4  12  30  46  74 112 158 214 270 338 390 488
#     4  10  25  47  76 109 156 205 266 327 400 474
#     4  12  29  49  77 112 153 208 267 327 401 475
#     4  11  23  45  76 111 153 196 256 324 401 476
#     4   9  20  43  72 110 148 199 252 322 396 476
#
# _framework density 25.26953
#
# number of rings (size 3 to 8) (size 9 to 14) (size 15 to 20)
#    0.000    1.333    1.111    2.000    7.778    1.778 
#    0.000    0.000    0.000    0.000    0.000    0.000 
#    0.000    0.000    0.000    0.000    0.000    0.000 
#
# Total GULP energy -100789.029228 kJ/mol
# GULP energy per Si atom -5599.390513 kJ/mol
# Density = 2.521202 g / cm^3
# Si number density = 25.269530 Si / 1000 Ang^3
#
#
#
# Elastic Constant Matrix: (Units=GPa)
#
#
# Indices 1 2 3 4 5 6 
#
# 1 132.9592 46.9365 30.0089 0.0000 0.0000 0.0000
# 2 46.9365 131.7735 33.8871 0.0000 0.0000 0.0000
# 3 30.0089 33.8871 204.9665 0.0000 0.0000 0.0000
# 4 0.0000 0.0000 0.0000 32.9829 0.0000 0.0000
# 5 0.0000 0.0000 0.0000 0.0000 9.1241 0.0000
# 6 0.0000 0.0000 0.0000 0.0000 0.0000 54.4035
#
#
#
# Elastic Compliance Matrix: (Units=1/GPa)
#
#
# Indices 1 2 3 4 5 6 
#
# 1 0.008726 -0.002903 -0.000798 0.000000 0.000000 0.000000
# 2 -0.002903 0.008892 -0.001045 0.000000 0.000000 0.000000
# 3 -0.000798 -0.001045 0.005168 0.000000 0.000000 0.000000
# 4 0.000000 0.000000 0.000000 0.030319 0.000000 0.000000
# 5 0.000000 0.000000 0.000000 0.000000 0.109599 0.000000
# 6 0.000000 0.000000 0.000000 0.000000 0.000000 0.018381
#
#
# Mechanical properties :
#
#
# Convention : Reuss Voigt Hill
#
# Bulk Modulus (GPa) = 75.21820 76.81824 76.01822
# Shear Modulus (GPa) = 25.63998 43.22654 34.43326
#
# Velocity S-wave (km/s) = 3.18883 4.14045 3.69540
# Velocity P-wave (km/s) = 6.58704 7.30228 6.95386
#
# Compressibility (1/GPa) = 0.01329465
#
# Stress axis : x y z
#
# Youngs Moduli (GPa) = 114.60112 112.46655 193.48369
#
# Poissons Ratio (x) = 0.32649 0.15432
# Poissons Ratio (y) = 0.33268 0.20219
# Poissons Ratio (z) = 0.09141 0.11753
#
# Static dielectric constant tensor:
#      x y z
#    x 2.053750 0.000000 0.000000 
#    y 0.000000 1.990270 0.000000 
#    z 0.000000 0.000000 2.008190 
# 
# From -- ./inp_files/4915.got.cif
#   From: 2010.05.17/outbox.cif.g08.bks.cpg/sg27_3_cif.got.tgz:4915.got - 2010.06.04 01:11:05.
