data_PCOD9339474
_publ_section_title
;
Structure prediction by ZEFSAII (Michael W. Deem and Ramdas Pophale) SiO2 
 PCOD9339474
Probable space group: P M A 2
;
_chemical_formula_sum "Si O2"
_cell_formula_units_Z 32
_cell_length_a 7.834664
_cell_length_b 15.160668
_cell_length_c 12.836419
_cell_angle_alpha 90.000000
_cell_angle_beta 90.000000
_cell_angle_gamma 90.000000
_cell_volume 1524.693672
_symmetry_space_group_name_H-M "P M A 2"
_symmetry_group_IT_number 28
_symmetry_cell_setting 'orthorhombic'
loop_
_space_group_symop_operation_xyz
x,y,z
-x,-y,z
1/2-x,y,z
1/2+x,-y,z
loop_
_atom_site_type_symbol
_atom_site_label
_atom_site_fract_x
_atom_site_fract_y
_atom_site_fract_z
Si Si1 0.445869 0.872000 0.667750
Si Si2 0.452519 0.594123 0.797957
Si Si3 0.043872 0.603376 0.176722
Si Si4 0.044298 0.904972 0.438054
Si Si5 0.455473 0.903658 0.899375
Si Si6 0.545054 0.287846 0.375906
Si Si7 0.041279 0.719921 0.980948
Si Si8 0.554668 0.685891 0.605830
O O1 0.250000 0.903641 0.669553
O O2 0.523763 0.903364 0.557866
O O3 0.522991 0.895794 0.779737
O O4 0.447605 0.766376 0.654487
O O5 0.500000 0.500000 0.844410
O O6 0.250000 0.600062 0.787504
O O7 0.512104 0.670107 0.875757
O O8 0.533800 0.605861 0.684794
O O9 0.250000 0.607472 0.176798
O O10 0.980599 0.652183 0.281551
O O11 0.000000 0.500000 0.170759
O O12 0.983222 0.662157 0.078925
O O13 0.250000 0.898521 0.443681
O O14 0.984640 0.814709 0.382236
O O15 0.000000 0.000000 0.391097
O O16 0.250000 0.896035 0.892810
O O17 0.514573 0.821214 0.968906
O O18 0.500000 0.000000 0.940296
O O19 0.750000 0.284125 0.366482
O O20 0.502306 0.329130 0.488097
O O21 0.250000 0.719280 0.983891
O O22 0.750000 0.714911 0.604574
#
# Coordination Sequence:
#
# PCOD9339474 Si02
#       8
#     4   4   4   4   4   4   4   4
#     4   9  17  32  51  73 110 155 190 225 275 328
#     4  11  21  36  56  81 114 148 183 225 281 342
#     4  10  21  40  65  87 106 140 188 236 285 340
#     4   9  17  29  48  75 107 146 187 223 269 323
#     4  10  19  33  53  80 114 154 191 227 275 331
#     4   9  20  38  57  78 111 150 186 229 284 339
#     4   9  19  37  60  82 112 149 184 228 284 338
#     4  11  21  33  53  82 114 148 187 229 278 333
#
# _framework density 20.987821
#
# number of rings (size 3 to 8) (size 9 to 14) (size 15 to 20)
#    0.000    2.250    1.250    3.000    0.000    3.500 
#    0.000    3.125    0.000    0.000    0.000    0.000 
#    0.000    0.000    0.000    0.000    0.000    0.000 
#
# Total GULP energy -178530.130388 kJ/mol
# GULP energy per Si atom -5579.066575 kJ/mol
# Density = 2.094005 g / cm^3
# Si number density = 20.987821 Si / 1000 Ang^3
#
#
#
# Elastic Constant Matrix: (Units=GPa)
#
#
# Indices 1 2 3 4 5 6 
#
# 1 31.5728 8.3298 9.2908 0.0000 0.0000 0.0000
# 2 8.3298 169.5754 84.9299 0.0000 0.0000 0.0000
# 3 9.2908 84.9299 123.5997 0.0000 0.0000 0.0000
# 4 0.0000 0.0000 0.0000 18.4955 0.0000 0.0000
# 5 0.0000 0.0000 0.0000 0.0000 -3.3228 0.0000
# 6 0.0000 0.0000 0.0000 0.0000 0.0000 26.7597
#
#
#
# Elastic Compliance Matrix: (Units=1/GPa)
#
#
# Indices 1 2 3 4 5 6 
#
# 1 0.032425 -0.000567 -0.002048 0.000000 0.000000 0.000000
# 2 -0.000567 0.009001 -0.006143 0.000000 0.000000 0.000000
# 3 -0.002048 -0.006143 0.012465 0.000000 0.000000 0.000000
# 4 0.000000 0.000000 0.000000 0.054067 0.000000 0.000000
# 5 0.000000 0.000000 0.000000 0.000000 -0.300950 0.000000
# 6 0.000000 0.000000 0.000000 0.000000 0.000000 0.037370
#
#
# Mechanical properties :
#
#
# Convention : Reuss Voigt Hill
#
# Bulk Modulus (GPa) = 27.48992 58.87210 43.18101
# Shear Modulus (GPa) = -39.68844 23.19964 -8.24440
#
# Velocity S-wave (km/s) = -4.35331 3.32834 -1.98411
# Velocity P-wave (km/s) = 3.48452 6.54843 3.92046
#
# Compressibility (1/GPa) = 0.03637697
#
# Stress axis : x y z
#
# Youngs Moduli (GPa) = 30.84040 111.09435 80.22268
#
# Poissons Ratio (x) = 0.06302 0.16426
# Poissons Ratio (y) = 0.01749 0.49277
# Poissons Ratio (z) = 0.06315 0.68240
#
# Static dielectric constant tensor:
#      x y z
#    x 1.777430 0.000000 0.000000 
#    y 0.000000 1.791090 0.000000 
#    z 0.000000 0.000000 1.747880 
# 
# From -- ./inp_files/4975.got.cif
#   From: 2010.05.17/outbox.cif.g08.bks.cpg/sg28_3_cif.got.tgz:4975.got - 2010.06.04 01:15:21.
