data_PCOD9339688
_publ_section_title
;
Structure prediction by ZEFSAII (Michael W. Deem and Ramdas Pophale) SiO2 
 PCOD9339688
Probable space group: P M A 2
;
_chemical_formula_sum "Si O2"
_cell_formula_units_Z 32
_cell_length_a 24.091452
_cell_length_b 11.675417
_cell_length_c 5.292911
_cell_angle_alpha 90.000000
_cell_angle_beta 90.000000
_cell_angle_gamma 90.000000
_cell_volume 1488.778088
_symmetry_space_group_name_H-M "P M A 2"
_symmetry_group_IT_number 28
_symmetry_cell_setting 'orthorhombic'
loop_
_space_group_symop_operation_xyz
x,y,z
-x,-y,z
1/2-x,y,z
1/2+x,-y,z
loop_
_atom_site_type_symbol
_atom_site_label
_atom_site_fract_x
_atom_site_fract_y
_atom_site_fract_z
Si Si1 0.815002 0.275393 0.002020
Si Si2 0.007861 0.137247 0.413428
Si Si3 0.571073 0.878271 0.908708
Si Si4 0.404463 0.881003 0.720665
Si Si5 0.690684 0.087137 0.385179
Si Si6 0.317325 0.456624 0.993478
Si Si7 0.188914 0.137169 0.118861
Si Si8 0.316134 0.330009 0.492177
O O1 0.750000 0.262666 0.914255
O O2 0.814613 0.215257 0.278208
O O3 0.863348 0.206741 0.857898
O O4 0.829148 0.408622 0.989918
O O5 0.032081 0.166037 0.138376
O O6 0.949314 0.177035 0.534256
O O7 0.051024 0.164009 0.636857
O O8 0.000000 0.000000 0.410461
O O9 0.634007 0.842534 0.961883
O O10 0.569173 0.019383 0.896275
O O11 0.361865 0.948420 0.542724
O O12 0.750000 0.072743 0.517562
O O13 0.691875 0.998886 0.154157
O O14 0.250000 0.449175 0.000117
O O15 0.337673 0.385202 0.750736
O O16 0.338454 0.400701 0.251837
O O17 0.250000 0.176311 0.022101
O O18 0.180566 0.199388 0.390483
O O19 0.250000 0.350996 0.505819
#
# Coordination Sequence:
#
# PCOD9339688 Si02
#       8
#     4   4   4   4   4   4   4   4
#     4  10  21  35  55  87 124 160 192 237 300 361
#     4  10  22  36  55  76 110 156 198 240 274 337
#     4  11  22  37  54  81 114 150 193 240 290 344
#     4  11  22  34  59  80 120 159 204 235 292 358
#     4  10  21  34  52  86 126 159 191 235 300 367
#     4   9  19  35  54  78 113 152 197 239 278 336
#     4  10  20  36  58  84 118 152 188 236 299 366
#     4   9  19  35  54  78 107 151 198 237 279 338
#
# _framework density 21.494135
#
# number of rings (size 3 to 8) (size 9 to 14) (size 15 to 20)
#    0.000    2.000    1.250    3.000    3.500    2.500 
#    0.000    4.375    0.000    0.000    0.000    5.250 
#    0.000    0.000    0.000    0.000    0.000    0.000 
#
# Total GULP energy -178446.834462 kJ/mol
# GULP energy per Si atom -5576.463577 kJ/mol
# Density = 2.144521 g / cm^3
# Si number density = 21.494135 Si / 1000 Ang^3
#
#
#
# Elastic Constant Matrix: (Units=GPa)
#
#
# Indices 1 2 3 4 5 6 
#
# 1 112.1587 4.0180 35.3664 0.0000 0.0000 0.0000
# 2 4.0180 88.4855 28.5018 0.0000 0.0000 0.0000
# 3 35.3664 28.5018 113.1567 0.0000 0.0000 0.0000
# 4 0.0000 0.0000 0.0000 21.5604 0.0000 0.0000
# 5 0.0000 0.0000 0.0000 0.0000 28.9842 0.0000
# 6 0.0000 0.0000 0.0000 0.0000 0.0000 5.5738
#
#
#
# Elastic Compliance Matrix: (Units=1/GPa)
#
#
# Indices 1 2 3 4 5 6 
#
# 1 0.009920 0.000597 -0.003251 0.000000 0.000000 0.000000
# 2 0.000597 0.012335 -0.003293 0.000000 0.000000 0.000000
# 3 -0.003251 -0.003293 0.010683 0.000000 0.000000 0.000000
# 4 0.000000 0.000000 0.000000 0.046381 0.000000 0.000000
# 5 0.000000 0.000000 0.000000 0.000000 0.034502 0.000000
# 6 0.000000 0.000000 0.000000 0.000000 0.000000 0.179411
#
#
# Mechanical properties :
#
#
# Convention : Reuss Voigt Hill
#
# Bulk Modulus (GPa) = 47.52257 49.95259 48.73758
# Shear Modulus (GPa) = 16.01845 27.61799 21.81822
#
# Velocity S-wave (km/s) = 2.73288 3.58845 3.18948
# Velocity P-wave (km/s) = 5.66708 6.36081 6.02394
#
# Compressibility (1/GPa) = 0.02104263
#
# Stress axis : x y z
#
# Youngs Moduli (GPa) = 100.81102 81.06995 93.60850
#
# Poissons Ratio (x) = -0.04837 0.30428
# Poissons Ratio (y) = -0.06014 0.30829
# Poissons Ratio (z) = 0.32769 0.26700
#
# Static dielectric constant tensor:
#      x y z
#    x 1.822800 0.000000 0.000000 
#    y 0.000000 1.776920 0.000000 
#    z 0.000000 0.000000 1.880130 
# 
# From -- ./inp_files/1615.got.cif
#   From: 2010.05.17/outbox.cif.g08.bks.cpg/sg28_1_cif.got.tgz:1615.got - 2010.06.04 01:15:21.
