data_PCOD9339087
_publ_section_title
;
Structure prediction by ZEFSAII (Michael W. Deem and Ramdas Pophale) SiO2 
 PCOD9339087
Probable space group: P C C 2
;
_chemical_formula_sum "Si O2"
_cell_formula_units_Z 16
_cell_length_a 7.564164
_cell_length_b 7.736570
_cell_length_c 10.763973
_cell_angle_alpha 90.000000
_cell_angle_beta 90.000000
_cell_angle_gamma 90.000000
_cell_volume 629.915066
_symmetry_space_group_name_H-M "P C C 2"
_symmetry_group_IT_number 27
_symmetry_cell_setting 'orthorhombic'
loop_
_space_group_symop_operation_xyz
x,y,z
-x,-y,z
-x,y,1/2+z
x,-y,1/2+z
loop_
_atom_site_type_symbol
_atom_site_label
_atom_site_fract_x
_atom_site_fract_y
_atom_site_fract_z
Si Si1 0.832924 0.219769 0.310550
Si Si2 0.194250 0.492419 0.518350
Si Si3 0.490812 0.331283 0.197966
Si Si4 0.782616 0.155742 0.852527
O O1 0.831007 0.380455 0.402045
O O2 0.691174 0.258226 0.202594
O O3 0.036478 0.190063 0.276399
O O4 0.783551 0.045688 0.387486
O O5 0.355046 0.581069 0.596409
O O6 0.227280 0.302188 0.458605
O O7 0.000000 0.500000 0.583920
O O8 0.500000 0.500000 0.287637
O O9 0.378788 0.183898 0.261210
#
# Coordination Sequence:
#
# PCOD9339087 Si02
#       4
#     4   4   4   4
#     4  10  23  49  72  98 138 184 236 284 351 415
#     4  10  24  45  70 102 142 184 236 290 349 417
#     4  12  25  40  71 104 137 178 230 292 348 415
#     4  10  23  49  72  97 138 188 229 289 348 419
#
# _framework density 25.40025
#
# number of rings (size 3 to 8) (size 9 to 14) (size 15 to 20)
#    0.000    1.500    2.500    0.750    7.000    0.000 
#    9.000    2.500    0.000    0.000    0.000    0.000 
#    0.000    0.000    0.000    0.000    0.000    0.000 
#
# Total GULP energy -89122.856041 kJ/mol
# GULP energy per Si atom -5570.178503 kJ/mol
# Density = 2.534244 g / cm^3
# Si number density = 25.400250 Si / 1000 Ang^3
#
#
#
# Elastic Constant Matrix: (Units=GPa)
#
#
# Indices 1 2 3 4 5 6 
#
# 1 198.1547 -1.1642 59.9552 0.0000 0.0000 0.0000
# 2 -1.1642 167.6319 39.7358 0.0000 0.0000 0.0000
# 3 59.9552 39.7358 59.8328 0.0000 0.0000 0.0000
# 4 0.0000 0.0000 0.0000 4.3986 0.0000 0.0000
# 5 0.0000 0.0000 0.0000 0.0000 58.8594 0.0000
# 6 0.0000 0.0000 0.0000 0.0000 0.0000 36.0251
#
#
#
# Elastic Compliance Matrix: (Units=1/GPa)
#
#
# Indices 1 2 3 4 5 6 
#
# 1 0.007925 0.002299 -0.009468 0.000000 0.000000 0.000000
# 2 0.002299 0.007747 -0.007449 0.000000 0.000000 0.000000
# 3 -0.009468 -0.007449 0.031148 0.000000 0.000000 0.000000
# 4 0.000000 0.000000 0.000000 0.227345 0.000000 0.000000
# 5 0.000000 0.000000 0.000000 0.000000 0.016990 0.000000
# 6 0.000000 0.000000 0.000000 0.000000 0.000000 0.027758
#
#
# Mechanical properties :
#
#
# Convention : Reuss Voigt Hill
#
# Bulk Modulus (GPa) = 56.86942 69.18588 63.02765
# Shear Modulus (GPa) = 14.12391 41.66279 27.89335
#
# Velocity S-wave (km/s) = 2.36064 4.05440 3.31743
# Velocity P-wave (km/s) = 5.46517 7.01533 6.28820
#
# Compressibility (1/GPa) = 0.01758414
#
# Stress axis : x y z
#
# Youngs Moduli (GPa) = 126.18624 129.07958 32.10514
#
# Poissons Ratio (x) = -0.29680 0.30397
# Poissons Ratio (y) = -0.29015 0.23915
# Poissons Ratio (z) = 1.19474 0.96152
#
# Static dielectric constant tensor:
#      x y z
#    x 1.448570 0.000000 0.000000 
#    y 0.000000 2.108700 0.000000 
#    z 0.000000 0.000000 2.059900 
# 
# From -- ./inp_files/2172.got.cif
#   From: 2010.05.17/outbox.cif.g08.bks.cpg/sg27_2_cif.got.tgz:2172.got - 2010.06.04 01:11:05.
