data_PCOD9339852
_publ_section_title
;
Structure prediction by ZEFSAII (Michael W. Deem and Ramdas Pophale) SiO2 
 PCOD9339852
Probable space group: P M A 2
;
_chemical_formula_sum "Si O2"
_cell_formula_units_Z 14
_cell_length_a 20.426734
_cell_length_b 5.666346
_cell_length_c 4.795290
_cell_angle_alpha 90.000000
_cell_angle_beta 90.000000
_cell_angle_gamma 90.000000
_cell_volume 555.030565
_symmetry_space_group_name_H-M "P M A 2"
_symmetry_group_IT_number 28
_symmetry_cell_setting 'orthorhombic'
loop_
_space_group_symop_operation_xyz
x,y,z
-x,-y,z
1/2-x,y,z
1/2+x,-y,z
loop_
_atom_site_type_symbol
_atom_site_label
_atom_site_fract_x
_atom_site_fract_y
_atom_site_fract_z
Si Si1 0.176831 0.934601 0.563090
Si Si2 0.432510 0.607378 0.428076
Si Si3 0.000000 0.000000 0.048693
Si Si4 0.628299 0.790907 0.031912
O O1 0.250000 0.836304 0.576119
O O2 0.122024 0.732134 0.622644
O O3 0.159835 0.029904 0.255996
O O4 0.172910 0.164482 0.763812
O O5 0.500000 0.500000 0.556119
O O6 0.393152 0.431544 0.220073
O O7 0.464611 0.810394 0.241034
O O8 0.058842 0.127144 0.897735
#
# Coordination Sequence:
#
# PCOD9339852 Si02
#       4
#     4   4   2   4
#     4  11  24  41  62  94 135 178 229 283 340 415
#     4   9  20  42  69  98 132 177 231 288 346 407
#     4   8  18  38  64  96 126 160 216 280 334 400
#     4  10  22  40  63  91 127 171 219 277 342 405
#
# _framework density 25.223835999999999
#
# number of rings (size 3 to 8) (size 9 to 14) (size 15 to 20)
#    0.000    2.286    0.000    0.857    0.000   13.714 
#    0.000   18.571    0.000    0.000    0.000    0.000 
#    0.000    0.000    0.000    0.000    0.000    0.000 
#
# Total GULP energy -78024.648441 kJ/mol
# GULP energy per Si atom -5573.189174 kJ/mol
# Density = 2.516643 g / cm^3
# Si number density = 25.223836 Si / 1000 Ang^3
#
#
#
# Elastic Constant Matrix: (Units=GPa)
#
#
# Indices 1 2 3 4 5 6 
#
# 1 195.9820 63.4291 31.5862 0.0000 0.0000 0.0000
# 2 63.4291 90.0080 15.0724 0.0000 0.0000 0.0000
# 3 31.5862 15.0724 86.1772 0.0000 0.0000 0.0000
# 4 0.0000 0.0000 0.0000 29.1258 0.0000 0.0000
# 5 0.0000 0.0000 0.0000 0.0000 3.4185 0.0000
# 6 0.0000 0.0000 0.0000 0.0000 0.0000 31.8166
#
#
#
# Elastic Compliance Matrix: (Units=1/GPa)
#
#
# Indices 1 2 3 4 5 6 
#
# 1 0.006848 -0.004538 -0.001716 0.000000 0.000000 0.000000
# 2 -0.004538 0.014453 -0.000864 0.000000 0.000000 0.000000
# 3 -0.001716 -0.000864 0.012384 0.000000 0.000000 0.000000
# 4 0.000000 0.000000 0.000000 0.034334 0.000000 0.000000
# 5 0.000000 0.000000 0.000000 0.000000 0.292526 0.000000
# 6 0.000000 0.000000 0.000000 0.000000 0.000000 0.031430
#
#
# Mechanical properties :
#
#
# Convention : Reuss Voigt Hill
#
# Bulk Modulus (GPa) = 51.42108 65.81585 58.61847
# Shear Modulus (GPa) = 12.11546 30.34414 21.22980
#
# Velocity S-wave (km/s) = 2.19399 3.47218 2.90428
# Velocity P-wave (km/s) = 5.18153 6.49801 5.87675
#
# Compressibility (1/GPa) = 0.01944728
#
# Stress axis : x y z
#
# Youngs Moduli (GPa) = 146.02911 69.18926 80.74801
#
# Poissons Ratio (x) = 0.31401 0.13858
# Poissons Ratio (y) = 0.66274 0.06980
# Poissons Ratio (z) = 0.25061 0.05981
#
# Static dielectric constant tensor:
#      x y z
#    x 2.050050 0.000000 0.000000 
#    y 0.000000 2.105830 0.000000 
#    z 0.000000 0.000000 1.937210 
# 
# From -- ./inp_files/1300.got.cif
#   From: 2010.05.17/outbox.cif.g08.bks.cpg/sg28_1_cif.got.tgz:1300.got - 2010.06.04 01:15:21.
