data_PCOD9339353
_publ_section_title
;
Structure prediction by ZEFSAII (Michael W. Deem and Ramdas Pophale) SiO2 
 PCOD9339353
Probable space group: P M A 2
;
_chemical_formula_sum "Si O2"
_cell_formula_units_Z 32
_cell_length_a 7.756338
_cell_length_b 15.869419
_cell_length_c 12.334816
_cell_angle_alpha 90.000000
_cell_angle_beta 90.000000
_cell_angle_gamma 90.000000
_cell_volume 1518.274957
_symmetry_space_group_name_H-M "P M A 2"
_symmetry_group_IT_number 28
_symmetry_cell_setting 'orthorhombic'
loop_
_space_group_symop_operation_xyz
x,y,z
-x,-y,z
1/2-x,y,z
1/2+x,-y,z
loop_
_atom_site_type_symbol
_atom_site_label
_atom_site_fract_x
_atom_site_fract_y
_atom_site_fract_z
Si Si1 0.461929 0.253152 0.740080
Si Si2 0.051578 0.595040 0.117142
Si Si3 0.043169 0.094198 0.599288
Si Si4 0.450640 0.244861 0.984477
Si Si5 0.043128 0.406273 0.589483
Si Si6 0.541369 0.651142 0.355051
Si Si7 0.957526 0.906595 0.131937
Si Si8 0.539810 0.848520 0.364569
O O1 0.250000 0.255273 0.739738
O O2 0.516761 0.167802 0.679350
O O3 0.523222 0.255368 0.863936
O O4 0.519699 0.333398 0.669739
O O5 0.250000 0.606578 0.090795
O O6 0.000000 0.500000 0.088910
O O7 0.024634 0.609105 0.245450
O O8 0.957068 0.668946 0.052356
O O9 0.250000 0.101374 0.595016
O O10 0.977672 0.111391 0.476980
O O11 0.000000 0.000000 0.634382
O O12 0.250000 0.223015 0.968509
O O13 0.525464 0.168412 0.055776
O O14 0.250000 0.398278 0.584579
O O15 0.979628 0.391181 0.466494
O O16 0.000000 0.500000 0.626347
O O17 0.750000 0.646697 0.351096
O O18 0.493827 0.749839 0.358570
O O19 0.750000 0.898548 0.136800
O O20 0.021744 0.893435 0.255167
O O21 0.000000 0.000000 0.092788
O O22 0.750000 0.851916 0.365907
#
# Coordination Sequence:
#
# PCOD9339353 Si02
#       8
#     4   4   4   4   4   4   4   4
#     4   9  19  37  60  82 108 150 196 232 276 335
#     4  12  25  40  60  87 117 149 187 235 287 344
#     4  10  19  34  56  83 114 150 189 231 280 338
#     4  10  21  40  62  82 110 152 199 241 284 334
#     4  10  20  35  58  85 113 145 182 228 278 335
#     4  10  18  35  61  85 114 150 187 228 281 343
#     4  10  20  34  55  81 111 148 187 232 283 335
#     4   9  16  31  56  81 110 149 188 226 279 340
#
# _framework density 21.076552
#
# number of rings (size 3 to 8) (size 9 to 14) (size 15 to 20)
#    0.000    2.000    2.500    1.875    0.000    3.000 
#    0.000    3.750    0.000    0.000    0.000    0.000 
#    0.000    0.000    0.000    0.000    0.000    0.000 
#
# Total GULP energy -178777.850337 kJ/mol
# GULP energy per Si atom -5586.807823 kJ/mol
# Density = 2.102858 g / cm^3
# Si number density = 21.076552 Si / 1000 Ang^3
#
#
#
# Elastic Constant Matrix: (Units=GPa)
#
#
# Indices 1 2 3 4 5 6 
#
# 1 27.0454 -12.9656 -1.1299 0.0000 0.0000 0.0000
# 2 -12.9656 173.6481 78.6182 0.0000 0.0000 0.0000
# 3 -1.1299 78.6182 158.9954 0.0000 0.0000 0.0000
# 4 0.0000 0.0000 0.0000 2.5068 0.0000 0.0000
# 5 0.0000 0.0000 0.0000 0.0000 -7.9444 0.0000
# 6 0.0000 0.0000 0.0000 0.0000 0.0000 18.7208
#
#
#
# Elastic Compliance Matrix: (Units=1/GPa)
#
#
# Indices 1 2 3 4 5 6 
#
# 1 0.038617 0.003555 -0.001483 0.000000 0.000000 0.000000
# 2 0.003555 0.007747 -0.003805 0.000000 0.000000 0.000000
# 3 -0.001483 -0.003805 0.008161 0.000000 0.000000 0.000000
# 4 0.000000 0.000000 0.000000 0.398911 0.000000 0.000000
# 5 0.000000 0.000000 0.000000 0.000000 -0.125874 0.000000
# 6 0.000000 0.000000 0.000000 0.000000 0.000000 0.053417
#
#
# Mechanical properties :
#
#
# Convention : Reuss Voigt Hill
#
# Bulk Modulus (GPa) = 19.58590 54.30383 36.94486
# Shear Modulus (GPa) = 12.45438 22.33438 17.39438
#
# Velocity S-wave (km/s) = 2.43350 3.25880 2.87591
# Velocity P-wave (km/s) = 4.14835 6.32303 5.34741
#
# Compressibility (1/GPa) = 0.05105713
#
# Stress axis : x y z
#
# Youngs Moduli (GPa) = 25.89525 129.08065 122.53986
#
# Poissons Ratio (x) = -0.45888 0.18178
# Poissons Ratio (y) = -0.09206 0.46632
# Poissons Ratio (z) = 0.03841 0.49121
#
# Static dielectric constant tensor:
#      x y z
#    x 1.773910 0.000000 0.000000 
#    y 0.000000 1.658730 0.000000 
#    z 0.000000 0.000000 1.746210 
# 
# From -- ./inp_files/5049.got.cif
#   From: 2010.05.17/outbox.cif.g08.bks.cpg/sg28_3_cif.got.tgz:5049.got - 2010.06.04 01:15:21.
