data_PCOD9339790
_publ_section_title
;
Structure prediction by ZEFSAII (Michael W. Deem and Ramdas Pophale) SiO2 
 PCOD9339790
Probable space group: P M A 2
;
_chemical_formula_sum "Si O2"
_cell_formula_units_Z 24
_cell_length_a 8.702202
_cell_length_b 9.755524
_cell_length_c 15.202099
_cell_angle_alpha 90.000000
_cell_angle_beta 90.000000
_cell_angle_gamma 90.000000
_cell_volume 1290.575209
_symmetry_space_group_name_H-M "P M A 2"
_symmetry_group_IT_number 28
_symmetry_cell_setting 'orthorhombic'
loop_
_space_group_symop_operation_xyz
x,y,z
-x,-y,z
1/2-x,y,z
1/2+x,-y,z
loop_
_atom_site_type_symbol
_atom_site_label
_atom_site_fract_x
_atom_site_fract_y
_atom_site_fract_z
Si Si1 0.566417 0.848082 0.246820
Si Si2 0.066199 0.153000 0.744367
Si Si3 0.433021 0.648895 0.391596
Si Si4 0.434229 0.650277 0.893279
Si Si5 0.565176 0.648076 0.087310
Si Si6 0.933984 0.350200 0.598337
O O1 0.750000 0.854134 0.252053
O O2 0.503325 0.764806 0.330153
O O3 0.525534 0.761460 0.159585
O O4 0.500000 0.000000 0.243360
O O5 0.250000 0.149917 0.748483
O O6 0.999347 0.237536 0.826783
O O7 0.010806 0.235524 0.658372
O O8 0.000000 0.000000 0.743683
O O9 0.500000 0.500000 0.367484
O O10 0.250000 0.645843 0.380967
O O11 0.467129 0.672287 0.494893
O O12 0.500000 0.500000 0.869209
O O13 0.250000 0.646820 0.890404
O O14 0.492079 0.678493 0.992332
O O15 0.500000 0.500000 0.115421
O O16 0.750000 0.639347 0.078720
O O17 0.750000 0.349685 0.610996
O O18 0.000000 0.500000 0.621985
#
# Coordination Sequence:
#
# PCOD9339790 Si02
#       6
#     4   4   4   4   4   4
#     4  11  24  39  58  84 118 156 195 238 289 345
#     4  12  25  41  60  85 118 155 193 237 288 346
#     4  10  21  38  62  88 117 151 193 240 287 340
#     4  11  22  39  63  89 117 152 193 239 286 339
#     4  10  21  38  60  87 115 149 193 241 289 341
#     4  10  21  39  62  89 117 151 193 239 287 339
#
# _framework density 18.596359
#
# number of rings (size 3 to 8) (size 9 to 14) (size 15 to 20)
#    0.000    1.333    0.000    7.000    0.000    7.333 
#    0.000    1.667    0.000    0.000    0.000    0.000 
#    0.000    0.000    0.000    0.000    0.000    0.000 
#
# Total GULP energy -134247.296821 kJ/mol
# GULP energy per Si atom -5593.637368 kJ/mol
# Density = 1.855403 g / cm^3
# Si number density = 18.596359 Si / 1000 Ang^3
#
#
#
# Elastic Constant Matrix: (Units=GPa)
#
#
# Indices 1 2 3 4 5 6 
#
# 1 127.8866 90.8735 75.7718 0.0000 0.0000 0.0000
# 2 90.8735 203.1550 121.8858 0.0000 0.0000 0.0000
# 3 75.7718 121.8858 111.6604 0.0000 0.0000 0.0000
# 4 0.0000 0.0000 0.0000 -41.4003 0.0000 0.0000
# 5 0.0000 0.0000 0.0000 0.0000 41.5323 0.0000
# 6 0.0000 0.0000 0.0000 0.0000 0.0000 38.6861
#
#
#
# Elastic Compliance Matrix: (Units=1/GPa)
#
#
# Indices 1 2 3 4 5 6 
#
# 1 0.013242 -0.001542 -0.007303 0.000000 0.000000 0.000000
# 2 -0.001542 0.014443 -0.014720 0.000000 0.000000 0.000000
# 3 -0.007303 -0.014720 0.029979 0.000000 0.000000 0.000000
# 4 0.000000 0.000000 0.000000 -0.024154 0.000000 0.000000
# 5 0.000000 0.000000 0.000000 0.000000 0.024078 0.000000
# 6 0.000000 0.000000 0.000000 0.000000 0.000000 0.025849
#
#
# Mechanical properties :
#
#
# Convention : Reuss Voigt Hill
#
# Bulk Modulus (GPa) = 94.91687 113.30716 104.11202
# Shear Modulus (GPa) = 37.29195 18.04167 27.66681
#
# Velocity S-wave (km/s) = 4.48296 3.11814 3.86133
# Velocity P-wave (km/s) = 8.82877 8.60382 8.71702
#
# Compressibility (1/GPa) = 0.01053553
#
# Stress axis : x y z
#
# Youngs Moduli (GPa) = 75.51802 69.23614 33.35661
#
# Poissons Ratio (x) = 0.10675 0.24360
# Poissons Ratio (y) = 0.11643 0.49100
# Poissons Ratio (z) = 0.55150 1.01914
#
# Static dielectric constant tensor:
#      x y z
#    x 1.619700 0.000000 0.000000 
#    y 0.000000 1.599070 0.000000 
#    z 0.000000 0.000000 1.637130 
# 
# From -- ./inp_files/6012.got.cif
#   From: 2010.05.17/outbox.cif.g08.bks.cpg/sg28_4_cif.got.tgz:6012.got - 2010.06.04 01:15:21.
