data_PCOD9339522
_publ_section_title
;
Structure prediction by ZEFSAII (Michael W. Deem and Ramdas Pophale) SiO2 
 PCOD9339522
Probable space group: P M A 2
;
_chemical_formula_sum "Si O2"
_cell_formula_units_Z 24
_cell_length_a 15.815572
_cell_length_b 8.279693
_cell_length_c 9.809537
_cell_angle_alpha 90.000000
_cell_angle_beta 90.000000
_cell_angle_gamma 90.000000
_cell_volume 1284.540043
_symmetry_space_group_name_H-M "P M A 2"
_symmetry_group_IT_number 28
_symmetry_cell_setting 'orthorhombic'
loop_
_space_group_symop_operation_xyz
x,y,z
-x,-y,z
1/2-x,y,z
1/2+x,-y,z
loop_
_atom_site_type_symbol
_atom_site_label
_atom_site_fract_x
_atom_site_fract_y
_atom_site_fract_z
Si Si1 0.656313 0.288771 0.397700
Si Si2 0.652250 0.177102 0.698632
Si Si3 0.417035 0.387034 0.437532
Si Si4 0.499138 0.802693 0.896541
Si Si5 0.348086 0.213178 0.705367
Si Si6 0.507759 0.192200 0.208252
O O1 0.750000 0.224056 0.380362
O O2 0.626088 0.230731 0.546857
O O3 0.653333 0.481843 0.401114
O O4 0.596543 0.232595 0.277786
O O5 0.750000 0.229936 0.722433
O O6 0.583939 0.239897 0.807625
O O7 0.651795 0.982191 0.699559
O O8 0.500000 0.500000 0.465556
O O9 0.386561 0.285088 0.566406
O O10 0.440517 0.275418 0.309256
O O11 0.584808 0.743915 0.823371
O O12 0.500000 0.000000 0.897210
O O13 0.496245 0.748642 0.052990
O O14 0.250000 0.264473 0.724644
O O15 0.500000 0.000000 0.208717
#
# Coordination Sequence:
#
# PCOD9339522 Si02
#       6
#     4   4   4   4   4   4
#     4  10  20  35  53  78 108 138 175 219 261 310
#     4   9  18  33  57  83 106 135 175 218 263 312
#     4  10  20  34  53  75 105 141 176 216 263 312
#     4   9  18  33  53  78 108 136 170 220 267 310
#     4  10  19  34  56  80 103 135 177 221 265 313
#     4  10  20  35  55  78 105 141 178 214 262 313
#
# _framework density 18.683730000000001
#
# number of rings (size 3 to 8) (size 9 to 14) (size 15 to 20)
#    0.000    2.333    0.000    3.500    0.000    2.000 
#    0.000   12.500    0.000    0.000    0.000    0.000 
#    0.000    0.000    0.000    0.000    0.000    0.000 
#
# Total GULP energy -133833.961361 kJ/mol
# GULP energy per Si atom -5576.415057 kJ/mol
# Density = 1.864121 g / cm^3
# Si number density = 18.683730 Si / 1000 Ang^3
#
#
#
# Elastic Constant Matrix: (Units=GPa)
#
#
# Indices 1 2 3 4 5 6 
#
# 1 120.7549 19.4437 98.6022 0.0000 0.0000 0.0000
# 2 19.4437 29.1309 31.9183 0.0000 0.0000 0.0000
# 3 98.6022 31.9183 196.4549 0.0000 0.0000 0.0000
# 4 0.0000 0.0000 0.0000 -35.6647 0.0000 0.0000
# 5 0.0000 0.0000 0.0000 0.0000 14.9615 0.0000
# 6 0.0000 0.0000 0.0000 0.0000 0.0000 6.1648
#
#
#
# Elastic Compliance Matrix: (Units=1/GPa)
#
#
# Indices 1 2 3 4 5 6 
#
# 1 0.014129 -0.002020 -0.006763 0.000000 0.000000 0.000000
# 2 -0.002020 0.042051 -0.005818 0.000000 0.000000 0.000000
# 3 -0.006763 -0.005818 0.009430 0.000000 0.000000 0.000000
# 4 0.000000 0.000000 0.000000 -0.028039 0.000000 0.000000
# 5 0.000000 0.000000 0.000000 0.000000 0.066838 0.000000
# 6 0.000000 0.000000 0.000000 0.000000 0.000000 0.162210
#
#
# Mechanical properties :
#
#
# Convention : Reuss Voigt Hill
#
# Bulk Modulus (GPa) = 27.46727 71.80767 49.63747
# Shear Modulus (GPa) = 16.23596 10.18410 13.21003
#
# Velocity S-wave (km/s) = 2.95106 2.33722 2.66190
# Velocity P-wave (km/s) = 5.13271 6.76758 6.00604
#
# Compressibility (1/GPa) = 0.03640697
#
# Stress axis : x y z
#
# Youngs Moduli (GPa) = 70.77616 23.78065 106.04409
#
# Poissons Ratio (x) = 0.04804 0.71720
# Poissons Ratio (y) = 0.14298 0.61698
# Poissons Ratio (z) = 0.47868 0.13836
#
# Static dielectric constant tensor:
#      x y z
#    x 1.650660 0.000000 0.000000 
#    y 0.000000 1.660990 0.000000 
#    z 0.000000 0.000000 1.616640 
# 
# From -- ./inp_files/3379.got.cif
#   From: 2010.05.17/outbox.cif.g08.bks.cpg/sg28_2_cif.got.tgz:3379.got - 2010.06.04 01:15:21.
