data_PCOD9339597
_publ_section_title
;
Structure prediction by ZEFSAII (Michael W. Deem and Ramdas Pophale) SiO2 
 PCOD9339597
Probable space group: P M A 2
;
_chemical_formula_sum "Si O2"
_cell_formula_units_Z 28
_cell_length_a 8.709403
_cell_length_b 9.155068
_cell_length_c 18.840671
_cell_angle_alpha 90.000000
_cell_angle_beta 90.000000
_cell_angle_gamma 90.000000
_cell_volume 1502.264231
_symmetry_space_group_name_H-M "P M A 2"
_symmetry_group_IT_number 28
_symmetry_cell_setting 'orthorhombic'
loop_
_space_group_symop_operation_xyz
x,y,z
-x,-y,z
1/2-x,y,z
1/2+x,-y,z
loop_
_atom_site_type_symbol
_atom_site_label
_atom_site_fract_x
_atom_site_fract_y
_atom_site_fract_z
Si Si1 0.434222 0.162518 0.208450
Si Si2 0.565627 0.334716 0.765505
Si Si3 0.566084 0.334855 0.920552
Si Si4 0.066136 0.662434 0.341995
Si Si5 0.065704 0.837636 0.485500
Si Si6 0.566560 0.664688 0.619166
Si Si7 0.933835 0.663995 0.066287
O O1 0.250000 0.158196 0.212624
O O2 0.498474 0.253548 0.274515
O O3 0.477363 0.241838 0.134790
O O4 0.500000 0.000000 0.210438
O O5 0.500000 0.500000 0.767631
O O6 0.750000 0.340008 0.758431
O O7 0.528015 0.268678 0.843077
O O8 0.492790 0.270404 0.694245
O O9 0.500000 0.500000 0.919282
O O10 0.750000 0.341468 0.926392
O O11 0.496945 0.269802 0.992459
O O12 0.250000 0.656746 0.335914
O O13 0.026988 0.748237 0.414219
O O14 0.000000 0.500000 0.344977
O O15 0.250000 0.841661 0.492441
O O16 0.994305 0.757590 0.553438
O O17 0.000000 0.000000 0.479828
O O18 0.500000 0.500000 0.613029
O O19 0.750000 0.657627 0.619481
O O20 0.750000 0.654409 0.062076
O O21 0.000000 0.500000 0.074019
#
# Coordination Sequence:
#
# PCOD9339597 Si02
#       7
#     4   4   4   4   4   4   4
#     4  11  24  40  59  83 113 149 187 228 277 331
#     4   9  16  27  45  73 107 141 180 227 278 329
#     4   9  16  26  45  73 105 141 179 225 277 326
#     4  11  24  41  64  90 116 146 182 226 273 324
#     4  11  24  41  60  84 114 148 185 226 274 329
#     4  11  21  34  55  82 112 148 188 232 280 329
#     4  10  20  33  52  79 109 143 183 228 276 328
#
# _framework density 18.638532000000001
#
# number of rings (size 3 to 8) (size 9 to 14) (size 15 to 20)
#    0.000    1.714    0.000    6.857    0.000    9.714 
#    0.000    0.000    0.000    0.857    0.000    2.000 
#    0.000    0.000    0.000    0.000    0.000    0.000 
#
# Total GULP energy -156346.760632 kJ/mol
# GULP energy per Si atom -5583.812880 kJ/mol
# Density = 1.859611 g / cm^3
# Si number density = 18.638532 Si / 1000 Ang^3
#
#
#
# Elastic Constant Matrix: (Units=GPa)
#
#
# Indices 1 2 3 4 5 6 
#
# 1 91.9140 44.7553 88.3139 0.0000 0.0000 0.0000
# 2 44.7553 101.7630 89.0006 0.0000 0.0000 0.0000
# 3 88.3139 89.0006 236.0797 0.0000 0.0000 0.0000
# 4 0.0000 0.0000 0.0000 0.0180 0.0000 0.0000
# 5 0.0000 0.0000 0.0000 0.0000 26.6415 0.0000
# 6 0.0000 0.0000 0.0000 0.0000 0.0000 25.6515
#
#
#
# Elastic Compliance Matrix: (Units=1/GPa)
#
#
# Indices 1 2 3 4 5 6 
#
# 1 0.017559 -0.002950 -0.005456 0.000000 0.000000 0.000000
# 2 -0.002950 0.015156 -0.004610 0.000000 0.000000 0.000000
# 3 -0.005456 -0.004610 0.008015 0.000000 0.000000 0.000000
# 4 0.000000 0.000000 0.000000 55.566195 0.000000 0.000000
# 5 0.000000 0.000000 0.000000 0.000000 0.037535 0.000000
# 6 0.000000 0.000000 0.000000 0.000000 0.000000 0.038984
#
#
# Mechanical properties :
#
#
# Convention : Reuss Voigt Hill
#
# Bulk Modulus (GPa) = 68.04310 97.09959 82.57134
# Shear Modulus (GPa) = 0.08974 24.30800 12.19887
#
# Velocity S-wave (km/s) = 0.21967 3.61526 2.56109
# Velocity P-wave (km/s) = 6.05395 8.34482 7.28994
#
# Compressibility (1/GPa) = 0.01469657
#
# Stress axis : x y z
#
# Youngs Moduli (GPa) = 56.95113 65.97919 124.76704
#
# Poissons Ratio (x) = 0.19467 0.68076
# Poissons Ratio (y) = 0.16803 0.57519
# Poissons Ratio (z) = 0.31074 0.30417
#
# Static dielectric constant tensor:
#      x y z
#    x 1.622000 0.000000 0.000000 
#    y 0.000000 1.600170 0.000000 
#    z 0.000000 0.000000 1.682780 
# 
# From -- ./inp_files/6788.got.cif
#   From: 2010.05.17/outbox.cif.g08.bks.cpg/sg28_4_cif.got.tgz:6788.got - 2010.06.04 01:15:21.
