data_PCOD9339982
_publ_section_title
;
Structure prediction by ZEFSAII (Michael W. Deem and Ramdas Pophale) SiO2 
 PCOD9339982
Probable space group: P C A 21
;
_chemical_formula_sum "Si O2"
_cell_formula_units_Z 24
_cell_length_a 12.577400
_cell_length_b 14.850830
_cell_length_c 5.218004
_cell_angle_alpha 90.000000
_cell_angle_beta 90.000000
_cell_angle_gamma 90.000000
_cell_volume 974.643986
_symmetry_space_group_name_H-M "P C A 21"
_symmetry_group_IT_number 29
_symmetry_cell_setting 'orthorhombic'
loop_
_space_group_symop_operation_xyz
x,y,z
-x,-y,1/2+z
1/2-x,y,1/2+z
1/2+x,-y,z
loop_
_atom_site_type_symbol
_atom_site_label
_atom_site_fract_x
_atom_site_fract_y
_atom_site_fract_z
Si Si1 0.056646 0.986784 0.917500
Si Si2 0.123453 0.344136 0.052352
Si Si3 0.368238 0.420693 0.058204
Si Si4 0.181360 0.624452 0.624691
Si Si5 0.813380 0.852299 0.654785
Si Si6 0.823968 0.191198 0.278965
O O1 0.134321 0.054655 0.068255
O O2 0.102829 0.896121 0.793175
O O3 0.016469 0.038616 0.662297
O O4 0.073004 0.367174 0.781322
O O5 0.122320 0.238602 0.100895
O O6 0.248363 0.377794 0.027348
O O7 0.081260 0.403824 0.283879
O O8 0.360614 0.523451 0.142739
O O9 0.221844 0.630269 0.331756
O O10 0.381271 0.713859 0.213865
O O11 0.783513 0.847336 0.952234
O O12 0.761350 0.186987 0.548144
#
# Coordination Sequence:
#
# PCOD9339982 Si02
#       6
#     4   4   4   4   4   4
#     4  12  26  43  59  80 116 161 201 246 305 362
#     4  10  16  25  45  76 117 139 172 220 290 341
#     4  10  14  25  41  76 120 139 162 219 295 338
#     4  10  16  25  47  76 115 143 168 220 292 324
#     4  12  21  36  60  88 113 149 192 252 298 341
#     4  10  21  38  60  88 113 147 199 251 292 344
#
# _framework density 24.624376000000002
#
# number of rings (size 3 to 8) (size 9 to 14) (size 15 to 20)
#    0.000    1.333    6.667    3.000    0.000    0.000 
#    0.000    0.000    0.000    0.000    0.000    4.667 
#    0.000    0.000    0.000    0.000    0.000    0.000 
#
# Total GULP energy -133992.404569 kJ/mol
# GULP energy per Si atom -5583.016857 kJ/mol
# Density = 2.456833 g / cm^3
# Si number density = 24.624376 Si / 1000 Ang^3
#
#
#
# Elastic Constant Matrix: (Units=GPa)
#
#
# Indices 1 2 3 4 5 6 
#
# 1 26.7885 10.4254 6.1156 0.0000 0.0000 0.0000
# 2 10.4254 106.6637 -31.4501 0.0000 0.0000 0.0000
# 3 6.1156 -31.4501 127.6585 0.0000 0.0000 0.0000
# 4 0.0000 0.0000 0.0000 28.7960 0.0000 0.0000
# 5 0.0000 0.0000 0.0000 0.0000 3.1769 0.0000
# 6 0.0000 0.0000 0.0000 0.0000 0.0000 -17.2758
#
#
#
# Elastic Compliance Matrix: (Units=1/GPa)
#
#
# Indices 1 2 3 4 5 6 
#
# 1 0.039910 -0.004814 -0.003098 0.000000 0.000000 0.000000
# 2 -0.004814 0.010690 0.002864 0.000000 0.000000 0.000000
# 3 -0.003098 0.002864 0.008687 0.000000 0.000000 0.000000
# 4 0.000000 0.000000 0.000000 0.034727 0.000000 0.000000
# 5 0.000000 0.000000 0.000000 0.000000 0.314771 0.000000
# 6 0.000000 0.000000 0.000000 0.000000 0.000000 -0.057884
#
#
# Mechanical properties :
#
#
# Convention : Reuss Voigt Hill
#
# Bulk Modulus (GPa) = 20.32847 25.69919 23.01383
# Shear Modulus (GPa) = 13.24870 21.34073 17.29472
#
# Velocity S-wave (km/s) = 2.32207 2.94709 2.65305
# Velocity P-wave (km/s) = 3.93226 4.69463 4.33026
#
# Compressibility (1/GPa) = 0.04919208
#
# Stress axis : x y z
#
# Youngs Moduli (GPa) = 25.05619 93.54208 115.10829
#
# Poissons Ratio (x) = 0.45034 0.35661
# Poissons Ratio (y) = 0.12063 -0.32971
# Poissons Ratio (z) = 0.07762 -0.26794
#
# Static dielectric constant tensor:
#      x y z
#    x 2.116680 0.000000 0.000000 
#    y 0.000000 2.095130 0.000000 
#    z 0.000000 0.000000 1.990470 
# 
# From -- ./inp_files/90.got.cif
#   From: 2010.05.17/outbox.cif.g08.bks.cpg/sg29_1_cif.got.tgz:90.got - 2010.06.04 01:19:37.
