data_PCOD9339097
_publ_section_title
;
Structure prediction by ZEFSAII (Michael W. Deem and Ramdas Pophale) SiO2 
 PCOD9339097
Probable space group: P C C 2
;
_chemical_formula_sum "Si O2"
_cell_formula_units_Z 30
_cell_length_a 5.701931
_cell_length_b 13.664735
_cell_length_c 18.176138
_cell_angle_alpha 90.000000
_cell_angle_beta 90.000000
_cell_angle_gamma 90.000000
_cell_volume 1416.200628
_symmetry_space_group_name_H-M "P C C 2"
_symmetry_group_IT_number 27
_symmetry_cell_setting 'orthorhombic'
loop_
_space_group_symop_operation_xyz
x,y,z
-x,-y,z
-x,y,1/2+z
x,-y,1/2+z
loop_
_atom_site_type_symbol
_atom_site_label
_atom_site_fract_x
_atom_site_fract_y
_atom_site_fract_z
Si Si1 0.119937 0.892906 0.724200
Si Si2 0.589049 0.864894 0.355040
Si Si3 0.500000 0.000000 0.969530
Si Si4 0.250610 0.445822 0.554719
Si Si5 0.114811 0.271701 0.454228
Si Si6 0.128343 0.105667 0.052697
Si Si7 0.747410 0.555742 0.729850
Si Si8 0.831853 0.257515 0.323548
O O1 0.991329 0.804198 0.766333
O O2 0.355449 0.895032 0.772237
O O3 0.147191 0.869338 0.638562
O O4 0.000000 0.000000 0.730186
O O5 0.717366 0.773443 0.391928
O O6 0.323377 0.831126 0.355644
O O7 0.670077 0.949840 0.410405
O O8 0.382563 0.082740 0.018377
O O9 0.500000 0.500000 0.540547
O O10 0.239854 0.349670 0.505013
O O11 0.245552 0.424658 0.642149
O O12 0.000000 0.500000 0.539499
O O13 0.004688 0.188337 0.506790
O O14 0.919329 0.311196 0.397947
O O15 0.000000 0.000000 0.047937
O O16 0.500000 0.500000 0.744068
O O17 0.727089 0.656695 0.774237
O O18 0.000000 0.500000 0.747044
#
# Coordination Sequence:
#
# PCOD9339097 Si02
#       8
#     4   4   2   4   4   4   4   4
#     4  10  24  41  66  94 134 178 230 281 337 413
#     4  11  24  40  64  95 133 175 226 276 345 412
#     4  12  22  38  66  92 138 184 224 276 346 400
#     4  10  24  47  73 101 139 181 232 292 357 421
#     4  11  24  42  65  99 135 179 227 284 354 417
#     4  11  23  42  63  96 135 180 228 285 334 417
#     4  10  24  47  73 100 135 181 230 291 352 420
#     4  11  24  43  65 100 131 181 222 290 347 421
#
# _framework density 21.183439
#
# number of rings (size 3 to 8) (size 9 to 14) (size 15 to 20)
#    0.000    1.333    2.667    1.600    7.467    3.200 
#    4.800    0.000    0.000    0.000    0.000    0.000 
#    0.000    0.000    0.000    0.000    0.000    0.000 
#
# Total GULP energy -167066.806559 kJ/mol
# GULP energy per Si atom -5568.893552 kJ/mol
# Density = 2.113522 g / cm^3
# Si number density = 21.183439 Si / 1000 Ang^3
#
#
#
# Elastic Constant Matrix: (Units=GPa)
#
#
# Indices 1 2 3 4 5 6 
#
# 1 67.6074 29.1332 46.0943 0.0000 0.0000 0.0000
# 2 29.1332 97.0379 63.5847 0.0000 0.0000 0.0000
# 3 46.0943 63.5847 142.8852 0.0000 0.0000 0.0000
# 4 0.0000 0.0000 0.0000 26.9014 0.0000 0.0000
# 5 0.0000 0.0000 0.0000 0.0000 21.2197 0.0000
# 6 0.0000 0.0000 0.0000 0.0000 0.0000 23.1169
#
#
#
# Elastic Compliance Matrix: (Units=1/GPa)
#
#
# Indices 1 2 3 4 5 6 
#
# 1 0.019359 -0.002428 -0.005165 0.000000 0.000000 0.000000
# 2 -0.002428 0.014852 -0.005826 0.000000 0.000000 0.000000
# 3 -0.005165 -0.005826 0.011257 0.000000 0.000000 0.000000
# 4 0.000000 0.000000 0.000000 0.037173 0.000000 0.000000
# 5 0.000000 0.000000 0.000000 0.000000 0.047126 0.000000
# 6 0.000000 0.000000 0.000000 0.000000 0.000000 0.043258
#
#
# Mechanical properties :
#
#
# Convention : Reuss Voigt Hill
#
# Bulk Modulus (GPa) = 53.67415 65.01721 59.34568
# Shear Modulus (GPa) = 24.26342 25.49549 24.87945
#
# Velocity S-wave (km/s) = 3.38804 3.47300 3.43078
# Velocity P-wave (km/s) = 6.37949 6.84408 6.61586
#
# Compressibility (1/GPa) = 0.01863094
#
# Stress axis : x y z
#
# Youngs Moduli (GPa) = 51.65634 67.33305 88.83147
#
# Poissons Ratio (x) = 0.16347 0.45879
# Poissons Ratio (y) = 0.12541 0.51752
# Poissons Ratio (z) = 0.26679 0.39227
#
# Static dielectric constant tensor:
#      x y z
#    x 2.161280 0.000000 0.000000 
#    y 0.000000 1.788200 0.000000 
#    z 0.000000 0.000000 1.705840 
# 
# From -- ./inp_files/4074.got.cif
#   From: 2010.05.17/outbox.cif.g08.bks.cpg/sg27_3_cif.got.tgz:4074.got - 2010.06.04 01:11:05.
