data_PCOD9339786
_publ_section_title
;
Structure prediction by ZEFSAII (Michael W. Deem and Ramdas Pophale) SiO2 
 PCOD9339786
Probable space group: P M A 2
;
_chemical_formula_sum "Si O2"
_cell_formula_units_Z 28
_cell_length_a 8.682190
_cell_length_b 9.426906
_cell_length_c 18.583820
_cell_angle_alpha 90.000000
_cell_angle_beta 90.000000
_cell_angle_gamma 90.000000
_cell_volume 1521.014844
_symmetry_space_group_name_H-M "P M A 2"
_symmetry_group_IT_number 28
_symmetry_cell_setting 'orthorhombic'
loop_
_space_group_symop_operation_xyz
x,y,z
-x,-y,z
1/2-x,y,z
1/2+x,-y,z
loop_
_atom_site_type_symbol
_atom_site_label
_atom_site_fract_x
_atom_site_fract_y
_atom_site_fract_z
Si Si1 0.066761 0.840995 0.589110
Si Si2 0.935344 0.840732 0.282957
Si Si3 0.065946 0.342445 0.717777
Si Si4 0.934579 0.658738 0.883387
Si Si5 0.065249 0.160401 0.441774
Si Si6 0.935691 0.658845 0.144663
Si Si7 0.934171 0.158605 0.012384
O O1 0.750000 0.152938 0.586584
O O2 0.009396 0.756817 0.658368
O O3 0.004948 0.774236 0.514126
O O4 0.000000 0.000000 0.593348
O O5 0.750000 0.851978 0.281385
O O6 0.977224 0.782615 0.362580
O O7 0.983227 0.738991 0.218157
O O8 0.000000 0.000000 0.274053
O O9 0.250000 0.343203 0.708887
O O10 0.032212 0.300130 0.800485
O O11 0.000000 0.500000 0.708577
O O12 0.750000 0.656204 0.893211
O O13 0.000000 0.500000 0.894889
O O14 0.010384 0.765748 0.939307
O O15 0.250000 0.157516 0.448355
O O16 0.000000 0.000000 0.440245
O O17 0.750000 0.655624 0.141061
O O18 0.000000 0.500000 0.142681
O O19 0.000206 0.748528 0.078021
O O20 0.750000 0.155111 0.015563
O O21 0.000000 0.000000 0.016680
#
# Coordination Sequence:
#
# PCOD9339786 Si02
#       7
#     4   4   4   4   4   4   4
#     4  11  21  34  54  81 112 148 189 233 280 329
#     4   9  19  34  56  82 109 142 182 230 280 331
#     4  10  21  38  59  83 112 147 186 228 276 331
#     4  10  21  39  62  86 113 147 185 226 275 330
#     4   9  16  30  51  77 108 142 182 229 280 332
#     4  11  23  40  59  83 114 149 188 228 275 329
#     4  12  25  41  61  86 115 147 184 228 276 326
#
# _framework density 18.408761999999999
#
# number of rings (size 3 to 8) (size 9 to 14) (size 15 to 20)
#    0.000    1.714    0.000    6.000    0.000    5.143 
#    0.000    0.714    0.000    1.714    0.000    0.000 
#    0.000    0.000    0.000    0.000    0.000    0.000 
#
# Total GULP energy -156374.393090 kJ/mol
# GULP energy per Si atom -5584.799753 kJ/mol
# Density = 1.836686 g / cm^3
# Si number density = 18.408762 Si / 1000 Ang^3
#
#
#
# Elastic Constant Matrix: (Units=GPa)
#
#
# Indices 1 2 3 4 5 6 
#
# 1 114.3270 53.1920 85.4519 0.0000 0.0000 0.0000
# 2 53.1920 108.3451 103.6091 0.0000 0.0000 0.0000
# 3 85.4519 103.6091 188.2179 0.0000 0.0000 0.0000
# 4 0.0000 0.0000 0.0000 90.0345 0.0000 0.0000
# 5 0.0000 0.0000 0.0000 0.0000 47.7280 0.0000
# 6 0.0000 0.0000 0.0000 0.0000 0.0000 31.1880
#
#
#
# Elastic Compliance Matrix: (Units=1/GPa)
#
#
# Indices 1 2 3 4 5 6 
#
# 1 0.013370 -0.001603 -0.005188 0.000000 0.000000 0.000000
# 2 -0.001603 0.019681 -0.010106 0.000000 0.000000 0.000000
# 3 -0.005188 -0.010106 0.013231 0.000000 0.000000 0.000000
# 4 0.000000 0.000000 0.000000 0.011107 0.000000 0.000000
# 5 0.000000 0.000000 0.000000 0.000000 0.020952 0.000000
# 6 0.000000 0.000000 0.000000 0.000000 0.000000 0.032064
#
#
# Mechanical properties :
#
#
# Convention : Reuss Voigt Hill
#
# Bulk Modulus (GPa) = 80.07170 99.48844 89.78007
# Shear Modulus (GPa) = 33.70133 45.03256 39.36695
#
# Velocity S-wave (km/s) = 4.28334 4.95133 4.62940
# Velocity P-wave (km/s) = 8.24946 9.31928 8.80064
#
# Compressibility (1/GPa) = 0.01248881
#
# Stress axis : x y z
#
# Youngs Moduli (GPa) = 74.79362 50.80978 75.57826
#
# Poissons Ratio (x) = 0.08146 0.39207
# Poissons Ratio (y) = 0.11992 0.76380
# Poissons Ratio (z) = 0.38799 0.51349
#
# Static dielectric constant tensor:
#      x y z
#    x 1.613280 0.000000 0.000000 
#    y 0.000000 1.588440 0.000000 
#    z 0.000000 0.000000 1.663910 
# 
# From -- ./inp_files/6749.got.cif
#   From: 2010.05.17/outbox.cif.g08.bks.cpg/sg28_4_cif.got.tgz:6749.got - 2010.06.04 01:15:21.
