data_PCOD9339699
_publ_section_title
;
Structure prediction by ZEFSAII (Michael W. Deem and Ramdas Pophale) SiO2 
 PCOD9339699
Probable space group: P M A 2
;
_chemical_formula_sum "Si O2"
_cell_formula_units_Z 32
_cell_length_a 30.643443
_cell_length_b 8.393590
_cell_length_c 6.775037
_cell_angle_alpha 90.000000
_cell_angle_beta 90.000000
_cell_angle_gamma 90.000000
_cell_volume 1742.597082
_symmetry_space_group_name_H-M "P M A 2"
_symmetry_group_IT_number 28
_symmetry_cell_setting 'orthorhombic'
loop_
_space_group_symop_operation_xyz
x,y,z
-x,-y,z
1/2-x,y,z
1/2+x,-y,z
loop_
_atom_site_type_symbol
_atom_site_label
_atom_site_fract_x
_atom_site_fract_y
_atom_site_fract_z
Si Si1 0.199741 0.664370 0.320790
Si Si2 0.153118 0.879953 0.650674
Si Si3 0.381926 0.465182 0.218982
Si Si4 0.081082 0.659730 0.869017
Si Si5 0.123788 0.096768 0.299392
Si Si6 0.299531 0.964428 0.040029
Si Si7 0.459949 0.612456 0.465181
Si Si8 0.459484 0.889474 0.187871
O O1 0.250000 0.618935 0.356884
O O2 0.179597 0.762456 0.504736
O O3 0.166875 0.522872 0.268220
O O4 0.198702 0.788811 0.138661
O O5 0.116251 0.776942 0.764169
O O6 0.133600 0.021346 0.514702
O O7 0.184642 0.951327 0.816422
O O8 0.387257 0.281581 0.275672
O O9 0.415499 0.561798 0.356363
O O10 0.395014 0.522458 0.997814
O O11 0.050299 0.598044 0.695320
O O12 0.052039 0.762264 0.019718
O O13 0.166428 0.065925 0.166272
O O14 0.083746 0.993497 0.217573
O O15 0.250000 0.022539 0.055854
O O16 0.500000 0.500000 0.406939
O O17 0.469292 0.790366 0.387776
O O18 0.500000 0.000000 0.136640
#
# Coordination Sequence:
#
# PCOD9339699 Si02
#       8
#     4   4   4   4   4   4   4   4
#     4  10  20  36  62  90 118 160 204 246 303 364
#     4  11  18  40  63  87 115 160 204 248 296 364
#     4  11  23  40  61  88 125 161 195 255 308 366
#     4  11  21  41  66  86 121 161 207 249 307 366
#     4  11  23  38  62  88 125 161 196 249 317 362
#     4  10  20  37  63  90 118 158 205 248 298 363
#     4  11  23  41  63  87 119 160 204 253 301 368
#     4  11  23  41  61  90 122 158 202 254 307 369
#
# _framework density 18.363395000000001
#
# number of rings (size 3 to 8) (size 9 to 14) (size 15 to 20)
#    0.000    1.250    5.000    2.625    0.000    5.500 
#    2.250    0.000    0.000    0.000    0.000    0.000 
#    0.000    0.000    0.000    0.000    0.000    0.000 
#
# Total GULP energy -178623.572757 kJ/mol
# GULP energy per Si atom -5581.986649 kJ/mol
# Density = 1.832160 g / cm^3
# Si number density = 18.363395 Si / 1000 Ang^3
#
#
#
# Elastic Constant Matrix: (Units=GPa)
#
#
# Indices 1 2 3 4 5 6 
#
# 1 82.7976 0.4458 10.5422 0.0000 0.0000 0.0000
# 2 0.4458 55.3844 7.6357 0.0000 0.0000 0.0000
# 3 10.5422 7.6357 91.7613 0.0000 0.0000 0.0000
# 4 0.0000 0.0000 0.0000 16.7366 0.0000 0.0000
# 5 0.0000 0.0000 0.0000 0.0000 40.2420 0.0000
# 6 0.0000 0.0000 0.0000 0.0000 0.0000 26.8804
#
#
#
# Elastic Compliance Matrix: (Units=1/GPa)
#
#
# Indices 1 2 3 4 5 6 
#
# 1 0.012257 0.000097 -0.001416 0.000000 0.000000 0.000000
# 2 0.000097 0.018266 -0.001531 0.000000 0.000000 0.000000
# 3 -0.001416 -0.001531 0.011188 0.000000 0.000000 0.000000
# 4 0.000000 0.000000 0.000000 0.059749 0.000000 0.000000
# 5 0.000000 0.000000 0.000000 0.000000 0.024850 0.000000
# 6 0.000000 0.000000 0.000000 0.000000 0.000000 0.037202
#
#
# Mechanical properties :
#
#
# Convention : Reuss Voigt Hill
#
# Bulk Modulus (GPa) = 27.77014 29.68786 28.72900
# Shear Modulus (GPa) = 27.59124 30.85978 29.22551
#
# Velocity S-wave (km/s) = 3.88043 4.10384 3.99370
# Velocity P-wave (km/s) = 5.93569 6.21750 6.07823
#
# Compressibility (1/GPa) = 0.03600990
#
# Stress axis : x y z
#
# Youngs Moduli (GPa) = 81.58306 54.74669 89.38185
#
# Poissons Ratio (x) = -0.00529 0.12659
# Poissons Ratio (y) = -0.00788 0.13685
# Poissons Ratio (z) = 0.11554 0.08382
#
# Static dielectric constant tensor:
#      x y z
#    x 1.623580 0.000000 0.000000 
#    y 0.000000 1.621510 0.000000 
#    z 0.000000 0.000000 1.638490 
# 
# From -- ./inp_files/1920.got.cif
#   From: 2010.05.17/outbox.cif.g08.bks.cpg/sg28_1_cif.got.tgz:1920.got - 2010.06.04 01:15:21.
