data_PCOD9339153
_publ_section_title
;
Structure prediction by ZEFSAII (Michael W. Deem and Ramdas Pophale) SiO2 
 PCOD9339153
Probable space group: P C C 2
;
_chemical_formula_sum "Si O2"
_cell_formula_units_Z 14
_cell_length_a 4.874488
_cell_length_b 11.968458
_cell_length_c 9.478746
_cell_angle_alpha 90.000000
_cell_angle_beta 90.000000
_cell_angle_gamma 90.000000
_cell_volume 552.991036
_symmetry_space_group_name_H-M "P C C 2"
_symmetry_group_IT_number 27
_symmetry_cell_setting 'orthorhombic'
loop_
_space_group_symop_operation_xyz
x,y,z
-x,-y,z
-x,y,1/2+z
x,-y,1/2+z
loop_
_atom_site_type_symbol
_atom_site_label
_atom_site_fract_x
_atom_site_fract_y
_atom_site_fract_z
Si Si1 0.318657 0.147205 0.394320
Si Si2 0.500000 0.000000 0.656149
Si Si3 0.000000 0.500000 0.211597
Si Si4 0.173122 0.303328 0.871641
Si Si5 0.500000 0.500000 0.527186
O O1 0.569588 0.223566 0.334083
O O2 0.043260 0.214551 0.429880
O O3 0.398433 0.091793 0.543276
O O4 0.289034 0.057311 0.267383
O O5 0.948853 0.614026 0.294307
O O6 0.258464 0.543579 0.125020
O O7 0.343232 0.401526 0.948892
#
# Coordination Sequence:
#
# PCOD9339153 Si02
#       5
#     4   2   2   4   2
#     4  11  27  48  82 109 164 206 270 339 409 473
#     4  10  28  52  74 122 152 212 284 338 396 488
#     4  12  26  46  74 114 158 200 266 330 398 516
#     4  12  27  47  76 117 152 211 260 329 415 480
#     4  12  26  46  76 114 158 202 264 336 392 524
#
# _framework density 25.316869000000001
#
# number of rings (size 3 to 8) (size 9 to 14) (size 15 to 20)
#    0.000    0.571    0.000    6.857   12.000    6.857 
#    0.000    0.000    0.000    0.000    0.000    0.000 
#    0.000    0.000    0.000    0.000    0.000    0.000 
#
# Total GULP energy -77950.592390 kJ/mol
# GULP energy per Si atom -5567.899456 kJ/mol
# Density = 2.525925 g / cm^3
# Si number density = 25.316869 Si / 1000 Ang^3
#
#
#
# Elastic Constant Matrix: (Units=GPa)
#
#
# Indices 1 2 3 4 5 6 
#
# 1 152.1145 64.2302 34.6437 0.0000 0.0000 0.0000
# 2 64.2302 117.9903 48.2212 0.0000 0.0000 0.0000
# 3 34.6437 48.2212 122.3817 0.0000 0.0000 0.0000
# 4 0.0000 0.0000 0.0000 -43.3896 0.0000 0.0000
# 5 0.0000 0.0000 0.0000 0.0000 2.1924 0.0000
# 6 0.0000 0.0000 0.0000 0.0000 0.0000 45.7044
#
#
#
# Elastic Compliance Matrix: (Units=1/GPa)
#
#
# Indices 1 2 3 4 5 6 
#
# 1 0.008586 -0.004387 -0.000702 0.000000 0.000000 0.000000
# 2 -0.004387 0.012344 -0.003622 0.000000 0.000000 0.000000
# 3 -0.000702 -0.003622 0.009797 0.000000 0.000000 0.000000
# 4 0.000000 0.000000 0.000000 -0.023047 0.000000 0.000000
# 5 0.000000 0.000000 0.000000 0.000000 0.456113 0.000000
# 6 0.000000 0.000000 0.000000 0.000000 0.000000 0.021880
#
#
# Mechanical properties :
#
#
# Convention : Reuss Voigt Hill
#
# Bulk Modulus (GPa) = 75.15934 76.29744 75.72839
# Shear Modulus (GPa) = 9.85163 17.26087 13.55625
#
# Velocity S-wave (km/s) = 1.97479 2.61395 2.31652
# Velocity P-wave (km/s) = 5.91199 6.26999 6.09362
#
# Compressibility (1/GPa) = 0.01330507
#
# Stress axis : x y z
#
# Youngs Moduli (GPa) = 116.46342 81.01266 102.07283
#
# Poissons Ratio (x) = 0.35543 0.07165
# Poissons Ratio (y) = 0.51096 0.36968
# Poissons Ratio (z) = 0.08175 0.29341
#
# Static dielectric constant tensor:
#      x y z
#    x 1.956180 0.000000 0.000000 
#    y 0.000000 2.078540 0.000000 
#    z 0.000000 0.000000 2.238300 
# 
# From -- ./inp_files/800.got.cif
#   From: 2010.05.17/outbox.cif.g08.bks.cpg/sg27_1_cif.got.tgz:800.got - 2010.06.04 01:11:05.
