data_PCOD9339245
_publ_section_title
;
Structure prediction by ZEFSAII (Michael W. Deem and Ramdas Pophale) SiO2 
 PCOD9339245
Probable space group: P M A 2
;
_chemical_formula_sum "Si O2"
_cell_formula_units_Z 32
_cell_length_a 13.946956
_cell_length_b 21.295598
_cell_length_c 5.338763
_cell_angle_alpha 90.000000
_cell_angle_beta 90.000000
_cell_angle_gamma 90.000000
_cell_volume 1585.659423
_symmetry_space_group_name_H-M "P M A 2"
_symmetry_group_IT_number 28
_symmetry_cell_setting 'orthorhombic'
loop_
_space_group_symop_operation_xyz
x,y,z
-x,-y,z
1/2-x,y,z
1/2+x,-y,z
loop_
_atom_site_type_symbol
_atom_site_label
_atom_site_fract_x
_atom_site_fract_y
_atom_site_fract_z
Si Si1 0.865570 0.019977 0.857700
Si Si2 0.140445 0.652245 0.860810
Si Si3 0.479850 0.677227 0.360601
Si Si4 0.366057 0.125089 0.856685
Si Si5 0.042245 0.183485 0.356672
Si Si6 0.365218 0.902740 0.357672
Si Si7 0.615471 0.496133 0.815804
Si Si8 0.090642 0.452270 0.314084
O O1 0.750000 0.016832 0.857635
O O2 0.890193 0.057144 0.605115
O O3 0.898288 0.948013 0.857268
O O4 0.890193 0.056951 0.110716
O O5 0.250000 0.674821 0.857401
O O6 0.083646 0.673309 0.612734
O O7 0.141210 0.576144 0.856143
O O8 0.086509 0.673010 0.113166
O O9 0.538129 0.741619 0.357698
O O10 0.548778 0.616673 0.353742
O O11 0.250000 0.127399 0.857112
O O12 0.406109 0.157232 0.605241
O O13 0.406427 0.157518 0.107213
O O14 0.932694 0.157934 0.357110
O O15 0.250000 0.890145 0.357586
O O16 0.500000 0.500000 0.796950
O O17 0.642674 0.538228 0.051608
O O18 0.647806 0.523555 0.552605
O O19 0.000000 0.500000 0.293578
#
# Coordination Sequence:
#
# PCOD9339245 Si02
#       8
#     4   4   4   4   4   4   4   4
#     4   9  19  37  64  92 123 168 209 262 320 357
#     4  12  23  36  58  89 122 154 200 262 308 363
#     4  12  23  40  57  89 119 165 215 238 302 399
#     4  11  24  45  68  94 123 156 217 277 316 367
#     4  12  26  40  64  96 124 178 210 247 321 388
#     4  10  21  38  59  92 137 170 206 254 305 374
#     4  10  16  32  57  83 103 145 188 240 307 340
#     4  10  16  32  61  81 103 146 195 245 290 336
#
# _framework density 20.180878
#
# number of rings (size 3 to 8) (size 9 to 14) (size 15 to 20)
#    0.000    1.250    5.000    3.000    0.000    6.000 
#    0.000    1.250    0.000    4.500    0.000    0.000 
#    0.000    0.000    0.000    0.000    0.000    0.000 
#
# Total GULP energy -178829.920987 kJ/mol
# GULP energy per Si atom -5588.435031 kJ/mol
# Density = 2.013495 g / cm^3
# Si number density = 20.180878 Si / 1000 Ang^3
#
#
#
# Elastic Constant Matrix: (Units=GPa)
#
#
# Indices 1 2 3 4 5 6 
#
# 1 96.2158 12.4002 18.0564 0.0000 0.0000 0.0000
# 2 12.4002 105.0604 4.8528 0.0000 0.0000 0.0000
# 3 18.0564 4.8528 150.8751 0.0000 0.0000 0.0000
# 4 0.0000 0.0000 0.0000 12.3322 0.0000 0.0000
# 5 0.0000 0.0000 0.0000 0.0000 -6.2528 0.0000
# 6 0.0000 0.0000 0.0000 0.0000 0.0000 8.0459
#
#
#
# Elastic Compliance Matrix: (Units=1/GPa)
#
#
# Indices 1 2 3 4 5 6 
#
# 1 0.010785 -0.001215 -0.001252 0.000000 0.000000 0.000000
# 2 -0.001215 0.009669 -0.000166 0.000000 0.000000 0.000000
# 3 -0.001252 -0.000166 0.006783 0.000000 0.000000 0.000000
# 4 0.000000 0.000000 0.000000 0.081088 0.000000 0.000000
# 5 0.000000 0.000000 0.000000 0.000000 -0.159929 0.000000
# 6 0.000000 0.000000 0.000000 0.000000 0.000000 0.124286
#
#
# Mechanical properties :
#
#
# Convention : Reuss Voigt Hill
#
# Bulk Modulus (GPa) = 45.51105 46.97444 46.24275
# Shear Modulus (GPa) = 58.63615 23.94787 41.29201
#
# Velocity S-wave (km/s) = 5.39614 3.44853 4.52829
# Velocity P-wave (km/s) = 7.83741 6.25969 7.09256
#
# Compressibility (1/GPa) = 0.02197268
#
# Stress axis : x y z
#
# Youngs Moduli (GPa) = 92.72321 103.41904 147.42486
#
# Poissons Ratio (x) = 0.12567 0.18452
# Poissons Ratio (y) = 0.11267 0.02441
# Poissons Ratio (z) = 0.11605 0.01713
#
# Static dielectric constant tensor:
#      x y z
#    x 1.720680 0.000000 0.000000 
#    y 0.000000 1.763650 0.000000 
#    z 0.000000 0.000000 1.753310 
# 
# From -- ./inp_files/865.got.cif
#   From: 2010.05.17/outbox.cif.g08.bks.cpg/sg28_1_cif.got.tgz:865.got - 2010.06.04 01:15:21.
