data_PCOD9339448
_publ_section_title
;
Structure prediction by ZEFSAII (Michael W. Deem and Ramdas Pophale) SiO2 
 PCOD9339448
Probable space group: P M A 2
;
_chemical_formula_sum "Si O2"
_cell_formula_units_Z 32
_cell_length_a 8.662502
_cell_length_b 14.608289
_cell_length_c 16.060164
_cell_angle_alpha 90.000000
_cell_angle_beta 90.000000
_cell_angle_gamma 90.000000
_cell_volume 2032.322736
_symmetry_space_group_name_H-M "P M A 2"
_symmetry_group_IT_number 28
_symmetry_cell_setting 'orthorhombic'
loop_
_space_group_symop_operation_xyz
x,y,z
-x,-y,z
1/2-x,y,z
1/2+x,-y,z
loop_
_atom_site_type_symbol
_atom_site_label
_atom_site_fract_x
_atom_site_fract_y
_atom_site_fract_z
Si Si1 0.435264 0.603352 0.221870
Si Si2 0.436015 0.602162 0.715055
Si Si3 0.934177 0.603599 0.394831
Si Si4 0.436706 0.716745 0.877533
Si Si5 0.434472 0.098771 0.810232
Si Si6 0.563896 0.397018 0.037918
Si Si7 0.564798 0.900655 0.615571
Si Si8 0.064461 0.714886 0.550281
O O1 0.500000 0.500000 0.219410
O O2 0.250000 0.602113 0.230250
O O3 0.508112 0.642817 0.305891
O O4 0.476293 0.640608 0.130179
O O5 0.500000 0.500000 0.713520
O O6 0.250000 0.598231 0.715833
O O7 0.485971 0.655675 0.798156
O O8 0.483099 0.657862 0.632758
O O9 0.750000 0.598491 0.395492
O O10 0.000000 0.500000 0.403580
O O11 0.995389 0.664948 0.470098
O O12 0.250000 0.720684 0.877329
O O13 0.500878 0.817974 0.863962
O O14 0.487465 0.667261 0.962378
O O15 0.250000 0.097042 0.813913
O O16 0.480094 0.113911 0.713010
O O17 0.500000 0.000000 0.835118
O O18 0.500000 0.500000 0.028432
O O19 0.750000 0.403468 0.034886
O O20 0.750000 0.900630 0.610528
O O21 0.495786 0.817670 0.562859
O O22 0.500000 0.000000 0.591212
O O23 0.250000 0.714515 0.545572
#
# Coordination Sequence:
#
# PCOD9339448 Si02
#       8
#     4   4   4   4   4   4   4   4
#     4   9  16  29  47  69  94 125 162 202 246 289
#     4  10  21  32  45  64  94 132 166 196 232 276
#     4  11  21  33  49  71  98 131 166 205 247 292
#     4  10  19  33  48  69  98 130 164 201 241 287
#     4  10  20  33  51  72  94 125 162 205 248 288
#     4   9  18  30  48  71  99 131 164 202 243 286
#     4  10  20  34  52  73  96 125 162 206 249 292
#     4  11  21  34  50  71  97 131 166 203 244 288
#
# _framework density 15.745531
#
# number of rings (size 3 to 8) (size 9 to 14) (size 15 to 20)
#    0.000    2.000    1.250    4.125    0.000    4.500 
#    0.000    0.000    0.000    0.000    0.000    0.875 
#    0.000    2.000    0.000    0.000    0.000    0.000 
#
# Total GULP energy -178532.192133 kJ/mol
# GULP energy per Si atom -5579.131004 kJ/mol
# Density = 1.570969 g / cm^3
# Si number density = 15.745531 Si / 1000 Ang^3
#
#
#
# Elastic Constant Matrix: (Units=GPa)
#
#
# Indices 1 2 3 4 5 6 
#
# 1 51.8866 35.0306 45.2912 0.0000 0.0000 0.0000
# 2 35.0306 119.2934 77.1176 0.0000 0.0000 0.0000
# 3 45.2912 77.1176 152.5002 0.0000 0.0000 0.0000
# 4 0.0000 0.0000 0.0000 8.7723 0.0000 0.0000
# 5 0.0000 0.0000 0.0000 0.0000 15.7880 0.0000
# 6 0.0000 0.0000 0.0000 0.0000 0.0000 28.1234
#
#
#
# Elastic Compliance Matrix: (Units=1/GPa)
#
#
# Indices 1 2 3 4 5 6 
#
# 1 0.027319 -0.004126 -0.006027 0.000000 0.000000 0.000000
# 2 -0.004126 0.013077 -0.005388 0.000000 0.000000 0.000000
# 3 -0.006027 -0.005388 0.011072 0.000000 0.000000 0.000000
# 4 0.000000 0.000000 0.000000 0.113996 0.000000 0.000000
# 5 0.000000 0.000000 0.000000 0.000000 0.063339 0.000000
# 6 0.000000 0.000000 0.000000 0.000000 0.000000 0.035558
#
#
# Mechanical properties :
#
#
# Convention : Reuss Voigt Hill
#
# Bulk Modulus (GPa) = 49.05125 70.95101 60.00113
# Shear Modulus (GPa) = 16.54325 21.61946 19.08135
#
# Velocity S-wave (km/s) = 3.24491 3.70949 3.48495
# Velocity P-wave (km/s) = 6.72751 7.96907 7.37446
#
# Compressibility (1/GPa) = 0.02038684
#
# Stress axis : x y z
#
# Youngs Moduli (GPa) = 36.60390 76.46950 90.31986
#
# Poissons Ratio (x) = 0.31552 0.54437
# Poissons Ratio (y) = 0.15103 0.48660
# Poissons Ratio (z) = 0.22062 0.41198
#
# Static dielectric constant tensor:
#      x y z
#    x 1.526490 0.000000 0.000000 
#    y 0.000000 1.479120 0.000000 
#    z 0.000000 0.000000 1.547620 
# 
# From -- ./inp_files/6390.got.cif
#   From: 2010.05.17/outbox.cif.g08.bks.cpg/sg28_4_cif.got.tgz:6390.got - 2010.06.04 01:15:21.
