data_PCOD9339939
_publ_section_title
;
Structure prediction by ZEFSAII (Michael W. Deem and Ramdas Pophale) SiO2 
 PCOD9339939
Probable space group: P M A 2
;
_chemical_formula_sum "Si O2"
_cell_formula_units_Z 16
_cell_length_a 25.580066
_cell_length_b 5.112625
_cell_length_c 5.138126
_cell_angle_alpha 90.000000
_cell_angle_beta 90.000000
_cell_angle_gamma 90.000000
_cell_volume 671.970720
_symmetry_space_group_name_H-M "P M A 2"
_symmetry_group_IT_number 28
_symmetry_cell_setting 'orthorhombic'
loop_
_space_group_symop_operation_xyz
x,y,z
-x,-y,z
1/2-x,y,z
1/2+x,-y,z
loop_
_atom_site_type_symbol
_atom_site_label
_atom_site_fract_x
_atom_site_fract_y
_atom_site_fract_z
Si Si1 0.413102 0.538151 0.640140
Si Si2 0.052180 0.832787 0.162095
Si Si3 0.190487 0.670630 0.834128
Si Si4 0.361645 0.177661 0.996391
O O1 0.443289 0.610372 0.381631
O O2 0.353102 0.638525 0.611080
O O3 0.439305 0.692792 0.883026
O O4 0.401578 0.251283 0.757837
O O5 0.100020 0.038093 0.196495
O O6 0.000000 0.000000 0.174939
O O7 0.250000 0.618683 0.765685
O O8 0.168130 0.451583 0.035707
O O9 0.181776 0.963353 0.931403
#
# Coordination Sequence:
#
# PCOD9339939 Si02
#       4
#     4   4   4   4
#     4   9  23  40  67 100 136 172 235 280 342 418
#     4  11  22  44  70 100 138 188 229 291 349 414
#     4   9  18  40  69  95 135 180 224 284 354 407
#     4   9  21  40  65  97 138 168 233 281 336 420
#
# _framework density 23.810559000000001
#
# number of rings (size 3 to 8) (size 9 to 14) (size 15 to 20)
#    1.500    1.000    0.000    1.500    0.000    5.000 
#    0.000    8.750    0.000    0.000    0.000    0.000 
#    0.000    0.000    0.000    0.000    0.000    0.000 
#
# Total GULP energy -89149.423251 kJ/mol
# GULP energy per Si atom -5571.838953 kJ/mol
# Density = 2.375637 g / cm^3
# Si number density = 23.810559 Si / 1000 Ang^3
#
#
#
# Elastic Constant Matrix: (Units=GPa)
#
#
# Indices 1 2 3 4 5 6 
#
# 1 123.1070 8.4714 14.8506 0.0000 0.0000 0.0000
# 2 8.4714 133.3886 27.0438 0.0000 0.0000 0.0000
# 3 14.8506 27.0438 113.0252 0.0000 0.0000 0.0000
# 4 0.0000 0.0000 0.0000 8.2089 0.0000 0.0000
# 5 0.0000 0.0000 0.0000 0.0000 10.8543 0.0000
# 6 0.0000 0.0000 0.0000 0.0000 0.0000 35.0328
#
#
#
# Elastic Compliance Matrix: (Units=1/GPa)
#
#
# Indices 1 2 3 4 5 6 
#
# 1 0.008267 -0.000320 -0.001010 0.000000 0.000000 0.000000
# 2 -0.000320 0.007892 -0.001846 0.000000 0.000000 0.000000
# 3 -0.001010 -0.001846 0.009422 0.000000 0.000000 0.000000
# 4 0.000000 0.000000 0.000000 0.121818 0.000000 0.000000
# 5 0.000000 0.000000 0.000000 0.000000 0.092129 0.000000
# 6 0.000000 0.000000 0.000000 0.000000 0.000000 0.028545
#
#
# Mechanical properties :
#
#
# Convention : Reuss Voigt Hill
#
# Bulk Modulus (GPa) = 52.00671 52.25027 52.12849
# Shear Modulus (GPa) = 17.80410 32.09621 24.95016
#
# Velocity S-wave (km/s) = 2.73745 3.67547 3.24058
# Velocity P-wave (km/s) = 5.64631 6.32486 5.99519
#
# Compressibility (1/GPa) = 0.01922829
#
# Stress axis : x y z
#
# Youngs Moduli (GPa) = 120.96521 126.71808 106.13507
#
# Poissons Ratio (x) = 0.04059 0.10715
# Poissons Ratio (y) = 0.03875 0.19594
# Poissons Ratio (z) = 0.12212 0.23394
#
# Static dielectric constant tensor:
#      x y z
#    x 1.887190 0.000000 0.000000 
#    y 0.000000 1.968810 0.000000 
#    z 0.000000 0.000000 1.953780 
# 
# From -- ./inp_files/1476.got.cif
#   From: 2010.05.17/outbox.cif.g08.bks.cpg/sg28_1_cif.got.tgz:1476.got - 2010.06.04 01:15:21.
