data_PCOD9339873
_publ_section_title
;
Structure prediction by ZEFSAII (Michael W. Deem and Ramdas Pophale) SiO2 
 PCOD9339873
Probable space group: P M A 2
;
_chemical_formula_sum "Si O2"
_cell_formula_units_Z 24
_cell_length_a 19.600298
_cell_length_b 8.575610
_cell_length_c 5.572295
_cell_angle_alpha 90.000000
_cell_angle_beta 90.000000
_cell_angle_gamma 90.000000
_cell_volume 936.616483
_symmetry_space_group_name_H-M "P M A 2"
_symmetry_group_IT_number 28
_symmetry_cell_setting 'orthorhombic'
loop_
_space_group_symop_operation_xyz
x,y,z
-x,-y,z
1/2-x,y,z
1/2+x,-y,z
loop_
_atom_site_type_symbol
_atom_site_label
_atom_site_fract_x
_atom_site_fract_y
_atom_site_fract_z
Si Si1 0.172547 0.829933 0.348580
Si Si2 0.175651 0.381520 0.676215
Si Si3 0.324860 0.121602 0.061079
Si Si4 0.103911 0.596837 0.022616
Si Si5 0.438466 0.312051 0.311179
Si Si6 0.954630 0.153617 0.656865
O O1 0.250000 0.821267 0.438734
O O2 0.173243 0.938734 0.109780
O O3 0.118866 0.891569 0.545159
O O4 0.141789 0.671005 0.250062
O O5 0.250000 0.400420 0.562935
O O6 0.163102 0.521832 0.859901
O O7 0.109125 0.381480 0.517187
O O8 0.174511 0.213610 0.811768
O O9 0.250000 0.168040 0.166821
O O10 0.392032 0.178709 0.195866
O O11 0.060580 0.725639 0.873884
O O12 0.061947 0.446824 0.112840
O O13 0.495609 0.756476 0.442852
O O14 0.000000 0.000000 0.721188
#
# Coordination Sequence:
#
# PCOD9339873 Si02
#       6
#     4   4   4   4   4   4
#     4  11  25  46  74 109 151 198 249 314 383 459
#     4  10  22  42  72 108 147 198 254 311 378 454
#     4   9  20  40  69 105 144 191 248 306 369 446
#     4  11  27  45  72 107 151 193 252 322 382 455
#     4  11  24  46  72 104 145 196 251 313 381 451
#     4  12  28  49  76 111 154 205 256 314 389 469
#
# _framework density 25.62415
#
# number of rings (size 3 to 8) (size 9 to 14) (size 15 to 20)
#    0.000    1.333    1.667    2.000    2.333   12.000 
#    0.000    0.000    0.000    0.000    0.000    0.000 
#    0.000    0.000    0.000    0.000    0.000    0.000 
#
# Total GULP energy -134197.170884 kJ/mol
# GULP energy per Si atom -5591.548787 kJ/mol
# Density = 2.556583 g / cm^3
# Si number density = 25.624150 Si / 1000 Ang^3
#
#
#
# Elastic Constant Matrix: (Units=GPa)
#
#
# Indices 1 2 3 4 5 6 
#
# 1 191.3497 46.4192 38.1117 0.0000 0.0000 0.0000
# 2 46.4192 123.4343 21.8904 0.0000 0.0000 0.0000
# 3 38.1117 21.8904 52.0173 0.0000 0.0000 0.0000
# 4 0.0000 0.0000 0.0000 41.5784 0.0000 0.0000
# 5 0.0000 0.0000 0.0000 0.0000 51.6266 0.0000
# 6 0.0000 0.0000 0.0000 0.0000 0.0000 28.8016
#
#
#
# Elastic Compliance Matrix: (Units=1/GPa)
#
#
# Indices 1 2 3 4 5 6 
#
# 1 0.006437 -0.001712 -0.003996 0.000000 0.000000 0.000000
# 2 -0.001712 0.009210 -0.002621 0.000000 0.000000 0.000000
# 3 -0.003996 -0.002621 0.023255 0.000000 0.000000 0.000000
# 4 0.000000 0.000000 0.000000 0.024051 0.000000 0.000000
# 5 0.000000 0.000000 0.000000 0.000000 0.019370 0.000000
# 6 0.000000 0.000000 0.000000 0.000000 0.000000 0.034720
#
#
# Mechanical properties :
#
#
# Convention : Reuss Voigt Hill
#
# Bulk Modulus (GPa) = 44.95657 64.40489 54.68073
# Shear Modulus (GPa) = 35.43146 41.75999 38.59573
#
# Velocity S-wave (km/s) = 3.72255 4.04135 3.88522
# Velocity P-wave (km/s) = 6.00493 6.85315 6.44302
#
# Compressibility (1/GPa) = 0.02224369
#
# Stress axis : x y z
#
# Youngs Moduli (GPa) = 155.34573 108.57439 43.00107
#
# Poissons Ratio (x) = 0.18590 0.17183
# Poissons Ratio (y) = 0.26598 0.11273
# Poissons Ratio (z) = 0.62074 0.28463
#
# Static dielectric constant tensor:
#      x y z
#    x 2.073940 0.000000 0.000000 
#    y 0.000000 2.039330 0.000000 
#    z 0.000000 0.000000 2.088480 
# 
# From -- ./inp_files/1546.got.cif
#   From: 2010.05.17/outbox.cif.g08.bks.cpg/sg28_1_cif.got.tgz:1546.got - 2010.06.04 01:15:21.
