data_PCOD9339144
_publ_section_title
;
Structure prediction by ZEFSAII (Michael W. Deem and Ramdas Pophale) SiO2 
 PCOD9339144
Probable space group: P C C 2
;
_chemical_formula_sum "Si O2"
_cell_formula_units_Z 16
_cell_length_a 5.121931
_cell_length_b 11.762422
_cell_length_c 9.570222
_cell_angle_alpha 90.000000
_cell_angle_beta 90.000000
_cell_angle_gamma 90.000000
_cell_volume 576.570598
_symmetry_space_group_name_H-M "P C C 2"
_symmetry_group_IT_number 27
_symmetry_cell_setting 'orthorhombic'
loop_
_space_group_symop_operation_xyz
x,y,z
-x,-y,z
-x,y,1/2+z
x,-y,1/2+z
loop_
_atom_site_type_symbol
_atom_site_label
_atom_site_fract_x
_atom_site_fract_y
_atom_site_fract_z
Si Si1 0.637534 0.758275 0.275280
Si Si2 0.000000 0.000000 0.007027
Si Si3 0.500000 0.000000 0.192017
Si Si4 0.751637 0.577063 0.803198
Si Si5 0.993981 0.747110 0.008697
O O1 0.394730 0.681885 0.223545
O O2 0.727731 0.728251 0.431768
O O3 0.569304 0.890051 0.278200
O O4 0.878822 0.748920 0.165806
O O5 0.250697 0.969732 0.099597
O O6 0.927678 0.875043 0.947177
O O7 0.500000 0.500000 0.827030
O O8 0.000000 0.500000 0.752117
O O9 0.846129 0.640151 0.941518
#
# Coordination Sequence:
#
# PCOD9339144 Si02
#       5
#     4   2   2   4   4
#     4  11  28  51  90 124 172 218 283 352 428 505
#     4  10  26  46  80 124 168 216 266 340 428 504
#     4  10  26  46  82 126 168 212 272 340 424 506
#     4  12  28  54  78 122 165 226 283 345 410 497
#     4  11  28  51  85 123 169 216 279 349 426 503
#
# _framework density 27.750285000000002
#
# number of rings (size 3 to 8) (size 9 to 14) (size 15 to 20)
#    0.000    1.000    2.500    0.000   17.500    2.000 
#    4.500    0.000    0.000    0.000    0.000    0.000 
#    0.000    0.000    0.000    0.000    0.000    0.000 
#
# Total GULP energy -89340.872060 kJ/mol
# GULP energy per Si atom -5583.804504 kJ/mol
# Density = 2.768712 g / cm^3
# Si number density = 27.750285 Si / 1000 Ang^3
#
#
#
# Elastic Constant Matrix: (Units=GPa)
#
#
# Indices 1 2 3 4 5 6 
#
# 1 217.9083 67.7260 66.1628 0.0000 0.0000 0.0000
# 2 67.7260 179.3320 41.0030 0.0000 0.0000 0.0000
# 3 66.1628 41.0030 142.4674 0.0000 0.0000 0.0000
# 4 0.0000 0.0000 0.0000 -5.4925 0.0000 0.0000
# 5 0.0000 0.0000 0.0000 0.0000 40.4521 0.0000
# 6 0.0000 0.0000 0.0000 0.0000 0.0000 63.6467
#
#
#
# Elastic Compliance Matrix: (Units=1/GPa)
#
#
# Indices 1 2 3 4 5 6 
#
# 1 0.005779 -0.001679 -0.002201 0.000000 0.000000 0.000000
# 2 -0.001679 0.006457 -0.001078 0.000000 0.000000 0.000000
# 3 -0.002201 -0.001078 0.008351 0.000000 0.000000 0.000000
# 4 0.000000 0.000000 0.000000 -0.182065 0.000000 0.000000
# 5 0.000000 0.000000 0.000000 0.000000 0.024721 0.000000
# 6 0.000000 0.000000 0.000000 0.000000 0.000000 0.015712
#
#
# Mechanical properties :
#
#
# Convention : Reuss Voigt Hill
#
# Bulk Modulus (GPa) = 93.71267 98.83237 96.27252
# Shear Modulus (GPa) = -46.48091 44.04230 -1.21930
#
# Velocity S-wave (km/s) = -4.09708 3.98816 -0.66358
# Velocity P-wave (km/s) = 3.38554 7.54317 5.84642
#
# Compressibility (1/GPa) = 0.01067092
#
# Stress axis : x y z
#
# Youngs Moduli (GPa) = 173.03440 154.86893 119.73917
#
# Poissons Ratio (x) = 0.26009 0.26349
# Poissons Ratio (y) = 0.29060 0.12913
# Poissons Ratio (z) = 0.38077 0.16702
#
# Static dielectric constant tensor:
#      x y z
#    x 2.017390 0.000000 0.000000 
#    y 0.000000 2.256330 0.000000 
#    z 0.000000 0.000000 2.154800 
# 
# From -- ./inp_files/1852.got.cif
#   From: 2010.05.17/outbox.cif.g08.bks.cpg/sg27_1_cif.got.tgz:1852.got - 2010.06.04 01:11:05.
