data_PCOD9339089
_publ_section_title
;
Structure prediction by ZEFSAII (Michael W. Deem and Ramdas Pophale) SiO2 
 PCOD9339089
Probable space group: P C C 2
;
_chemical_formula_sum "Si O2"
_cell_formula_units_Z 30
_cell_length_a 11.730736
_cell_length_b 14.814305
_cell_length_c 8.351292
_cell_angle_alpha 90.000000
_cell_angle_beta 90.000000
_cell_angle_gamma 90.000000
_cell_volume 1451.310080
_symmetry_space_group_name_H-M "P C C 2"
_symmetry_group_IT_number 27
_symmetry_cell_setting 'orthorhombic'
loop_
_space_group_symop_operation_xyz
x,y,z
-x,-y,z
-x,y,1/2+z
x,-y,1/2+z
loop_
_atom_site_type_symbol
_atom_site_label
_atom_site_fract_x
_atom_site_fract_y
_atom_site_fract_z
Si Si1 0.410261 0.388471 0.940260
Si Si2 0.893526 0.114329 0.782080
Si Si3 0.345066 0.429920 0.307138
Si Si4 0.173337 0.291948 0.461988
Si Si5 0.734125 0.244207 0.311069
Si Si6 0.921805 0.632249 0.954429
Si Si7 0.000000 0.500000 0.690327
Si Si8 0.856768 0.080957 0.407667
O O1 0.543650 0.405189 0.913637
O O2 0.339884 0.462221 0.834386
O O3 0.381069 0.290520 0.869622
O O4 0.374557 0.404345 0.124150
O O5 0.835434 0.204428 0.848277
O O6 0.874158 0.099190 0.594848
O O7 0.029438 0.116435 0.816449
O O8 0.849987 0.025254 0.874182
O O9 0.239849 0.373194 0.375358
O O10 0.233605 0.267493 0.628940
O O11 0.042521 0.320819 0.491139
O O12 0.826136 0.294641 0.426534
O O13 0.751716 0.138843 0.342080
O O14 0.938531 0.574049 0.795752
O O15 0.908185 0.554735 0.086574
#
# Coordination Sequence:
#
# PCOD9339089 Si02
#       8
#     4   4   4   4   4   4   2   4
#     4  11  24  42  63  87 119 159 206 252 300 351
#     4  11  22  38  59  86 121 158 198 245 300 359
#     4  11  24  42  63  87 119 159 206 252 300 351
#     4  12  24  38  61  87 120 156 202 247 297 358
#     4  12  24  38  61  87 120 156 202 247 297 358
#     4  11  24  36  53  80 118 156 199 234 293 348
#     4  10  24  38  48  74 120 162 192 238 288 356
#     4  11  22  38  59  86 121 158 198 245 300 359
#
# _framework density 20.670978000000002
#
# number of rings (size 3 to 8) (size 9 to 14) (size 15 to 20)
#    0.000    0.800    2.667    7.200    7.467    0.000 
#    0.000    0.000    0.000    0.800    0.000    5.600 
#    0.000    0.000    0.000    0.000    0.000    0.000 
#
# Total GULP energy -167927.106906 kJ/mol
# GULP energy per Si atom -5597.570230 kJ/mol
# Density = 2.062393 g / cm^3
# Si number density = 20.670978 Si / 1000 Ang^3
#
#
#
# Elastic Constant Matrix: (Units=GPa)
#
#
# Indices 1 2 3 4 5 6 
#
# 1 35.3830 0.9500 -11.1803 0.0000 0.0000 0.0000
# 2 0.9500 83.9607 1.9013 0.0000 0.0000 0.0000
# 3 -11.1803 1.9013 115.1546 0.0000 0.0000 0.0000
# 4 0.0000 0.0000 0.0000 35.3955 0.0000 0.0000
# 5 0.0000 0.0000 0.0000 0.0000 17.1270 0.0000
# 6 0.0000 0.0000 0.0000 0.0000 0.0000 32.6195
#
#
#
# Elastic Compliance Matrix: (Units=1/GPa)
#
#
# Indices 1 2 3 4 5 6 
#
# 1 0.029170 -0.000394 0.002839 0.000000 0.000000 0.000000
# 2 -0.000394 0.011920 -0.000235 0.000000 0.000000 0.000000
# 3 0.002839 -0.000235 0.008963 0.000000 0.000000 0.000000
# 4 0.000000 0.000000 0.000000 0.028252 0.000000 0.000000
# 5 0.000000 0.000000 0.000000 0.000000 0.058387 0.000000
# 6 0.000000 0.000000 0.000000 0.000000 0.000000 0.030656
#
#
# Mechanical properties :
#
#
# Convention : Reuss Voigt Hill
#
# Bulk Modulus (GPa) = 18.35822 24.20448 21.28135
# Shear Modulus (GPa) = 27.61086 33.21690 30.41388
#
# Velocity S-wave (km/s) = 3.65873 4.01301 3.83996
# Velocity P-wave (km/s) = 5.17193 5.76256 5.47522
#
# Compressibility (1/GPa) = 0.05447152
#
# Stress axis : x y z
#
# Youngs Moduli (GPa) = 34.28221 83.89181 111.56412
#
# Poissons Ratio (x) = 0.03308 -0.31668
# Poissons Ratio (y) = 0.01352 0.02623
# Poissons Ratio (z) = -0.09731 0.01972
#
# Static dielectric constant tensor:
#      x y z
#    x 1.757810 0.000000 0.000000 
#    y 0.000000 1.756970 0.000000 
#    z 0.000000 0.000000 1.765060 
# 
# From -- ./inp_files/1461.got.cif
#   From: 2010.05.17/outbox.cif.g08.bks.cpg/sg27_1_cif.got.tgz:1461.got - 2010.06.04 01:11:05.
