data_PCOD9339052
_publ_section_title
;
Structure prediction by ZEFSAII (Michael W. Deem and Ramdas Pophale) SiO2 
 PCOD9339052
Probable space group: P C C 2
;
_chemical_formula_sum "Si O2"
_cell_formula_units_Z 18
_cell_length_a 12.099963
_cell_length_b 5.041299
_cell_length_c 11.341172
_cell_angle_alpha 90.000000
_cell_angle_beta 90.000000
_cell_angle_gamma 90.000000
_cell_volume 691.806177
_symmetry_space_group_name_H-M "P C C 2"
_symmetry_group_IT_number 27
_symmetry_cell_setting 'orthorhombic'
loop_
_space_group_symop_operation_xyz
x,y,z
-x,-y,z
-x,y,1/2+z
x,-y,1/2+z
loop_
_atom_site_type_symbol
_atom_site_label
_atom_site_fract_x
_atom_site_fract_y
_atom_site_fract_z
Si Si1 0.882673 0.545640 0.044970
Si Si2 0.817904 0.068921 0.906943
Si Si3 0.395205 0.386133 0.394576
Si Si4 0.500000 0.000000 0.708032
Si Si5 0.275866 0.759080 0.215659
O O1 0.785171 0.446322 0.131112
O O2 0.000000 0.500000 0.106998
O O3 0.887256 0.330463 0.937512
O O4 0.858140 0.834106 0.992337
O O5 0.693347 0.169026 0.934313
O O6 0.809778 0.970517 0.771855
O O7 0.500000 0.500000 0.469133
O O8 0.320831 0.612551 0.334008
O O9 0.457563 0.236956 0.289567
O O10 0.615348 0.891680 0.657518
#
# Coordination Sequence:
#
# PCOD9339052 Si02
#       5
#     4   4   4   2   4
#     4  12  28  47  70 109 149 191 258 307 353 446
#     4  11  24  47  72 104 146 189 244 307 364 433
#     4   9  18  41  73 102 140 191 233 296 369 442
#     4   8  18  36  74 102 138 184 236 296 364 444
#     4  10  22  45  77  99 150 190 239 305 379 430
#
# _framework density 26.018844999999999
#
# number of rings (size 3 to 8) (size 9 to 14) (size 15 to 20)
#    0.000    1.778    2.222    0.667    6.222    0.889 
#    4.000   10.000    0.000    0.000    0.000    0.000 
#    0.000    0.000    0.000    0.000    0.000    0.000 
#
# Total GULP energy -100481.635631 kJ/mol
# GULP energy per Si atom -5582.313091 kJ/mol
# Density = 2.595963 g / cm^3
# Si number density = 26.018845 Si / 1000 Ang^3
#
#
#
# Elastic Constant Matrix: (Units=GPa)
#
#
# Indices 1 2 3 4 5 6 
#
# 1 143.9951 39.8702 7.9714 0.0000 0.0000 0.0000
# 2 39.8702 151.1816 13.6464 0.0000 0.0000 0.0000
# 3 7.9714 13.6464 38.8022 0.0000 0.0000 0.0000
# 4 0.0000 0.0000 0.0000 8.9931 0.0000 0.0000
# 5 0.0000 0.0000 0.0000 0.0000 27.0547 0.0000
# 6 0.0000 0.0000 0.0000 0.0000 0.0000 46.0159
#
#
#
# Elastic Compliance Matrix: (Units=1/GPa)
#
#
# Indices 1 2 3 4 5 6 
#
# 1 0.007520 -0.001904 -0.000875 0.000000 0.000000 0.000000
# 2 -0.001904 0.007314 -0.002181 0.000000 0.000000 0.000000
# 3 -0.000875 -0.002181 0.026719 0.000000 0.000000 0.000000
# 4 0.000000 0.000000 0.000000 0.111197 0.000000 0.000000
# 5 0.000000 0.000000 0.000000 0.000000 0.036962 0.000000
# 6 0.000000 0.000000 0.000000 0.000000 0.000000 0.021732
#
#
# Mechanical properties :
#
#
# Convention : Reuss Voigt Hill
#
# Bulk Modulus (GPa) = 31.61391 50.77278 41.19335
# Shear Modulus (GPa) = 21.56025 34.57878 28.06952
#
# Velocity S-wave (km/s) = 2.88173 3.64949 3.28809
# Velocity P-wave (km/s) = 4.82175 6.10856 5.50290
#
# Compressibility (1/GPa) = 0.03163165
#
# Stress axis : x y z
#
# Youngs Moduli (GPa) = 132.97147 136.73091 37.42715
#
# Poissons Ratio (x) = 0.26038 0.03276
# Poissons Ratio (y) = 0.25322 0.08163
# Poissons Ratio (z) = 0.11638 0.29820
#
# Static dielectric constant tensor:
#      x y z
#    x 1.775930 0.000000 0.000000 
#    y 0.000000 2.124470 0.000000 
#    z 0.000000 0.000000 2.098910 
# 
# From -- ./inp_files/1859.got.cif
#   From: 2010.05.17/outbox.cif.g08.bks.cpg/sg27_1_cif.got.tgz:1859.got - 2010.06.04 01:11:05.
