data_PCOD9339392
_publ_section_title
;
Structure prediction by ZEFSAII (Michael W. Deem and Ramdas Pophale) SiO2 
 PCOD9339392
Probable space group: P M A 2
;
_chemical_formula_sum "Si O2"
_cell_formula_units_Z 32
_cell_length_a 9.252337
_cell_length_b 17.013244
_cell_length_c 11.201538
_cell_angle_alpha 90.000000
_cell_angle_beta 90.000000
_cell_angle_gamma 90.000000
_cell_volume 1763.259490
_symmetry_space_group_name_H-M "P M A 2"
_symmetry_group_IT_number 28
_symmetry_cell_setting 'orthorhombic'
loop_
_space_group_symop_operation_xyz
x,y,z
-x,-y,z
1/2-x,y,z
1/2+x,-y,z
loop_
_atom_site_type_symbol
_atom_site_label
_atom_site_fract_x
_atom_site_fract_y
_atom_site_fract_z
Si Si1 0.925215 0.252445 0.751040
Si Si2 0.586063 0.075558 0.122247
Si Si3 0.573675 0.417247 0.884671
Si Si4 0.081968 0.385359 0.135911
Si Si5 0.414897 0.567230 0.374260
Si Si6 0.585056 0.787790 0.243194
Si Si7 0.416300 0.740186 0.475678
Si Si8 0.582923 0.079546 0.834939
O O1 0.750000 0.251985 0.760225
O O2 0.966665 0.336036 0.813082
O O3 0.964661 0.250813 0.611532
O O4 0.974416 0.167332 0.802681
O O5 0.750000 0.071834 0.162453
O O6 0.510621 0.151875 0.171481
O O7 0.500000 0.000000 0.164774
O O8 0.583194 0.076695 0.978675
O O9 0.500000 0.500000 0.842048
O O10 0.750000 0.424279 0.884814
O O11 0.510016 0.404214 0.018217
O O12 0.250000 0.410851 0.122677
O O13 0.082820 0.293173 0.168607
O O14 0.003158 0.419865 0.252216
O O15 0.500000 0.500000 0.443715
O O16 0.250000 0.544859 0.349405
O O17 0.414224 0.647826 0.445739
O O18 0.750000 0.814130 0.252697
O O19 0.517236 0.776416 0.374175
O O20 0.250000 0.769035 0.463970
O O21 0.750000 0.074763 0.793624
O O22 0.500000 0.000000 0.793966
#
# Coordination Sequence:
#
# PCOD9339392 Si02
#       8
#     4   4   4   4   4   4   4   4
#     4   9  19  37  58  77 103 143 185 221 261 315
#     4  10  19  32  53  81 111 140 169 207 258 317
#     4  11  22  36  54  78 109 143 181 223 269 323
#     4  10  20  34  52  75 104 136 172 217 267 320
#     4  10  19  31  50  74  99 130 170 216 265 314
#     4  10  20  34  53  78 106 135 171 217 267 316
#     4   9  19  36  55  73  97 136 181 217 255 310
#     4   9  18  34  57  84 110 137 173 216 263 315
#
# _framework density 18.148206999999999
#
# number of rings (size 3 to 8) (size 9 to 14) (size 15 to 20)
#    0.000    2.250    0.000    3.000    0.000    4.000 
#    0.000    3.750    0.000    1.500    0.000    0.000 
#    0.000    0.000    0.000    0.000    0.000    0.000 
#
# Total GULP energy -178299.500568 kJ/mol
# GULP energy per Si atom -5571.859393 kJ/mol
# Density = 1.810690 g / cm^3
# Si number density = 18.148207 Si / 1000 Ang^3
#
#
#
# Elastic Constant Matrix: (Units=GPa)
#
#
# Indices 1 2 3 4 5 6 
#
# 1 113.5716 51.8654 19.4978 0.0000 0.0000 0.0000
# 2 51.8654 115.6684 22.7645 0.0000 0.0000 0.0000
# 3 19.4978 22.7645 30.8287 0.0000 0.0000 0.0000
# 4 0.0000 0.0000 0.0000 -5.8897 0.0000 0.0000
# 5 0.0000 0.0000 0.0000 0.0000 15.8865 0.0000
# 6 0.0000 0.0000 0.0000 0.0000 0.0000 34.8485
#
#
#
# Elastic Compliance Matrix: (Units=1/GPa)
#
#
# Indices 1 2 3 4 5 6 
#
# 1 0.011489 -0.004354 -0.004051 0.000000 0.000000 0.000000
# 2 -0.004354 0.011766 -0.005934 0.000000 0.000000 0.000000
# 3 -0.004051 -0.005934 0.039381 0.000000 0.000000 0.000000
# 4 0.000000 0.000000 0.000000 -0.169789 0.000000 0.000000
# 5 0.000000 0.000000 0.000000 0.000000 0.062947 0.000000
# 6 0.000000 0.000000 0.000000 0.000000 0.000000 0.028696
#
#
# Mechanical properties :
#
#
# Convention : Reuss Voigt Hill
#
# Bulk Modulus (GPa) = 29.44890 49.81378 39.63134
# Shear Modulus (GPa) = 204.19052 20.03179 112.11115
#
# Velocity S-wave (km/s) = 10.61871 3.32594 7.86826
# Velocity P-wave (km/s) = 12.90755 6.50054 10.21915
#
# Compressibility (1/GPa) = 0.03395713
#
# Stress axis : x y z
#
# Youngs Moduli (GPa) = 87.03957 84.99223 25.39279
#
# Poissons Ratio (x) = 0.37009 0.10287
# Poissons Ratio (y) = 0.37900 0.15068
# Poissons Ratio (z) = 0.35259 0.50435
#
# Static dielectric constant tensor:
#      x y z
#    x 1.622360 0.000000 0.000000 
#    y 0.000000 1.650270 0.000000 
#    z 0.000000 0.000000 1.595930 
# 
# From -- ./inp_files/5071.got.cif
#   From: 2010.05.17/outbox.cif.g08.bks.cpg/sg28_3_cif.got.tgz:5071.got - 2010.06.04 01:15:21.
