data_PCOD9339102
_publ_section_title
;
Structure prediction by ZEFSAII (Michael W. Deem and Ramdas Pophale) SiO2 
 PCOD9339102
Probable space group: P C C 2
;
_chemical_formula_sum "Si O2"
_cell_formula_units_Z 22
_cell_length_a 12.155493
_cell_length_b 8.789992
_cell_length_c 9.076737
_cell_angle_alpha 90.000000
_cell_angle_beta 90.000000
_cell_angle_gamma 90.000000
_cell_volume 969.819270
_symmetry_space_group_name_H-M "P C C 2"
_symmetry_group_IT_number 27
_symmetry_cell_setting 'orthorhombic'
loop_
_space_group_symop_operation_xyz
x,y,z
-x,-y,z
-x,y,1/2+z
x,-y,1/2+z
loop_
_atom_site_type_symbol
_atom_site_label
_atom_site_fract_x
_atom_site_fract_y
_atom_site_fract_z
Si Si1 0.500000 0.500000 0.891230
Si Si2 0.557780 0.704868 0.136572
Si Si3 0.278645 0.929358 0.772745
Si Si4 0.958995 0.160870 0.793966
Si Si5 0.919731 0.357248 0.071408
Si Si6 0.301950 0.218060 0.597896
O O1 0.429119 0.604041 0.782760
O O2 0.578636 0.604002 0.992335
O O3 0.627442 0.853266 0.171266
O O4 0.428055 0.734870 0.116123
O O5 0.160306 0.866953 0.724625
O O6 0.280342 0.107206 0.736630
O O7 0.290820 0.878221 0.943983
O O8 0.043262 0.218446 0.674214
O O9 0.945575 0.296224 0.909336
O O10 0.000000 0.000000 0.859307
O O11 0.787151 0.355297 0.090689
O O12 0.000000 0.500000 0.101709
#
# Coordination Sequence:
#
# PCOD9339102 Si02
#       6
#     2   4   4   4   4   4
#     4  10  24  42  66  92 144 192 222 294 358 444
#     4  11  23  46  65 101 141 184 238 290 366 437
#     4  11  25  42  71 101 135 184 240 301 364 434
#     4  11  23  46  70 101 141 186 239 299 365 428
#     4  11  25  45  69 105 140 186 240 301 365 435
#     4  11  25  44  69 104 139 186 242 301 368 436
#
# _framework density 22.684639000000001
#
# number of rings (size 3 to 8) (size 9 to 14) (size 15 to 20)
#    0.000    1.091    3.636    1.636    5.091    4.364 
#    3.273    0.000    0.000    0.000    0.000    0.000 
#    0.000    0.000    0.000    0.000    0.000    0.000 
#
# Total GULP energy -122849.608461 kJ/mol
# GULP energy per Si atom -5584.073112 kJ/mol
# Density = 2.263301 g / cm^3
# Si number density = 22.684639 Si / 1000 Ang^3
#
#
#
# Elastic Constant Matrix: (Units=GPa)
#
#
# Indices 1 2 3 4 5 6 
#
# 1 149.6134 36.8872 15.8902 0.0000 0.0000 0.0000
# 2 36.8872 87.2129 12.1153 0.0000 0.0000 0.0000
# 3 15.8902 12.1153 64.2884 0.0000 0.0000 0.0000
# 4 0.0000 0.0000 0.0000 35.5838 0.0000 0.0000
# 5 0.0000 0.0000 0.0000 0.0000 17.0807 0.0000
# 6 0.0000 0.0000 0.0000 0.0000 0.0000 42.8053
#
#
#
# Elastic Compliance Matrix: (Units=1/GPa)
#
#
# Indices 1 2 3 4 5 6 
#
# 1 0.007567 -0.003020 -0.001301 0.000000 0.000000 0.000000
# 2 -0.003020 0.012979 -0.001700 0.000000 0.000000 0.000000
# 3 -0.001301 -0.001700 0.016197 0.000000 0.000000 0.000000
# 4 0.000000 0.000000 0.000000 0.028103 0.000000 0.000000
# 5 0.000000 0.000000 0.000000 0.000000 0.058546 0.000000
# 6 0.000000 0.000000 0.000000 0.000000 0.000000 0.023362
#
#
# Mechanical properties :
#
#
# Convention : Reuss Voigt Hill
#
# Bulk Modulus (GPa) = 40.48253 47.87779 44.18016
# Shear Modulus (GPa) = 29.93518 34.84210 32.38864
#
# Velocity S-wave (km/s) = 3.63660 3.92335 3.78269
# Velocity P-wave (km/s) = 5.95967 6.45563 6.21260
#
# Compressibility (1/GPa) = 0.02470201
#
# Stress axis : x y z
#
# Youngs Moduli (GPa) = 132.16038 77.04492 61.74053
#
# Poissons Ratio (x) = 0.23264 0.08034
# Poissons Ratio (y) = 0.39907 0.10494
# Poissons Ratio (z) = 0.17197 0.13095
#
# Static dielectric constant tensor:
#      x y z
#    x 1.890530 0.000000 0.000000 
#    y 0.000000 1.884000 0.000000 
#    z 0.000000 0.000000 1.826050 
# 
# From -- ./inp_files/1553.got.cif
#   From: 2010.05.17/outbox.cif.g08.bks.cpg/sg27_1_cif.got.tgz:1553.got - 2010.06.04 01:11:05.
