data_PCOD9339872
_publ_section_title
;
Structure prediction by ZEFSAII (Michael W. Deem and Ramdas Pophale) SiO2 
 PCOD9339872
Probable space group: P M A 2
;
_chemical_formula_sum "Si O2"
_cell_formula_units_Z 32
_cell_length_a 14.509278
_cell_length_b 17.634778
_cell_length_c 5.444065
_cell_angle_alpha 90.000000
_cell_angle_beta 90.000000
_cell_angle_gamma 90.000000
_cell_volume 1392.961460
_symmetry_space_group_name_H-M "P M A 2"
_symmetry_group_IT_number 28
_symmetry_cell_setting 'orthorhombic'
loop_
_space_group_symop_operation_xyz
x,y,z
-x,-y,z
1/2-x,y,z
1/2+x,-y,z
loop_
_atom_site_type_symbol
_atom_site_label
_atom_site_fract_x
_atom_site_fract_y
_atom_site_fract_z
Si Si1 0.493315 0.790638 0.842190
Si Si2 0.357383 0.704565 0.143097
Si Si3 0.647006 0.002461 0.189684
Si Si4 0.035689 0.313211 0.458738
Si Si5 0.637364 0.529703 0.376031
Si Si6 0.860149 0.829189 0.206487
Si Si7 0.576834 0.061500 0.666725
Si Si8 0.357455 0.547929 0.874152
O O1 0.521727 0.708787 0.740674
O O2 0.456862 0.852367 0.653405
O O3 0.406872 0.777108 0.022459
O O4 0.587883 0.823344 0.947354
O O5 0.250000 0.714486 0.219494
O O6 0.432646 0.682492 0.347990
O O7 0.358371 0.636061 0.946075
O O8 0.750000 0.992339 0.095106
O O9 0.618789 0.916790 0.269596
O O10 0.645872 0.050057 0.440495
O O11 0.598905 0.041094 0.953154
O O12 0.094232 0.387670 0.411754
O O13 0.090902 0.239756 0.351863
O O14 0.750000 0.532750 0.372337
O O15 0.606266 0.495943 0.114266
O O16 0.606807 0.477882 0.608546
O O17 0.750000 0.818085 0.205579
O O18 0.500000 0.000000 0.604241
O O19 0.250000 0.526536 0.862169
#
# Coordination Sequence:
#
# PCOD9339872 Si02
#       8
#     4   4   4   4   4   4   4   4
#     4  11  26  44  68 102 136 185 235 282 360 413
#     4  10  25  47  68  95 139 189 237 290 345 414
#     4  11  25  44  70 103 134 183 235 285 349 417
#     4  11  25  43  66 106 135 182 233 286 352 418
#     4  10  22  42  71 105 140 176 224 283 350 419
#     4  10  23  44  69 102 144 182 227 285 356 431
#     4  12  24  44  71  97 141 180 226 294 348 408
#     4   9  21  43  69  99 137 183 228 280 344 407
#
# _framework density 22.972638
#
# number of rings (size 3 to 8) (size 9 to 14) (size 15 to 20)
#    0.000    1.500    1.250    1.875    8.750    3.000 
#    0.000    0.000    0.000    0.000    0.000    0.000 
#    0.000    0.000    0.000    0.000    0.000    0.000 
#
# Total GULP energy -178475.249037 kJ/mol
# GULP energy per Si atom -5577.351532 kJ/mol
# Density = 2.292035 g / cm^3
# Si number density = 22.972638 Si / 1000 Ang^3
#
#
#
# Elastic Constant Matrix: (Units=GPa)
#
#
# Indices 1 2 3 4 5 6 
#
# 1 115.8041 29.8455 45.3704 0.0000 0.0000 0.0000
# 2 29.8455 78.0345 29.7540 0.0000 0.0000 0.0000
# 3 45.3704 29.7540 80.2834 0.0000 0.0000 0.0000
# 4 0.0000 0.0000 0.0000 -35.2818 0.0000 0.0000
# 5 0.0000 0.0000 0.0000 0.0000 4.6663 0.0000
# 6 0.0000 0.0000 0.0000 0.0000 0.0000 30.0245
#
#
#
# Elastic Compliance Matrix: (Units=1/GPa)
#
#
# Indices 1 2 3 4 5 6 
#
# 1 0.011412 -0.002219 -0.005627 0.000000 0.000000 0.000000
# 2 -0.002219 0.015355 -0.004437 0.000000 0.000000 0.000000
# 3 -0.005627 -0.004437 0.017280 0.000000 0.000000 0.000000
# 4 0.000000 0.000000 0.000000 -0.028343 0.000000 0.000000
# 5 0.000000 0.000000 0.000000 0.000000 0.214300 0.000000
# 6 0.000000 0.000000 0.000000 0.000000 0.000000 0.033306
#
#
# Mechanical properties :
#
#
# Convention : Reuss Voigt Hill
#
# Bulk Modulus (GPa) = 51.32980 53.78464 52.55722
# Shear Modulus (GPa) = 16.98548 11.15861 14.07204
#
# Velocity S-wave (km/s) = 2.72210 2.20633 2.47767
# Velocity P-wave (km/s) = 5.68086 5.47301 5.57790
#
# Compressibility (1/GPa) = 0.01948186
#
# Stress axis : x y z
#
# Youngs Moduli (GPa) = 87.62997 65.12414 57.87063
#
# Poissons Ratio (x) = 0.14452 0.32561
# Poissons Ratio (y) = 0.19447 0.25676
# Poissons Ratio (z) = 0.49306 0.28894
#
# Static dielectric constant tensor:
#      x y z
#    x 1.831310 0.000000 0.000000 
#    y 0.000000 2.010950 0.000000 
#    z 0.000000 0.000000 1.936340 
# 
# From -- ./inp_files/854.got.cif
#   From: 2010.05.17/outbox.cif.g08.bks.cpg/sg28_1_cif.got.tgz:854.got - 2010.06.04 01:15:21.
