data_PCOD9339711
_publ_section_title
;
Structure prediction by ZEFSAII (Michael W. Deem and Ramdas Pophale) SiO2 
 PCOD9339711
Probable space group: P M A 2
;
_chemical_formula_sum "Si O2"
_cell_formula_units_Z 20
_cell_length_a 8.631413
_cell_length_b 9.408544
_cell_length_c 13.023840
_cell_angle_alpha 90.000000
_cell_angle_beta 90.000000
_cell_angle_gamma 90.000000
_cell_volume 1057.653400
_symmetry_space_group_name_H-M "P M A 2"
_symmetry_group_IT_number 28
_symmetry_cell_setting 'orthorhombic'
loop_
_space_group_symop_operation_xyz
x,y,z
-x,-y,z
1/2-x,y,z
1/2+x,-y,z
loop_
_atom_site_type_symbol
_atom_site_label
_atom_site_fract_x
_atom_site_fract_y
_atom_site_fract_z
Si Si1 0.063567 0.342085 0.063470
Si Si2 0.436346 0.340529 0.689563
Si Si3 0.936789 0.842031 0.490156
Si Si4 0.563334 0.656438 0.299313
Si Si5 0.564950 0.158872 0.879267
O O1 0.250000 0.342836 0.055399
O O2 0.019345 0.309552 0.181767
O O3 0.000000 0.500000 0.039939
O O4 0.993511 0.230576 0.984353
O O5 0.500000 0.500000 0.688468
O O6 0.250000 0.343871 0.695733
O O7 0.481913 0.257343 0.585778
O O8 0.502065 0.254816 0.786284
O O9 0.750000 0.848343 0.488719
O O10 0.989748 0.769299 0.383896
O O11 0.000000 0.000000 0.502199
O O12 0.500000 0.500000 0.324123
O O13 0.750000 0.650392 0.302755
O O14 0.750000 0.156007 0.876994
O O15 0.500000 0.000000 0.869482
#
# Coordination Sequence:
#
# PCOD9339711 Si02
#       5
#     4   4   4   4   4
#     4  10  20  37  60  86 117 152 193 237 283 336
#     4  11  23  40  62  87 115 149 191 235 283 339
#     4  10  22  38  57  84 117 151 188 232 283 338
#     4   9  19  36  58  85 115 149 190 234 279 332
#     4  12  25  41  60  84 116 151 190 236 288 341
#
# _framework density 18.909787999999999
#
# number of rings (size 3 to 8) (size 9 to 14) (size 15 to 20)
#    0.000    1.600    0.000    4.800    0.000    5.600 
#    0.000    2.000    0.000    0.000    0.000    0.000 
#    0.000    0.000    0.000    0.000    0.000    0.000 
#
# Total GULP energy -111813.452768 kJ/mol
# GULP energy per Si atom -5590.672638 kJ/mol
# Density = 1.886675 g / cm^3
# Si number density = 18.909788 Si / 1000 Ang^3
#
#
#
# Elastic Constant Matrix: (Units=GPa)
#
#
# Indices 1 2 3 4 5 6 
#
# 1 70.2027 56.2337 49.5219 0.0000 0.0000 0.0000
# 2 56.2337 198.5679 120.0728 0.0000 0.0000 0.0000
# 3 49.5219 120.0728 132.4634 0.0000 0.0000 0.0000
# 4 0.0000 0.0000 0.0000 -164.7393 0.0000 0.0000
# 5 0.0000 0.0000 0.0000 0.0000 0.5999 0.0000
# 6 0.0000 0.0000 0.0000 0.0000 0.0000 39.6713
#
#
#
# Elastic Compliance Matrix: (Units=1/GPa)
#
#
# Indices 1 2 3 4 5 6 
#
# 1 0.019899 -0.002516 -0.005159 0.000000 0.000000 0.000000
# 2 -0.002516 0.011463 -0.009450 0.000000 0.000000 0.000000
# 3 -0.005159 -0.009450 0.018044 0.000000 0.000000 0.000000
# 4 0.000000 0.000000 0.000000 -0.006070 0.000000 0.000000
# 5 0.000000 0.000000 0.000000 0.000000 1.666828 0.000000
# 6 0.000000 0.000000 0.000000 0.000000 0.000000 0.025207
#
#
# Mechanical properties :
#
#
# Convention : Reuss Voigt Hill
#
# Bulk Modulus (GPa) = 65.97905 94.76565 80.37235
# Shear Modulus (GPa) = 2.81742 -13.19990 -5.19124
#
# Velocity S-wave (km/s) = 1.22195 -2.64492 -1.65868
# Velocity P-wave (km/s) = 6.07932 6.39499 6.23915
#
# Compressibility (1/GPa) = 0.01515633
#
# Stress axis : x y z
#
# Youngs Moduli (GPa) = 50.25456 87.23713 55.41969
#
# Poissons Ratio (x) = 0.21947 0.28590
# Poissons Ratio (y) = 0.12643 0.52373
# Poissons Ratio (z) = 0.25925 0.82441
#
# Static dielectric constant tensor:
#      x y z
#    x 1.634560 0.000000 0.000000 
#    y 0.000000 1.605570 0.000000 
#    z 0.000000 0.000000 1.657540 
# 
# From -- ./inp_files/4548.got.cif
#   From: 2010.05.17/outbox.cif.g08.bks.cpg/sg28_3_cif.got.tgz:4548.got - 2010.06.04 01:15:21.
