data_PCOD9339826
_publ_section_title
;
Structure prediction by ZEFSAII (Michael W. Deem and Ramdas Pophale) SiO2 
 PCOD9339826
Probable space group: P M A 2
;
_chemical_formula_sum "Si O2"
_cell_formula_units_Z 32
_cell_length_a 24.544058
_cell_length_b 5.106845
_cell_length_c 11.612430
_cell_angle_alpha 90.000000
_cell_angle_beta 90.000000
_cell_angle_gamma 90.000000
_cell_volume 1455.533328
_symmetry_space_group_name_H-M "P M A 2"
_symmetry_group_IT_number 28
_symmetry_cell_setting 'orthorhombic'
loop_
_space_group_symop_operation_xyz
x,y,z
-x,-y,z
1/2-x,y,z
1/2+x,-y,z
loop_
_atom_site_type_symbol
_atom_site_label
_atom_site_fract_x
_atom_site_fract_y
_atom_site_fract_z
Si Si1 0.963797 0.761404 0.306520
Si Si2 0.687182 0.261659 0.493467
Si Si3 0.691797 0.429863 0.229684
Si Si4 0.310647 0.895489 0.002483
Si Si5 0.882169 0.753209 0.517967
Si Si6 0.608077 0.432136 0.880907
Si Si7 0.601414 0.717671 0.092675
Si Si8 0.936306 0.936817 0.745873
O O1 0.915650 0.725738 0.399560
O O2 0.943412 0.834129 0.177264
O O3 0.000000 0.500000 0.300141
O O4 0.000000 0.000000 0.350081
O O5 0.750000 0.289684 0.531664
O O6 0.685276 0.322205 0.356908
O O7 0.646564 0.476847 0.548006
O O8 0.665387 0.969201 0.508461
O O9 0.750000 0.574218 0.224560
O O10 0.693409 0.206205 0.133250
O O11 0.643110 0.603891 0.186082
O O12 0.250000 0.989675 0.968361
O O13 0.360805 0.098079 0.012318
O O14 0.330862 0.653793 0.922261
O O15 0.922142 0.869297 0.614441
O O16 0.588879 0.686152 0.811247
O O17 0.590953 0.191211 0.801623
O O18 0.581032 0.488358 0.007162
O O19 0.000000 0.000000 0.759755
#
# Coordination Sequence:
#
# PCOD9339826 Si02
#       8
#     4   4   4   4   4   4   4   4
#     4  12  28  43  68 106 146 187 233 293 367 413
#     4  11  23  42  72 108 144 181 222 283 357 429
#     4   9  19  34  63 102 139 184 220 263 334 428
#     4  10  21  41  71 105 144 187 230 281 358 433
#     4  12  25  48  74  98 146 178 243 291 347 428
#     4  11  25  46  71 103 138 173 244 297 348 409
#     4  11  22  42  69 100 147 179 226 288 351 426
#     4  12  27  50  74  97 128 192 249 296 343 407
#
# _framework density 21.985067999999998
#
# number of rings (size 3 to 8) (size 9 to 14) (size 15 to 20)
#    0.000    1.000    2.500    3.750    3.500    3.000 
#    0.000    3.750    0.000    0.000    0.000    0.000 
#    0.000    0.000    0.000    0.000    0.000    0.000 
#
# Total GULP energy -178487.120351 kJ/mol
# GULP energy per Si atom -5577.722511 kJ/mol
# Density = 2.193503 g / cm^3
# Si number density = 21.985068 Si / 1000 Ang^3
#
#
#
# Elastic Constant Matrix: (Units=GPa)
#
#
# Indices 1 2 3 4 5 6 
#
# 1 51.3282 45.6982 26.2444 0.0000 0.0000 0.0000
# 2 45.6982 107.5130 25.6437 0.0000 0.0000 0.0000
# 3 26.2444 25.6437 91.6644 0.0000 0.0000 0.0000
# 4 0.0000 0.0000 0.0000 34.3061 0.0000 0.0000
# 5 0.0000 0.0000 0.0000 0.0000 21.5609 0.0000
# 6 0.0000 0.0000 0.0000 0.0000 0.0000 32.6679
#
#
#
# Elastic Compliance Matrix: (Units=1/GPa)
#
#
# Indices 1 2 3 4 5 6 
#
# 1 0.034303 -0.013113 -0.006153 0.000000 0.000000 0.000000
# 2 -0.013113 0.014979 -0.000436 0.000000 0.000000 0.000000
# 3 -0.006153 -0.000436 0.012793 0.000000 0.000000 0.000000
# 4 0.000000 0.000000 0.000000 0.029149 0.000000 0.000000
# 5 0.000000 0.000000 0.000000 0.000000 0.046380 0.000000
# 6 0.000000 0.000000 0.000000 0.000000 0.000000 0.030611
#
#
# Mechanical properties :
#
#
# Convention : Reuss Voigt Hill
#
# Bulk Modulus (GPa) = 44.10887 49.51978 46.81433
# Shear Modulus (GPa) = 23.23679 27.90161 25.56920
#
# Velocity S-wave (km/s) = 3.25458 3.56633 3.41402
# Velocity P-wave (km/s) = 5.85062 6.28741 6.07294
#
# Compressibility (1/GPa) = 0.02267118
#
# Stress axis : x y z
#
# Youngs Moduli (GPa) = 29.15201 66.76103 78.16786
#
# Poissons Ratio (x) = 0.87543 0.48096
# Poissons Ratio (y) = 0.38227 0.03409
# Poissons Ratio (z) = 0.17937 0.02911
#
# Static dielectric constant tensor:
#      x y z
#    x 1.772890 0.000000 0.000000 
#    y 0.000000 1.871820 0.000000 
#    z 0.000000 0.000000 1.804670 
# 
# From -- ./inp_files/5891.got.cif
#   From: 2010.05.17/outbox.cif.g08.bks.cpg/sg28_3_cif.got.tgz:5891.got - 2010.06.04 01:15:21.
