data_PCOD9339857
_publ_section_title
;
Structure prediction by ZEFSAII (Michael W. Deem and Ramdas Pophale) SiO2 
 PCOD9339857
Probable space group: P M A 2
;
_chemical_formula_sum "Si O2"
_cell_formula_units_Z 20
_cell_length_a 15.252986
_cell_length_b 13.257465
_cell_length_c 5.259193
_cell_angle_alpha 90.000000
_cell_angle_beta 90.000000
_cell_angle_gamma 90.000000
_cell_volume 1063.492593
_symmetry_space_group_name_H-M "P M A 2"
_symmetry_group_IT_number 28
_symmetry_cell_setting 'orthorhombic'
loop_
_space_group_symop_operation_xyz
x,y,z
-x,-y,z
1/2-x,y,z
1/2+x,-y,z
loop_
_atom_site_type_symbol
_atom_site_label
_atom_site_fract_x
_atom_site_fract_y
_atom_site_fract_z
Si Si1 0.516041 0.735754 0.982510
Si Si2 0.653091 0.914648 0.936813
Si Si3 0.146979 0.760026 0.673105
Si Si4 0.510594 0.381070 0.493467
Si Si5 0.602372 0.029248 0.427734
O O1 0.415470 0.767673 0.921334
O O2 0.537833 0.664593 0.741003
O O3 0.577932 0.832283 0.979261
O O4 0.522034 0.674479 0.241310
O O5 0.750000 0.869094 0.955241
O O6 0.642681 0.996843 0.159625
O O7 0.641789 0.965496 0.662206
O O8 0.250000 0.760360 0.720448
O O9 0.110393 0.658012 0.541018
O O10 0.119385 0.854980 0.499545
O O11 0.500000 0.500000 0.476796
O O12 0.500000 0.000000 0.419884
#
# Coordination Sequence:
#
# PCOD9339857 Si02
#       5
#     4   4   4   4   4
#     4  10  22  41  63  92 123 167 206 259 317 373
#     4  12  24  40  61  94 132 172 211 252 307 383
#     4  10  23  40  64  96 125 161 213 261 311 375
#     4  10  22  42  66  86 121 162 207 266 329 368
#     4  12  23  40  62  93 131 173 208 253 316 373
#
# _framework density 18.805959000000001
#
# number of rings (size 3 to 8) (size 9 to 14) (size 15 to 20)
#    1.200    0.000    2.000    5.400    2.800    0.800 
#    0.000    2.000    0.000    0.000    0.000    0.000 
#    0.000    0.000    0.000    0.000    0.000    0.000 
#
# Total GULP energy -111617.382714 kJ/mol
# GULP energy per Si atom -5580.869136 kJ/mol
# Density = 1.876316 g / cm^3
# Si number density = 18.805959 Si / 1000 Ang^3
#
#
#
# Elastic Constant Matrix: (Units=GPa)
#
#
# Indices 1 2 3 4 5 6 
#
# 1 123.6114 40.7758 9.7431 0.0000 0.0000 0.0000
# 2 40.7758 107.0814 9.0922 0.0000 0.0000 0.0000
# 3 9.7431 9.0922 98.3634 0.0000 0.0000 0.0000
# 4 0.0000 0.0000 0.0000 7.9384 0.0000 0.0000
# 5 0.0000 0.0000 0.0000 0.0000 16.7245 0.0000
# 6 0.0000 0.0000 0.0000 0.0000 0.0000 -2.4876
#
#
#
# Elastic Compliance Matrix: (Units=1/GPa)
#
#
# Indices 1 2 3 4 5 6 
#
# 1 0.009287 -0.003486 -0.000598 0.000000 0.000000 0.000000
# 2 -0.003486 0.010721 -0.000646 0.000000 0.000000 0.000000
# 3 -0.000598 -0.000646 0.010285 0.000000 0.000000 0.000000
# 4 0.000000 0.000000 0.000000 0.125970 0.000000 0.000000
# 5 0.000000 0.000000 0.000000 0.000000 0.059792 0.000000
# 6 0.000000 0.000000 0.000000 0.000000 0.000000 -0.401995
#
#
# Mechanical properties :
#
#
# Convention : Reuss Voigt Hill
#
# Bulk Modulus (GPa) = 47.99646 49.80870 48.90258
# Shear Modulus (GPa) = -29.49214 22.39809 -3.54702
#
# Velocity S-wave (km/s) = -3.96439 3.45485 -1.37485
# Velocity P-wave (km/s) = 2.14992 6.51596 4.85180
#
# Compressibility (1/GPa) = 0.02083487
#
# Stress axis : x y z
#
# Youngs Moduli (GPa) = 107.68011 93.27668 97.22645
#
# Poissons Ratio (x) = 0.32512 0.05811
# Poissons Ratio (y) = 0.37533 0.06278
# Poissons Ratio (z) = 0.06436 0.06023
#
# Static dielectric constant tensor:
#      x y z
#    x 1.632470 0.000000 0.000000 
#    y 0.000000 1.632620 0.000000 
#    z 0.000000 0.000000 1.669500 
# 
# From -- ./inp_files/696.got.cif
#   From: 2010.05.17/outbox.cif.g08.bks.cpg/sg28_1_cif.got.tgz:696.got - 2010.06.04 01:15:21.
