data_PCOD9339309
_publ_section_title
;
Structure prediction by ZEFSAII (Michael W. Deem and Ramdas Pophale) SiO2 
 PCOD9339309
Probable space group: P M A 2
;
_chemical_formula_sum "Si O2"
_cell_formula_units_Z 32
_cell_length_a 8.674917
_cell_length_b 14.646789
_cell_length_c 15.974537
_cell_angle_alpha 90.000000
_cell_angle_beta 90.000000
_cell_angle_gamma 90.000000
_cell_volume 2029.719542
_symmetry_space_group_name_H-M "P M A 2"
_symmetry_group_IT_number 28
_symmetry_cell_setting 'orthorhombic'
loop_
_space_group_symop_operation_xyz
x,y,z
-x,-y,z
1/2-x,y,z
1/2+x,-y,z
loop_
_atom_site_type_symbol
_atom_site_label
_atom_site_fract_x
_atom_site_fract_y
_atom_site_fract_z
Si Si1 0.064283 0.210426 0.006350
Si Si2 0.935582 0.102978 0.501227
Si Si3 0.564229 0.209916 0.334139
Si Si4 0.565520 0.898299 0.175320
Si Si5 0.434873 0.403042 0.079190
Si Si6 0.565147 0.402935 0.266699
Si Si7 0.565712 0.896691 0.675521
Si Si8 0.566396 0.102717 0.849736
O O1 0.250000 0.203572 0.996080
O O2 0.022114 0.156012 0.091057
O O3 0.024502 0.316239 0.022408
O O4 0.983373 0.164391 0.927593
O O5 0.750000 0.098079 0.506602
O O6 0.981058 0.163962 0.421687
O O7 0.001908 0.142097 0.588356
O O8 0.000000 0.000000 0.489976
O O9 0.750000 0.205014 0.328988
O O10 0.496473 0.153657 0.256650
O O11 0.519937 0.315717 0.322120
O O12 0.750000 0.901470 0.179345
O O13 0.500000 0.000000 0.172412
O O14 0.500000 0.500000 0.049102
O O15 0.250000 0.407831 0.085593
O O16 0.501298 0.388179 0.172637
O O17 0.500000 0.500000 0.296364
O O18 0.750000 0.408125 0.262464
O O19 0.750000 0.898050 0.675312
O O20 0.502935 0.858206 0.762942
O O21 0.500000 0.000000 0.675500
O O22 0.750000 0.096221 0.842758
O O23 0.500000 0.000000 0.861912
#
# Coordination Sequence:
#
# PCOD9339309 Si02
#       8
#     4   4   4   4   4   4   4   4
#     4  10  21  35  49  70  98 130 166 203 242 288
#     4  10  19  32  48  70  98 128 163 201 241 286
#     4  10  21  34  49  70  97 130 166 203 243 289
#     4  11  22  34  47  65  96 133 169 201 237 282
#     4  10  19  33  51  72  96 125 162 205 249 289
#     4  10  19  32  50  71  95 125 163 205 249 291
#     4  10  18  31  50  71  96 126 160 200 244 287
#     4  11  21  33  51  73  99 131 165 202 244 290
#
# _framework density 15.765725
#
# number of rings (size 3 to 8) (size 9 to 14) (size 15 to 20)
#    0.000    1.750    1.250    6.750    0.000    5.500 
#    0.000    0.000    0.000    0.000    0.000    0.875 
#    0.000    4.000    0.000    0.000    0.000    0.000 
#
# Total GULP energy -178596.757125 kJ/mol
# GULP energy per Si atom -5581.148660 kJ/mol
# Density = 1.572984 g / cm^3
# Si number density = 15.765725 Si / 1000 Ang^3
#
#
#
# Elastic Constant Matrix: (Units=GPa)
#
#
# Indices 1 2 3 4 5 6 
#
# 1 73.6947 43.2997 54.2302 0.0000 0.0000 0.0000
# 2 43.2997 118.1072 71.6882 0.0000 0.0000 0.0000
# 3 54.2302 71.6882 145.8753 0.0000 0.0000 0.0000
# 4 0.0000 0.0000 0.0000 4.5621 0.0000 0.0000
# 5 0.0000 0.0000 0.0000 0.0000 10.2765 0.0000
# 6 0.0000 0.0000 0.0000 0.0000 0.0000 14.9991
#
#
#
# Elastic Compliance Matrix: (Units=1/GPa)
#
#
# Indices 1 2 3 4 5 6 
#
# 1 0.019924 -0.004003 -0.005440 0.000000 0.000000 0.000000
# 2 -0.004003 0.012870 -0.004837 0.000000 0.000000 0.000000
# 3 -0.005440 -0.004837 0.011255 0.000000 0.000000 0.000000
# 4 0.000000 0.000000 0.000000 0.219197 0.000000 0.000000
# 5 0.000000 0.000000 0.000000 0.000000 0.097310 0.000000
# 6 0.000000 0.000000 0.000000 0.000000 0.000000 0.066671
#
#
# Mechanical properties :
#
#
# Convention : Reuss Voigt Hill
#
# Bulk Modulus (GPa) = 64.55711 75.12370 69.84040
# Shear Modulus (GPa) = 10.84718 17.19814 14.02266
#
# Velocity S-wave (km/s) = 2.62587 3.30639 2.98558
# Velocity P-wave (km/s) = 7.08733 7.89492 7.50200
#
# Compressibility (1/GPa) = 0.01549016
#
# Stress axis : x y z
#
# Youngs Moduli (GPa) = 50.18960 77.69929 88.85303
#
# Poissons Ratio (x) = 0.31100 0.48337
# Poissons Ratio (y) = 0.20089 0.42977
# Poissons Ratio (z) = 0.27303 0.37582
#
# Static dielectric constant tensor:
#      x y z
#    x 1.531070 0.000000 0.000000 
#    y 0.000000 1.522780 0.000000 
#    z 0.000000 0.000000 1.530950 
# 
# From -- ./inp_files/6442.got.cif
#   From: 2010.05.17/outbox.cif.g08.bks.cpg/sg28_4_cif.got.tgz:6442.got - 2010.06.04 01:15:21.
