data_PCOD9339892
_publ_section_title
;
Structure prediction by ZEFSAII (Michael W. Deem and Ramdas Pophale) SiO2 
 PCOD9339892
Probable space group: P M A 2
;
_chemical_formula_sum "Si O2"
_cell_formula_units_Z 32
_cell_length_a 18.799132
_cell_length_b 14.559616
_cell_length_c 5.125514
_cell_angle_alpha 90.000000
_cell_angle_beta 90.000000
_cell_angle_gamma 90.000000
_cell_volume 1402.894919
_symmetry_space_group_name_H-M "P M A 2"
_symmetry_group_IT_number 28
_symmetry_cell_setting 'orthorhombic'
loop_
_space_group_symop_operation_xyz
x,y,z
-x,-y,z
1/2-x,y,z
1/2+x,-y,z
loop_
_atom_site_type_symbol
_atom_site_label
_atom_site_fract_x
_atom_site_fract_y
_atom_site_fract_z
Si Si1 0.668203 0.471349 0.065380
Si Si2 0.059511 0.760375 0.181934
Si Si3 0.588328 0.392097 0.551705
Si Si4 0.960632 0.683298 0.763396
Si Si5 0.927951 0.832654 0.368063
Si Si6 0.167043 0.989338 0.374143
Si Si7 0.169979 0.314626 0.055063
Si Si8 0.831935 0.131983 0.862695
O O1 0.750000 0.436783 0.068466
O O2 0.618875 0.437630 0.296600
O O3 0.673628 0.579689 0.137010
O O4 0.631699 0.434018 0.796746
O O5 0.091239 0.715055 0.444478
O O6 0.003414 0.843524 0.220955
O O7 0.120585 0.788487 0.984795
O O8 0.006629 0.689952 0.028870
O O9 0.503573 0.393089 0.605683
O O10 0.956738 0.782222 0.626094
O O11 0.877708 0.667775 0.799660
O O12 0.883953 0.924088 0.405226
O O13 0.875363 0.758920 0.222840
O O14 0.250000 0.014471 0.425883
O O15 0.147444 0.911846 0.586407
O O16 0.163752 0.947851 0.083903
O O17 0.250000 0.280106 0.014011
O O18 0.750000 0.162035 0.842995
#
# Coordination Sequence:
#
# PCOD9339892 Si02
#       8
#     4   4   4   4   4   4   4   4
#     4  11  25  44  68 103 136 178 234 286 343 409
#     4  10  23  45  66  99 135 180 233 280 344 416
#     4  11  23  46  68  96 141 177 227 290 335 417
#     4  10  23  45  66 100 135 176 233 277 343 416
#     4  10  23  42  67  98 135 182 225 281 346 416
#     4  10  23  43  66  99 134 171 223 277 338 410
#     4  10  24  44  68 100 140 180 230 287 345 415
#     4  10  24  43  66  97 134 174 225 281 337 406
#
# _framework density 22.809978999999998
#
# number of rings (size 3 to 8) (size 9 to 14) (size 15 to 20)
#    0.000    1.750    1.250    0.750    8.750    3.000 
#    4.500    0.000    0.000    0.000    0.000    0.000 
#    0.000    0.000    0.000    0.000    0.000    0.000 
#
# Total GULP energy -178247.809571 kJ/mol
# GULP energy per Si atom -5570.244049 kJ/mol
# Density = 2.275806 g / cm^3
# Si number density = 22.809979 Si / 1000 Ang^3
#
#
#
# Elastic Constant Matrix: (Units=GPa)
#
#
# Indices 1 2 3 4 5 6 
#
# 1 86.7436 20.2420 19.7547 0.0000 0.0000 0.0000
# 2 20.2420 53.5506 1.8298 0.0000 0.0000 0.0000
# 3 19.7547 1.8298 88.3311 0.0000 0.0000 0.0000
# 4 0.0000 0.0000 0.0000 23.9311 0.0000 0.0000
# 5 0.0000 0.0000 0.0000 0.0000 21.1613 0.0000
# 6 0.0000 0.0000 0.0000 0.0000 0.0000 44.7399
#
#
#
# Elastic Compliance Matrix: (Units=1/GPa)
#
#
# Indices 1 2 3 4 5 6 
#
# 1 0.013338 -0.004943 -0.002880 0.000000 0.000000 0.000000
# 2 -0.004943 0.020519 0.000680 0.000000 0.000000 0.000000
# 3 -0.002880 0.000680 0.011951 0.000000 0.000000 0.000000
# 4 0.000000 0.000000 0.000000 0.041787 0.000000 0.000000
# 5 0.000000 0.000000 0.000000 0.000000 0.047256 0.000000
# 6 0.000000 0.000000 0.000000 0.000000 0.000000 0.022351
#
#
# Mechanical properties :
#
#
# Convention : Reuss Voigt Hill
#
# Bulk Modulus (GPa) = 31.72427 34.69756 33.21092
# Shear Modulus (GPa) = 27.47317 30.41974 28.94645
#
# Velocity S-wave (km/s) = 3.47426 3.65583 3.56620
# Velocity P-wave (km/s) = 5.48017 5.75019 5.61681
#
# Compressibility (1/GPa) = 0.03152161
#
# Stress axis : x y z
#
# Youngs Moduli (GPa) = 74.97527 48.73484 83.67392
#
# Poissons Ratio (x) = 0.24091 0.24102
# Poissons Ratio (y) = 0.37062 -0.05694
# Poissons Ratio (z) = 0.21597 -0.03316
#
# Static dielectric constant tensor:
#      x y z
#    x 1.889190 0.000000 0.000000 
#    y 0.000000 1.921180 0.000000 
#    z 0.000000 0.000000 1.933320 
# 
# From -- ./inp_files/1217.got.cif
#   From: 2010.05.17/outbox.cif.g08.bks.cpg/sg28_1_cif.got.tgz:1217.got - 2010.06.04 01:15:21.
