data_PCOD9339417
_publ_section_title
;
Structure prediction by ZEFSAII (Michael W. Deem and Ramdas Pophale) SiO2 
 PCOD9339417
Probable space group: P M A 2
;
_chemical_formula_sum "Si O2"
_cell_formula_units_Z 20
_cell_length_a 8.721207
_cell_length_b 9.943281
_cell_length_c 13.295663
_cell_angle_alpha 90.000000
_cell_angle_beta 90.000000
_cell_angle_gamma 90.000000
_cell_volume 1152.965484
_symmetry_space_group_name_H-M "P M A 2"
_symmetry_group_IT_number 28
_symmetry_cell_setting 'orthorhombic'
loop_
_space_group_symop_operation_xyz
x,y,z
-x,-y,z
1/2-x,y,z
1/2+x,-y,z
loop_
_atom_site_type_symbol
_atom_site_label
_atom_site_fract_x
_atom_site_fract_y
_atom_site_fract_z
Si Si1 0.934132 0.150855 0.115260
Si Si2 0.065406 0.647354 0.939983
Si Si3 0.934055 0.351737 0.709729
Si Si4 0.066237 0.150897 0.545305
Si Si5 0.566441 0.848735 0.322012
O O1 0.750000 0.143058 0.118176
O O2 0.983310 0.243130 0.021900
O O3 0.006310 0.788655 0.221190
O O4 0.000000 0.000000 0.104980
O O5 0.250000 0.640080 0.942917
O O6 0.000000 0.500000 0.962674
O O7 0.021272 0.682582 0.825160
O O8 0.750000 0.355020 0.703897
O O9 0.000000 0.500000 0.688665
O O10 0.998928 0.245231 0.631149
O O11 0.250000 0.143980 0.553078
O O12 0.028971 0.206628 0.432902
O O13 0.000000 0.000000 0.553546
O O14 0.750000 0.852888 0.311267
O O15 0.500000 0.000000 0.324474
#
# Coordination Sequence:
#
# PCOD9339417 Si02
#       5
#     4   4   4   4   4
#     4  10  19  32  51  76 103 131 166 205 247 295
#     4   9  20  36  53  74 100 132 168 206 250 299
#     4  10  20  36  55  75 102 135 171 210 255 305
#     4  10  20  34  53  78 105 134 170 211 254 300
#     4   9  17  30  49  73 101 132 165 202 248 297
#
# _framework density 17.346572999999999
#
# number of rings (size 3 to 8) (size 9 to 14) (size 15 to 20)
#    0.000    2.400    0.000    3.600    0.000    5.600 
#    0.000    3.000    0.000    2.400    0.000    0.000 
#    0.000    0.000    0.000    0.000    0.000    0.000 
#
# Total GULP energy -111499.353464 kJ/mol
# GULP energy per Si atom -5574.967673 kJ/mol
# Density = 1.730709 g / cm^3
# Si number density = 17.346573 Si / 1000 Ang^3
#
#
#
# Elastic Constant Matrix: (Units=GPa)
#
#
# Indices 1 2 3 4 5 6 
#
# 1 58.2584 34.7059 56.8091 0.0000 0.0000 0.0000
# 2 34.7059 79.7392 99.6780 0.0000 0.0000 0.0000
# 3 56.8091 99.6780 178.9039 0.0000 0.0000 0.0000
# 4 0.0000 0.0000 0.0000 -17.8378 0.0000 0.0000
# 5 0.0000 0.0000 0.0000 0.0000 34.3962 0.0000
# 6 0.0000 0.0000 0.0000 0.0000 0.0000 25.6930
#
#
#
# Elastic Compliance Matrix: (Units=1/GPa)
#
#
# Indices 1 2 3 4 5 6 
#
# 1 0.025104 -0.003168 -0.006207 0.000000 0.000000 0.000000
# 2 -0.003168 0.041718 -0.022237 0.000000 0.000000 0.000000
# 3 -0.006207 -0.022237 0.019950 0.000000 0.000000 0.000000
# 4 0.000000 0.000000 0.000000 -0.056061 0.000000 0.000000
# 5 0.000000 0.000000 0.000000 0.000000 0.029073 0.000000
# 6 0.000000 0.000000 0.000000 0.000000 0.000000 0.038921
#
#
# Mechanical properties :
#
#
# Convention : Reuss Voigt Hill
#
# Bulk Modulus (GPa) = 42.46599 77.69861 60.08230
# Shear Modulus (GPa) = 29.45009 16.83084 23.14047
#
# Velocity S-wave (km/s) = 4.12484 3.11829 3.65637
# Velocity P-wave (km/s) = 6.87167 7.60619 7.24824
#
# Compressibility (1/GPa) = 0.02354826
#
# Stress axis : x y z
#
# Youngs Moduli (GPa) = 39.83388 23.97068 50.12479
#
# Poissons Ratio (x) = 0.07594 0.31110
# Poissons Ratio (y) = 0.12619 1.11465
# Poissons Ratio (z) = 0.24723 0.53305
#
# Static dielectric constant tensor:
#      x y z
#    x 1.579290 0.000000 0.000000 
#    y 0.000000 1.541610 0.000000 
#    z 0.000000 0.000000 1.628810 
# 
# From -- ./inp_files/5298.got.cif
#   From: 2010.05.17/outbox.cif.g08.bks.cpg/sg28_3_cif.got.tgz:5298.got - 2010.06.04 01:15:21.
