data_PCOD9339582
_publ_section_title
;
Structure prediction by ZEFSAII (Michael W. Deem and Ramdas Pophale) SiO2 
 PCOD9339582
Probable space group: P M A 2
;
_chemical_formula_sum "Si O2"
_cell_formula_units_Z 28
_cell_length_a 8.608381
_cell_length_b 9.329898
_cell_length_c 19.256253
_cell_angle_alpha 90.000000
_cell_angle_beta 90.000000
_cell_angle_gamma 90.000000
_cell_volume 1546.572058
_symmetry_space_group_name_H-M "P M A 2"
_symmetry_group_IT_number 28
_symmetry_cell_setting 'orthorhombic'
loop_
_space_group_symop_operation_xyz
x,y,z
-x,-y,z
1/2-x,y,z
1/2+x,-y,z
loop_
_atom_site_type_symbol
_atom_site_label
_atom_site_fract_x
_atom_site_fract_y
_atom_site_fract_z
Si Si1 0.063307 0.160987 0.810710
Si Si2 0.064169 0.338712 0.946592
Si Si3 0.435367 0.337956 0.534767
Si Si4 0.062774 0.662888 0.240259
Si Si5 0.064419 0.838323 0.664162
Si Si6 0.063489 0.663516 0.090141
Si Si7 0.063038 0.663597 0.390564
O O1 0.250000 0.157717 0.805597
O O2 0.017935 0.251190 0.878325
O O3 0.994999 0.219821 0.738448
O O4 0.000000 0.000000 0.818224
O O5 0.250000 0.344444 0.950128
O O6 0.000000 0.500000 0.941099
O O7 0.002370 0.272631 0.018959
O O8 0.500000 0.500000 0.538661
O O9 0.250000 0.341412 0.535705
O O10 0.500179 0.251244 0.599850
O O11 0.492735 0.273377 0.461038
O O12 0.250000 0.656045 0.240318
O O13 0.017541 0.727883 0.315139
O O14 0.000000 0.500000 0.240162
O O15 0.016551 0.727641 0.165420
O O16 0.750000 0.159461 0.663476
O O17 0.000000 0.000000 0.658978
O O18 0.750000 0.339696 0.085940
O O19 0.000000 0.500000 0.091006
O O20 0.250000 0.661464 0.396174
O O21 0.000000 0.500000 0.388794
#
# Coordination Sequence:
#
# PCOD9339582 Si02
#       7
#     4   4   4   4   4   4   4
#     4  10  21  37  55  75  98 126 163 203 243 291
#     4  10  20  32  48  72 101 130 161 199 243 290
#     4  11  21  34  51  75 105 135 168 206 250 296
#     4   8  14  22  35  57  87 123 160 196 236 283
#     4  11  22  38  58  78 100 129 164 203 247 296
#     4   9  15  24  39  61  91 126 161 197 239 284
#     4   9  15  25  40  62  93 127 162 200 243 288
#
# _framework density 18.104555999999999
#
# number of rings (size 3 to 8) (size 9 to 14) (size 15 to 20)
#    0.000    2.286    0.000    6.857    0.000    4.000 
#    0.000    1.429    0.000    0.000    0.000    1.000 
#    0.000    2.286    0.000    0.000    0.000    0.000 
#
# Total GULP energy -156005.245218 kJ/mol
# GULP energy per Si atom -5571.615901 kJ/mol
# Density = 1.806335 g / cm^3
# Si number density = 18.104556 Si / 1000 Ang^3
#
#
#
# Elastic Constant Matrix: (Units=GPa)
#
#
# Indices 1 2 3 4 5 6 
#
# 1 92.9770 15.0834 67.8914 0.0000 0.0000 0.0000
# 2 15.0834 19.1334 47.9625 0.0000 0.0000 0.0000
# 3 67.8914 47.9625 248.4912 0.0000 0.0000 0.0000
# 4 0.0000 0.0000 0.0000 -15.5897 0.0000 0.0000
# 5 0.0000 0.0000 0.0000 0.0000 -18.5650 0.0000
# 6 0.0000 0.0000 0.0000 0.0000 0.0000 15.5638
#
#
#
# Elastic Compliance Matrix: (Units=1/GPa)
#
#
# Indices 1 2 3 4 5 6 
#
# 1 0.013508 -0.002707 -0.003168 0.000000 0.000000 0.000000
# 2 -0.002707 0.101799 -0.018909 0.000000 0.000000 0.000000
# 3 -0.003168 -0.018909 0.008540 0.000000 0.000000 0.000000
# 4 0.000000 0.000000 0.000000 -0.064145 0.000000 0.000000
# 5 0.000000 0.000000 0.000000 0.000000 -0.053865 0.000000
# 6 0.000000 0.000000 0.000000 0.000000 0.000000 0.064252
#
#
# Mechanical properties :
#
#
# Convention : Reuss Voigt Hill
#
# Bulk Modulus (GPa) = 13.46299 69.16402 41.31351
# Shear Modulus (GPa) = 34.62221 11.59277 23.10749
#
# Velocity S-wave (km/s) = 4.37778 2.53321 3.57646
# Velocity P-wave (km/s) = 5.74506 6.84410 6.31852
#
# Compressibility (1/GPa) = 0.07427769
#
# Stress axis : x y z
#
# Youngs Moduli (GPa) = 74.03137 9.82329 117.10204
#
# Poissons Ratio (x) = 0.02659 0.37098
# Poissons Ratio (y) = 0.20042 2.21429
# Poissons Ratio (z) = 0.23453 0.18575
#
# Static dielectric constant tensor:
#      x y z
#    x 1.606290 0.000000 0.000000 
#    y 0.000000 1.582790 0.000000 
#    z 0.000000 0.000000 1.706520 
# 
# From -- ./inp_files/6902.got.cif
#   From: 2010.05.17/outbox.cif.g08.bks.cpg/sg28_4_cif.got.tgz:6902.got - 2010.06.04 01:15:21.
