data_PCOD9339121
_publ_section_title
;
Structure prediction by ZEFSAII (Michael W. Deem and Ramdas Pophale) SiO2 
 PCOD9339121
Probable space group: P C C 2
;
_chemical_formula_sum "Si O2"
_cell_formula_units_Z 24
_cell_length_a 11.060359
_cell_length_b 7.953499
_cell_length_c 11.935935
_cell_angle_alpha 90.000000
_cell_angle_beta 90.000000
_cell_angle_gamma 90.000000
_cell_volume 1049.986946
_symmetry_space_group_name_H-M "P C C 2"
_symmetry_group_IT_number 27
_symmetry_cell_setting 'orthorhombic'
loop_
_space_group_symop_operation_xyz
x,y,z
-x,-y,z
-x,y,1/2+z
x,-y,1/2+z
loop_
_atom_site_type_symbol
_atom_site_label
_atom_site_fract_x
_atom_site_fract_y
_atom_site_fract_z
Si Si1 0.072523 0.328713 0.691090
Si Si2 0.281843 0.832926 0.299650
Si Si3 0.237521 0.344475 0.484995
Si Si4 0.713234 0.728231 0.034579
Si Si5 0.160293 0.177687 0.252532
Si Si6 0.536745 0.302802 0.142660
O O1 0.197001 0.320324 0.759273
O O2 0.118745 0.313151 0.562992
O O3 0.000000 0.500000 0.707420
O O4 0.984540 0.189107 0.745225
O O5 0.268617 0.852596 0.431919
O O6 0.414817 0.785372 0.255377
O O7 0.224960 0.997953 0.245105
O O8 0.271854 0.541970 0.483051
O O9 0.211839 0.268614 0.363253
O O10 0.353856 0.276656 0.554049
O O11 0.804629 0.732670 0.136687
O O12 0.584097 0.766980 0.088563
O O13 0.500000 0.500000 0.662004
#
# Coordination Sequence:
#
# PCOD9339121 Si02
#       6
#     4   4   4   4   4   4
#     4  11  23  47  74 102 141 195 248 300 360 440
#     4  11  27  46  71 108 152 185 244 307 372 431
#     4  10  24  46  73 104 141 186 252 295 354 443
#     4  11  25  45  75 103 142 193 245 295 366 437
#     4  12  27  45  72 110 148 189 241 303 377 429
#     4   9  23  46  74 102 139 193 241 298 356 429
#
# _framework density 22.857426
#
# number of rings (size 3 to 8) (size 9 to 14) (size 15 to 20)
#    0.000    1.333    1.667    1.500   14.000    2.000 
#    0.000    0.000    0.000    0.000    0.000    0.000 
#    0.000    0.000    0.000    0.000    0.000    0.000 
#
# Total GULP energy -134046.321825 kJ/mol
# GULP energy per Si atom -5585.263409 kJ/mol
# Density = 2.280540 g / cm^3
# Si number density = 22.857426 Si / 1000 Ang^3
#
#
#
# Elastic Constant Matrix: (Units=GPa)
#
#
# Indices 1 2 3 4 5 6 
#
# 1 75.1773 15.6053 20.4330 0.0000 0.0000 0.0000
# 2 15.6053 56.7980 17.3121 0.0000 0.0000 0.0000
# 3 20.4330 17.3121 109.5288 0.0000 0.0000 0.0000
# 4 0.0000 0.0000 0.0000 26.6142 0.0000 0.0000
# 5 0.0000 0.0000 0.0000 0.0000 16.6321 0.0000
# 6 0.0000 0.0000 0.0000 0.0000 0.0000 31.3508
#
#
#
# Elastic Compliance Matrix: (Units=1/GPa)
#
#
# Indices 1 2 3 4 5 6 
#
# 1 0.014592 -0.003340 -0.002194 0.000000 0.000000 0.000000
# 2 -0.003340 0.019262 -0.002421 0.000000 0.000000 0.000000
# 3 -0.002194 -0.002421 0.009922 0.000000 0.000000 0.000000
# 4 0.000000 0.000000 0.000000 0.037574 0.000000 0.000000
# 5 0.000000 0.000000 0.000000 0.000000 0.060125 0.000000
# 6 0.000000 0.000000 0.000000 0.000000 0.000000 0.031897
#
#
# Mechanical properties :
#
#
# Convention : Reuss Voigt Hill
#
# Bulk Modulus (GPa) = 35.88854 38.68943 37.28898
# Shear Modulus (GPa) = 25.17988 27.46300 26.32144
#
# Velocity S-wave (km/s) = 3.32265 3.47001 3.39713
# Velocity P-wave (km/s) = 5.51861 5.74611 5.63351
#
# Compressibility (1/GPa) = 0.02786405
#
# Stress axis : x y z
#
# Youngs Moduli (GPa) = 68.53250 51.91557 100.78542
#
# Poissons Ratio (x) = 0.17341 0.22114
# Poissons Ratio (y) = 0.22892 0.24404
# Poissons Ratio (z) = 0.15037 0.12571
#
# Static dielectric constant tensor:
#      x y z
#    x 1.870040 0.000000 0.000000 
#    y 0.000000 1.927730 0.000000 
#    z 0.000000 0.000000 1.856240 
# 
# From -- ./inp_files/2320.got.cif
#   From: 2010.05.17/outbox.cif.g08.bks.cpg/sg27_2_cif.got.tgz:2320.got - 2010.06.04 01:11:05.
