data_PCOD9339630
_publ_section_title
;
Structure prediction by ZEFSAII (Michael W. Deem and Ramdas Pophale) SiO2 
 PCOD9339630
Probable space group: P M A 2
;
_chemical_formula_sum "Si O2"
_cell_formula_units_Z 24
_cell_length_a 8.662849
_cell_length_b 9.182301
_cell_length_c 15.993582
_cell_angle_alpha 90.000000
_cell_angle_beta 90.000000
_cell_angle_gamma 90.000000
_cell_volume 1272.207673
_symmetry_space_group_name_H-M "P M A 2"
_symmetry_group_IT_number 28
_symmetry_cell_setting 'orthorhombic'
loop_
_space_group_symop_operation_xyz
x,y,z
-x,-y,z
1/2-x,y,z
1/2+x,-y,z
loop_
_atom_site_type_symbol
_atom_site_label
_atom_site_fract_x
_atom_site_fract_y
_atom_site_fract_z
Si Si1 0.934727 0.837129 0.930130
Si Si2 0.565650 0.335680 0.586971
Si Si3 0.065641 0.336139 0.415226
Si Si4 0.564239 0.837035 0.247424
Si Si5 0.934868 0.336897 0.088862
Si Si6 0.435803 0.664945 0.772639
O O1 0.750000 0.839014 0.934093
O O2 0.990557 0.761508 0.844775
O O3 0.000000 0.000000 0.934628
O O4 0.001329 0.745440 0.007480
O O5 0.500000 0.500000 0.588191
O O6 0.750000 0.340561 0.579373
O O7 0.496367 0.269852 0.502417
O O8 0.527196 0.276116 0.679110
O O9 0.250000 0.346233 0.420127
O O10 0.023053 0.241439 0.334679
O O11 0.000000 0.500000 0.405984
O O12 0.750000 0.838448 0.239769
O O13 0.493288 0.747340 0.170797
O O14 0.500000 0.000000 0.245982
O O15 0.750000 0.339458 0.086824
O O16 0.000000 0.500000 0.090087
O O17 0.500000 0.500000 0.779066
O O18 0.250000 0.660941 0.781324
#
# Coordination Sequence:
#
# PCOD9339630 Si02
#       6
#     4   4   4   4   4   4
#     4  12  25  42  62  86 118 155 192 236 288 345
#     4   9  17  30  53  82 114 149 190 238 287 336
#     4  10  20  34  56  84 115 150 193 240 288 340
#     4  11  24  41  60  86 118 155 194 237 289 345
#     4  12  25  43  66  91 118 150 190 237 284 339
#     4  10  20  36  58  87 118 153 196 242 289 341
#
# _framework density 18.864844000000002
#
# number of rings (size 3 to 8) (size 9 to 14) (size 15 to 20)
#    0.000    1.333    0.000    7.500    0.000    6.000 
#    0.000    0.833    0.000    2.000    0.000    0.000 
#    0.000    0.000    0.000    0.000    0.000    0.000 
#
# Total GULP energy -134145.721050 kJ/mol
# GULP energy per Si atom -5589.405044 kJ/mol
# Density = 1.882191 g / cm^3
# Si number density = 18.864844 Si / 1000 Ang^3
#
#
#
# Elastic Constant Matrix: (Units=GPa)
#
#
# Indices 1 2 3 4 5 6 
#
# 1 133.4539 61.6873 95.1184 0.0000 0.0000 0.0000
# 2 61.6873 133.7103 103.4765 0.0000 0.0000 0.0000
# 3 95.1184 103.4765 227.3127 0.0000 0.0000 0.0000
# 4 0.0000 0.0000 0.0000 75.4900 0.0000 0.0000
# 5 0.0000 0.0000 0.0000 0.0000 34.0042 0.0000
# 6 0.0000 0.0000 0.0000 0.0000 0.0000 27.2024
#
#
#
# Elastic Compliance Matrix: (Units=1/GPa)
#
#
# Indices 1 2 3 4 5 6 
#
# 1 0.011142 -0.002366 -0.003586 0.000000 0.000000 0.000000
# 2 -0.002366 0.012049 -0.004495 0.000000 0.000000 0.000000
# 3 -0.003586 -0.004495 0.007946 0.000000 0.000000 0.000000
# 4 0.000000 0.000000 0.000000 0.013247 0.000000 0.000000
# 5 0.000000 0.000000 0.000000 0.000000 0.029408 0.000000
# 6 0.000000 0.000000 0.000000 0.000000 0.000000 0.036761
#
#
# Mechanical properties :
#
#
# Convention : Reuss Voigt Hill
#
# Bulk Modulus (GPa) = 97.61278 112.78237 105.19757
# Shear Modulus (GPa) = 37.07534 42.95228 40.01381
#
# Velocity S-wave (km/s) = 4.43800 4.77680 4.61051
# Velocity P-wave (km/s) = 8.83836 9.50463 9.17754
#
# Compressibility (1/GPa) = 0.01024456
#
# Stress axis : x y z
#
# Youngs Moduli (GPa) = 89.74780 82.99571 125.85324
#
# Poissons Ratio (x) = 0.19634 0.45126
# Poissons Ratio (y) = 0.21232 0.56570
# Poissons Ratio (z) = 0.32180 0.37306
#
# Static dielectric constant tensor:
#      x y z
#    x 1.630220 0.000000 0.000000 
#    y 0.000000 1.604270 0.000000 
#    z 0.000000 0.000000 1.671580 
# 
# From -- ./inp_files/6095.got.cif
#   From: 2010.05.17/outbox.cif.g08.bks.cpg/sg28_4_cif.got.tgz:6095.got - 2010.06.04 01:15:21.
