data_PCOD9339167
_publ_section_title
;
Structure prediction by ZEFSAII (Michael W. Deem and Ramdas Pophale) SiO2 
 PCOD9339167
Probable space group: P C C 2
;
_chemical_formula_sum "Si O2"
_cell_formula_units_Z 30
_cell_length_a 8.986080
_cell_length_b 11.844651
_cell_length_c 13.959678
_cell_angle_alpha 90.000000
_cell_angle_beta 90.000000
_cell_angle_gamma 90.000000
_cell_volume 1485.825988
_symmetry_space_group_name_H-M "P C C 2"
_symmetry_group_IT_number 27
_symmetry_cell_setting 'orthorhombic'
loop_
_space_group_symop_operation_xyz
x,y,z
-x,-y,z
-x,y,1/2+z
x,-y,1/2+z
loop_
_atom_site_type_symbol
_atom_site_label
_atom_site_fract_x
_atom_site_fract_y
_atom_site_fract_z
Si Si1 0.830568 0.219658 0.609410
Si Si2 0.625995 0.575684 0.094889
Si Si3 0.081800 0.788354 0.969971
Si Si4 0.343006 0.653367 0.040000
Si Si5 0.500000 0.000000 0.837552
Si Si6 0.726263 0.994704 0.510334
Si Si7 0.974886 0.129195 0.277927
Si Si8 0.647675 0.849691 0.687613
O O1 0.720678 0.321850 0.634207
O O2 0.757700 0.122188 0.543138
O O3 0.972955 0.262457 0.549426
O O4 0.898197 0.159897 0.701810
O O5 0.500000 0.500000 0.152072
O O6 0.515567 0.629679 0.014282
O O7 0.723045 0.471671 0.056436
O O8 0.998694 0.793975 0.870113
O O9 0.237660 0.722317 0.970280
O O10 0.128406 0.915384 0.000950
O O11 0.360266 0.727549 0.137394
O O12 0.532143 0.893476 0.767538
O O13 0.638686 0.011882 0.910182
O O14 0.639321 0.933894 0.596890
O O15 0.812020 0.140860 0.232881
O O16 0.000000 0.000000 0.305595
#
# Coordination Sequence:
#
# PCOD9339167 Si02
#       8
#     4   4   4   4   2   4   4   4
#     4  12  21  40  70  89 131 179 208 271 333 383
#     4   8  22  41  69  88 118 177 224 273 332 385
#     4  11  22  39  65  96 132 166 214 266 328 401
#     4   8  20  43  63  87 126 163 222 275 323 384
#     4  12  26  34  62 100 140 178 208 268 336 410
#     4  11  24  39  58 101 134 168 214 260 331 408
#     4  12  22  39  63 102 137 172 212 262 332 410
#     4  11  22  40  61  95 132 173 216 270 320 406
#
# _framework density 20.190788999999999
#
# number of rings (size 3 to 8) (size 9 to 14) (size 15 to 20)
#    0.800    0.533    4.000    3.200    5.600    0.533 
#    0.000    0.000   11.733    0.000    0.000    0.000 
#    0.000    0.000    0.000    0.000    0.000    0.000 
#
# Total GULP energy -167074.482786 kJ/mol
# GULP energy per Si atom -5569.149426 kJ/mol
# Density = 2.014483 g / cm^3
# Si number density = 20.190789 Si / 1000 Ang^3
#
#
#
# Elastic Constant Matrix: (Units=GPa)
#
#
# Indices 1 2 3 4 5 6 
#
# 1 58.7506 39.2526 17.2397 0.0000 0.0000 0.0000
# 2 39.2526 104.6040 15.9648 0.0000 0.0000 0.0000
# 3 17.2397 15.9648 86.1377 0.0000 0.0000 0.0000
# 4 0.0000 0.0000 0.0000 2.6608 0.0000 0.0000
# 5 0.0000 0.0000 0.0000 0.0000 29.5462 0.0000
# 6 0.0000 0.0000 0.0000 0.0000 0.0000 42.2436
#
#
#
# Elastic Compliance Matrix: (Units=1/GPa)
#
#
# Indices 1 2 3 4 5 6 
#
# 1 0.023524 -0.008345 -0.003162 0.000000 0.000000 0.000000
# 2 -0.008345 0.012798 -0.000702 0.000000 0.000000 0.000000
# 3 -0.003162 -0.000702 0.012372 0.000000 0.000000 0.000000
# 4 0.000000 0.000000 0.000000 0.375820 0.000000 0.000000
# 5 0.000000 0.000000 0.000000 0.000000 0.033845 0.000000
# 6 0.000000 0.000000 0.000000 0.000000 0.000000 0.023672
#
#
# Mechanical properties :
#
#
# Convention : Reuss Voigt Hill
#
# Bulk Modulus (GPa) = 41.18937 43.82295 42.50616
# Shear Modulus (GPa) = 9.71738 26.69248 18.20493
#
# Velocity S-wave (km/s) = 2.19619 3.63989 3.00600
# Velocity P-wave (km/s) = 5.18414 6.27827 5.75726
#
# Compressibility (1/GPa) = 0.02427811
#
# Stress axis : x y z
#
# Youngs Moduli (GPa) = 42.50934 78.13463 80.82663
#
# Poissons Ratio (x) = 0.65203 0.25554
# Poissons Ratio (y) = 0.35474 0.05673
# Poissons Ratio (z) = 0.13439 0.05484
#
# Static dielectric constant tensor:
#      x y z
#    x 1.788440 0.000000 0.000000 
#    y 0.000000 1.747440 0.000000 
#    z 0.000000 0.000000 1.711360 
# 
# From -- ./inp_files/3409.got.cif
#   From: 2010.05.17/outbox.cif.g08.bks.cpg/sg27_2_cif.got.tgz:3409.got - 2010.06.04 01:11:05.
