data_PCOD9339438
_publ_section_title
;
Structure prediction by ZEFSAII (Michael W. Deem and Ramdas Pophale) SiO2 
 PCOD9339438
Probable space group: P M A 2
;
_chemical_formula_sum "Si O2"
_cell_formula_units_Z 32
_cell_length_a 8.770935
_cell_length_b 17.342978
_cell_length_c 11.162840
_cell_angle_alpha 90.000000
_cell_angle_beta 90.000000
_cell_angle_gamma 90.000000
_cell_volume 1698.025726
_symmetry_space_group_name_H-M "P M A 2"
_symmetry_group_IT_number 28
_symmetry_cell_setting 'orthorhombic'
loop_
_space_group_symop_operation_xyz
x,y,z
-x,-y,z
1/2-x,y,z
1/2+x,-y,z
loop_
_atom_site_type_symbol
_atom_site_label
_atom_site_fract_x
_atom_site_fract_y
_atom_site_fract_z
Si Si1 0.070993 0.219294 0.784640
Si Si2 0.429870 0.425900 0.930561
Si Si3 0.928268 0.272235 0.019311
Si Si4 0.435256 0.415709 0.401293
Si Si5 0.565510 0.620714 0.671314
Si Si6 0.574853 0.082078 0.375361
Si Si7 0.575288 0.078419 0.663288
Si Si8 0.067912 0.747179 0.297451
O O1 0.250000 0.228604 0.809185
O O2 0.023843 0.291098 0.700561
O O3 0.984188 0.218804 0.910961
O O4 0.031080 0.144983 0.710966
O O5 0.500000 0.500000 0.991168
O O6 0.250000 0.432187 0.925701
O O7 0.477874 0.349880 0.998499
O O8 0.489731 0.419609 0.793360
O O9 0.750000 0.288588 0.002711
O O10 0.951361 0.245686 0.154378
O O11 0.500000 0.500000 0.358787
O O12 0.250000 0.417607 0.393573
O O13 0.485480 0.407755 0.541772
O O14 0.492560 0.334388 0.341177
O O15 0.750000 0.615133 0.669424
O O16 0.750000 0.081777 0.331504
O O17 0.575660 0.078349 0.519406
O O18 0.512030 0.168729 0.346335
O O19 0.500000 0.000000 0.334898
O O20 0.750000 0.087907 0.703337
O O21 0.500000 0.000000 0.706251
O O22 0.250000 0.741089 0.325101
#
# Coordination Sequence:
#
# PCOD9339438 Si02
#       8
#     4   4   4   4   4   4   4   4
#     4  10  19  34  55  79 108 138 174 219 268 322
#     4  10  19  33  53  77 105 135 174 222 272 324
#     4  10  21  37  55  74 101 139 182 224 267 316
#     4  11  22  36  55  80 111 146 184 225 274 331
#     4   8  17  32  51  77 106 136 170 215 269 325
#     4   9  19  36  59  87 115 143 178 223 274 329
#     4  10  19  32  53  82 113 141 171 209 261 322
#     4  10  22  40  58  78 108 146 188 233 275 319
#
# _framework density 18.845414999999999
#
# number of rings (size 3 to 8) (size 9 to 14) (size 15 to 20)
#    0.000    2.250    0.000    3.750    0.000    2.500 
#    0.000    6.875    0.000    1.500    0.000    0.000 
#    0.000    0.000    0.000    0.000    0.000    0.000 
#
# Total GULP energy -178193.968807 kJ/mol
# GULP energy per Si atom -5568.561525 kJ/mol
# Density = 1.880252 g / cm^3
# Si number density = 18.845415 Si / 1000 Ang^3
#
#
#
# Elastic Constant Matrix: (Units=GPa)
#
#
# Indices 1 2 3 4 5 6 
#
# 1 46.1835 27.7741 15.7979 0.0000 0.0000 0.0000
# 2 27.7741 142.0707 13.1194 0.0000 0.0000 0.0000
# 3 15.7979 13.1194 26.4021 0.0000 0.0000 0.0000
# 4 0.0000 0.0000 0.0000 -32.1639 0.0000 0.0000
# 5 0.0000 0.0000 0.0000 0.0000 19.8803 0.0000
# 6 0.0000 0.0000 0.0000 0.0000 0.0000 32.4064
#
#
#
# Elastic Compliance Matrix: (Units=1/GPa)
#
#
# Indices 1 2 3 4 5 6 
#
# 1 0.029584 -0.004348 -0.015541 0.000000 0.000000 0.000000
# 2 -0.004348 0.008016 -0.001382 0.000000 0.000000 0.000000
# 3 -0.015541 -0.001382 0.047861 0.000000 0.000000 0.000000
# 4 0.000000 0.000000 0.000000 -0.031091 0.000000 0.000000
# 5 0.000000 0.000000 0.000000 0.000000 0.050301 0.000000
# 6 0.000000 0.000000 0.000000 0.000000 0.000000 0.030858
#
#
# Mechanical properties :
#
#
# Convention : Reuss Voigt Hill
#
# Bulk Modulus (GPa) = 23.29927 36.44878 29.87403
# Shear Modulus (GPa) = 25.99047 14.55556 20.27301
#
# Velocity S-wave (km/s) = 3.71771 2.78216 3.28343
# Velocity P-wave (km/s) = 5.55146 5.45009 5.50101
#
# Compressibility (1/GPa) = 0.04291980
#
# Stress axis : x y z
#
# Youngs Moduli (GPa) = 33.80218 124.74409 20.89372
#
# Poissons Ratio (x) = 0.54243 0.32471
# Poissons Ratio (y) = 0.14698 0.02887
# Poissons Ratio (z) = 0.52532 0.17234
#
# Static dielectric constant tensor:
#      x y z
#    x 1.637460 0.000000 0.000000 
#    y 0.000000 2.211550 0.000000 
#    z 0.000000 0.000000 1.652940 
# 
# From -- ./inp_files/5083.got.cif
#   From: 2010.05.17/outbox.cif.g08.bks.cpg/sg28_3_cif.got.tgz:5083.got - 2010.06.04 01:15:21.
