data_PCOD9339695
_publ_section_title
;
Structure prediction by ZEFSAII (Michael W. Deem and Ramdas Pophale) SiO2 
 PCOD9339695
Probable space group: P M A 2
;
_chemical_formula_sum "Si O2"
_cell_formula_units_Z 32
_cell_length_a 20.859427
_cell_length_b 5.305442
_cell_length_c 13.634996
_cell_angle_alpha 90.000000
_cell_angle_beta 90.000000
_cell_angle_gamma 90.000000
_cell_volume 1508.964284
_symmetry_space_group_name_H-M "P M A 2"
_symmetry_group_IT_number 28
_symmetry_cell_setting 'orthorhombic'
loop_
_space_group_symop_operation_xyz
x,y,z
-x,-y,z
1/2-x,y,z
1/2+x,-y,z
loop_
_atom_site_type_symbol
_atom_site_label
_atom_site_fract_x
_atom_site_fract_y
_atom_site_fract_z
Si Si1 0.173362 0.163480 0.770720
Si Si2 0.820857 0.823357 0.142106
Si Si3 0.328268 0.656854 0.655329
Si Si4 0.040154 0.751689 0.262787
Si Si5 0.177171 0.836683 0.954513
Si Si6 0.925287 0.437901 0.065694
Si Si7 0.819316 0.909623 0.369751
Si Si8 0.627719 0.403899 0.440863
O O1 0.250000 0.180430 0.773830
O O2 0.153113 0.438806 0.733648
O O3 0.158220 0.937072 0.695100
O O4 0.156270 0.049535 0.876601
O O5 0.750000 0.685970 0.139631
O O6 0.881895 0.656558 0.114152
O O7 0.827614 0.919594 0.252969
O O8 0.815344 0.033432 0.059609
O O9 0.250000 0.637736 0.638098
O O10 0.369336 0.608205 0.557755
O O11 0.073470 0.764218 0.155533
O O12 0.074958 0.703952 0.365934
O O13 0.000000 0.500000 0.248718
O O14 0.000000 0.000000 0.273878
O O15 0.250000 0.740031 0.926379
O O16 0.118404 0.647273 0.973454
O O17 0.000000 0.500000 0.040668
O O18 0.750000 0.795125 0.391710
O O19 0.865725 0.696964 0.412150
O O20 0.820314 0.189072 0.412552
#
# Coordination Sequence:
#
# PCOD9339695 Si02
#       8
#     4   4   4   4   4   4   4   4
#     4   9  20  37  59  88 126 160 200 257 323 388
#     4  10  22  38  59  92 128 169 216 264 328 404
#     4  10  20  36  59  93 124 157 201 258 321 381
#     4  11  25  42  61  87 124 168 218 264 313 384
#     4  10  22  39  63  92 127 172 219 272 339 406
#     4  11  24  38  63  89 131 174 220 272 323 397
#     4  11  22  35  55  90 130 165 196 249 316 390
#     4  12  22  38  62  87 124 164 212 255 323 381
#
# _framework density 21.206600000000002
#
# number of rings (size 3 to 8) (size 9 to 14) (size 15 to 20)
#    0.000    1.500    1.250    3.750    7.000    1.000 
#    0.000    0.000    0.000    0.750    3.250    0.000 
#    0.000    0.000    0.000    0.000    0.000    0.000 
#
# Total GULP energy -178247.129015 kJ/mol
# GULP energy per Si atom -5570.222782 kJ/mol
# Density = 2.115833 g / cm^3
# Si number density = 21.206600 Si / 1000 Ang^3
#
#
#
# Elastic Constant Matrix: (Units=GPa)
#
#
# Indices 1 2 3 4 5 6 
#
# 1 89.3355 19.1052 12.6816 0.0000 0.0000 0.0000
# 2 19.1052 60.2689 2.8752 0.0000 0.0000 0.0000
# 3 12.6816 2.8752 66.4595 0.0000 0.0000 0.0000
# 4 0.0000 0.0000 0.0000 31.5881 0.0000 0.0000
# 5 0.0000 0.0000 0.0000 0.0000 21.9971 0.0000
# 6 0.0000 0.0000 0.0000 0.0000 0.0000 26.3574
#
#
#
# Elastic Compliance Matrix: (Units=1/GPa)
#
#
# Indices 1 2 3 4 5 6 
#
# 1 0.012317 -0.003800 -0.002186 0.000000 0.000000 0.000000
# 2 -0.003800 0.017799 -0.000045 0.000000 0.000000 0.000000
# 3 -0.002186 -0.000045 0.015466 0.000000 0.000000 0.000000
# 4 0.000000 0.000000 0.000000 0.031657 0.000000 0.000000
# 5 0.000000 0.000000 0.000000 0.000000 0.045461 0.000000
# 6 0.000000 0.000000 0.000000 0.000000 0.000000 0.037940
#
#
# Mechanical properties :
#
#
# Convention : Reuss Voigt Hill
#
# Bulk Modulus (GPa) = 29.83304 31.70977 30.77141
# Shear Modulus (GPa) = 27.19243 28.08198 27.63721
#
# Velocity S-wave (km/s) = 3.58475 3.64292 3.61395
# Velocity P-wave (km/s) = 5.58859 5.71662 5.65296
#
# Compressibility (1/GPa) = 0.03351988
#
# Stress axis : x y z
#
# Youngs Moduli (GPa) = 81.19038 56.18272 64.65880
#
# Poissons Ratio (x) = 0.21350 0.14133
# Poissons Ratio (y) = 0.30853 0.00290
# Poissons Ratio (z) = 0.17747 0.00252
#
# Static dielectric constant tensor:
#      x y z
#    x 1.889220 0.000000 0.000000 
#    y 0.000000 1.793120 0.000000 
#    z 0.000000 0.000000 1.802610 
# 
# From -- ./inp_files/5892.got.cif
#   From: 2010.05.17/outbox.cif.g08.bks.cpg/sg28_3_cif.got.tgz:5892.got - 2010.06.04 01:15:21.
