data_PCOD9339656
_publ_section_title
;
Structure prediction by ZEFSAII (Michael W. Deem and Ramdas Pophale) SiO2 
 PCOD9339656
Probable space group: P M A 2
;
_chemical_formula_sum "Si O2"
_cell_formula_units_Z 24
_cell_length_a 8.714834
_cell_length_b 9.776387
_cell_length_c 15.424936
_cell_angle_alpha 90.000000
_cell_angle_beta 90.000000
_cell_angle_gamma 90.000000
_cell_volume 1314.198220
_symmetry_space_group_name_H-M "P M A 2"
_symmetry_group_IT_number 28
_symmetry_cell_setting 'orthorhombic'
loop_
_space_group_symop_operation_xyz
x,y,z
-x,-y,z
1/2-x,y,z
1/2+x,-y,z
loop_
_atom_site_type_symbol
_atom_site_label
_atom_site_fract_x
_atom_site_fract_y
_atom_site_fract_z
Si Si1 0.064910 0.651675 0.713030
Si Si2 0.934209 0.149310 0.065493
Si Si3 0.065572 0.850705 0.556844
Si Si4 0.934749 0.148060 0.864841
Si Si5 0.565909 0.850984 0.367140
Si Si6 0.566059 0.652123 0.209570
O O1 0.250000 0.644972 0.714551
O O2 0.020604 0.739601 0.628513
O O3 0.013971 0.735753 0.798132
O O4 0.000000 0.500000 0.710998
O O5 0.750000 0.146162 0.071616
O O6 0.000699 0.264103 0.128170
O O7 0.977984 0.174957 0.964888
O O8 0.000000 0.000000 0.089483
O O9 0.250000 0.858856 0.553173
O O10 0.001289 0.816921 0.461645
O O11 0.000000 0.000000 0.580413
O O12 0.750000 0.140656 0.861231
O O13 0.000000 0.000000 0.839868
O O14 0.750000 0.860702 0.372786
O O15 0.524698 0.738753 0.295512
O O16 0.500000 0.000000 0.342493
O O17 0.500000 0.500000 0.212875
O O18 0.750000 0.646843 0.203906
#
# Coordination Sequence:
#
# PCOD9339656 Si02
#       6
#     4   4   4   4   4   4
#     4  10  22  37  53  78 111 145 180 218 265 319
#     4  10  20  36  59  84 111 143 182 227 271 321
#     4  10  20  35  57  82 107 138 178 223 267 315
#     4   9  19  36  57  82 109 140 180 223 267 316
#     4  10  21  37  58  82 107 139 179 222 269 320
#     4  11  24  39  56  80 111 147 183 223 274 327
#
# _framework density 18.262084999999999
#
# number of rings (size 3 to 8) (size 9 to 14) (size 15 to 20)
#    0.000    2.000    0.000    4.000    0.000    8.000 
#    0.000    5.000    0.000    0.000    0.000    0.000 
#    0.000    0.000    0.000    0.000    0.000    0.000 
#
# Total GULP energy -134072.588004 kJ/mol
# GULP energy per Si atom -5586.357833 kJ/mol
# Density = 1.822052 g / cm^3
# Si number density = 18.262085 Si / 1000 Ang^3
#
#
#
# Elastic Constant Matrix: (Units=GPa)
#
#
# Indices 1 2 3 4 5 6 
#
# 1 42.7742 53.3963 47.4116 0.0000 0.0000 0.0000
# 2 53.3963 193.1281 133.4158 0.0000 0.0000 0.0000
# 3 47.4116 133.4158 130.1638 0.0000 0.0000 0.0000
# 4 0.0000 0.0000 0.0000 -11.9628 0.0000 0.0000
# 5 0.0000 0.0000 0.0000 0.0000 21.6460 0.0000
# 6 0.0000 0.0000 0.0000 0.0000 0.0000 37.0042
#
#
#
# Elastic Compliance Matrix: (Units=1/GPa)
#
#
# Indices 1 2 3 4 5 6 
#
# 1 0.039847 -0.003393 -0.011037 0.000000 0.000000 0.000000
# 2 -0.003393 0.018026 -0.017241 0.000000 0.000000 0.000000
# 3 -0.011037 -0.017241 0.029374 0.000000 0.000000 0.000000
# 4 0.000000 0.000000 0.000000 -0.083592 0.000000 0.000000
# 5 0.000000 0.000000 0.000000 0.000000 0.046198 0.000000
# 6 0.000000 0.000000 0.000000 0.000000 0.000000 0.027024
#
#
# Mechanical properties :
#
#
# Convention : Reuss Voigt Hill
#
# Bulk Modulus (GPa) = 41.82855 92.72374 67.27614
# Shear Modulus (GPa) = 33.74154 18.12696 25.93425
#
# Velocity S-wave (km/s) = 4.30307 3.15398 3.77253
# Velocity P-wave (km/s) = 6.90238 8.00922 7.47631
#
# Compressibility (1/GPa) = 0.02390712
#
# Stress axis : x y z
#
# Youngs Moduli (GPa) = 25.09603 55.47561 34.04369
#
# Poissons Ratio (x) = 0.18821 0.37573
# Poissons Ratio (y) = 0.08514 0.58693
# Poissons Ratio (z) = 0.27698 0.95643
#
# Static dielectric constant tensor:
#      x y z
#    x 1.615470 0.000000 0.000000 
#    y 0.000000 1.584340 0.000000 
#    z 0.000000 0.000000 1.630540 
# 
# From -- ./inp_files/6041.got.cif
#   From: 2010.05.17/outbox.cif.g08.bks.cpg/sg28_4_cif.got.tgz:6041.got - 2010.06.04 01:15:21.
