data_PCOD9339338
_publ_section_title
;
Structure prediction by ZEFSAII (Michael W. Deem and Ramdas Pophale) SiO2 
 PCOD9339338
Probable space group: P M A 2
;
_chemical_formula_sum "Si O2"
_cell_formula_units_Z 32
_cell_length_a 8.496050
_cell_length_b 15.126713
_cell_length_c 12.668136
_cell_angle_alpha 90.000000
_cell_angle_beta 90.000000
_cell_angle_gamma 90.000000
_cell_volume 1628.074761
_symmetry_space_group_name_H-M "P M A 2"
_symmetry_group_IT_number 28
_symmetry_cell_setting 'orthorhombic'
loop_
_space_group_symop_operation_xyz
x,y,z
-x,-y,z
1/2-x,y,z
1/2+x,-y,z
loop_
_atom_site_type_symbol
_atom_site_label
_atom_site_fract_x
_atom_site_fract_y
_atom_site_fract_z
Si Si1 0.936260 0.411385 0.064310
Si Si2 0.059780 0.906295 0.165637
Si Si3 0.563280 0.906959 0.699138
Si Si4 0.061811 0.399759 0.439702
Si Si5 0.064631 0.319688 0.876633
Si Si6 0.934667 0.133549 0.927785
Si Si7 0.059366 0.288024 0.640160
Si Si8 0.061142 0.720602 0.250513
O O1 0.750000 0.416531 0.047764
O O2 0.970225 0.329723 0.140832
O O3 0.000000 0.500000 0.117720
O O4 0.026370 0.398949 0.954425
O O5 0.250000 0.904668 0.163495
O O6 0.007628 0.821626 0.233823
O O7 0.006802 0.896282 0.042899
O O8 0.000000 0.000000 0.206295
O O9 0.750000 0.907225 0.689333
O O10 0.520776 0.902189 0.823769
O O11 0.503623 0.814644 0.647448
O O12 0.500000 0.000000 0.656402
O O13 0.250000 0.405231 0.445129
O O14 0.001670 0.348296 0.544494
O O15 0.000000 0.500000 0.430781
O O16 0.014834 0.337000 0.342428
O O17 0.250000 0.296604 0.882255
O O18 0.024160 0.331031 0.753973
O O19 0.961832 0.238377 0.919600
O O20 0.750000 0.112154 0.919240
O O21 0.250000 0.283786 0.631355
O O22 0.250000 0.720517 0.266618
#
# Coordination Sequence:
#
# PCOD9339338 Si02
#       8
#     4   4   4   4   4   4   4   4
#     4  11  22  37  56  82 117 152 189 236 291 352
#     4  10  21  36  55  82 117 154 192 235 283 338
#     4  10  19  33  53  82 117 157 197 240 285 342
#     4  11  23  42  66  89 111 145 193 245 298 353
#     4  10  19  34  56  83 117 155 191 234 287 345
#     4  10  18  32  52  79 116 159 197 237 282 335
#     4   8  19  38  58  82 116 150 189 238 288 343
#     4  10  22  42  61  83 117 151 191 244 291 341
#
# _framework density 19.655117000000001
#
# number of rings (size 3 to 8) (size 9 to 14) (size 15 to 20)
#    0.000    2.000    1.250    3.375    0.000    5.000 
#    0.000    9.375    0.000    3.000    0.000    0.000 
#    0.000    0.000    0.000    0.000    0.000    0.000 
#
# Total GULP energy -178554.396122 kJ/mol
# GULP energy per Si atom -5579.824879 kJ/mol
# Density = 1.961038 g / cm^3
# Si number density = 19.655117 Si / 1000 Ang^3
#
#
#
# Elastic Constant Matrix: (Units=GPa)
#
#
# Indices 1 2 3 4 5 6 
#
# 1 27.2919 28.5615 26.6172 0.0000 0.0000 0.0000
# 2 28.5615 154.5860 62.4458 0.0000 0.0000 0.0000
# 3 26.6172 62.4458 99.6945 0.0000 0.0000 0.0000
# 4 0.0000 0.0000 0.0000 13.8231 0.0000 0.0000
# 5 0.0000 0.0000 0.0000 0.0000 10.4302 0.0000
# 6 0.0000 0.0000 0.0000 0.0000 0.0000 24.3278
#
#
#
# Elastic Compliance Matrix: (Units=1/GPa)
#
#
# Indices 1 2 3 4 5 6 
#
# 1 0.052739 -0.005430 -0.010679 0.000000 0.000000 0.000000
# 2 -0.005430 0.009219 -0.004325 0.000000 0.000000 0.000000
# 3 -0.010679 -0.004325 0.015591 0.000000 0.000000 0.000000
# 4 0.000000 0.000000 0.000000 0.072343 0.000000 0.000000
# 5 0.000000 0.000000 0.000000 0.000000 0.095875 0.000000
# 6 0.000000 0.000000 0.000000 0.000000 0.000000 0.041105
#
#
# Mechanical properties :
#
#
# Convention : Reuss Voigt Hill
#
# Bulk Modulus (GPa) = 27.26255 57.42461 42.34358
# Shear Modulus (GPa) = 14.70725 20.64607 17.67666
#
# Velocity S-wave (km/s) = 2.73841 3.24453 3.00216
# Velocity P-wave (km/s) = 4.88867 6.58145 5.79718
#
# Compressibility (1/GPa) = 0.03668036
#
# Stress axis : x y z
#
# Youngs Moduli (GPa) = 18.96126 108.46894 64.13997
#
# Poissons Ratio (x) = 0.58900 0.68498
# Poissons Ratio (y) = 0.10296 0.27740
# Poissons Ratio (z) = 0.20250 0.46912
#
# Static dielectric constant tensor:
#      x y z
#    x 1.681850 0.000000 0.000000 
#    y 0.000000 1.757540 0.000000 
#    z 0.000000 0.000000 1.685580 
# 
# From -- ./inp_files/5034.got.cif
#   From: 2010.05.17/outbox.cif.g08.bks.cpg/sg28_3_cif.got.tgz:5034.got - 2010.06.04 01:15:21.
