data_PCOD9339324
_publ_section_title
;
Structure prediction by ZEFSAII (Michael W. Deem and Ramdas Pophale) SiO2 
 PCOD9339324
Probable space group: P M A 2
;
_chemical_formula_sum "Si O2"
_cell_formula_units_Z 32
_cell_length_a 8.558128
_cell_length_b 14.331399
_cell_length_c 13.390002
_cell_angle_alpha 90.000000
_cell_angle_beta 90.000000
_cell_angle_gamma 90.000000
_cell_volume 1642.283036
_symmetry_space_group_name_H-M "P M A 2"
_symmetry_group_IT_number 28
_symmetry_cell_setting 'orthorhombic'
loop_
_space_group_symop_operation_xyz
x,y,z
-x,-y,z
1/2-x,y,z
1/2+x,-y,z
loop_
_atom_site_type_symbol
_atom_site_label
_atom_site_fract_x
_atom_site_fract_y
_atom_site_fract_z
Si Si1 0.563971 0.105008 0.750000
Si Si2 0.438005 0.280848 0.656749
Si Si3 0.438078 0.711005 0.266838
Si Si4 0.936777 0.893793 0.961902
Si Si5 0.437668 0.394309 0.073172
Si Si6 0.438397 0.605659 0.467308
Si Si7 0.563032 0.104367 0.173654
Si Si8 0.061418 0.394544 0.852193
O O1 0.750000 0.101361 0.754705
O O2 0.505407 0.176781 0.666693
O O3 0.498597 0.142852 0.856461
O O4 0.500000 0.000000 0.735950
O O5 0.250000 0.277305 0.655675
O O6 0.499018 0.336719 0.561521
O O7 0.490736 0.335920 0.756749
O O8 0.250000 0.707625 0.266532
O O9 0.496960 0.660381 0.167391
O O10 0.491536 0.657565 0.365792
O O11 0.483043 0.819868 0.256796
O O12 0.750000 0.890832 0.961662
O O13 0.000000 0.000000 0.962259
O O14 0.999160 0.857373 0.067367
O O15 0.500000 0.500000 0.078706
O O16 0.250000 0.393934 0.077763
O O17 0.484764 0.358032 0.962518
O O18 0.500000 0.500000 0.469444
O O19 0.250000 0.604128 0.469726
O O20 0.750000 0.098899 0.166698
O O21 0.500000 0.000000 0.190146
O O22 0.250000 0.396339 0.850613
O O23 0.000000 0.500000 0.843537
#
# Coordination Sequence:
#
# PCOD9339324 Si02
#       8
#     4   4   4   4   4   4   4   4
#     4  11  22  38  59  87 122 163 205 250 301 356
#     4  11  23  40  62  90 121 156 203 252 304 363
#     4  10  23  40  60  86 118 155 202 253 302 360
#     4  10  18  31  52  80 116 158 200 244 291 348
#     4  10  20  35  56  84 117 153 190 236 298 363
#     4  11  24  44  66  90 119 155 201 256 309 362
#     4  10  20  36  56  84 119 158 201 248 300 357
#     4   9  20  36  55  83 118 152 188 237 295 359
#
# _framework density 19.48507
#
# number of rings (size 3 to 8) (size 9 to 14) (size 15 to 20)
#    0.000    1.750    0.000    6.000    1.750    5.500 
#    0.000    0.625    0.000    1.500    0.000    0.000 
#    0.000    0.000    0.000    0.000    0.000    0.000 
#
# Total GULP energy -178753.382517 kJ/mol
# GULP energy per Si atom -5586.043204 kJ/mol
# Density = 1.944072 g / cm^3
# Si number density = 19.485070 Si / 1000 Ang^3
#
#
#
# Elastic Constant Matrix: (Units=GPa)
#
#
# Indices 1 2 3 4 5 6 
#
# 1 74.1879 39.7284 40.0069 0.0000 0.0000 0.0000
# 2 39.7284 137.1578 96.2913 0.0000 0.0000 0.0000
# 3 40.0069 96.2913 150.1610 0.0000 0.0000 0.0000
# 4 0.0000 0.0000 0.0000 41.5356 0.0000 0.0000
# 5 0.0000 0.0000 0.0000 0.0000 34.3417 0.0000
# 6 0.0000 0.0000 0.0000 0.0000 0.0000 24.0455
#
#
#
# Elastic Compliance Matrix: (Units=1/GPa)
#
#
# Indices 1 2 3 4 5 6 
#
# 1 0.016420 -0.003064 -0.002410 0.000000 0.000000 0.000000
# 2 -0.003064 0.013833 -0.008054 0.000000 0.000000 0.000000
# 3 -0.002410 -0.008054 0.012466 0.000000 0.000000 0.000000
# 4 0.000000 0.000000 0.000000 0.024076 0.000000 0.000000
# 5 0.000000 0.000000 0.000000 0.000000 0.029119 0.000000
# 6 0.000000 0.000000 0.000000 0.000000 0.000000 0.041588
#
#
# Mechanical properties :
#
#
# Convention : Reuss Voigt Hill
#
# Bulk Modulus (GPa) = 63.84553 79.28444 71.56498
# Shear Modulus (GPa) = 29.45028 32.34988 30.90008
#
# Velocity S-wave (km/s) = 3.89193 4.07902 3.98657
# Velocity P-wave (km/s) = 7.28242 7.93491 7.61565
#
# Compressibility (1/GPa) = 0.01566280
#
# Stress axis : x y z
#
# Youngs Moduli (GPa) = 60.90243 72.29279 80.21796
#
# Poissons Ratio (x) = 0.22153 0.19329
# Poissons Ratio (y) = 0.18663 0.64606
# Poissons Ratio (z) = 0.14675 0.58223
#
# Static dielectric constant tensor:
#      x y z
#    x 1.652860 0.000000 0.000000 
#    y 0.000000 1.686580 0.000000 
#    z 0.000000 0.000000 1.688640 
# 
# From -- ./inp_files/5056.got.cif
#   From: 2010.05.17/outbox.cif.g08.bks.cpg/sg28_3_cif.got.tgz:5056.got - 2010.06.04 01:15:21.
