data_PCOD9339742
_publ_section_title
;
Structure prediction by ZEFSAII (Michael W. Deem and Ramdas Pophale) SiO2 
 PCOD9339742
Probable space group: P M A 2
;
_chemical_formula_sum "Si O2"
_cell_formula_units_Z 32
_cell_length_a 15.104253
_cell_length_b 19.211362
_cell_length_c 5.292531
_cell_angle_alpha 90.000000
_cell_angle_beta 90.000000
_cell_angle_gamma 90.000000
_cell_volume 1535.751038
_symmetry_space_group_name_H-M "P M A 2"
_symmetry_group_IT_number 28
_symmetry_cell_setting 'orthorhombic'
loop_
_space_group_symop_operation_xyz
x,y,z
-x,-y,z
1/2-x,y,z
1/2+x,-y,z
loop_
_atom_site_type_symbol
_atom_site_label
_atom_site_fract_x
_atom_site_fract_y
_atom_site_fract_z
Si Si1 0.649148 0.610150 0.004650
Si Si2 0.645136 0.162151 0.707674
Si Si3 0.959963 0.575959 0.508187
Si Si4 0.148851 0.241267 0.753887
Si Si5 0.496610 0.181874 0.070009
Si Si6 0.520620 0.280584 0.450826
Si Si7 0.348686 0.996887 0.750316
Si Si8 0.075586 0.051105 0.282510
O O1 0.750000 0.583945 0.007654
O O2 0.602077 0.593651 0.268363
O O3 0.594353 0.579269 0.769385
O O4 0.654539 0.692583 0.942288
O O5 0.750000 0.178377 0.719124
O O6 0.589953 0.224399 0.568548
O O7 0.636358 0.080929 0.632690
O O8 0.590581 0.157040 0.968258
O O9 0.000000 0.500000 0.475548
O O10 0.032669 0.638674 0.511261
O O11 0.250000 0.223162 0.683067
O O12 0.080723 0.265650 0.538474
O O13 0.088410 0.183478 0.887916
O O14 0.517473 0.260041 0.158429
O O15 0.464407 0.128044 0.277548
O O16 0.250000 0.993988 0.855489
O O17 0.353648 0.046215 0.505440
O O18 0.402625 0.024099 0.996840
O O19 0.000000 0.000000 0.380988
#
# Coordination Sequence:
#
# PCOD9339742 Si02
#       8
#     4   4   4   4   4   4   4   4
#     4  10  20  39  64  93 127 169 214 256 307 392
#     4  10  23  43  66  89 122 173 224 272 321 383
#     4  11  22  40  67  95 132 171 209 266 330 390
#     4   9  20  36  59  91 126 164 206 254 314 386
#     4  11  22  39  63  89 125 166 211 268 324 381
#     4  10  22  40  63  93 125 166 217 264 320 389
#     4  11  25  44  63  90 124 167 216 268 327 391
#     4  12  24  40  64  89 124 165 209 266 327 379
#
# _framework density 20.83671
#
# number of rings (size 3 to 8) (size 9 to 14) (size 15 to 20)
#    0.000    1.500    2.500    2.250    3.500    2.500 
#    0.000    1.250    0.000    0.000    0.000    0.000 
#    0.000    0.000    0.000    0.000    0.000    0.000 
#
# Total GULP energy -178158.780164 kJ/mol
# GULP energy per Si atom -5567.461880 kJ/mol
# Density = 2.078928 g / cm^3
# Si number density = 20.836710 Si / 1000 Ang^3
#
#
#
# Elastic Constant Matrix: (Units=GPa)
#
#
# Indices 1 2 3 4 5 6 
#
# 1 130.3446 46.3386 34.2305 0.0000 0.0000 0.0000
# 2 46.3386 107.3637 18.9297 0.0000 0.0000 0.0000
# 3 34.2305 18.9297 67.1656 0.0000 0.0000 0.0000
# 4 0.0000 0.0000 0.0000 27.3043 0.0000 0.0000
# 5 0.0000 0.0000 0.0000 0.0000 10.6343 0.0000
# 6 0.0000 0.0000 0.0000 0.0000 0.0000 15.3453
#
#
#
# Elastic Compliance Matrix: (Units=1/GPa)
#
#
# Indices 1 2 3 4 5 6 
#
# 1 0.010030 -0.003607 -0.004095 0.000000 0.000000 0.000000
# 2 -0.003607 0.011098 -0.001290 0.000000 0.000000 0.000000
# 3 -0.004095 -0.001290 0.017339 0.000000 0.000000 0.000000
# 4 0.000000 0.000000 0.000000 0.036624 0.000000 0.000000
# 5 0.000000 0.000000 0.000000 0.000000 0.094036 0.000000
# 6 0.000000 0.000000 0.000000 0.000000 0.000000 0.065167
#
#
# Mechanical properties :
#
#
# Convention : Reuss Voigt Hill
#
# Bulk Modulus (GPa) = 48.81885 55.98571 52.40228
# Shear Modulus (GPa) = 19.29723 24.34844 21.82283
#
# Velocity S-wave (km/s) = 3.04652 3.42209 3.23975
# Velocity P-wave (km/s) = 5.98792 6.52238 6.26085
#
# Compressibility (1/GPa) = 0.02048389
#
# Stress axis : x y z
#
# Youngs Moduli (GPa) = 99.70457 90.10436 57.67327
#
# Poissons Ratio (x) = 0.32499 0.23617
# Poissons Ratio (y) = 0.35962 0.07438
# Poissons Ratio (z) = 0.40829 0.11621
#
# Static dielectric constant tensor:
#      x y z
#    x 1.749660 0.000000 0.000000 
#    y 0.000000 1.797950 0.000000 
#    z 0.000000 0.000000 1.823650 
# 
# From -- ./inp_files/860.got.cif
#   From: 2010.05.17/outbox.cif.g08.bks.cpg/sg28_1_cif.got.tgz:860.got - 2010.06.04 01:15:21.
