data_PCOD9339882
_publ_section_title
;
Structure prediction by ZEFSAII (Michael W. Deem and Ramdas Pophale) SiO2 
 PCOD9339882
Probable space group: P M A 2
;
_chemical_formula_sum "Si O2"
_cell_formula_units_Z 16
_cell_length_a 15.512786
_cell_length_b 7.949009
_cell_length_c 5.451648
_cell_angle_alpha 90.000000
_cell_angle_beta 90.000000
_cell_angle_gamma 90.000000
_cell_volume 672.249669
_symmetry_space_group_name_H-M "P M A 2"
_symmetry_group_IT_number 28
_symmetry_cell_setting 'orthorhombic'
loop_
_space_group_symop_operation_xyz
x,y,z
-x,-y,z
1/2-x,y,z
1/2+x,-y,z
loop_
_atom_site_type_symbol
_atom_site_label
_atom_site_fract_x
_atom_site_fract_y
_atom_site_fract_z
Si Si1 0.845228 0.871802 0.991270
Si Si2 0.487039 0.331629 0.246317
Si Si3 0.847118 0.247415 0.010839
Si Si4 0.654374 0.555086 0.630931
O O1 0.750000 0.868219 0.114494
O O2 0.843319 0.724816 0.791619
O O3 0.857693 0.061142 0.897341
O O4 0.925323 0.816519 0.155128
O O5 0.500000 0.500000 0.078322
O O6 0.426689 0.414334 0.455429
O O7 0.583695 0.260909 0.230710
O O8 0.750000 0.260567 0.107418
O O9 0.855049 0.391931 0.804936
O O10 0.750000 0.542475 0.510103
#
# Coordination Sequence:
#
# PCOD9339882 Si02
#       4
#     4   4   4   4
#     4  10  22  46  72  98 137 184 232 288 348 411
#     4  12  24  40  72 103 139 178 229 287 350 409
#     4  10  23  47  73 100 139 187 236 287 345 415
#     4  10  23  45  70 100 138 182 232 286 349 416
#
# _framework density 23.800685000000001
#
# number of rings (size 3 to 8) (size 9 to 14) (size 15 to 20)
#    0.000    1.500    2.500    1.500    3.500    1.000 
#    9.000    0.000    0.000    0.000    0.000    0.000 
#    0.000    0.000    0.000    0.000    0.000    0.000 
#
# Total GULP energy -89118.586983 kJ/mol
# GULP energy per Si atom -5569.911686 kJ/mol
# Density = 2.374651 g / cm^3
# Si number density = 23.800685 Si / 1000 Ang^3
#
#
#
# Elastic Constant Matrix: (Units=GPa)
#
#
# Indices 1 2 3 4 5 6 
#
# 1 270.4878 64.3846 76.4166 0.0000 0.0000 0.0000
# 2 64.3846 218.2967 50.2164 0.0000 0.0000 0.0000
# 3 76.4166 50.2164 42.1948 0.0000 0.0000 0.0000
# 4 0.0000 0.0000 0.0000 -15.5104 0.0000 0.0000
# 5 0.0000 0.0000 0.0000 0.0000 14.9381 0.0000
# 6 0.0000 0.0000 0.0000 0.0000 0.0000 36.3653
#
#
#
# Elastic Compliance Matrix: (Units=1/GPa)
#
#
# Indices 1 2 3 4 5 6 
#
# 1 0.007834 0.001312 -0.015750 0.000000 0.000000 0.000000
# 2 0.001312 0.006528 -0.010146 0.000000 0.000000 0.000000
# 3 -0.015750 -0.010146 0.064298 0.000000 0.000000 0.000000
# 4 0.000000 0.000000 0.000000 -0.064473 0.000000 0.000000
# 5 0.000000 0.000000 0.000000 0.000000 0.066943 0.000000
# 6 0.000000 0.000000 0.000000 0.000000 0.000000 0.027499
#
#
# Mechanical properties :
#
#
# Convention : Reuss Voigt Hill
#
# Bulk Modulus (GPa) = 33.90564 101.44606 67.67585
# Shear Modulus (GPa) = 29.82814 29.82273 29.82543
#
# Velocity S-wave (km/s) = 3.54396 3.54364 3.54380
# Velocity P-wave (km/s) = 5.56981 7.71096 6.72613
#
# Compressibility (1/GPa) = 0.02949361
#
# Stress axis : x y z
#
# Youngs Moduli (GPa) = 127.64437 153.19332 15.55248
#
# Poissons Ratio (x) = -0.20107 0.24495
# Poissons Ratio (y) = -0.16753 0.15779
# Poissons Ratio (z) = 2.01043 1.55425
#
# Static dielectric constant tensor:
#      x y z
#    x 2.006890 0.000000 0.000000 
#    y 0.000000 2.037130 0.000000 
#    z 0.000000 0.000000 1.969180 
# 
# From -- ./inp_files/982.got.cif
#   From: 2010.05.17/outbox.cif.g08.bks.cpg/sg28_1_cif.got.tgz:982.got - 2010.06.04 01:15:21.
