data_PCOD9339761
_publ_section_title
;
Structure prediction by ZEFSAII (Michael W. Deem and Ramdas Pophale) SiO2 
 PCOD9339761
Probable space group: P M A 2
;
_chemical_formula_sum "Si O2"
_cell_formula_units_Z 32
_cell_length_a 9.623423
_cell_length_b 29.523885
_cell_length_c 5.425667
_cell_angle_alpha 90.000000
_cell_angle_beta 90.000000
_cell_angle_gamma 90.000000
_cell_volume 1541.545033
_symmetry_space_group_name_H-M "P M A 2"
_symmetry_group_IT_number 28
_symmetry_cell_setting 'orthorhombic'
loop_
_space_group_symop_operation_xyz
x,y,z
-x,-y,z
1/2-x,y,z
1/2+x,-y,z
loop_
_atom_site_type_symbol
_atom_site_label
_atom_site_fract_x
_atom_site_fract_y
_atom_site_fract_z
Si Si1 0.414147 0.748449 0.616430
Si Si2 0.916059 0.897826 0.133600
Si Si3 0.593471 0.679796 0.880894
Si Si4 0.594931 0.463423 0.933244
Si Si5 0.083399 0.046744 0.633435
Si Si6 0.404575 0.632076 0.213312
Si Si7 0.097083 0.411790 0.606298
Si Si8 0.087003 0.805527 0.119644
O O1 0.250000 0.734572 0.618863
O O2 0.525145 0.708430 0.660657
O O3 0.440771 0.774676 0.361066
O O4 0.435294 0.779862 0.859540
O O5 0.750000 0.890273 0.133639
O O6 0.950051 0.925224 0.384357
O O7 0.994917 0.850330 0.130769
O O8 0.949769 0.925678 0.884082
O O9 0.750000 0.696114 0.947202
O O10 0.611130 0.626753 0.815327
O O11 0.467698 0.675625 0.076345
O O12 0.500000 0.500000 0.074823
O O13 0.750000 0.481120 0.889750
O O14 0.503263 0.451301 0.694971
O O15 0.610322 0.414226 0.055659
O O16 0.250000 0.038502 0.632854
O O17 0.000000 0.000000 0.632349
O O18 0.250000 0.641635 0.313133
O O19 0.519653 0.616473 0.401751
O O20 0.250000 0.427294 0.532899
O O21 0.250000 0.817693 0.130658
#
# Coordination Sequence:
#
# PCOD9339761 Si02
#       8
#     4   4   4   4   4   4   4   4
#     4  10  22  39  58  85 117 152 196 247 296 357
#     4  10  21  37  57  82 116 153 193 243 297 350
#     4  10  22  38  57  83 112 145 187 237 290 346
#     4  10  21  37  56  80 109 144 184 227 278 337
#     4  10  21  36  56  85 117 152 196 243 293 351
#     4  10  21  37  58  82 110 146 186 228 285 348
#     4  10  21  37  57  82 112 144 183 231 282 343
#     4  10  22  39  59  85 116 154 201 244 296 358
#
# _framework density 20.758392000000001
#
# number of rings (size 3 to 8) (size 9 to 14) (size 15 to 20)
#    0.000    2.000    0.000    2.625    1.750    5.500 
#    0.000    1.250    0.000    0.000    0.000    0.000 
#    0.000    0.000    0.000    0.000    0.000    0.000 
#
# Total GULP energy -178431.431535 kJ/mol
# GULP energy per Si atom -5575.982235 kJ/mol
# Density = 2.071114 g / cm^3
# Si number density = 20.758392 Si / 1000 Ang^3
#
#
#
# Elastic Constant Matrix: (Units=GPa)
#
#
# Indices 1 2 3 4 5 6 
#
# 1 117.9162 54.5448 33.6241 0.0000 0.0000 0.0000
# 2 54.5448 118.8437 46.2261 0.0000 0.0000 0.0000
# 3 33.6241 46.2261 108.4288 0.0000 0.0000 0.0000
# 4 0.0000 0.0000 0.0000 22.1731 0.0000 0.0000
# 5 0.0000 0.0000 0.0000 0.0000 15.2078 0.0000
# 6 0.0000 0.0000 0.0000 0.0000 0.0000 27.1210
#
#
#
# Elastic Compliance Matrix: (Units=1/GPa)
#
#
# Indices 1 2 3 4 5 6 
#
# 1 0.010967 -0.004448 -0.001505 0.000000 0.000000 0.000000
# 2 -0.004448 0.011891 -0.003690 0.000000 0.000000 0.000000
# 3 -0.001505 -0.003690 0.011262 0.000000 0.000000 0.000000
# 4 0.000000 0.000000 0.000000 0.045100 0.000000 0.000000
# 5 0.000000 0.000000 0.000000 0.000000 0.065756 0.000000
# 6 0.000000 0.000000 0.000000 0.000000 0.000000 0.036872
#
#
# Mechanical properties :
#
#
# Convention : Reuss Voigt Hill
#
# Bulk Modulus (GPa) = 67.40823 68.21984 67.81404
# Shear Modulus (GPa) = 24.26247 26.95329 25.60788
#
# Velocity S-wave (km/s) = 3.42248 3.60728 3.51610
# Velocity P-wave (km/s) = 6.93982 7.09120 7.01592
#
# Compressibility (1/GPa) = 0.01483498
#
# Stress axis : x y z
#
# Youngs Moduli (GPa) = 91.17996 84.09439 88.79089
#
# Poissons Ratio (x) = 0.37408 0.13359
# Poissons Ratio (y) = 0.40560 0.32765
# Poissons Ratio (z) = 0.13718 0.31032
#
# Static dielectric constant tensor:
#      x y z
#    x 1.778060 0.000000 0.000000 
#    y 0.000000 1.763400 0.000000 
#    z 0.000000 0.000000 1.839880 
# 
# From -- ./inp_files/249.got.cif
#   From: 2010.05.17/outbox.cif.g08.bks.cpg/sg28_1_cif.got.tgz:249.got - 2010.06.04 01:15:21.
