data_PCOD9339558
_publ_section_title
;
Structure prediction by ZEFSAII (Michael W. Deem and Ramdas Pophale) SiO2 
 PCOD9339558
Probable space group: P M A 2
;
_chemical_formula_sum "Si O2"
_cell_formula_units_Z 16
_cell_length_a 14.820645
_cell_length_b 8.519601
_cell_length_c 5.018257
_cell_angle_alpha 90.000000
_cell_angle_beta 90.000000
_cell_angle_gamma 90.000000
_cell_volume 633.635148
_symmetry_space_group_name_H-M "P M A 2"
_symmetry_group_IT_number 28
_symmetry_cell_setting 'orthorhombic'
loop_
_space_group_symop_operation_xyz
x,y,z
-x,-y,z
1/2-x,y,z
1/2+x,-y,z
loop_
_atom_site_type_symbol
_atom_site_label
_atom_site_fract_x
_atom_site_fract_y
_atom_site_fract_z
Si Si1 0.597256 0.437168 0.208190
Si Si2 0.639560 0.924748 0.441474
Si Si3 0.144730 0.241949 0.937940
Si Si4 0.854419 0.246843 0.714202
O O1 0.500000 0.500000 0.285381
O O2 0.643086 0.372661 0.473817
O O3 0.406089 0.694341 0.975901
O O4 0.358801 0.414232 0.060476
O O5 0.750000 0.931622 0.418667
O O6 0.609694 0.785788 0.641694
O O7 0.612056 0.086729 0.578210
O O8 0.604992 0.880616 0.150575
O O9 0.250000 0.202274 0.912643
O O10 0.750000 0.224615 0.799680
#
# Coordination Sequence:
#
# PCOD9339558 Si02
#       4
#     4   4   4   4
#     4  12  25  40  58  90 128 160 195 244 298 354
#     4   9  19  35  60  88 112 143 198 253 290 338
#     4  10  19  36  59  84 113 152 197 244 292 348
#     4  11  22  41  65  88 115 157 204 247 294 354
#
# _framework density 25.251123
#
# number of rings (size 3 to 8) (size 9 to 14) (size 15 to 20)
#    0.000    1.500    0.000    6.000    0.000    6.000 
#    0.000    7.500    0.000    0.000    0.000    0.000 
#    0.000    0.000    0.000    0.000    0.000    0.000 
#
# Total GULP energy -89559.241632 kJ/mol
# GULP energy per Si atom -5597.452602 kJ/mol
# Density = 2.519365 g / cm^3
# Si number density = 25.251123 Si / 1000 Ang^3
#
#
#
# Elastic Constant Matrix: (Units=GPa)
#
#
# Indices 1 2 3 4 5 6 
#
# 1 39.0649 3.9821 12.9655 0.0000 0.0000 0.0000
# 2 3.9821 72.9093 6.0326 0.0000 0.0000 0.0000
# 3 12.9655 6.0326 75.5673 0.0000 0.0000 0.0000
# 4 0.0000 0.0000 0.0000 45.3530 0.0000 0.0000
# 5 0.0000 0.0000 0.0000 0.0000 -405.4635 0.0000
# 6 0.0000 0.0000 0.0000 0.0000 0.0000 4.3925
#
#
#
# Elastic Compliance Matrix: (Units=1/GPa)
#
#
# Indices 1 2 3 4 5 6 
#
# 1 0.027233 -0.001108 -0.004584 0.000000 0.000000 0.000000
# 2 -0.001108 0.013852 -0.000916 0.000000 0.000000 0.000000
# 3 -0.004584 -0.000916 0.014093 0.000000 0.000000 0.000000
# 4 0.000000 0.000000 0.000000 0.022049 0.000000 0.000000
# 5 0.000000 0.000000 0.000000 0.000000 -0.002466 0.000000
# 6 0.000000 0.000000 0.000000 0.000000 0.000000 0.227662
#
#
# Mechanical properties :
#
#
# Convention : Reuss Voigt Hill
#
# Bulk Modulus (GPa) = 23.83109 25.94467 24.88788
# Shear Modulus (GPa) = 15.16872 -60.17287 -22.50207
#
# Velocity S-wave (km/s) = 2.45361 -4.88687 -2.98842
# Velocity P-wave (km/s) = 4.18151 4.64166 1.42478
#
# Compressibility (1/GPa) = 0.04196199
#
# Stress axis : x y z
#
# Youngs Moduli (GPa) = 36.72037 72.19193 70.95800
#
# Poissons Ratio (x) = 0.08000 0.32527
# Poissons Ratio (y) = 0.04069 0.06498
# Poissons Ratio (z) = 0.16833 0.06611
#
# Static dielectric constant tensor:
#      x y z
#    x 2.240930 0.000000 0.000000 
#    y 0.000000 2.018450 0.000000 
#    z 0.000000 0.000000 1.956360 
# 
# From -- ./inp_files/955.got.cif
#   From: 2010.05.17/outbox.cif.g08.bks.cpg/sg28_1_cif.got.tgz:955.got - 2010.06.04 01:15:21.
