data_PCOD9339749
_publ_section_title
;
Structure prediction by ZEFSAII (Michael W. Deem and Ramdas Pophale) SiO2 
 PCOD9339749
Probable space group: P M A 2
;
_chemical_formula_sum "Si O2"
_cell_formula_units_Z 18
_cell_length_a 10.074638
_cell_length_b 10.194013
_cell_length_c 8.359991
_cell_angle_alpha 90.000000
_cell_angle_beta 90.000000
_cell_angle_gamma 90.000000
_cell_volume 858.579358
_symmetry_space_group_name_H-M "P M A 2"
_symmetry_group_IT_number 28
_symmetry_cell_setting 'orthorhombic'
loop_
_space_group_symop_operation_xyz
x,y,z
-x,-y,z
1/2-x,y,z
1/2+x,-y,z
loop_
_atom_site_type_symbol
_atom_site_label
_atom_site_fract_x
_atom_site_fract_y
_atom_site_fract_z
Si Si1 0.250000 0.898657 0.612790
Si Si2 0.032317 0.691027 0.504249
Si Si3 0.250000 0.537095 0.689280
Si Si4 0.750000 0.804838 0.611403
Si Si5 0.750000 0.228402 0.939234
Si Si6 0.492721 0.656226 0.125980
Si Si7 0.250000 0.289002 0.932523
O O1 0.122397 0.817858 0.548821
O O2 0.250000 0.887055 0.807913
O O3 0.250000 0.046560 0.547999
O O4 0.119768 0.572053 0.582710
O O5 0.883634 0.726372 0.562830
O O6 0.021894 0.666914 0.315806
O O7 0.250000 0.650256 0.819116
O O8 0.250000 0.411531 0.805831
O O9 0.750000 0.823939 0.802424
O O10 0.622957 0.256387 0.048172
O O11 0.500000 0.500000 0.085244
O O12 0.625521 0.709715 0.047408
#
# Coordination Sequence:
#
# PCOD9339749 Si02
#       7
#     2   4   2   2   2   4   2
#     4  10  23  48  66  88 127 180 229 261 316 382
#     4  10  24  41  68  92 132 170 220 259 336 381
#     4  10  21  42  62  95 128 183 194 267 333 408
#     4  12  25  41  67  95 124 172 233 280 291 385
#     4  10  20  41  68  88 129 173 206 251 333 386
#     4  12  23  40  62 101 134 164 202 268 332 400
#     4  12  25  38  65  98 138 162 216 269 335 377
#
# _framework density 20.964863999999999
#
# number of rings (size 3 to 8) (size 9 to 14) (size 15 to 20)
#    0.000    1.333    2.222    5.333    3.111    0.000 
#    0.000    6.667    0.000    0.000    0.000    0.000 
#    0.000    0.000    0.000    0.000    0.000    0.000 
#
# Total GULP energy -100378.888541 kJ/mol
# GULP energy per Si atom -5576.604919 kJ/mol
# Density = 2.091715 g / cm^3
# Si number density = 20.964864 Si / 1000 Ang^3
#
#
#
# Elastic Constant Matrix: (Units=GPa)
#
#
# Indices 1 2 3 4 5 6 
#
# 1 220.3300 30.7425 64.1442 0.0000 0.0000 0.0000
# 2 30.7425 97.8198 4.2276 0.0000 0.0000 0.0000
# 3 64.1442 4.2276 128.5496 0.0000 0.0000 0.0000
# 4 0.0000 0.0000 0.0000 9.1825 0.0000 0.0000
# 5 0.0000 0.0000 0.0000 0.0000 49.9231 0.0000
# 6 0.0000 0.0000 0.0000 0.0000 0.0000 10.9281
#
#
#
# Elastic Compliance Matrix: (Units=1/GPa)
#
#
# Indices 1 2 3 4 5 6 
#
# 1 0.005558 -0.001629 -0.002720 0.000000 0.000000 0.000000
# 2 -0.001629 0.010715 0.000461 0.000000 0.000000 0.000000
# 3 -0.002720 0.000461 0.009121 0.000000 0.000000 0.000000
# 4 0.000000 0.000000 0.000000 0.108903 0.000000 0.000000
# 5 0.000000 0.000000 0.000000 0.000000 0.020031 0.000000
# 6 0.000000 0.000000 0.000000 0.000000 0.000000 0.091507
#
#
# Mechanical properties :
#
#
# Convention : Reuss Voigt Hill
#
# Bulk Modulus (GPa) = 56.76263 71.65867 64.21065
# Shear Modulus (GPa) = 19.26902 37.17907 28.22404
#
# Velocity S-wave (km/s) = 3.03497 4.21574 3.67311
# Velocity P-wave (km/s) = 6.27816 7.61257 6.97734
#
# Compressibility (1/GPa) = 0.01761723
#
# Stress axis : x y z
#
# Youngs Moduli (GPa) = 179.92992 93.32740 109.63697
#
# Poissons Ratio (x) = 0.15204 0.29817
# Poissons Ratio (y) = 0.29313 -0.05049
# Poissons Ratio (z) = 0.48934 -0.04298
#
# Static dielectric constant tensor:
#      x y z
#    x 1.663540 0.000000 0.000000 
#    y 0.000000 1.934900 0.000000 
#    z 0.000000 0.000000 1.717910 
# 
# From -- ./inp_files/2226.got.cif
#   From: 2010.05.17/outbox.cif.g08.bks.cpg/sg28_2_cif.got.tgz:2226.got - 2010.06.04 01:15:21.
