data_PCOD9339057
_publ_section_title
;
Structure prediction by ZEFSAII (Michael W. Deem and Ramdas Pophale) SiO2 
 PCOD9339057
Probable space group: P C C 2
;
_chemical_formula_sum "Si O2"
_cell_formula_units_Z 18
_cell_length_a 5.322893
_cell_length_b 5.311161
_cell_length_c 25.069142
_cell_angle_alpha 90.000000
_cell_angle_beta 90.000000
_cell_angle_gamma 90.000000
_cell_volume 708.723238
_symmetry_space_group_name_H-M "P C C 2"
_symmetry_group_IT_number 27
_symmetry_cell_setting 'orthorhombic'
loop_
_space_group_symop_operation_xyz
x,y,z
-x,-y,z
-x,y,1/2+z
x,-y,1/2+z
loop_
_atom_site_type_symbol
_atom_site_label
_atom_site_fract_x
_atom_site_fract_y
_atom_site_fract_z
Si Si1 0.500000 0.000000 0.495360
Si Si2 0.161734 0.756849 0.417540
Si Si3 0.766498 0.346600 0.070925
Si Si4 0.660087 0.241296 0.183216
Si Si5 0.750948 0.332908 0.299255
O O1 0.396943 0.779641 0.457051
O O2 0.709449 0.892140 0.534810
O O3 0.244650 0.802904 0.356077
O O4 0.000000 0.500000 0.419973
O O5 0.000000 0.000000 0.432034
O O6 0.500000 0.500000 0.072291
O O7 0.835812 0.278610 0.132152
O O8 0.000000 0.500000 0.048341
O O9 0.500000 0.500000 0.187574
O O10 0.757318 0.188586 0.242936
O O11 0.500000 0.000000 0.167815
O O12 0.500000 0.500000 0.300327
O O13 0.000000 0.500000 0.298117
#
# Coordination Sequence:
#
# PCOD9339057 Si02
#       5
#     2   4   4   4   4
#     4  12  30  48  80 112 162 218 272 340 394 488
#     4  11  30  50  78 113 158 207 267 327 401 476
#     4  11  27  50  77 113 156 208 269 329 402 476
#     4  10  22  46  77 112 154 199 255 326 399 478
#     4  10  24  47  77 113 153 199 255 324 399 477
#
# _framework density 25.397786
#
# number of rings (size 3 to 8) (size 9 to 14) (size 15 to 20)
#    0.000    1.333    1.111    0.667   14.000    3.556 
#    0.000    6.667    0.000    0.000    0.000    0.000 
#    0.000    0.000    0.000    0.000    0.000    0.000 
#
# Total GULP energy -100788.262603 kJ/mol
# GULP energy per Si atom -5599.347922 kJ/mol
# Density = 2.533998 g / cm^3
# Si number density = 25.397786 Si / 1000 Ang^3
#
#
#
# Elastic Constant Matrix: (Units=GPa)
#
#
# Indices 1 2 3 4 5 6 
#
# 1 118.8907 37.9530 22.5115 0.0000 0.0000 0.0000
# 2 37.9530 123.6031 23.5699 0.0000 0.0000 0.0000
# 3 22.5115 23.5699 214.5694 0.0000 0.0000 0.0000
# 4 0.0000 0.0000 0.0000 38.0072 0.0000 0.0000
# 5 0.0000 0.0000 0.0000 0.0000 -1.2826 0.0000
# 6 0.0000 0.0000 0.0000 0.0000 0.0000 55.1070
#
#
#
# Elastic Compliance Matrix: (Units=1/GPa)
#
#
# Indices 1 2 3 4 5 6 
#
# 1 0.009423 -0.002763 -0.000685 0.000000 0.000000 0.000000
# 2 -0.002763 0.009073 -0.000707 0.000000 0.000000 0.000000
# 3 -0.000685 -0.000707 0.004810 0.000000 0.000000 0.000000
# 4 0.000000 0.000000 0.000000 0.026311 0.000000 0.000000
# 5 0.000000 0.000000 0.000000 0.000000 -0.779646 0.000000
# 6 0.000000 0.000000 0.000000 0.000000 0.000000 0.018147
#
#
# Mechanical properties :
#
#
# Convention : Reuss Voigt Hill
#
# Bulk Modulus (GPa) = 66.68007 69.45913 68.06960
# Shear Modulus (GPa) = -7.15744 43.23491 18.03874
#
# Velocity S-wave (km/s) = -1.68055 4.13038 2.66794
# Velocity P-wave (km/s) = 4.74822 7.08199 6.02911
#
# Compressibility (1/GPa) = 0.01499699
#
# Stress axis : x y z
#
# Youngs Moduli (GPa) = 106.12648 110.21121 207.89928
#
# Poissons Ratio (x) = 0.30448 0.14243
# Poissons Ratio (y) = 0.29319 0.14695
# Poissons Ratio (z) = 0.07271 0.07790
#
# Static dielectric constant tensor:
#      x y z
#    x 2.136770 0.000000 0.000000 
#    y 0.000000 1.952140 0.000000 
#    z 0.000000 0.000000 2.028660 
# 
# From -- ./inp_files/4914.got.cif
#   From: 2010.05.17/outbox.cif.g08.bks.cpg/sg27_3_cif.got.tgz:4914.got - 2010.06.04 01:11:05.
