data_PCOD9339068
_publ_section_title
;
Structure prediction by ZEFSAII (Michael W. Deem and Ramdas Pophale) SiO2 
 PCOD9339068
Probable space group: P C C 2
;
_chemical_formula_sum "Si O2"
_cell_formula_units_Z 24
_cell_length_a 6.362186
_cell_length_b 16.337140
_cell_length_c 10.278637
_cell_angle_alpha 90.000000
_cell_angle_beta 90.000000
_cell_angle_gamma 90.000000
_cell_volume 1068.360742
_symmetry_space_group_name_H-M "P C C 2"
_symmetry_group_IT_number 27
_symmetry_cell_setting 'orthorhombic'
loop_
_space_group_symop_operation_xyz
x,y,z
-x,-y,z
-x,y,1/2+z
x,-y,1/2+z
loop_
_atom_site_type_symbol
_atom_site_label
_atom_site_fract_x
_atom_site_fract_y
_atom_site_fract_z
Si Si1 0.420891 0.409539 0.555550
Si Si2 0.336214 0.321132 0.289720
Si Si3 0.920891 0.090461 0.248860
Si Si4 0.163785 0.821132 0.514690
Si Si5 0.938910 0.316632 0.142224
Si Si6 0.561089 0.183367 0.162186
O O1 0.500000 0.500000 0.527141
O O2 0.420391 0.356110 0.424225
O O3 0.563398 0.373587 0.671615
O O4 0.179603 0.399215 0.603803
O O5 0.086269 0.326309 0.267465
O O6 0.408875 0.227759 0.265957
O O7 0.920391 0.143890 0.380185
O O8 0.679602 0.100784 0.200607
O O9 0.063398 0.126413 0.132796
O O10 0.000000 0.000000 0.277269
O O11 0.091125 0.727759 0.538453
O O12 0.413731 0.826309 0.536946
O O13 0.750000 0.250000 0.152205
#
# Coordination Sequence:
#
# PCOD9339068 Si02
#       6
#     4   4   4   4   4   4
#     4  11  24  42  68 103 140 178 229 291 353 415
#     4  10  23  42  69  99 137 184 232 285 349 419
#     4  11  24  42  68 103 140 178 229 291 353 415
#     4  10  23  42  69  99 137 184 232 285 349 419
#     4   9  22  40  65  96 133 178 231 280 340 415
#     4   9  22  40  65  96 133 178 231 280 340 415
#
# _framework density 22.464321000000002
#
# number of rings (size 3 to 8) (size 9 to 14) (size 15 to 20)
#    0.000    2.000    0.000    1.000   14.000    4.000 
#    0.000    3.333    0.000    0.000    0.000    0.000 
#    0.000    0.000    0.000    0.000    0.000    0.000 
#
# Total GULP energy -133949.347624 kJ/mol
# GULP energy per Si atom -5581.222818 kJ/mol
# Density = 2.241319 g / cm^3
# Si number density = 22.464321 Si / 1000 Ang^3
#
#
#
# Elastic Constant Matrix: (Units=GPa)
#
#
# Indices 1 2 3 4 5 6 
#
# 1 115.0612 36.0012 36.1693 0.0000 0.0000 0.0000
# 2 36.0012 80.2113 21.5931 0.0000 0.0000 0.0000
# 3 36.1693 21.5931 144.2214 0.0000 0.0000 0.0000
# 4 0.0000 0.0000 0.0000 24.0198 0.0000 0.0000
# 5 0.0000 0.0000 0.0000 0.0000 23.3529 0.0000
# 6 0.0000 0.0000 0.0000 0.0000 0.0000 34.0262
#
#
#
# Elastic Compliance Matrix: (Units=1/GPa)
#
#
# Indices 1 2 3 4 5 6 
#
# 1 0.010657 -0.004234 -0.002039 0.000000 0.000000 0.000000
# 2 -0.004234 0.014673 -0.001135 0.000000 0.000000 0.000000
# 3 -0.002039 -0.001135 0.007615 0.000000 0.000000 0.000000
# 4 0.000000 0.000000 0.000000 0.041632 0.000000 0.000000
# 5 0.000000 0.000000 0.000000 0.000000 0.042821 0.000000
# 6 0.000000 0.000000 0.000000 0.000000 0.000000 0.029389
#
#
# Mechanical properties :
#
#
# Convention : Reuss Voigt Hill
#
# Bulk Modulus (GPa) = 55.16009 58.55790 56.85899
# Shear Modulus (GPa) = 29.82473 32.66181 31.24327
#
# Velocity S-wave (km/s) = 3.64764 3.81720 3.73338
# Velocity P-wave (km/s) = 6.50755 6.74919 6.62948
#
# Compressibility (1/GPa) = 0.01812905
#
# Stress axis : x y z
#
# Youngs Moduli (GPa) = 93.83757 68.15210 131.32005
#
# Poissons Ratio (x) = 0.28857 0.26771
# Poissons Ratio (y) = 0.39733 0.14905
# Poissons Ratio (z) = 0.19130 0.07735
#
# Static dielectric constant tensor:
#      x y z
#    x 1.930880 0.000000 0.000000 
#    y 0.000000 1.870450 0.000000 
#    z 0.000000 0.000000 1.856620 
# 
# From -- ./inp_files/2041.got.cif
#   From: 2010.05.17/outbox.cif.g08.bks.cpg/sg27_2_cif.got.tgz:2041.got - 2010.06.04 01:11:05.
