data_PCOD9339966
_publ_section_title
;
Structure prediction by ZEFSAII (Michael W. Deem and Ramdas Pophale) SiO2 
 PCOD9339966
Probable space group: P M A 2
;
_chemical_formula_sum "Si O2"
_cell_formula_units_Z 20
_cell_length_a 28.128197
_cell_length_b 5.050117
_cell_length_c 5.078184
_cell_angle_alpha 90.000000
_cell_angle_beta 90.000000
_cell_angle_gamma 90.000000
_cell_volume 721.359520
_symmetry_space_group_name_H-M "P M A 2"
_symmetry_group_IT_number 28
_symmetry_cell_setting 'orthorhombic'
loop_
_space_group_symop_operation_xyz
x,y,z
-x,-y,z
1/2-x,y,z
1/2+x,-y,z
loop_
_atom_site_type_symbol
_atom_site_label
_atom_site_fract_x
_atom_site_fract_y
_atom_site_fract_z
Si Si1 0.451087 0.420327 0.775840
Si Si2 0.048517 0.930200 0.426715
Si Si3 0.750000 0.436774 0.770816
Si Si4 0.152350 0.573600 0.921406
Si Si5 0.250000 0.936520 0.271456
Si Si6 0.652856 0.081897 0.408952
O O1 0.500000 0.500000 0.920752
O O2 0.450168 0.628384 0.527675
O O3 0.399711 0.452414 0.901523
O O4 0.455233 0.123936 0.676769
O O5 0.100441 0.011193 0.322602
O O6 0.000000 0.000000 0.274013
O O7 0.800003 0.578190 0.829903
O O8 0.750000 0.301855 0.487164
O O9 0.750000 0.191951 0.982882
O O10 0.151040 0.819886 0.710444
O O11 0.158942 0.666542 0.217733
O O12 0.299734 0.079970 0.337477
#
# Coordination Sequence:
#
# PCOD9339966 Si02
#       6
#     4   4   2   4   2   4
#     4   9  18  35  57  82 113 149 189 233 282 336
#     4   9  18  35  57  82 113 149 189 233 282 336
#     4   8  14  26  49  76 106 140 180 224 274 328
#     4   9  17  32  53  80 110 145 184 229 278 332
#     4   8  14  26  49  76 106 140 180 224 274 328
#     4   9  17  32  53  80 110 145 184 229 278 332
#
# _framework density 27.725425000000001
#
# number of rings (size 3 to 8) (size 9 to 14) (size 15 to 20)
#    0.000    3.200    0.000    0.000    0.000    0.000 
#    0.000   25.000    0.000    0.000    0.000   42.000 
#    0.000    0.000    0.000    0.000    0.000    0.000 
#
# Total GULP energy -111728.358928 kJ/mol
# GULP energy per Si atom -5586.417946 kJ/mol
# Density = 2.766232 g / cm^3
# Si number density = 27.725425 Si / 1000 Ang^3
#
#
#
# Elastic Constant Matrix: (Units=GPa)
#
#
# Indices 1 2 3 4 5 6 
#
# 1 340.9281 21.7877 20.5751 0.0000 0.0000 0.0000
# 2 21.7877 74.2572 41.0943 0.0000 0.0000 0.0000
# 3 20.5751 41.0943 116.6431 0.0000 0.0000 0.0000
# 4 0.0000 0.0000 0.0000 46.4099 0.0000 0.0000
# 5 0.0000 0.0000 0.0000 0.0000 72.7805 0.0000
# 6 0.0000 0.0000 0.0000 0.0000 0.0000 6.1848
#
#
#
# Elastic Compliance Matrix: (Units=1/GPa)
#
#
# Indices 1 2 3 4 5 6 
#
# 1 0.002996 -0.000729 -0.000272 0.000000 0.000000 0.000000
# 2 -0.000729 0.016905 -0.005827 0.000000 0.000000 0.000000
# 3 -0.000272 -0.005827 0.010674 0.000000 0.000000 0.000000
# 4 0.000000 0.000000 0.000000 0.021547 0.000000 0.000000
# 5 0.000000 0.000000 0.000000 0.000000 0.013740 0.000000
# 6 0.000000 0.000000 0.000000 0.000000 0.000000 0.161688
#
#
# Mechanical properties :
#
#
# Convention : Reuss Voigt Hill
#
# Bulk Modulus (GPa) = 59.10167 77.63807 68.36987
# Shear Modulus (GPa) = 20.25552 54.96645 37.61098
#
# Velocity S-wave (km/s) = 2.70585 4.45739 3.68714
# Velocity P-wave (km/s) = 5.57900 7.38609 6.54521
#
# Compressibility (1/GPa) = 0.01691999
#
# Stress axis : x y z
#
# Youngs Moduli (GPa) = 333.76278 59.15263 93.68439
#
# Poissons Ratio (x) = 0.04310 0.02546
# Poissons Ratio (y) = 0.24321 0.54594
# Poissons Ratio (z) = 0.09071 0.34471
#
# Static dielectric constant tensor:
#      x y z
#    x 2.388440 0.000000 0.000000 
#    y 0.000000 2.307770 0.000000 
#    z 0.000000 0.000000 2.071480 
# 
# From -- ./inp_files/1812.got.cif
#   From: 2010.05.17/outbox.cif.g08.bks.cpg/sg28_1_cif.got.tgz:1812.got - 2010.06.04 01:15:21.
