data_PCOD9339803
_publ_section_title
;
Structure prediction by ZEFSAII (Michael W. Deem and Ramdas Pophale) SiO2 
 PCOD9339803
Probable space group: P M A 2
;
_chemical_formula_sum "Si O2"
_cell_formula_units_Z 16
_cell_length_a 10.925445
_cell_length_b 8.586200
_cell_length_c 7.616553
_cell_angle_alpha 90.000000
_cell_angle_beta 90.000000
_cell_angle_gamma 90.000000
_cell_volume 714.494029
_symmetry_space_group_name_H-M "P M A 2"
_symmetry_group_IT_number 28
_symmetry_cell_setting 'orthorhombic'
loop_
_space_group_symop_operation_xyz
x,y,z
-x,-y,z
1/2-x,y,z
1/2+x,-y,z
loop_
_atom_site_type_symbol
_atom_site_label
_atom_site_fract_x
_atom_site_fract_y
_atom_site_fract_z
Si Si1 0.117129 0.613125 0.567440
Si Si2 0.382578 0.387786 0.067440
Si Si3 0.971158 0.827039 0.767504
Si Si4 0.028842 0.172961 0.367376
O O1 0.250000 0.539644 0.567440
O O2 0.000000 0.500000 0.567440
O O3 0.095002 0.727283 0.732349
O O4 0.095002 0.727283 0.402531
O O5 0.500000 0.500000 0.067440
O O6 0.250000 0.467049 0.067440
O O7 0.393136 0.275384 0.236129
O O8 0.393136 0.275384 0.898751
O O9 0.919416 0.841149 0.567440
O O10 0.000000 0.000000 0.831116
O O11 0.000000 0.000000 0.303764
#
# Coordination Sequence:
#
# PCOD9339803 Si02
#       4
#     4   4   4   4
#     4  10  21  38  64  96 130 170 215 266 330 396
#     4  12  27  44  68 102 138 184 229 278 338 406
#     4   9  22  45  69  98 135 171 226 283 344 396
#     4   9  22  45  69  98 135 171 226 283 344 396
#
# _framework density 22.393470000000001
#
# number of rings (size 3 to 8) (size 9 to 14) (size 15 to 20)
#    1.500    0.500    0.000    2.250    0.000   11.000 
#    0.000    2.500    0.000    0.000    0.000    0.000 
#    0.000    0.000    0.000    0.000    0.000    0.000 
#
# Total GULP energy -89161.166188 kJ/mol
# GULP energy per Si atom -5572.572887 kJ/mol
# Density = 2.234250 g / cm^3
# Si number density = 22.393470 Si / 1000 Ang^3
#
#
#
# Elastic Constant Matrix: (Units=GPa)
#
#
# Indices 1 2 3 4 5 6 
#
# 1 178.4985 74.3558 28.1378 0.0000 0.0000 0.0000
# 2 74.3558 139.8676 14.2841 0.0000 0.0000 0.0000
# 3 28.1378 14.2841 88.3516 0.0000 0.0000 0.0000
# 4 0.0000 0.0000 0.0000 32.8695 0.0000 0.0000
# 5 0.0000 0.0000 0.0000 0.0000 24.9877 0.0000
# 6 0.0000 0.0000 0.0000 0.0000 0.0000 18.9730
#
#
#
# Elastic Compliance Matrix: (Units=1/GPa)
#
#
# Indices 1 2 3 4 5 6 
#
# 1 0.007456 -0.003784 -0.001763 0.000000 0.000000 0.000000
# 2 -0.003784 0.009190 -0.000281 0.000000 0.000000 0.000000
# 3 -0.001763 -0.000281 0.011925 0.000000 0.000000 0.000000
# 4 0.000000 0.000000 0.000000 0.030423 0.000000 0.000000
# 5 0.000000 0.000000 0.000000 0.000000 0.040020 0.000000
# 6 0.000000 0.000000 0.000000 0.000000 0.000000 0.052706
#
#
# Mechanical properties :
#
#
# Convention : Reuss Voigt Hill
#
# Bulk Modulus (GPa) = 59.11386 71.14144 65.12765
# Shear Modulus (GPa) = 29.58321 34.69538 32.13930
#
# Velocity S-wave (km/s) = 3.63859 3.94045 3.79252
# Velocity P-wave (km/s) = 6.64135 7.24850 6.95155
#
# Compressibility (1/GPa) = 0.01691651
#
# Stress axis : x y z
#
# Youngs Moduli (GPa) = 134.11252 108.81544 83.85576
#
# Poissons Ratio (x) = 0.41175 0.14783
# Poissons Ratio (y) = 0.50747 0.02354
# Poissons Ratio (z) = 0.23643 0.03054
#
# Static dielectric constant tensor:
#      x y z
#    x 1.821040 0.000000 0.000000 
#    y 0.000000 1.865940 0.000000 
#    z 0.000000 0.000000 1.899080 
# 
# From -- ./inp_files/2810.got.cif
#   From: 2010.05.17/outbox.cif.g08.bks.cpg/sg28_2_cif.got.tgz:2810.got - 2010.06.04 01:15:21.
