data_PCOD9339385
_publ_section_title
;
Structure prediction by ZEFSAII (Michael W. Deem and Ramdas Pophale) SiO2 
 PCOD9339385
Probable space group: P M A 2
;
_chemical_formula_sum "Si O2"
_cell_formula_units_Z 24
_cell_length_a 8.270901
_cell_length_b 27.506056
_cell_length_c 5.280058
_cell_angle_alpha 90.000000
_cell_angle_beta 90.000000
_cell_angle_gamma 90.000000
_cell_volume 1201.212488
_symmetry_space_group_name_H-M "P M A 2"
_symmetry_group_IT_number 28
_symmetry_cell_setting 'orthorhombic'
loop_
_space_group_symop_operation_xyz
x,y,z
-x,-y,z
1/2-x,y,z
1/2+x,-y,z
loop_
_atom_site_type_symbol
_atom_site_label
_atom_site_fract_x
_atom_site_fract_y
_atom_site_fract_z
Si Si1 0.945345 0.944462 0.747000
Si Si2 0.939238 0.392059 0.719957
Si Si3 0.447813 0.112685 0.246716
Si Si4 0.439689 0.445123 0.221614
Si Si5 0.052655 0.224385 0.289552
Si Si6 0.946060 0.717979 0.790121
O O1 0.750000 0.943802 0.747255
O O2 0.000210 0.917878 0.491036
O O3 0.000710 0.914128 0.991354
O O4 0.000000 0.000000 0.757813
O O5 0.750000 0.394828 0.665570
O O6 0.028072 0.415108 0.477893
O O7 0.990755 0.336405 0.760263
O O8 0.976422 0.421022 0.978012
O O9 0.250000 0.113178 0.245850
O O10 0.500586 0.168634 0.263082
O O11 0.500000 0.500000 0.258017
O O12 0.250000 0.445541 0.168771
O O13 0.250000 0.223729 0.288423
O O14 0.002822 0.249153 0.551904
O O15 0.001225 0.256807 0.051023
O O16 0.750000 0.716090 0.791170
#
# Coordination Sequence:
#
# PCOD9339385 Si02
#       6
#     4   4   4   4   4   4
#     4  10  19  31  49  71  99 132 171 216 269 325
#     4  12  25  42  63  91 126 164 201 242 294 355
#     4   9  17  30  49  74 100 132 173 222 270 320
#     4  12  25  44  67  93 124 160 203 250 298 351
#     4   9  17  30  52  79 105 134 179 230 277 327
#     4  10  19  33  55  82 109 142 183 232 281 332
#
# _framework density 19.979811999999999
#
# number of rings (size 3 to 8) (size 9 to 14) (size 15 to 20)
#    0.000    1.667    0.000    6.000    0.000    5.333 
#    0.000    0.000    0.000    6.000    0.000    0.000 
#    0.000    0.000    0.000    0.000    0.000    0.000 
#
# Total GULP energy -134191.601339 kJ/mol
# GULP energy per Si atom -5591.316722 kJ/mol
# Density = 1.993434 g / cm^3
# Si number density = 19.979812 Si / 1000 Ang^3
#
#
#
# Elastic Constant Matrix: (Units=GPa)
#
#
# Indices 1 2 3 4 5 6 
#
# 1 22.2768 -1.2040 -9.4648 0.0000 0.0000 0.0000
# 2 -1.2040 77.4344 -15.0108 0.0000 0.0000 0.0000
# 3 -9.4648 -15.0108 72.8179 0.0000 0.0000 0.0000
# 4 0.0000 0.0000 0.0000 61.7963 0.0000 0.0000
# 5 0.0000 0.0000 0.0000 0.0000 14.8824 0.0000
# 6 0.0000 0.0000 0.0000 0.0000 0.0000 50.1838
#
#
#
# Elastic Compliance Matrix: (Units=1/GPa)
#
#
# Indices 1 2 3 4 5 6 
#
# 1 0.047818 0.002029 0.006634 0.000000 0.000000 0.000000
# 2 0.002029 0.013538 0.003054 0.000000 0.000000 0.000000
# 3 0.006634 0.003054 0.015225 0.000000 0.000000 0.000000
# 4 0.000000 0.000000 0.000000 0.016182 0.000000 0.000000
# 5 0.000000 0.000000 0.000000 0.000000 0.067193 0.000000
# 6 0.000000 0.000000 0.000000 0.000000 0.000000 0.019927
#
#
# Mechanical properties :
#
#
# Convention : Reuss Voigt Hill
#
# Bulk Modulus (GPa) = 9.99842 13.46332 11.73087
# Shear Modulus (GPa) = 26.34542 38.58640 32.46591
#
# Velocity S-wave (km/s) = 3.63520 4.39939 4.03542
# Velocity P-wave (km/s) = 4.75759 5.70607 5.25328
#
# Compressibility (1/GPa) = 0.10001585
#
# Stress axis : x y z
#
# Youngs Moduli (GPa) = 20.91265 73.86710 65.68235
#
# Poissons Ratio (x) = -0.14991 -0.43572
# Poissons Ratio (y) = -0.04244 -0.20063
# Poissons Ratio (z) = -0.13873 -0.22563
#
# Static dielectric constant tensor:
#      x y z
#    x 1.700740 0.000000 0.000000 
#    y 0.000000 1.642810 0.000000 
#    z 0.000000 0.000000 1.674640 
# 
# From -- ./inp_files/221.got.cif
#   From: 2010.05.17/outbox.cif.g08.bks.cpg/sg28_1_cif.got.tgz:221.got - 2010.06.04 01:15:21.
