data_PCOD9339411
_publ_section_title
;
Structure prediction by ZEFSAII (Michael W. Deem and Ramdas Pophale) SiO2 
 PCOD9339411
Probable space group: P M A 2
;
_chemical_formula_sum "Si O2"
_cell_formula_units_Z 24
_cell_length_a 8.955349
_cell_length_b 16.170732
_cell_length_c 9.539135
_cell_angle_alpha 90.000000
_cell_angle_beta 90.000000
_cell_angle_gamma 90.000000
_cell_volume 1381.405529
_symmetry_space_group_name_H-M "P M A 2"
_symmetry_group_IT_number 28
_symmetry_cell_setting 'orthorhombic'
loop_
_space_group_symop_operation_xyz
x,y,z
-x,-y,z
1/2-x,y,z
1/2+x,-y,z
loop_
_atom_site_type_symbol
_atom_site_label
_atom_site_fract_x
_atom_site_fract_y
_atom_site_fract_z
Si Si1 0.068901 0.264340 0.793560
Si Si2 0.070059 0.743570 0.102239
Si Si3 0.928142 0.413910 0.287891
Si Si4 0.921511 0.916830 0.775049
Si Si5 0.070712 0.587469 0.618039
Si Si6 0.576652 0.914995 0.116758
O O1 0.250000 0.265759 0.798743
O O2 0.020559 0.173961 0.734650
O O3 0.003669 0.338162 0.702355
O O4 0.003303 0.270192 0.950157
O O5 0.250000 0.747077 0.090114
O O6 0.027014 0.666707 0.200610
O O7 0.009430 0.831547 0.157853
O O8 0.750000 0.422041 0.275654
O O9 0.963261 0.402973 0.452418
O O10 0.000000 0.500000 0.239083
O O11 0.750000 0.921651 0.732875
O O12 0.927619 0.916780 0.945733
O O13 0.000000 0.000000 0.725156
O O14 0.250000 0.586734 0.636361
O O15 0.000000 0.500000 0.663086
O O16 0.750000 0.911526 0.157859
O O17 0.500000 0.000000 0.165168
#
# Coordination Sequence:
#
# PCOD9339411 Si02
#       6
#     4   4   4   4   4   4
#     4  10  20  33  49  75 105 132 165 206 247 293
#     4  10  19  32  50  75 104 133 165 207 251 292
#     4   9  20  36  54  74  97 127 166 205 247 299
#     4   8  15  26  42  65  95 126 158 194 235 281
#     4  10  20  36  55  74  96 128 166 205 249 300
#     4   9  16  27  44  69  99 132 166 203 245 293
#
# _framework density 17.373608999999998
#
# number of rings (size 3 to 8) (size 9 to 14) (size 15 to 20)
#    0.000    2.667    0.000    3.000    0.000    7.333 
#    0.000    1.667    0.000    1.000    0.000    2.333 
#    0.000    0.000    0.000    0.000    0.000    0.000 
#
# Total GULP energy -133757.198761 kJ/mol
# GULP energy per Si atom -5573.216615 kJ/mol
# Density = 1.733407 g / cm^3
# Si number density = 17.373609 Si / 1000 Ang^3
#
#
#
# Elastic Constant Matrix: (Units=GPa)
#
#
# Indices 1 2 3 4 5 6 
#
# 1 74.7961 78.2382 29.1798 0.0000 0.0000 0.0000
# 2 78.2382 226.4822 63.8528 0.0000 0.0000 0.0000
# 3 29.1798 63.8528 30.1251 0.0000 0.0000 0.0000
# 4 0.0000 0.0000 0.0000 -19.0055 0.0000 0.0000
# 5 0.0000 0.0000 0.0000 0.0000 4.1610 0.0000
# 6 0.0000 0.0000 0.0000 0.0000 0.0000 38.5089
#
#
#
# Elastic Compliance Matrix: (Units=1/GPa)
#
#
# Indices 1 2 3 4 5 6 
#
# 1 0.022944 -0.004126 -0.013479 0.000000 0.000000 0.000000
# 2 -0.004126 0.011714 -0.020833 0.000000 0.000000 0.000000
# 3 -0.013479 -0.020833 0.090407 0.000000 0.000000 0.000000
# 4 0.000000 0.000000 0.000000 -0.052616 0.000000 0.000000
# 5 0.000000 0.000000 0.000000 0.000000 0.240328 0.000000
# 6 0.000000 0.000000 0.000000 0.000000 0.000000 0.025968
#
#
# Mechanical properties :
#
#
# Convention : Reuss Voigt Hill
#
# Bulk Modulus (GPa) = 20.75087 74.88278 47.81683
# Shear Modulus (GPa) = 11.58257 15.40838 13.49548
#
# Velocity S-wave (km/s) = 2.58481 2.98129 2.79010
# Velocity P-wave (km/s) = 4.56926 7.41929 6.16133
#
# Compressibility (1/GPa) = 0.04819074
#
# Stress axis : x y z
#
# Youngs Moduli (GPa) = 43.58491 85.36795 11.06106
#
# Poissons Ratio (x) = 0.35221 0.14909
# Poissons Ratio (y) = 0.17982 0.23043
# Poissons Ratio (z) = 0.58747 1.77843
#
# Static dielectric constant tensor:
#      x y z
#    x 1.584770 0.000000 0.000000 
#    y 0.000000 1.602100 0.000000 
#    z 0.000000 0.000000 1.571920 
# 
# From -- ./inp_files/4686.got.cif
#   From: 2010.05.17/outbox.cif.g08.bks.cpg/sg28_3_cif.got.tgz:4686.got - 2010.06.04 01:15:21.
