data_PCOD9339105
_publ_section_title
;
Structure prediction by ZEFSAII (Michael W. Deem and Ramdas Pophale) SiO2 
 PCOD9339105
Probable space group: P C C 2
;
_chemical_formula_sum "Si O2"
_cell_formula_units_Z 14
_cell_length_a 4.941370
_cell_length_b 13.363833
_cell_length_c 8.824107
_cell_angle_alpha 90.000000
_cell_angle_beta 90.000000
_cell_angle_gamma 90.000000
_cell_volume 582.705584
_symmetry_space_group_name_H-M "P C C 2"
_symmetry_group_IT_number 27
_symmetry_cell_setting 'orthorhombic'
loop_
_space_group_symop_operation_xyz
x,y,z
-x,-y,z
-x,y,1/2+z
x,-y,1/2+z
loop_
_atom_site_type_symbol
_atom_site_label
_atom_site_fract_x
_atom_site_fract_y
_atom_site_fract_z
Si Si1 0.000000 0.500000 0.987670
Si Si2 0.379629 0.817790 0.219424
Si Si3 0.672291 0.406587 0.220041
Si Si4 0.880075 0.111191 0.536880
O O1 0.210683 0.446776 0.876620
O O2 0.094551 0.590236 0.095061
O O3 0.458953 0.701060 0.233891
O O4 0.252469 0.854498 0.378255
O O5 0.640057 0.878864 0.161317
O O6 0.138806 0.826721 0.095982
O O7 0.500000 0.500000 0.163437
O O8 0.000000 0.000000 0.522881
#
# Coordination Sequence:
#
# PCOD9339105 Si02
#       4
#     2   4   4   4
#     4  10  24  42  68 104 160 196 242 302 364 440
#     4  12  28  48  83 112 155 205 256 315 398 457
#     4  11  25  42  72 107 155 195 251 299 374 454
#     4  12  28  52  79 115 150 198 263 327 387 458
#
# _framework density 24.025857999999999
#
# number of rings (size 3 to 8) (size 9 to 14) (size 15 to 20)
#    0.000    0.571    0.000    6.000   16.000    2.286 
#    0.000    1.429    0.000    0.000    0.000    0.000 
#    0.000    0.000    0.000    0.000    0.000    0.000 
#
# Total GULP energy -78349.656970 kJ/mol
# GULP energy per Si atom -5596.404069 kJ/mol
# Density = 2.397117 g / cm^3
# Si number density = 24.025858 Si / 1000 Ang^3
#
#
#
# Elastic Constant Matrix: (Units=GPa)
#
#
# Indices 1 2 3 4 5 6 
#
# 1 104.6432 35.7748 29.6240 0.0000 0.0000 0.0000
# 2 35.7748 171.6738 39.3452 0.0000 0.0000 0.0000
# 3 29.6240 39.3452 123.4806 0.0000 0.0000 0.0000
# 4 0.0000 0.0000 0.0000 -89.1620 0.0000 0.0000
# 5 0.0000 0.0000 0.0000 0.0000 52.3337 0.0000
# 6 0.0000 0.0000 0.0000 0.0000 0.0000 35.7938
#
#
#
# Elastic Compliance Matrix: (Units=1/GPa)
#
#
# Indices 1 2 3 4 5 6 
#
# 1 0.010732 -0.001776 -0.002009 0.000000 0.000000 0.000000
# 2 -0.001776 0.006578 -0.001670 0.000000 0.000000 0.000000
# 3 -0.002009 -0.001670 0.009112 0.000000 0.000000 0.000000
# 4 0.000000 0.000000 0.000000 -0.011216 0.000000 0.000000
# 5 0.000000 0.000000 0.000000 0.000000 0.019108 0.000000
# 6 0.000000 0.000000 0.000000 0.000000 0.000000 0.027938
#
#
# Mechanical properties :
#
#
# Convention : Reuss Voigt Hill
#
# Bulk Modulus (GPa) = 64.46210 67.69840 66.08025
# Shear Modulus (GPa) = 63.82990 19.46335 41.64663
#
# Velocity S-wave (km/s) = 5.15993 2.84931 4.16794
# Velocity P-wave (km/s) = 7.89863 6.25006 7.12220
#
# Compressibility (1/GPa) = 0.01551299
#
# Stress axis : x y z
#
# Youngs Moduli (GPa) = 93.17783 152.02624 109.74016
#
# Poissons Ratio (x) = 0.27001 0.22045
# Poissons Ratio (y) = 0.16549 0.18325
# Poissons Ratio (z) = 0.18718 0.25386
#
# Static dielectric constant tensor:
#      x y z
#    x 1.846650 0.000000 0.000000 
#    y 0.000000 2.006310 0.000000 
#    z 0.000000 0.000000 1.885100 
# 
# From -- ./inp_files/809.got.cif
#   From: 2010.05.17/outbox.cif.g08.bks.cpg/sg27_1_cif.got.tgz:809.got - 2010.06.04 01:11:05.
