data_PCOD9339791
_publ_section_title
;
Structure prediction by ZEFSAII (Michael W. Deem and Ramdas Pophale) SiO2 
 PCOD9339791
Probable space group: P M A 2
;
_chemical_formula_sum "Si O2"
_cell_formula_units_Z 20
_cell_length_a 9.041176
_cell_length_b 15.276742
_cell_length_c 7.340651
_cell_angle_alpha 90.000000
_cell_angle_beta 90.000000
_cell_angle_gamma 90.000000
_cell_volume 1013.888610
_symmetry_space_group_name_H-M "P M A 2"
_symmetry_group_IT_number 28
_symmetry_cell_setting 'orthorhombic'
loop_
_space_group_symop_operation_xyz
x,y,z
-x,-y,z
1/2-x,y,z
1/2+x,-y,z
loop_
_atom_site_type_symbol
_atom_site_label
_atom_site_fract_x
_atom_site_fract_y
_atom_site_fract_z
Si Si1 0.080838 0.087297 0.602790
Si Si2 0.428947 0.280060 0.578323
Si Si3 0.079335 0.088737 0.158848
Si Si4 0.075057 0.593641 0.866987
Si Si5 0.424339 0.733308 0.186400
O O1 0.250000 0.081913 0.661114
O O2 0.022493 0.183664 0.651472
O O3 0.078097 0.086798 0.381002
O O4 0.000000 0.000000 0.665382
O O5 0.250000 0.281516 0.576485
O O6 0.495758 0.355375 0.702688
O O7 0.490607 0.287190 0.373692
O O8 0.250000 0.092457 0.101938
O O9 0.992690 0.176665 0.108790
O O10 0.000000 0.000000 0.097537
O O11 0.250000 0.583927 0.830295
O O12 0.000000 0.500000 0.894295
O O13 0.057860 0.654991 0.043982
O O14 0.250000 0.746335 0.223462
#
# Coordination Sequence:
#
# PCOD9339791 Si02
#       5
#     4   4   4   4   4
#     4   8  15  27  47  78 112 148 186 225 272 325
#     4  10  21  38  61  88 119 155 194 238 289 343
#     4   9  16  28  50  81 116 154 194 235 282 337
#     4  11  25  43  63  86 113 148 191 243 298 350
#     4  10  21  38  60  87 119 155 196 239 287 345
#
# _framework density 19.726033999999999
#
# number of rings (size 3 to 8) (size 9 to 14) (size 15 to 20)
#    0.000    2.400    0.000    3.600    0.000    9.600 
#    0.000    3.000    0.000    2.400    0.000    0.000 
#    0.000    0.000    0.000    0.000    0.000    0.000 
#
# Total GULP energy -111711.463057 kJ/mol
# GULP energy per Si atom -5585.573153 kJ/mol
# Density = 1.968114 g / cm^3
# Si number density = 19.726034 Si / 1000 Ang^3
#
#
#
# Elastic Constant Matrix: (Units=GPa)
#
#
# Indices 1 2 3 4 5 6 
#
# 1 136.5021 101.8207 47.9590 0.0000 0.0000 0.0000
# 2 101.8207 184.4259 44.9112 0.0000 0.0000 0.0000
# 3 47.9590 44.9112 80.9827 0.0000 0.0000 0.0000
# 4 0.0000 0.0000 0.0000 33.5910 0.0000 0.0000
# 5 0.0000 0.0000 0.0000 0.0000 -8.8037 0.0000
# 6 0.0000 0.0000 0.0000 0.0000 0.0000 40.8542
#
#
#
# Elastic Compliance Matrix: (Units=1/GPa)
#
#
# Indices 1 2 3 4 5 6 
#
# 1 0.013769 -0.006493 -0.004553 0.000000 0.000000 0.000000
# 2 -0.006493 0.009331 -0.001329 0.000000 0.000000 0.000000
# 3 -0.004553 -0.001329 0.015782 0.000000 0.000000 0.000000
# 4 0.000000 0.000000 0.000000 0.029770 0.000000 0.000000
# 5 0.000000 0.000000 0.000000 0.000000 -0.113589 0.000000
# 6 0.000000 0.000000 0.000000 0.000000 0.000000 0.024477
#
#
# Mechanical properties :
#
#
# Convention : Reuss Voigt Hill
#
# Bulk Modulus (GPa) = 70.76915 87.92140 79.34527
# Shear Modulus (GPa) = 555.45501 26.94295 291.19898
#
# Velocity S-wave (km/s) = 16.79869 3.69976 12.16315
# Velocity P-wave (km/s) = 20.30309 7.93215 15.41321
#
# Compressibility (1/GPa) = 0.01413045
#
# Stress axis : x y z
#
# Youngs Moduli (GPa) = 72.62725 107.17320 63.36296
#
# Poissons Ratio (x) = 0.69587 0.28851
# Poissons Ratio (y) = 0.47157 0.08423
# Poissons Ratio (z) = 0.33069 0.14247
#
# Static dielectric constant tensor:
#      x y z
#    x 1.663620 0.000000 0.000000 
#    y 0.000000 1.674210 0.000000 
#    z 0.000000 0.000000 1.718880 
# 
# From -- ./inp_files/2337.got.cif
#   From: 2010.05.17/outbox.cif.g08.bks.cpg/sg28_2_cif.got.tgz:2337.got - 2010.06.04 01:15:21.
