data_PCOD9339541
_publ_section_title
;
Structure prediction by ZEFSAII (Michael W. Deem and Ramdas Pophale) SiO2 
 PCOD9339541
Probable space group: P M A 2
;
_chemical_formula_sum "Si O2"
_cell_formula_units_Z 32
_cell_length_a 31.336570
_cell_length_b 8.345330
_cell_length_c 6.036669
_cell_angle_alpha 90.000000
_cell_angle_beta 90.000000
_cell_angle_gamma 90.000000
_cell_volume 1578.673564
_symmetry_space_group_name_H-M "P M A 2"
_symmetry_group_IT_number 28
_symmetry_cell_setting 'orthorhombic'
loop_
_space_group_symop_operation_xyz
x,y,z
-x,-y,z
1/2-x,y,z
1/2+x,-y,z
loop_
_atom_site_type_symbol
_atom_site_label
_atom_site_fract_x
_atom_site_fract_y
_atom_site_fract_z
Si Si1 0.375789 0.499662 0.993730
Si Si2 0.454389 0.918343 0.961928
Si Si3 0.702442 0.921831 0.960422
Si Si4 0.297558 0.421829 0.707741
Si Si5 0.093151 0.749999 0.334081
Si Si6 0.124211 0.000337 0.674432
Si Si7 0.454389 0.581656 0.706234
Si Si8 0.343184 0.249999 0.334081
O O1 0.334492 0.514608 0.837379
O O2 0.417931 0.488100 0.842824
O O3 0.380419 0.653708 0.151377
O O4 0.370017 0.344899 0.150391
O O5 0.459147 0.750000 0.834079
O O6 0.500000 0.000000 0.970976
O O7 0.417930 0.011900 0.825341
O O8 0.435924 0.877357 0.203515
O O9 0.750000 0.991678 0.959088
O O10 0.704689 0.750000 0.834083
O O11 0.665508 0.014609 0.830781
O O12 0.686145 0.878392 0.205717
O O13 0.250000 0.491676 0.709075
O O14 0.313854 0.378388 0.462446
O O15 0.064076 0.622639 0.464647
O O16 0.119581 0.846291 0.516785
O O17 0.129982 0.155100 0.517771
O O18 0.500000 0.500000 0.697186
#
# Coordination Sequence:
#
# PCOD9339541 Si02
#       8
#     4   4   4   4   4   4   4   4
#     4  10  21  38  58  86 119 151 189 234 283 339
#     4  10  23  41  60  84 115 150 191 237 284 340
#     4   9  18  33  55  85 118 151 191 237 282 333
#     4   9  18  33  55  85 118 151 191 237 282 333
#     4  10  22  40  60  81 116 155 185 230 289 342
#     4  10  21  38  58  86 119 151 189 234 283 339
#     4  10  23  41  60  84 115 150 191 237 284 340
#     4  10  19  34  61  87 114 151 192 238 286 334
#
# _framework density 20.270181999999998
#
# number of rings (size 3 to 8) (size 9 to 14) (size 15 to 20)
#    0.000    2.250    0.000    1.875    0.000   10.000 
#    0.000    3.125    0.000   14.250    0.000    0.000 
#    0.000    0.000    0.000    0.000    0.000    0.000 
#
# Total GULP energy -178730.671819 kJ/mol
# GULP energy per Si atom -5585.333494 kJ/mol
# Density = 2.022405 g / cm^3
# Si number density = 20.270182 Si / 1000 Ang^3
#
#
#
# Elastic Constant Matrix: (Units=GPa)
#
#
# Indices 1 2 3 4 5 6 
#
# 1 208.6551 61.2670 92.3207 0.0000 0.0000 0.0000
# 2 61.2670 37.2527 28.3149 0.0000 0.0000 0.0000
# 3 92.3207 28.3149 127.4074 0.0000 0.0000 0.0000
# 4 0.0000 0.0000 0.0000 38.1049 0.0000 0.0000
# 5 0.0000 0.0000 0.0000 0.0000 12.4702 0.0000
# 6 0.0000 0.0000 0.0000 0.0000 0.0000 25.2046
#
#
#
# Elastic Compliance Matrix: (Units=1/GPa)
#
#
# Indices 1 2 3 4 5 6 
#
# 1 0.011348 -0.014936 -0.004903 0.000000 0.000000 0.000000
# 2 -0.014936 0.051958 -0.000725 0.000000 0.000000 0.000000
# 3 -0.004903 -0.000725 0.011563 0.000000 0.000000 0.000000
# 4 0.000000 0.000000 0.000000 0.026243 0.000000 0.000000
# 5 0.000000 0.000000 0.000000 0.000000 0.080191 0.000000
# 6 0.000000 0.000000 0.000000 0.000000 0.000000 0.039675
#
#
# Mechanical properties :
#
#
# Convention : Reuss Voigt Hill
#
# Bulk Modulus (GPa) = 29.63711 81.90227 55.76969
# Shear Modulus (GPa) = 18.29134 27.91677 23.10406
#
# Velocity S-wave (km/s) = 3.00722 3.71514 3.37976
# Velocity P-wave (km/s) = 5.16823 7.67437 6.54242
#
# Compressibility (1/GPa) = 0.03374148
#
# Stress axis : x y z
#
# Youngs Moduli (GPa) = 88.12375 19.24620 86.48397
#
# Poissons Ratio (x) = 0.28746 0.42406
# Poissons Ratio (y) = 1.31620 0.06266
# Poissons Ratio (z) = 0.43210 0.01394
#
# Static dielectric constant tensor:
#      x y z
#    x 1.707000 0.000000 0.000000 
#    y 0.000000 1.740300 0.000000 
#    z 0.000000 0.000000 1.743080 
# 
# From -- ./inp_files/1913.got.cif
#   From: 2010.05.17/outbox.cif.g08.bks.cpg/sg28_1_cif.got.tgz:1913.got - 2010.06.04 01:15:21.
