data_PCOD9339730
_publ_section_title
;
Structure prediction by ZEFSAII (Michael W. Deem and Ramdas Pophale) SiO2 
 PCOD9339730
Probable space group: P M A 2
;
_chemical_formula_sum "Si O2"
_cell_formula_units_Z 32
_cell_length_a 26.085231
_cell_length_b 8.116074
_cell_length_c 6.064086
_cell_angle_alpha 90.000000
_cell_angle_beta 90.000000
_cell_angle_gamma 90.000000
_cell_volume 1283.825616
_symmetry_space_group_name_H-M "P M A 2"
_symmetry_group_IT_number 28
_symmetry_cell_setting 'orthorhombic'
loop_
_space_group_symop_operation_xyz
x,y,z
-x,-y,z
1/2-x,y,z
1/2+x,-y,z
loop_
_atom_site_type_symbol
_atom_site_label
_atom_site_fract_x
_atom_site_fract_y
_atom_site_fract_z
Si Si1 0.491118 0.804357 0.861910
Si Si2 0.884018 0.684615 0.691646
Si Si3 0.809013 0.573980 0.066277
Si Si4 0.486182 0.801736 0.355850
Si Si5 0.834923 0.895491 0.307465
Si Si6 0.106026 0.988560 0.922545
Si Si7 0.617199 0.389691 0.415465
Si Si8 0.693615 0.152641 0.640186
O O1 0.502444 0.748066 0.608113
O O2 0.500000 0.000000 0.874790
O O3 0.428440 0.829980 0.870850
O O4 0.505383 0.736986 0.110803
O O5 0.839473 0.606426 0.841236
O O6 0.858951 0.790319 0.501265
O O7 0.912000 0.830209 0.830628
O O8 0.909001 0.533827 0.560817
O O9 0.750000 0.512115 0.054320
O O10 0.806463 0.759237 0.165209
O O11 0.848692 0.466834 0.215721
O O12 0.427394 0.737841 0.353727
O O13 0.500000 0.000000 0.355359
O O14 0.804017 0.039318 0.422197
O O15 0.881895 0.973166 0.173505
O O16 0.161422 0.948224 0.819502
O O17 0.659724 0.304363 0.566368
O O18 0.750000 0.194872 0.717598
#
# Coordination Sequence:
#
# PCOD9339730 Si02
#       8
#     4   4   4   4   4   4   4   4
#     4  10  21  39  67 102 124 160 211 270 329 395
#     4   9  22  37  56  87 119 169 212 262 315 386
#     4  10  21  37  57  83 122 174 220 265 322 392
#     4  10  22  40  67 100 124 162 210 269 331 401
#     4   9  20  37  57  81 119 164 217 267 314 380
#     4  10  20  38  62  90 123 166 217 262 327 388
#     4  11  22  38  59  89 127 164 212 265 336 388
#     4  11  22  34  54  89 124 161 211 268 319 380
#
# _framework density 24.925502000000002
#
# number of rings (size 3 to 8) (size 9 to 14) (size 15 to 20)
#    0.000    2.000    1.250    1.500    3.500    8.500 
#    0.000    0.000    0.000    3.000    0.000    0.000 
#    0.000    0.000    0.000    0.000    0.000    0.000 
#
# Total GULP energy -178247.315298 kJ/mol
# GULP energy per Si atom -5570.228603 kJ/mol
# Density = 2.486877 g / cm^3
# Si number density = 24.925502 Si / 1000 Ang^3
#
#
#
# Elastic Constant Matrix: (Units=GPa)
#
#
# Indices 1 2 3 4 5 6 
#
# 1 44.4460 42.2645 40.1671 0.0000 0.0000 0.0000
# 2 42.2645 109.9882 46.6911 0.0000 0.0000 0.0000
# 3 40.1671 46.6911 190.2619 0.0000 0.0000 0.0000
# 4 0.0000 0.0000 0.0000 31.9536 0.0000 0.0000
# 5 0.0000 0.0000 0.0000 0.0000 -17.1015 0.0000
# 6 0.0000 0.0000 0.0000 0.0000 0.0000 2.2403
#
#
#
# Elastic Compliance Matrix: (Units=1/GPa)
#
#
# Indices 1 2 3 4 5 6 
#
# 1 0.039515 -0.012997 -0.005153 0.000000 0.000000 0.000000
# 2 -0.012997 0.014424 -0.000796 0.000000 0.000000 0.000000
# 3 -0.005153 -0.000796 0.006539 0.000000 0.000000 0.000000
# 4 0.000000 0.000000 0.000000 0.031295 0.000000 0.000000
# 5 0.000000 0.000000 0.000000 0.000000 -0.058474 0.000000
# 6 0.000000 0.000000 0.000000 0.000000 0.000000 0.446362
#
#
# Mechanical properties :
#
#
# Convention : Reuss Voigt Hill
#
# Bulk Modulus (GPa) = 44.27316 66.99350 55.63333
# Shear Modulus (GPa) = 9.52236 17.79004 13.65620
#
# Velocity S-wave (km/s) = 1.95669 2.67447 2.34322
# Velocity P-wave (km/s) = 4.78598 6.03928 5.44878
#
# Compressibility (1/GPa) = 0.02258705
#
# Stress axis : x y z
#
# Youngs Moduli (GPa) = 25.30706 69.32924 152.92770
#
# Poissons Ratio (x) = 0.90105 0.78799
# Poissons Ratio (y) = 0.32891 0.12171
# Poissons Ratio (z) = 0.13040 0.05518
#
# Static dielectric constant tensor:
#      x y z
#    x 2.381330 0.000000 0.000000 
#    y 0.000000 1.996310 0.000000 
#    z 0.000000 0.000000 2.047870 
# 
# From -- ./inp_files/1933.got.cif
#   From: 2010.05.17/outbox.cif.g08.bks.cpg/sg28_1_cif.got.tgz:1933.got - 2010.06.04 01:15:21.
