data_PCOD9339992
_publ_section_title
;
Structure prediction by ZEFSAII (Michael W. Deem and Ramdas Pophale) SiO2 
 PCOD9339992
Probable space group: P C A 21
;
_chemical_formula_sum "Si O2"
_cell_formula_units_Z 32
_cell_length_a 5.499782
_cell_length_b 8.999422
_cell_length_c 31.059575
_cell_angle_alpha 90.000000
_cell_angle_beta 90.000000
_cell_angle_gamma 90.000000
_cell_volume 1537.289289
_symmetry_space_group_name_H-M "P C A 21"
_symmetry_group_IT_number 29
_symmetry_cell_setting 'orthorhombic'
loop_
_space_group_symop_operation_xyz
x,y,z
-x,-y,1/2+z
1/2-x,y,1/2+z
1/2+x,-y,z
loop_
_atom_site_type_symbol
_atom_site_label
_atom_site_fract_x
_atom_site_fract_y
_atom_site_fract_z
Si Si1 0.326391 0.664335 0.695490
Si Si2 0.223595 0.589598 0.792632
Si Si3 0.829309 0.408781 0.883007
Si Si4 0.255246 0.171643 0.003323
Si Si5 0.255658 0.751824 0.973160
Si Si6 0.243833 0.493236 0.046350
Si Si7 0.673538 0.677656 0.161449
Si Si8 0.212652 0.078645 0.599109
O O1 0.264433 0.658206 0.745870
O O2 0.342624 0.498028 0.673701
O O3 0.594169 0.730286 0.689457
O O4 0.093811 0.737383 0.673084
O O5 0.443350 0.466409 0.793772
O O6 0.279674 0.673809 0.837450
O O7 0.606372 0.529181 0.883096
O O8 0.791502 0.322446 0.927119
O O9 0.244344 0.344724 0.018486
O O10 0.284518 0.082371 0.047376
O O11 0.497543 0.167018 0.975146
O O12 0.993476 0.150508 0.982095
O O13 0.245176 0.628660 0.011855
O O14 0.993822 0.499582 0.072115
O O15 0.740339 0.754243 0.116142
O O16 0.447462 0.981203 0.612450
#
# Coordination Sequence:
#
# PCOD9339992 Si02
#       8
#     4   4   4   4   4   4   4   4
#     4  10  17  35  56  85 115 137 185 210 282 351
#     4  10  16  27  46  77 116 156 169 205 249 339
#     4  10  18  25  44  73 116 160 178 196 258 317
#     4  10  20  34  52  68  96 144 178 226 269 313
#     4  10  17  31  48  75 109 144 173 213 256 326
#     4   8  14  25  42  64  93 126 157 198 243 300
#     4  10  20  35  59  78 108 147 175 240 275 341
#     4  12  26  44  57  78 109 140 197 248 288 327
#
# _framework density 20.815861999999999
#
# number of rings (size 3 to 8) (size 9 to 14) (size 15 to 20)
#    0.000    2.000    2.500    4.500    0.000    0.000 
#   13.500    0.000    0.000    0.000    0.000    0.000 
#    0.000   20.000    0.000    0.000    0.000    0.000 
#
# Total GULP energy -178188.052140 kJ/mol
# GULP energy per Si atom -5568.376629 kJ/mol
# Density = 2.076848 g / cm^3
# Si number density = 20.815862 Si / 1000 Ang^3
#
#
#
# Elastic Constant Matrix: (Units=GPa)
#
#
# Indices 1 2 3 4 5 6 
#
# 1 166.6255 13.5081 1.7184 0.0000 0.0000 0.0000
# 2 13.5081 40.8706 -1.6062 0.0000 0.0000 0.0000
# 3 1.7184 -1.6062 82.1310 0.0000 0.0000 0.0000
# 4 0.0000 0.0000 0.0000 4.5565 0.0000 0.0000
# 5 0.0000 0.0000 0.0000 0.0000 28.3393 0.0000
# 6 0.0000 0.0000 0.0000 0.0000 0.0000 -12.6642
#
#
#
# Elastic Compliance Matrix: (Units=1/GPa)
#
#
# Indices 1 2 3 4 5 6 
#
# 1 0.006169 -0.002046 -0.000169 0.000000 0.000000 0.000000
# 2 -0.002046 0.025165 0.000535 0.000000 0.000000 0.000000
# 3 -0.000169 0.000535 0.012190 0.000000 0.000000 0.000000
# 4 0.000000 0.000000 0.000000 0.219465 0.000000 0.000000
# 5 0.000000 0.000000 0.000000 0.000000 0.035287 0.000000
# 6 0.000000 0.000000 0.000000 0.000000 0.000000 -0.078962
#
#
# Mechanical properties :
#
#
# Convention : Reuss Voigt Hill
#
# Bulk Modulus (GPa) = 24.89801 35.20752 30.05277
# Shear Modulus (GPa) = 21.18109 22.44677 21.81393
#
# Velocity S-wave (km/s) = 3.19336 3.28739 3.24071
# Velocity P-wave (km/s) = 5.05804 5.59997 5.33589
#
# Compressibility (1/GPa) = 0.04016386
#
# Stress axis : x y z
#
# Youngs Moduli (GPa) = 162.09933 39.73841 82.03669
#
# Poissons Ratio (x) = 0.08129 0.01387
# Poissons Ratio (y) = 0.33159 -0.04388
# Poissons Ratio (z) = 0.02741 -0.02126
#
# Static dielectric constant tensor:
#      x y z
#    x 1.855710 0.000000 0.000000 
#    y 0.000000 1.791210 0.000000 
#    z 0.000000 0.000000 1.746400 
# 
# From -- ./inp_files/5799.got.cif
#   From: 2010.05.17/outbox.cif.g08.bks.cpg/sg29_3_cif.got.tgz:5799.got - 2010.06.04 01:19:37.
