data_PCOD9339898
_publ_section_title
;
Structure prediction by ZEFSAII (Michael W. Deem and Ramdas Pophale) SiO2 
 PCOD9339898
Probable space group: P M A 2
;
_chemical_formula_sum "Si O2"
_cell_formula_units_Z 20
_cell_length_a 13.598396
_cell_length_b 11.232161
_cell_length_c 4.920742
_cell_angle_alpha 90.000000
_cell_angle_beta 90.000000
_cell_angle_gamma 90.000000
_cell_volume 751.591049
_symmetry_space_group_name_H-M "P M A 2"
_symmetry_group_IT_number 28
_symmetry_cell_setting 'orthorhombic'
loop_
_space_group_symop_operation_xyz
x,y,z
-x,-y,z
1/2-x,y,z
1/2+x,-y,z
loop_
_atom_site_type_symbol
_atom_site_label
_atom_site_fract_x
_atom_site_fract_y
_atom_site_fract_z
Si Si1 0.925306 0.838688 0.001200
Si Si2 0.865627 0.327609 0.626916
Si Si3 0.362866 0.305927 0.492774
Si Si4 0.368359 0.533255 0.136154
Si Si5 0.861037 0.096189 0.957978
O O1 0.867764 0.796356 0.266081
O O2 0.035263 0.872487 0.099636
O O3 0.874646 0.958038 0.884166
O O4 0.919372 0.738927 0.761997
O O5 0.750000 0.354432 0.626416
O O6 0.895693 0.354838 0.323816
O O7 0.905340 0.425028 0.842592
O O8 0.869962 0.191214 0.714561
O O9 0.250000 0.328378 0.579084
O O10 0.398157 0.419624 0.315485
O O11 0.250000 0.520072 0.113013
O O12 0.750000 0.113782 0.075025
#
# Coordination Sequence:
#
# PCOD9339898 Si02
#       5
#     4   4   4   4   4
#     4  11  25  42  65  98 125 163 219 257 312 387
#     4   9  18  34  58  87 120 163 207 249 308 370
#     4  11  22  41  66  94 132 169 208 263 314 364
#     4   9  18  34  59  89 122 163 206 250 306 368
#     4  10  23  44  67  92 129 168 208 265 318 371
#
# _framework density 26.610216999999999
#
# number of rings (size 3 to 8) (size 9 to 14) (size 15 to 20)
#    0.000    2.000    0.000    3.000    0.000    9.600 
#    0.000   15.000    0.000    0.000    0.000    0.000 
#    0.000    0.000    0.000    0.000    0.000    0.000 
#
# Total GULP energy -111730.894192 kJ/mol
# GULP energy per Si atom -5586.544710 kJ/mol
# Density = 2.654965 g / cm^3
# Si number density = 26.610217 Si / 1000 Ang^3
#
#
#
# Elastic Constant Matrix: (Units=GPa)
#
#
# Indices 1 2 3 4 5 6 
#
# 1 158.7208 49.3659 16.5736 0.0000 0.0000 0.0000
# 2 49.3659 121.1220 22.4793 0.0000 0.0000 0.0000
# 3 16.5736 22.4793 100.1897 0.0000 0.0000 0.0000
# 4 0.0000 0.0000 0.0000 15.4052 0.0000 0.0000
# 5 0.0000 0.0000 0.0000 0.0000 5.0080 0.0000
# 6 0.0000 0.0000 0.0000 0.0000 0.0000 36.3397
#
#
#
# Elastic Compliance Matrix: (Units=1/GPa)
#
#
# Indices 1 2 3 4 5 6 
#
# 1 0.007245 -0.002849 -0.000559 0.000000 0.000000 0.000000
# 2 -0.002849 0.009735 -0.001713 0.000000 0.000000 0.000000
# 3 -0.000559 -0.001713 0.010458 0.000000 0.000000 0.000000
# 4 0.000000 0.000000 0.000000 0.064913 0.000000 0.000000
# 5 0.000000 0.000000 0.000000 0.000000 0.199680 0.000000
# 6 0.000000 0.000000 0.000000 0.000000 0.000000 0.027518
#
#
# Mechanical properties :
#
#
# Convention : Reuss Voigt Hill
#
# Bulk Modulus (GPa) = 58.15454 61.87445 60.01449
# Shear Modulus (GPa) = 14.90206 30.79149 22.84677
#
# Velocity S-wave (km/s) = 2.36903 3.40535 2.93332
# Velocity P-wave (km/s) = 5.42077 6.22612 5.83735
#
# Compressibility (1/GPa) = 0.01719556
#
# Stress axis : x y z
#
# Youngs Moduli (GPa) = 138.02862 102.71972 95.62137
#
# Poissons Ratio (x) = 0.29265 0.05348
# Poissons Ratio (y) = 0.39325 0.16380
# Poissons Ratio (z) = 0.07719 0.17596
#
# Static dielectric constant tensor:
#      x y z
#    x 2.211800 0.000000 0.000000 
#    y 0.000000 2.093030 0.000000 
#    z 0.000000 0.000000 2.053130 
# 
# From -- ./inp_files/701.got.cif
#   From: 2010.05.17/outbox.cif.g08.bks.cpg/sg28_1_cif.got.tgz:701.got - 2010.06.04 01:15:21.
