data_PCOD9339178
_publ_section_title
;
Structure prediction by ZEFSAII (Michael W. Deem and Ramdas Pophale) SiO2 
 PCOD9339178
Probable space group: P C C 2
;
_chemical_formula_sum "Si O2"
_cell_formula_units_Z 32
_cell_length_a 12.459939
_cell_length_b 13.346736
_cell_length_c 10.021866
_cell_angle_alpha 90.000000
_cell_angle_beta 90.000000
_cell_angle_gamma 90.000000
_cell_volume 1666.631469
_symmetry_space_group_name_H-M "P C C 2"
_symmetry_group_IT_number 27
_symmetry_cell_setting 'orthorhombic'
loop_
_space_group_symop_operation_xyz
x,y,z
-x,-y,z
-x,y,1/2+z
x,-y,1/2+z
loop_
_atom_site_type_symbol
_atom_site_label
_atom_site_fract_x
_atom_site_fract_y
_atom_site_fract_z
Si Si1 0.356528 0.294399 0.728900
Si Si2 0.407361 0.270158 0.199566
Si Si3 0.893623 0.934094 0.628666
Si Si4 0.143473 0.794398 0.364947
Si Si5 0.393623 0.434094 0.965181
Si Si6 0.215185 0.870103 0.648908
Si Si7 0.907361 0.770158 0.394281
Si Si8 0.715185 0.629897 0.444940
O O1 0.470308 0.237481 0.726239
O O2 0.250000 0.250001 0.796924
O O3 0.387101 0.391472 0.816016
O O4 0.327030 0.317252 0.577873
O O5 0.331428 0.174417 0.180587
O O6 0.360659 0.335488 0.322619
O O7 0.397249 0.342770 0.069976
O O8 0.887100 0.891471 0.777831
O O9 0.897250 0.842770 0.523871
O O10 0.795452 0.012089 0.619255
O O11 0.000000 0.000000 0.607552
O O12 0.172972 0.817252 0.515974
O O13 0.029692 0.737481 0.367609
O O14 0.500000 0.500000 0.986296
O O15 0.295452 0.512090 0.974593
O O16 0.139340 0.835488 0.771228
O O17 0.831428 0.674417 0.413261
#
# Coordination Sequence:
#
# PCOD9339178 Si02
#       8
#     4   4   4   4   4   4   4   4
#     4  12  23  41  65  95 130 171 214 269 331 389
#     4  11  23  42  63  96 135 165 213 279 324 385
#     4  12  22  40  69  98 123 169 224 266 312 395
#     4  12  23  41  65  95 130 171 214 269 331 389
#     4  12  22  40  69  98 123 169 224 266 312 395
#     4  11  24  38  64  96 130 165 216 271 327 377
#     4  11  23  42  63  96 135 165 213 279 324 385
#     4  11  24  38  64  96 130 165 216 271 327 377
#
# _framework density 19.200406000000001
#
# number of rings (size 3 to 8) (size 9 to 14) (size 15 to 20)
#    0.000    0.500    7.500    1.500    0.000    0.000 
#    0.000    1.250    0.000    3.000    0.000    0.000 
#    0.000    0.000    0.000    0.000    0.000    0.000 
#
# Total GULP energy -178623.038790 kJ/mol
# GULP energy per Si atom -5581.969962 kJ/mol
# Density = 1.915670 g / cm^3
# Si number density = 19.200406 Si / 1000 Ang^3
#
#
#
# Elastic Constant Matrix: (Units=GPa)
#
#
# Indices 1 2 3 4 5 6 
#
# 1 154.7402 39.9224 20.4339 0.0000 0.0000 0.0000
# 2 39.9224 47.0763 -8.0560 0.0000 0.0000 0.0000
# 3 20.4339 -8.0560 84.1032 0.0000 0.0000 0.0000
# 4 0.0000 0.0000 0.0000 30.7986 0.0000 0.0000
# 5 0.0000 0.0000 0.0000 0.0000 25.9680 0.0000
# 6 0.0000 0.0000 0.0000 0.0000 0.0000 17.4542
#
#
#
# Elastic Compliance Matrix: (Units=1/GPa)
#
#
# Indices 1 2 3 4 5 6 
#
# 1 0.008937 -0.008083 -0.002946 0.000000 0.000000 0.000000
# 2 -0.008083 0.028906 0.004733 0.000000 0.000000 0.000000
# 3 -0.002946 0.004733 0.013059 0.000000 0.000000 0.000000
# 4 0.000000 0.000000 0.000000 0.032469 0.000000 0.000000
# 5 0.000000 0.000000 0.000000 0.000000 0.038509 0.000000
# 6 0.000000 0.000000 0.000000 0.000000 0.000000 0.057293
#
#
# Mechanical properties :
#
#
# Convention : Reuss Voigt Hill
#
# Bulk Modulus (GPa) = 26.10208 43.39115 34.74662
# Shear Modulus (GPa) = 24.44575 30.41877 27.43226
#
# Velocity S-wave (km/s) = 3.57205 3.98462 3.78396
# Velocity P-wave (km/s) = 5.53505 6.61949 6.10141
#
# Compressibility (1/GPa) = 0.03831112
#
# Stress axis : x y z
#
# Youngs Moduli (GPa) = 111.89785 34.59439 76.57479
#
# Poissons Ratio (x) = 0.27962 0.22555
# Poissons Ratio (y) = 0.90444 -0.36240
# Poissons Ratio (z) = 0.32960 -0.16372
#
# Static dielectric constant tensor:
#      x y z
#    x 1.717600 0.000000 0.000000 
#    y 0.000000 1.677190 0.000000 
#    z 0.000000 0.000000 1.667020 
# 
# From -- ./inp_files/1490.got.cif
#   From: 2010.05.17/outbox.cif.g08.bks.cpg/sg27_1_cif.got.tgz:1490.got - 2010.06.04 01:11:05.
