data_PCOD9339508
_publ_section_title
;
Structure prediction by ZEFSAII (Michael W. Deem and Ramdas Pophale) SiO2 
 PCOD9339508
Probable space group: P M A 2
;
_chemical_formula_sum "Si O2"
_cell_formula_units_Z 32
_cell_length_a 8.727263
_cell_length_b 14.612012
_cell_length_c 15.935356
_cell_angle_alpha 90.000000
_cell_angle_beta 90.000000
_cell_angle_gamma 90.000000
_cell_volume 2032.122358
_symmetry_space_group_name_H-M "P M A 2"
_symmetry_group_IT_number 28
_symmetry_cell_setting 'orthorhombic'
loop_
_space_group_symop_operation_xyz
x,y,z
-x,-y,z
1/2-x,y,z
1/2+x,-y,z
loop_
_atom_site_type_symbol
_atom_site_label
_atom_site_fract_x
_atom_site_fract_y
_atom_site_fract_z
Si Si1 0.566085 0.902757 0.377340
Si Si2 0.566589 0.397286 0.789933
Si Si3 0.566486 0.397035 0.603057
Si Si4 0.066378 0.601587 0.285918
Si Si5 0.065987 0.098393 0.180925
Si Si6 0.067138 0.396892 0.962714
Si Si7 0.934276 0.708829 0.445552
Si Si8 0.566518 0.284474 0.117625
O O1 0.750000 0.907815 0.379671
O O2 0.521754 0.888902 0.279421
O O3 0.517388 0.813991 0.429625
O O4 0.500000 0.000000 0.405447
O O5 0.500000 0.500000 0.787187
O O6 0.750000 0.400034 0.800043
O O7 0.531193 0.360001 0.697027
O O8 0.491851 0.356870 0.873643
O O9 0.500000 0.500000 0.595135
O O10 0.750000 0.402712 0.595113
O O11 0.498437 0.334133 0.530601
O O12 0.250000 0.597747 0.294494
O O13 0.028844 0.659612 0.202679
O O14 0.000000 0.500000 0.277918
O O15 0.995630 0.650227 0.367161
O O16 0.250000 0.098472 0.175733
O O17 0.997105 0.182466 0.129600
O O18 0.000000 0.000000 0.154860
O O19 0.250000 0.402603 0.962394
O O20 0.000000 0.500000 0.971322
O O21 0.007730 0.336159 0.039248
O O22 0.750000 0.704955 0.445925
O O23 0.750000 0.283232 0.108543
#
# Coordination Sequence:
#
# PCOD9339508 Si02
#       8
#     4   4   4   4   4   4   4   4
#     4   9  19  33  51  72  95 126 162 206 251 292
#     4   9  17  31  50  71  97 127 164 206 249 293
#     4  10  20  33  50  73 100 133 168 206 247 292
#     4  11  23  35  48  66  95 134 171 204 240 286
#     4  10  19  34  53  74  99 128 166 210 255 298
#     4  11  21  33  51  74 102 134 168 207 250 298
#     4  11  21  34  50  71  99 131 166 204 246 294
#     4  11  22  35  51  73  99 133 171 207 250 297
#
# _framework density 15.747082000000001
#
# number of rings (size 3 to 8) (size 9 to 14) (size 15 to 20)
#    0.000    1.750    1.250    4.875    0.000    5.500 
#    0.000    0.000    0.000    0.000    0.000    0.875 
#    0.000    4.000    0.000    0.000    0.000    0.000 
#
# Total GULP energy -178608.392090 kJ/mol
# GULP energy per Si atom -5581.512253 kJ/mol
# Density = 1.571124 g / cm^3
# Si number density = 15.747082 Si / 1000 Ang^3
#
#
#
# Elastic Constant Matrix: (Units=GPa)
#
#
# Indices 1 2 3 4 5 6 
#
# 1 76.5787 46.5766 63.1662 0.0000 0.0000 0.0000
# 2 46.5766 121.8044 72.1935 0.0000 0.0000 0.0000
# 3 63.1662 72.1935 143.0793 0.0000 0.0000 0.0000
# 4 0.0000 0.0000 0.0000 4.7805 0.0000 0.0000
# 5 0.0000 0.0000 0.0000 0.0000 22.3358 0.0000
# 6 0.0000 0.0000 0.0000 0.0000 0.0000 25.8628
#
#
#
# Elastic Compliance Matrix: (Units=1/GPa)
#
#
# Indices 1 2 3 4 5 6 
#
# 1 0.021664 -0.003731 -0.007681 0.000000 0.000000 0.000000
# 2 -0.003731 0.012355 -0.004587 0.000000 0.000000 0.000000
# 3 -0.007681 -0.004587 0.012695 0.000000 0.000000 0.000000
# 4 0.000000 0.000000 0.000000 0.209184 0.000000 0.000000
# 5 0.000000 0.000000 0.000000 0.000000 0.044771 0.000000
# 6 0.000000 0.000000 0.000000 0.000000 0.000000 0.038666
#
#
# Mechanical properties :
#
#
# Convention : Reuss Voigt Hill
#
# Bulk Modulus (GPa) = 67.95861 78.37056 73.16459
# Shear Modulus (GPa) = 13.28945 21.23090 17.26017
#
# Velocity S-wave (km/s) = 2.90820 3.67583 3.31431
# Velocity P-wave (km/s) = 7.38423 8.23966 7.82364
#
# Compressibility (1/GPa) = 0.01471484
#
# Stress axis : x y z
#
# Youngs Moduli (GPa) = 46.15965 80.93704 78.77297
#
# Poissons Ratio (x) = 0.30199 0.60509
# Poissons Ratio (y) = 0.17223 0.36132
# Poissons Ratio (z) = 0.35457 0.37125
#
# Static dielectric constant tensor:
#      x y z
#    x 1.525400 0.000000 0.000000 
#    y 0.000000 1.496690 0.000000 
#    z 0.000000 0.000000 1.533840 
# 
# From -- ./inp_files/6296.got.cif
#   From: 2010.05.17/outbox.cif.g08.bks.cpg/sg28_4_cif.got.tgz:6296.got - 2010.06.04 01:15:21.
