data_PCOD9339043
_publ_section_title
;
Structure prediction by ZEFSAII (Michael W. Deem and Ramdas Pophale) SiO2 
 PCOD9339043
Probable space group: P C C 2
;
_chemical_formula_sum "Si O2"
_cell_formula_units_Z 32
_cell_length_a 18.620946
_cell_length_b 5.389508
_cell_length_c 14.267598
_cell_angle_alpha 90.000000
_cell_angle_beta 90.000000
_cell_angle_gamma 90.000000
_cell_volume 1431.863854
_symmetry_space_group_name_H-M "P C C 2"
_symmetry_group_IT_number 27
_symmetry_cell_setting 'orthorhombic'
loop_
_space_group_symop_operation_xyz
x,y,z
-x,-y,z
-x,y,1/2+z
x,-y,1/2+z
loop_
_atom_site_type_symbol
_atom_site_label
_atom_site_fract_x
_atom_site_fract_y
_atom_site_fract_z
Si Si1 0.037513 0.249974 0.311540
Si Si2 0.425268 0.075576 0.135554
Si Si3 0.202621 0.959158 0.571630
Si Si4 0.425531 0.572436 0.013798
Si Si5 0.957258 0.248173 0.586457
Si Si6 0.287566 0.998768 0.758260
Si Si7 0.291797 0.325240 0.928343
Si Si8 0.810278 0.299000 0.899109
O O1 0.037401 0.253576 0.199237
O O2 0.116714 0.247917 0.349356
O O3 0.000000 0.500000 0.344396
O O4 0.000000 0.000000 0.342867
O O5 0.421142 0.849651 0.057763
O O6 0.358234 0.079230 0.203806
O O7 0.500000 0.000000 0.184933
O O8 0.428793 0.349807 0.090749
O O9 0.128675 0.797050 0.570193
O O10 0.272161 0.834102 0.520829
O O11 0.227905 0.039189 0.675930
O O12 0.188880 0.190691 0.503388
O O13 0.500000 0.500000 0.960047
O O14 0.352186 0.520357 0.958215
O O15 0.000000 0.500000 0.555137
O O16 0.000000 0.000000 0.555158
O O17 0.313453 0.210934 0.829530
O O18 0.251011 0.815026 0.832583
O O19 0.211445 0.418027 0.905244
#
# Coordination Sequence:
#
# PCOD9339043 Si02
#       8
#     4   4   4   4   4   4   4   4
#     4  10  23  44  70  97 136 175 224 290 352 417
#     4  10  22  44  73 103 141 188 230 284 353 417
#     4  11  24  45  69  97 141 184 237 296 353 432
#     4  10  22  45  72 104 144 185 230 286 350 419
#     4  10  23  43  69 100 131 178 232 285 355 420
#     4  11  24  44  70 101 141 185 239 295 348 428
#     4  11  26  42  69 105 138 190 238 292 358 422
#     4  11  26  43  67 102 135 186 237 289 360 418
#
# _framework density 22.348492
#
# number of rings (size 3 to 8) (size 9 to 14) (size 15 to 20)
#    0.000    1.500    2.500    0.750    8.750    2.500 
#    2.250    0.000    0.000    0.000    0.000    0.000 
#    0.000    0.000    0.000    0.000    0.000    0.000 
#
# Total GULP energy -178403.692236 kJ/mol
# GULP energy per Si atom -5575.115382 kJ/mol
# Density = 2.229763 g / cm^3
# Si number density = 22.348492 Si / 1000 Ang^3
#
#
#
# Elastic Constant Matrix: (Units=GPa)
#
#
# Indices 1 2 3 4 5 6 
#
# 1 131.8124 22.1660 19.6250 0.0000 0.0000 0.0000
# 2 22.1660 77.7154 18.2197 0.0000 0.0000 0.0000
# 3 19.6250 18.2197 110.4219 0.0000 0.0000 0.0000
# 4 0.0000 0.0000 0.0000 -2.8182 0.0000 0.0000
# 5 0.0000 0.0000 0.0000 0.0000 -34.5171 0.0000
# 6 0.0000 0.0000 0.0000 0.0000 0.0000 32.4907
#
#
#
# Elastic Compliance Matrix: (Units=1/GPa)
#
#
# Indices 1 2 3 4 5 6 
#
# 1 0.008095 -0.002051 -0.001100 0.000000 0.000000 0.000000
# 2 -0.002051 0.013905 -0.001930 0.000000 0.000000 0.000000
# 3 -0.001100 -0.001930 0.009570 0.000000 0.000000 0.000000
# 4 0.000000 0.000000 0.000000 -0.354833 0.000000 0.000000
# 5 0.000000 0.000000 0.000000 0.000000 -0.028971 0.000000
# 6 0.000000 0.000000 0.000000 0.000000 0.000000 0.030778
#
#
# Mechanical properties :
#
#
# Convention : Reuss Voigt Hill
#
# Bulk Modulus (GPa) = 46.71136 48.88567 47.79852
# Shear Modulus (GPa) = -16.43886 16.36033 -0.03926
#
# Velocity S-wave (km/s) = -2.71508 2.70859 -0.13269
# Velocity P-wave (km/s) = 3.33434 5.63060 4.62718
#
# Compressibility (1/GPa) = 0.02140807
#
# Stress axis : x y z
#
# Youngs Moduli (GPa) = 123.52907 71.91725 104.49150
#
# Poissons Ratio (x) = 0.14750 0.11498
# Poissons Ratio (y) = 0.25335 0.20165
# Poissons Ratio (z) = 0.13592 0.13879
#
# Static dielectric constant tensor:
#      x y z
#    x 1.954800 0.000000 0.000000 
#    y 0.000000 1.931280 0.000000 
#    z 0.000000 0.000000 1.796060 
# 
# From -- ./inp_files/3767.got.cif
#   From: 2010.05.17/outbox.cif.g08.bks.cpg/sg27_2_cif.got.tgz:3767.got - 2010.06.04 01:11:05.
