data_PCOD9339261
_publ_section_title
;
Structure prediction by ZEFSAII (Michael W. Deem and Ramdas Pophale) SiO2 
 PCOD9339261
Probable space group: P M A 2
;
_chemical_formula_sum "Si O2"
_cell_formula_units_Z 32
_cell_length_a 8.615881
_cell_length_b 13.101664
_cell_length_c 14.335094
_cell_angle_alpha 90.000000
_cell_angle_beta 90.000000
_cell_angle_gamma 90.000000
_cell_volume 1618.179499
_symmetry_space_group_name_H-M "P M A 2"
_symmetry_group_IT_number 28
_symmetry_cell_setting 'orthorhombic'
loop_
_space_group_symop_operation_xyz
x,y,z
-x,-y,z
1/2-x,y,z
1/2+x,-y,z
loop_
_atom_site_type_symbol
_atom_site_label
_atom_site_fract_x
_atom_site_fract_y
_atom_site_fract_z
Si Si1 0.569245 0.668430 0.392670
Si Si2 0.065413 0.111945 0.856499
Si Si3 0.936447 0.212822 0.026491
Si Si4 0.563924 0.176297 0.659240
Si Si5 0.928140 0.318546 0.203180
Si Si6 0.066778 0.605623 0.586082
Si Si7 0.566730 0.896558 0.465864
Si Si8 0.567856 0.892191 0.188708
O O1 0.750000 0.647516 0.406717
O O2 0.522463 0.633476 0.288443
O O3 0.476567 0.617660 0.477041
O O4 0.545878 0.790542 0.410090
O O5 0.250000 0.113721 0.867367
O O6 0.986568 0.199979 0.920356
O O7 0.018595 0.131756 0.749521
O O8 0.000000 0.000000 0.882377
O O9 0.750000 0.196326 0.035467
O O10 0.971436 0.313122 0.092200
O O11 0.039441 0.126152 0.078243
O O12 0.750000 0.172548 0.671594
O O13 0.511632 0.293052 0.639506
O O14 0.518273 0.118245 0.564679
O O15 0.750000 0.348326 0.211206
O O16 0.957183 0.198275 0.224056
O O17 0.250000 0.603660 0.593742
O O18 0.000000 0.500000 0.622377
O O19 0.750000 0.908905 0.480092
O O20 0.500000 0.000000 0.421779
O O21 0.750000 0.878933 0.212323
O O22 0.500000 0.000000 0.214576
#
# Coordination Sequence:
#
# PCOD9339261 Si02
#       8
#     4   4   4   4   4   4   4   4
#     4  10  20  34  53  77 107 140 178 220 263 319
#     4  12  23  34  51  74 105 146 189 231 269 316
#     4   9  19  33  47  67  97 136 179 225 266 307
#     4  10  21  37  55  76 104 136 171 216 267 321
#     4   9  19  32  47  67  96 133 171 215 261 305
#     4  10  21  38  62  87 111 137 169 216 274 332
#     4  10  20  33  48  69  98 136 176 214 256 307
#     4  10  17  27  41  59  87 126 171 215 257 297
#
# _framework density 19.775310000000001
#
# number of rings (size 3 to 8) (size 9 to 14) (size 15 to 20)
#    0.750    1.250    0.000    4.875    0.000    3.500 
#    0.000    1.250    0.000    0.000    0.000    0.875 
#    0.000    4.000    0.000    0.000    0.000    0.000 
#
# Total GULP energy -178212.203099 kJ/mol
# GULP energy per Si atom -5569.131347 kJ/mol
# Density = 1.973030 g / cm^3
# Si number density = 19.775310 Si / 1000 Ang^3
#
#
#
# Elastic Constant Matrix: (Units=GPa)
#
#
# Indices 1 2 3 4 5 6 
#
# 1 66.9594 7.8865 15.1270 0.0000 0.0000 0.0000
# 2 7.8865 45.9069 -17.6252 0.0000 0.0000 0.0000
# 3 15.1270 -17.6252 79.2888 0.0000 0.0000 0.0000
# 4 0.0000 0.0000 0.0000 -5.0446 0.0000 0.0000
# 5 0.0000 0.0000 0.0000 0.0000 11.1992 0.0000
# 6 0.0000 0.0000 0.0000 0.0000 0.0000 17.7718
#
#
#
# Elastic Compliance Matrix: (Units=1/GPa)
#
#
# Indices 1 2 3 4 5 6 
#
# 1 0.016377 -0.004388 -0.004100 0.000000 0.000000 0.000000
# 2 -0.004388 0.024991 0.006392 0.000000 0.000000 0.000000
# 3 -0.004100 0.006392 0.014815 0.000000 0.000000 0.000000
# 4 0.000000 0.000000 0.000000 -0.198233 0.000000 0.000000
# 5 0.000000 0.000000 0.000000 0.000000 0.089292 0.000000
# 6 0.000000 0.000000 0.000000 0.000000 0.000000 0.056269
#
#
# Mechanical properties :
#
#
# Convention : Reuss Voigt Hill
#
# Bulk Modulus (GPa) = 19.23303 22.54795 20.89049
# Shear Modulus (GPa) = 199.73284 17.23640 108.48462
#
# Velocity S-wave (km/s) = 10.06083 2.95551 7.41470
# Velocity P-wave (km/s) = 12.02944 4.80349 9.15917
#
# Compressibility (1/GPa) = 0.05199388
#
# Stress axis : x y z
#
# Youngs Moduli (GPa) = 61.05973 40.01400 67.49783
#
# Poissons Ratio (x) = 0.17557 0.27673
# Poissons Ratio (y) = 0.26791 -0.43147
# Poissons Ratio (z) = 0.25034 -0.25579
#
# Static dielectric constant tensor:
#      x y z
#    x 1.658920 0.000000 0.000000 
#    y 0.000000 1.712180 0.000000 
#    z 0.000000 0.000000 1.763350 
# 
# From -- ./inp_files/6417.got.cif
#   From: 2010.05.17/outbox.cif.g08.bks.cpg/sg28_4_cif.got.tgz:6417.got - 2010.06.04 01:15:21.
