data_PCOD9339947
_publ_section_title
;
Structure prediction by ZEFSAII (Michael W. Deem and Ramdas Pophale) SiO2 
 PCOD9339947
Probable space group: P M A 2
;
_chemical_formula_sum "Si O2"
_cell_formula_units_Z 12
_cell_length_a 11.550333
_cell_length_b 7.349257
_cell_length_c 6.849164
_cell_angle_alpha 90.000000
_cell_angle_beta 90.000000
_cell_angle_gamma 90.000000
_cell_volume 581.400640
_symmetry_space_group_name_H-M "P M A 2"
_symmetry_group_IT_number 28
_symmetry_cell_setting 'orthorhombic'
loop_
_space_group_symop_operation_xyz
x,y,z
-x,-y,z
1/2-x,y,z
1/2+x,-y,z
loop_
_atom_site_type_symbol
_atom_site_label
_atom_site_fract_x
_atom_site_fract_y
_atom_site_fract_z
Si Si1 0.750000 0.298393 0.450881
Si Si2 0.250000 0.405901 0.727577
Si Si3 0.750000 0.024447 0.822393
Si Si4 0.430109 0.837271 0.143036
Si Si5 0.000000 0.500000 0.914998
O O1 0.750000 0.508977 0.511968
O O2 0.643757 0.253458 0.311686
O O3 0.750000 0.161965 0.637601
O O4 0.250000 0.187592 0.756453
O O5 0.373200 0.488227 0.809241
O O6 0.643187 0.072453 0.965865
O O7 0.500000 0.000000 0.237003
O O8 0.502847 0.679770 0.044517
#
# Coordination Sequence:
#
# PCOD9339947 Si02
#       5
#     2   2   2   4   2
#     4  11  26  43  67 113 144 177 252 311 357 434
#     4  12  25  44  77 103 146 194 241 304 364 431
#     4  11  23  47  70 100 142 199 243 293 369 443
#     4  11  24  44  72 103 144 191 245 302 368 436
#     4  12  24  46  76 102 144 194 246 298 368 436
#
# _framework density 20.639811999999999
#
# number of rings (size 3 to 8) (size 9 to 14) (size 15 to 20)
#    0.000    0.667    6.667    1.000    0.000    8.000 
#    0.000    0.000    0.000    0.000    0.000    0.000 
#    0.000    0.000    0.000    0.000    0.000    0.000 
#
# Total GULP energy -66898.839656 kJ/mol
# GULP energy per Si atom -5574.903305 kJ/mol
# Density = 2.059283 g / cm^3
# Si number density = 20.639812 Si / 1000 Ang^3
#
#
#
# Elastic Constant Matrix: (Units=GPa)
#
#
# Indices 1 2 3 4 5 6 
#
# 1 89.9058 17.5831 21.7943 0.0000 0.0000 0.0000
# 2 17.5831 141.3704 31.2506 0.0000 0.0000 0.0000
# 3 21.7943 31.2506 90.5615 0.0000 0.0000 0.0000
# 4 0.0000 0.0000 0.0000 38.8236 0.0000 0.0000
# 5 0.0000 0.0000 0.0000 0.0000 16.4410 0.0000
# 6 0.0000 0.0000 0.0000 0.0000 0.0000 46.7908
#
#
#
# Elastic Compliance Matrix: (Units=1/GPa)
#
#
# Indices 1 2 3 4 5 6 
#
# 1 0.011921 -0.000919 -0.002552 0.000000 0.000000 0.000000
# 2 -0.000919 0.007729 -0.002446 0.000000 0.000000 0.000000
# 3 -0.002552 -0.002446 0.012500 0.000000 0.000000 0.000000
# 4 0.000000 0.000000 0.000000 0.025758 0.000000 0.000000
# 5 0.000000 0.000000 0.000000 0.000000 0.060824 0.000000
# 6 0.000000 0.000000 0.000000 0.000000 0.000000 0.021372
#
#
# Mechanical properties :
#
#
# Convention : Reuss Voigt Hill
#
# Bulk Modulus (GPa) = 49.21935 51.45487 50.33711
# Shear Modulus (GPa) = 31.50442 37.15839 34.33141
#
# Velocity S-wave (km/s) = 3.91114 4.24763 4.08285
# Velocity P-wave (km/s) = 6.65542 7.00289 6.83137
#
# Compressibility (1/GPa) = 0.02031721
#
# Stress axis : x y z
#
# Youngs Moduli (GPa) = 83.88541 129.39055 79.99769
#
# Poissons Ratio (x) = 0.11886 0.20415
# Poissons Ratio (y) = 0.07706 0.19566
# Poissons Ratio (z) = 0.21407 0.31647
#
# Static dielectric constant tensor:
#      x y z
#    x 1.844190 0.000000 0.000000 
#    y 0.000000 1.758360 0.000000 
#    z 0.000000 0.000000 1.702250 
# 
# From -- ./inp_files/285.got.cif
#   From: 2010.05.17/outbox.cif.g08.bks.cpg/sg28_1_cif.got.tgz:285.got - 2010.06.04 01:15:21.
