data_PCOD9339851
_publ_section_title
;
Structure prediction by ZEFSAII (Michael W. Deem and Ramdas Pophale) SiO2 
 PCOD9339851
Probable space group: P M A 2
;
_chemical_formula_sum "Si O2"
_cell_formula_units_Z 28
_cell_length_a 18.995936
_cell_length_b 11.154303
_cell_length_c 5.148224
_cell_angle_alpha 90.000000
_cell_angle_beta 90.000000
_cell_angle_gamma 90.000000
_cell_volume 1090.838783
_symmetry_space_group_name_H-M "P M A 2"
_symmetry_group_IT_number 28
_symmetry_cell_setting 'orthorhombic'
loop_
_space_group_symop_operation_xyz
x,y,z
-x,-y,z
1/2-x,y,z
1/2+x,-y,z
loop_
_atom_site_type_symbol
_atom_site_label
_atom_site_fract_x
_atom_site_fract_y
_atom_site_fract_z
Si Si1 0.830042 0.393836 0.972950
Si Si2 0.329409 0.351127 0.669484
Si Si3 0.457789 0.261043 0.896082
Si Si4 0.166053 0.998925 0.229000
Si Si5 0.568656 0.535775 0.275084
Si Si6 0.334656 0.854136 0.729672
Si Si7 0.033634 0.127072 0.392151
O O1 0.750000 0.372558 0.069295
O O2 0.827622 0.518134 0.810506
O O3 0.884596 0.422840 0.198266
O O4 0.855246 0.279830 0.810787
O O5 0.250000 0.314923 0.613147
O O6 0.372673 0.258738 0.846877
O O7 0.377786 0.376726 0.421004
O O8 0.485591 0.219783 0.618010
O O9 0.462808 0.391263 0.028548
O O10 0.488733 0.173780 0.111425
O O11 0.250000 0.025321 0.228801
O O12 0.142327 0.952385 0.944808
O O13 0.116994 0.102536 0.346331
O O14 0.152101 0.891137 0.434563
O O15 0.500000 0.500000 0.436707
O O16 0.250000 0.854676 0.754843
O O17 0.000000 0.000000 0.456387
#
# Coordination Sequence:
#
# PCOD9339851 Si02
#       7
#     4   4   4   4   4   4   4
#     4   9  20  37  63  95 133 180 225 279 346 412
#     4  10  22  43  71 104 144 186 242 293 347 426
#     4  11  25  49  67 100 135 180 232 284 356 414
#     4  10  22  40  62  93 128 168 222 281 341 401
#     4  11  24  42  67 101 144 181 231 285 348 431
#     4   9  19  37  61  94 130 163 213 271 334 405
#     4  12  26  46  71  97 134 177 234 290 348 424
#
# _framework density 25.668322
#
# number of rings (size 3 to 8) (size 9 to 14) (size 15 to 20)
#    0.000    1.714    1.429    1.714    2.000    6.286 
#    0.000    0.000    0.000    0.000    0.000    0.000 
#    0.000    0.000    0.000    0.000    0.000    0.000 
#
# Total GULP energy -156565.262343 kJ/mol
# GULP energy per Si atom -5591.616512 kJ/mol
# Density = 2.560990 g / cm^3
# Si number density = 25.668322 Si / 1000 Ang^3
#
#
#
# Elastic Constant Matrix: (Units=GPa)
#
#
# Indices 1 2 3 4 5 6 
#
# 1 122.6089 12.7160 21.2665 0.0000 0.0000 0.0000
# 2 12.7160 53.8262 2.3899 0.0000 0.0000 0.0000
# 3 21.2665 2.3899 107.4093 0.0000 0.0000 0.0000
# 4 0.0000 0.0000 0.0000 28.9386 0.0000 0.0000
# 5 0.0000 0.0000 0.0000 0.0000 21.5610 0.0000
# 6 0.0000 0.0000 0.0000 0.0000 0.0000 35.5242
#
#
#
# Elastic Compliance Matrix: (Units=1/GPa)
#
#
# Indices 1 2 3 4 5 6 
#
# 1 0.008650 -0.001969 -0.001669 0.000000 0.000000 0.000000
# 2 -0.001969 0.019045 -0.000034 0.000000 0.000000 0.000000
# 3 -0.001669 -0.000034 0.009641 0.000000 0.000000 0.000000
# 4 0.000000 0.000000 0.000000 0.034556 0.000000 0.000000
# 5 0.000000 0.000000 0.000000 0.000000 0.046380 0.000000
# 6 0.000000 0.000000 0.000000 0.000000 0.000000 0.028150
#
#
# Mechanical properties :
#
#
# Convention : Reuss Voigt Hill
#
# Bulk Modulus (GPa) = 33.34203 39.62104 36.48154
# Shear Modulus (GPa) = 30.53188 33.70288 32.11738
#
# Velocity S-wave (km/s) = 3.45262 3.62749 3.54113
# Velocity P-wave (km/s) = 5.37698 5.74579 5.56444
#
# Compressibility (1/GPa) = 0.02999217
#
# Stress axis : x y z
#
# Youngs Moduli (GPa) = 115.61084 52.50710 103.72001
#
# Poissons Ratio (x) = 0.10340 0.17309
# Poissons Ratio (y) = 0.22768 0.00351
# Poissons Ratio (z) = 0.19293 0.00178
#
# Static dielectric constant tensor:
#      x y z
#    x 2.054100 0.000000 0.000000 
#    y 0.000000 1.999460 0.000000 
#    z 0.000000 0.000000 2.037540 
# 
# From -- ./inp_files/1394.got.cif
#   From: 2010.05.17/outbox.cif.g08.bks.cpg/sg28_1_cif.got.tgz:1394.got - 2010.06.04 01:15:21.
