data_PCOD9339832
_publ_section_title
;
Structure prediction by ZEFSAII (Michael W. Deem and Ramdas Pophale) SiO2 
 PCOD9339832
Probable space group: P M A 2
;
_chemical_formula_sum "Si O2"
_cell_formula_units_Z 18
_cell_length_a 24.281176
_cell_length_b 6.055774
_cell_length_c 4.885080
_cell_angle_alpha 90.000000
_cell_angle_beta 90.000000
_cell_angle_gamma 90.000000
_cell_volume 718.308584
_symmetry_space_group_name_H-M "P M A 2"
_symmetry_group_IT_number 28
_symmetry_cell_setting 'orthorhombic'
loop_
_space_group_symop_operation_xyz
x,y,z
-x,-y,z
1/2-x,y,z
1/2+x,-y,z
loop_
_atom_site_type_symbol
_atom_site_label
_atom_site_fract_x
_atom_site_fract_y
_atom_site_fract_z
Si Si1 0.074400 0.626311 0.350510
Si Si2 0.811229 0.867011 0.976730
Si Si3 0.811054 0.171486 0.478008
Si Si4 0.926207 0.659453 0.850099
Si Si5 0.500000 0.000000 0.184541
O O1 0.138112 0.675403 0.408042
O O2 0.059764 0.421804 0.547024
O O3 0.039478 0.849112 0.373115
O O4 0.064949 0.553049 0.040658
O O5 0.750000 0.769662 0.937730
O O6 0.862102 0.720769 0.884790
O O7 0.814023 0.086146 0.787839
O O8 0.816607 0.953706 0.286226
O O9 0.750000 0.265053 0.425675
O O10 0.961087 0.853960 0.987041
#
# Coordination Sequence:
#
# PCOD9339832 Si02
#       5
#     4   4   4   4   2
#     4  12  28  48  76 109 140 196 249 294 372 435
#     4  10  21  43  74 106 145 187 229 296 372 430
#     4  10  21  43  74 106 145 187 229 296 372 430
#     4  12  28  48  76 109 140 196 249 294 372 435
#     4  12  30  54  70 104 160 194 242 336 340 440
#
# _framework density 25.058869999999999
#
# number of rings (size 3 to 8) (size 9 to 14) (size 15 to 20)
#    0.000    0.889    2.222    3.333    0.000    7.111 
#    0.000    0.000    0.000    0.000    0.000    0.000 
#    0.000    0.000    0.000    0.000    0.000    0.000 
#
# Total GULP energy -100914.400851 kJ/mol
# GULP energy per Si atom -5606.355603 kJ/mol
# Density = 2.500184 g / cm^3
# Si number density = 25.058870 Si / 1000 Ang^3
#
#
#
# Elastic Constant Matrix: (Units=GPa)
#
#
# Indices 1 2 3 4 5 6 
#
# 1 186.6756 61.1431 8.4484 0.0000 0.0000 0.0000
# 2 61.1431 69.5757 2.1671 0.0000 0.0000 0.0000
# 3 8.4484 2.1671 68.9052 0.0000 0.0000 0.0000
# 4 0.0000 0.0000 0.0000 35.7598 0.0000 0.0000
# 5 0.0000 0.0000 0.0000 0.0000 20.8879 0.0000
# 6 0.0000 0.0000 0.0000 0.0000 0.0000 54.9979
#
#
#
# Elastic Compliance Matrix: (Units=1/GPa)
#
#
# Indices 1 2 3 4 5 6 
#
# 1 0.007557 -0.006619 -0.000718 0.000000 0.000000 0.000000
# 2 -0.006619 0.020184 0.000177 0.000000 0.000000 0.000000
# 3 -0.000718 0.000177 0.014595 0.000000 0.000000 0.000000
# 4 0.000000 0.000000 0.000000 0.027964 0.000000 0.000000
# 5 0.000000 0.000000 0.000000 0.000000 0.047875 0.000000
# 6 0.000000 0.000000 0.000000 0.000000 0.000000 0.018183
#
#
# Mechanical properties :
#
#
# Convention : Reuss Voigt Hill
#
# Bulk Modulus (GPa) = 35.69477 52.07484 43.88480
# Shear Modulus (GPa) = 31.24648 39.22233 35.23440
#
# Velocity S-wave (km/s) = 3.53501 3.96056 3.75382
# Velocity P-wave (km/s) = 5.56211 6.46072 6.02818
#
# Compressibility (1/GPa) = 0.02801531
#
# Stress axis : x y z
#
# Youngs Moduli (GPa) = 132.32105 49.54384 68.51554
#
# Poissons Ratio (x) = 0.32793 0.04922
# Poissons Ratio (y) = 0.87584 -0.01211
# Poissons Ratio (z) = 0.09506 -0.00876
#
# Static dielectric constant tensor:
#      x y z
#    x 1.979880 0.000000 0.000000 
#    y 0.000000 1.964570 0.000000 
#    z 0.000000 0.000000 1.898700 
# 
# From -- ./inp_files/1650.got.cif
#   From: 2010.05.17/outbox.cif.g08.bks.cpg/sg28_1_cif.got.tgz:1650.got - 2010.06.04 01:15:21.
