data_PCOD9339431
_publ_section_title
;
Structure prediction by ZEFSAII (Michael W. Deem and Ramdas Pophale) SiO2 
 PCOD9339431
Probable space group: P M A 2
;
_chemical_formula_sum "Si O2"
_cell_formula_units_Z 32
_cell_length_a 7.806144
_cell_length_b 15.027875
_cell_length_c 12.980621
_cell_angle_alpha 90.000000
_cell_angle_beta 90.000000
_cell_angle_gamma 90.000000
_cell_volume 1522.753486
_symmetry_space_group_name_H-M "P M A 2"
_symmetry_group_IT_number 28
_symmetry_cell_setting 'orthorhombic'
loop_
_space_group_symop_operation_xyz
x,y,z
-x,-y,z
1/2-x,y,z
1/2+x,-y,z
loop_
_atom_site_type_symbol
_atom_site_label
_atom_site_fract_x
_atom_site_fract_y
_atom_site_fract_z
Si Si1 0.456119 0.906330 0.833410
Si Si2 0.952739 0.598273 0.744861
Si Si3 0.453136 0.403558 0.197222
Si Si4 0.550189 0.154373 0.039899
Si Si5 0.456981 0.895319 0.463220
Si Si6 0.044341 0.793261 0.259766
Si Si7 0.040903 0.349984 0.972711
Si Si8 0.454953 0.781053 0.657897
O O1 0.250000 0.898403 0.840634
O O2 0.522529 0.827496 0.761923
O O3 0.500000 0.000000 0.782865
O O4 0.529425 0.904016 0.949117
O O5 0.750000 0.604404 0.751912
O O6 0.019255 0.612552 0.862665
O O7 0.000000 0.500000 0.709418
O O8 0.010589 0.676868 0.669404
O O9 0.500000 0.500000 0.241851
O O10 0.250000 0.397989 0.194501
O O11 0.512378 0.313042 0.253501
O O12 0.515090 0.399724 0.077632
O O13 0.750000 0.130040 0.052496
O O14 0.474130 0.163387 0.153726
O O15 0.534950 0.252256 0.990116
O O16 0.250000 0.890261 0.462949
O O17 0.519513 0.846135 0.359314
O O18 0.519983 0.836601 0.560135
O O19 0.500000 0.000000 0.468379
O O20 0.250000 0.802676 0.257808
O O21 0.250000 0.345892 0.972360
O O22 0.250000 0.791826 0.657482
#
# Coordination Sequence:
#
# PCOD9339431 Si02
#       8
#     4   4   4   4   4   4   4   4
#     4  10  20  32  50  77 107 142 178 218 272 329
#     4  11  22  35  55  83 114 149 186 226 274 329
#     4  10  19  32  52  81 115 151 188 226 271 325
#     4   9  17  31  51  75 108 147 180 219 271 324
#     4  10  22  40  63  86 109 142 185 234 282 331
#     4   9  19  36  56  80 110 144 185 229 276 325
#     4   9  18  31  49  77 111 147 186 223 265 320
#     4  10  21  39  58  79 110 144 184 231 277 325
#
# _framework density 21.014562000000002
#
# number of rings (size 3 to 8) (size 9 to 14) (size 15 to 20)
#    0.000    2.250    1.250    1.500    0.000    3.500 
#    0.000    0.625    0.000    0.000    0.000    0.000 
#    0.000    0.000    0.000    0.000    0.000    0.000 
#
# Total GULP energy -178460.302731 kJ/mol
# GULP energy per Si atom -5576.884460 kJ/mol
# Density = 2.096673 g / cm^3
# Si number density = 21.014562 Si / 1000 Ang^3
#
#
#
# Elastic Constant Matrix: (Units=GPa)
#
#
# Indices 1 2 3 4 5 6 
#
# 1 28.6501 -7.7720 14.7062 0.0000 0.0000 0.0000
# 2 -7.7720 147.6417 84.5673 0.0000 0.0000 0.0000
# 3 14.7062 84.5673 142.2813 0.0000 0.0000 0.0000
# 4 0.0000 0.0000 0.0000 22.2305 0.0000 0.0000
# 5 0.0000 0.0000 0.0000 0.0000 7.0749 0.0000
# 6 0.0000 0.0000 0.0000 0.0000 0.0000 27.9592
#
#
#
# Elastic Compliance Matrix: (Units=1/GPa)
#
#
# Indices 1 2 3 4 5 6 
#
# 1 0.041102 0.006970 -0.008391 0.000000 0.000000 0.000000
# 2 0.006970 0.011451 -0.007527 0.000000 0.000000 0.000000
# 3 -0.008391 -0.007527 0.012369 0.000000 0.000000 0.000000
# 4 0.000000 0.000000 0.000000 0.044983 0.000000 0.000000
# 5 0.000000 0.000000 0.000000 0.000000 0.141345 0.000000
# 6 0.000000 0.000000 0.000000 0.000000 0.000000 0.035766
#
#
# Mechanical properties :
#
#
# Convention : Reuss Voigt Hill
#
# Bulk Modulus (GPa) = 21.26448 55.73067 38.49758
# Shear Modulus (GPa) = 15.59634 26.59103 21.09368
#
# Velocity S-wave (km/s) = 2.72723 3.56105 3.17166
# Velocity P-wave (km/s) = 4.47861 6.59437 5.63665
#
# Compressibility (1/GPa) = 0.04702678
#
# Stress axis : x y z
#
# Youngs Moduli (GPa) = 24.32985 87.32709 80.84607
#
# Poissons Ratio (x) = -0.60866 0.67837
# Poissons Ratio (y) = -0.16958 0.60850
# Poissons Ratio (z) = 0.20415 0.65728
#
# Static dielectric constant tensor:
#      x y z
#    x 1.746950 0.000000 0.000000 
#    y 0.000000 1.756480 0.000000 
#    z 0.000000 0.000000 1.794730 
# 
# From -- ./inp_files/4992.got.cif
#   From: 2010.05.17/outbox.cif.g08.bks.cpg/sg28_3_cif.got.tgz:4992.got - 2010.06.04 01:15:21.
