data_PCOD9339305
_publ_section_title
;
Structure prediction by ZEFSAII (Michael W. Deem and Ramdas Pophale) SiO2 
 PCOD9339305
Probable space group: P M A 2
;
_chemical_formula_sum "Si O2"
_cell_formula_units_Z 32
_cell_length_a 17.703009
_cell_length_b 8.953942
_cell_length_c 12.156548
_cell_angle_alpha 90.000000
_cell_angle_beta 90.000000
_cell_angle_gamma 90.000000
_cell_volume 1926.955282
_symmetry_space_group_name_H-M "P M A 2"
_symmetry_group_IT_number 28
_symmetry_cell_setting 'orthorhombic'
loop_
_space_group_symop_operation_xyz
x,y,z
-x,-y,z
1/2-x,y,z
1/2+x,-y,z
loop_
_atom_site_type_symbol
_atom_site_label
_atom_site_fract_x
_atom_site_fract_y
_atom_site_fract_z
Si Si1 0.524576 0.675369 0.759750
Si Si2 0.576237 0.600142 0.385163
Si Si3 0.335961 0.495653 0.759750
Si Si4 0.986247 0.175506 0.528880
Si Si5 0.838330 0.357163 0.997337
Si Si6 0.013752 0.824494 0.990620
Si Si7 0.076237 0.399858 0.134338
Si Si8 0.161670 0.642838 0.522163
O O1 0.500000 0.500000 0.759750
O O2 0.613928 0.651772 0.759749
O O3 0.499147 0.758976 0.650857
O O4 0.499148 0.758975 0.868644
O O5 0.500000 0.500000 0.383234
O O6 0.548139 0.744310 0.451365
O O7 0.598777 0.631267 0.259751
O O8 0.637619 0.500944 0.449487
O O9 0.250000 0.449711 0.759749
O O10 0.348455 0.592169 0.649424
O O11 0.348455 0.592166 0.870077
O O12 0.901165 0.230070 0.497461
O O13 0.000000 0.000000 0.526441
O O14 0.750000 0.317889 0.014196
O O15 0.862382 0.500944 0.070015
O O16 0.901165 0.230071 0.022039
O O17 0.000000 0.000000 0.993059
O O18 0.951861 0.744310 0.068137
O O19 0.000000 0.500000 0.136267
O O20 0.250000 0.682112 0.505304
#
# Coordination Sequence:
#
# PCOD9339305 Si02
#       8
#     4   4   4   4   4   4   4   4
#     4  12  17  34  55  76 106 142 187 223 254 317
#     4   9  18  34  55  76  99 135 184 224 257 309
#     4  10  18  30  54  80 101 130 173 227 271 301
#     4  11  21  33  52  82 113 147 177 216 273 335
#     4  10  19  34  55  78 104 138 182 229 270 313
#     4  11  21  33  52  82 113 147 177 216 273 335
#     4   9  18  34  55  76  99 135 184 224 257 309
#     4  10  19  34  55  78 104 138 182 229 270 313
#
# _framework density 16.606508999999999
#
# number of rings (size 3 to 8) (size 9 to 14) (size 15 to 20)
#    0.000    1.750    5.000    1.125    0.000    1.000 
#    0.000    2.500    0.000    0.000    0.000    0.000 
#    0.000    0.000    0.000    0.000    0.000    0.000 
#
# Total GULP energy -178278.638336 kJ/mol
# GULP energy per Si atom -5571.207448 kJ/mol
# Density = 1.656871 g / cm^3
# Si number density = 16.606509 Si / 1000 Ang^3
#
#
#
# Elastic Constant Matrix: (Units=GPa)
#
#
# Indices 1 2 3 4 5 6 
#
# 1 118.0452 52.0250 25.8191 0.0000 0.0000 0.0000
# 2 52.0250 141.1549 54.0154 0.0000 0.0000 0.0000
# 3 25.8191 54.0154 116.7368 0.0000 0.0000 0.0000
# 4 0.0000 0.0000 0.0000 56.7629 0.0000 0.0000
# 5 0.0000 0.0000 0.0000 0.0000 -5.9367 0.0000
# 6 0.0000 0.0000 0.0000 0.0000 0.0000 16.9064
#
#
#
# Elastic Compliance Matrix: (Units=1/GPa)
#
#
# Indices 1 2 3 4 5 6 
#
# 1 0.010152 -0.003503 -0.000625 0.000000 0.000000 0.000000
# 2 -0.003503 0.009817 -0.003768 0.000000 0.000000 0.000000
# 3 -0.000625 -0.003768 0.010448 0.000000 0.000000 0.000000
# 4 0.000000 0.000000 0.000000 0.017617 0.000000 0.000000
# 5 0.000000 0.000000 0.000000 0.000000 -0.168443 0.000000
# 6 0.000000 0.000000 0.000000 0.000000 0.000000 0.059149
#
#
# Mechanical properties :
#
#
# Convention : Reuss Voigt Hill
#
# Bulk Modulus (GPa) = 68.36835 71.07287 69.72061
# Shear Modulus (GPa) = -123.16804 29.81835 -46.67485
#
# Velocity S-wave (km/s) = -8.62146 4.24203 -5.30729
# Velocity P-wave (km/s) = 7.60573 8.17827 2.12569
#
# Compressibility (1/GPa) = 0.01462665
#
# Stress axis : x y z
#
# Youngs Moduli (GPa) = 98.50688 101.86251 95.71347
#
# Poissons Ratio (x) = 0.35677 0.05978
# Poissons Ratio (y) = 0.34502 0.36063
# Poissons Ratio (z) = 0.06153 0.38380
#
# Static dielectric constant tensor:
#      x y z
#    x 1.618170 0.000000 0.000000 
#    y 0.000000 1.527090 0.000000 
#    z 0.000000 0.000000 1.576290 
# 
# From -- ./inp_files/5756.got.cif
#   From: 2010.05.17/outbox.cif.g08.bks.cpg/sg28_3_cif.got.tgz:5756.got - 2010.06.04 01:15:21.
