data_PCOD9339104
_publ_section_title
;
Structure prediction by ZEFSAII (Michael W. Deem and Ramdas Pophale) SiO2 
 PCOD9339104
Probable space group: P C C 2
;
_chemical_formula_sum "Si O2"
_cell_formula_units_Z 14
_cell_length_a 12.008528
_cell_length_b 4.686902
_cell_length_c 9.076405
_cell_angle_alpha 90.000000
_cell_angle_beta 90.000000
_cell_angle_gamma 90.000000
_cell_volume 510.845432
_symmetry_space_group_name_H-M "P C C 2"
_symmetry_group_IT_number 27
_symmetry_cell_setting 'orthorhombic'
loop_
_space_group_symop_operation_xyz
x,y,z
-x,-y,z
-x,y,1/2+z
x,-y,1/2+z
loop_
_atom_site_type_symbol
_atom_site_label
_atom_site_fract_x
_atom_site_fract_y
_atom_site_fract_z
Si Si1 0.702329 0.242149 0.665610
Si Si2 0.000000 0.500000 0.948136
Si Si3 0.422380 0.777298 0.369439
Si Si4 0.149286 0.746168 0.202592
O O1 0.660975 0.303579 0.501905
O O2 0.624422 0.020059 0.755017
O O3 0.739199 0.549634 0.727847
O O4 0.817115 0.069000 0.674943
O O5 0.931027 0.703762 0.839669
O O6 0.911681 0.352299 0.055005
O O7 0.500000 0.500000 0.323440
O O8 0.500000 0.000000 0.459854
#
# Coordination Sequence:
#
# PCOD9339104 Si02
#       4
#     4   2   4   4
#     4  12  25  45  70 100 140 184 234 293 359 428
#     4  10  24  42  68 100 138 180 232 288 346 424
#     4  12  26  45  70 101 138 183 238 296 359 428
#     4  11  24  42  67 100 138 182 231 286 352 421
#
# _framework density 27.405553999999999
#
# number of rings (size 3 to 8) (size 9 to 14) (size 15 to 20)
#    0.000    0.571    0.000    7.714    0.000    9.143 
#    0.000    0.000    0.000    0.000    0.000    0.000 
#    0.000    0.000    0.000    0.000    0.000    0.000 
#
# Total GULP energy -78292.970930 kJ/mol
# GULP energy per Si atom -5592.355066 kJ/mol
# Density = 2.734318 g / cm^3
# Si number density = 27.405554 Si / 1000 Ang^3
#
#
#
# Elastic Constant Matrix: (Units=GPa)
#
#
# Indices 1 2 3 4 5 6 
#
# 1 45.7376 26.4021 46.7548 0.0000 0.0000 0.0000
# 2 26.4021 192.2780 41.9095 0.0000 0.0000 0.0000
# 3 46.7548 41.9095 192.1745 0.0000 0.0000 0.0000
# 4 0.0000 0.0000 0.0000 25.5017 0.0000 0.0000
# 5 0.0000 0.0000 0.0000 0.0000 3.7669 0.0000
# 6 0.0000 0.0000 0.0000 0.0000 0.0000 41.9889
#
#
#
# Elastic Compliance Matrix: (Units=1/GPa)
#
#
# Indices 1 2 3 4 5 6 
#
# 1 0.030369 -0.002687 -0.006802 0.000000 0.000000 0.000000
# 2 -0.002687 0.005698 -0.000589 0.000000 0.000000 0.000000
# 3 -0.006802 -0.000589 0.006987 0.000000 0.000000 0.000000
# 4 0.000000 0.000000 0.000000 0.039213 0.000000 0.000000
# 5 0.000000 0.000000 0.000000 0.000000 0.265472 0.000000
# 6 0.000000 0.000000 0.000000 0.000000 0.000000 0.023816
#
#
# Mechanical properties :
#
#
# Convention : Reuss Voigt Hill
#
# Bulk Modulus (GPa) = 43.67437 73.36919 58.52178
# Shear Modulus (GPa) = 12.52052 35.25974 23.89013
#
# Velocity S-wave (km/s) = 2.13975 3.59080 2.95570
# Velocity P-wave (km/s) = 4.69847 6.63487 5.74879
#
# Compressibility (1/GPa) = 0.02289673
#
# Stress axis : x y z
#
# Youngs Moduli (GPa) = 32.92844 175.49547 143.12249
#
# Poissons Ratio (x) = 0.47161 0.97359
# Poissons Ratio (y) = 0.08849 0.08428
# Poissons Ratio (z) = 0.22400 0.10334
#
# Static dielectric constant tensor:
#      x y z
#    x 1.855250 0.000000 0.000000 
#    y 0.000000 2.025060 0.000000 
#    z 0.000000 0.000000 2.001340 
# 
# From -- ./inp_files/1290.got.cif
#   From: 2010.05.17/outbox.cif.g08.bks.cpg/sg27_1_cif.got.tgz:1290.got - 2010.06.04 01:11:05.
