data_PCOD9339862
_publ_section_title
;
Structure prediction by ZEFSAII (Michael W. Deem and Ramdas Pophale) SiO2 
 PCOD9339862
Probable space group: P M A 2
;
_chemical_formula_sum "Si O2"
_cell_formula_units_Z 22
_cell_length_a 14.785971
_cell_length_b 5.346239
_cell_length_c 13.092547
_cell_angle_alpha 90.000000
_cell_angle_beta 90.000000
_cell_angle_gamma 90.000000
_cell_volume 1034.957131
_symmetry_space_group_name_H-M "P M A 2"
_symmetry_group_IT_number 28
_symmetry_cell_setting 'orthorhombic'
loop_
_space_group_symop_operation_xyz
x,y,z
-x,-y,z
1/2-x,y,z
1/2+x,-y,z
loop_
_atom_site_type_symbol
_atom_site_label
_atom_site_fract_x
_atom_site_fract_y
_atom_site_fract_z
Si Si1 0.109212 0.980808 0.380020
Si Si2 0.847326 0.331772 0.057150
Si Si3 0.250000 0.364646 0.688983
Si Si4 0.250000 0.871378 0.554841
Si Si5 0.903129 0.612677 0.857167
Si Si6 0.608386 0.518956 0.260538
Si Si7 0.000000 0.000000 0.995947
O O1 0.162305 0.915457 0.483325
O O2 0.135968 0.246887 0.330349
O O3 0.135339 0.750574 0.305998
O O4 0.000000 0.000000 0.394248
O O5 0.750000 0.203750 0.066707
O O6 0.854973 0.537830 0.145730
O O7 0.857295 0.442779 0.944149
O O8 0.937420 0.168627 0.066888
O O9 0.250000 0.099810 0.633273
O O10 0.162740 0.368592 0.762516
O O11 0.250000 0.602893 0.612111
O O12 0.000000 0.500000 0.826204
O O13 0.930820 0.858887 0.920586
O O14 0.500000 0.500000 0.258588
#
# Coordination Sequence:
#
# PCOD9339862 Si02
#       7
#     4   4   2   2   4   4   2
#     4  10  24  45  69  96 137 177 229 284 346 407
#     4  11  24  39  67 105 146 183 232 275 341 418
#     4  12  28  46  74 101 135 174 238 294 354 415
#     4  12  28  46  72  99 133 172 236 306 348 411
#     4  10  24  44  68 100 143 180 231 278 350 414
#     4  10  22  41  68 100 139 185 223 271 335 416
#     4  10  24  42  66  96 154 188 226 284 334 430
#
# _framework density 21.256920000000001
#
# number of rings (size 3 to 8) (size 9 to 14) (size 15 to 20)
#    0.000    1.455    0.909    2.727   15.273    1.455 
#    0.000    0.000    0.000    0.000    0.000    0.000 
#    0.000    0.000    0.000    0.000    0.000    0.000 
#
# Total GULP energy -122910.501955 kJ/mol
# GULP energy per Si atom -5586.840998 kJ/mol
# Density = 2.120854 g / cm^3
# Si number density = 21.256920 Si / 1000 Ang^3
#
#
#
# Elastic Constant Matrix: (Units=GPa)
#
#
# Indices 1 2 3 4 5 6 
#
# 1 101.5153 14.6935 37.6347 0.0000 0.0000 0.0000
# 2 14.6935 83.3868 4.1445 0.0000 0.0000 0.0000
# 3 37.6347 4.1445 64.7417 0.0000 0.0000 0.0000
# 4 0.0000 0.0000 0.0000 25.9378 0.0000 0.0000
# 5 0.0000 0.0000 0.0000 0.0000 -225.0496 0.0000
# 6 0.0000 0.0000 0.0000 0.0000 0.0000 -127.3755
#
#
#
# Elastic Compliance Matrix: (Units=1/GPa)
#
#
# Indices 1 2 3 4 5 6 
#
# 1 0.012850 -0.001899 -0.007348 0.000000 0.000000 0.000000
# 2 -0.001899 0.012311 0.000316 0.000000 0.000000 0.000000
# 3 -0.007348 0.000316 0.019697 0.000000 0.000000 0.000000
# 4 0.000000 0.000000 0.000000 0.038554 0.000000 0.000000
# 5 0.000000 0.000000 0.000000 0.000000 -0.004443 0.000000
# 6 0.000000 0.000000 0.000000 0.000000 0.000000 -0.007851
#
#
# Mechanical properties :
#
#
# Convention : Reuss Voigt Hill
#
# Bulk Modulus (GPa) = 37.04300 40.28769 38.66534
# Shear Modulus (GPa) = 51.03141 -52.41941 -0.69400
#
# Velocity S-wave (km/s) = 4.90501 -4.97126 -0.57201
# Velocity P-wave (km/s) = 7.03867 3.73596 4.21815
#
# Compressibility (1/GPa) = 0.02699565
#
# Stress axis : x y z
#
# Youngs Moduli (GPa) = 77.82262 81.22663 50.76854
#
# Poissons Ratio (x) = 0.15425 0.37305
# Poissons Ratio (y) = 0.14779 -0.01603
# Poissons Ratio (z) = 0.57184 -0.02565
#
# Static dielectric constant tensor:
#      x y z
#    x 2.593780 0.000000 0.000000 
#    y 0.000000 1.816780 0.000000 
#    z 0.000000 0.000000 1.730400 
# 
# From -- ./inp_files/5485.got.cif
#   From: 2010.05.17/outbox.cif.g08.bks.cpg/sg28_3_cif.got.tgz:5485.got - 2010.06.04 01:15:21.
