data_PCOD9339313
_publ_section_title
;
Structure prediction by ZEFSAII (Michael W. Deem and Ramdas Pophale) SiO2 
 PCOD9339313
Probable space group: P M A 2
;
_chemical_formula_sum "Si O2"
_cell_formula_units_Z 32
_cell_length_a 8.711350
_cell_length_b 14.618577
_cell_length_c 15.920004
_cell_angle_alpha 90.000000
_cell_angle_beta 90.000000
_cell_angle_gamma 90.000000
_cell_volume 2027.373358
_symmetry_space_group_name_H-M "P M A 2"
_symmetry_group_IT_number 28
_symmetry_cell_setting 'orthorhombic'
loop_
_space_group_symop_operation_xyz
x,y,z
-x,-y,z
1/2-x,y,z
1/2+x,-y,z
loop_
_atom_site_type_symbol
_atom_site_label
_atom_site_fract_x
_atom_site_fract_y
_atom_site_fract_z
Si Si1 0.934578 0.902331 0.342340
Si Si2 0.566197 0.601817 0.441838
Si Si3 0.434301 0.602625 0.764270
Si Si4 0.933113 0.397188 0.112753
Si Si5 0.066357 0.396659 0.938375
Si Si6 0.433662 0.715753 0.597680
Si Si7 0.066005 0.098261 0.538598
Si Si8 0.935214 0.709746 0.270191
O O1 0.750000 0.906374 0.340695
O O2 0.979414 0.887801 0.440236
O O3 0.982040 0.814455 0.288441
O O4 0.000000 0.000000 0.314949
O O5 0.500000 0.500000 0.441588
O O6 0.750000 0.599114 0.449713
O O7 0.499071 0.658268 0.519591
O O8 0.529119 0.652385 0.354429
O O9 0.500000 0.500000 0.752070
O O10 0.250000 0.596428 0.772207
O O11 0.504124 0.642349 0.850677
O O12 0.473610 0.664157 0.684031
O O13 0.750000 0.403553 0.106435
O O14 0.000000 0.500000 0.124401
O O15 0.984230 0.335965 0.190961
O O16 0.001835 0.357894 0.025615
O O17 0.250000 0.398235 0.939266
O O18 0.000000 0.500000 0.937890
O O19 0.250000 0.719227 0.591458
O O20 0.500823 0.817380 0.590862
O O21 0.250000 0.097463 0.542468
O O22 0.000000 0.000000 0.564476
O O23 0.750000 0.706819 0.258673
#
# Coordination Sequence:
#
# PCOD9339313 Si02
#       8
#     4   4   4   4   4   4   4   4
#     4   9  18  33  51  72  96 126 162 207 252 292
#     4  11  22  35  48  66  98 136 173 208 245 290
#     4  10  20  33  49  72 101 132 168 208 248 293
#     4  11  21  33  50  73 100 132 167 205 248 294
#     4  10  18  31  51  72  96 128 163 204 250 293
#     4  11  22  34  50  73 100 134 171 207 249 298
#     4  10  19  34  53  74  98 129 166 211 257 297
#     4  10  20  35  50  70  99 131 168 206 247 293
#
# _framework density 15.783969000000001
#
# number of rings (size 3 to 8) (size 9 to 14) (size 15 to 20)
#    0.000    1.750    1.250    6.000    0.000    6.000 
#    0.000    0.000    0.000    0.000    0.000    0.875 
#    0.000    2.000    0.000    0.000    0.000    0.000 
#
# Total GULP energy -178625.145572 kJ/mol
# GULP energy per Si atom -5582.035799 kJ/mol
# Density = 1.574804 g / cm^3
# Si number density = 15.783969 Si / 1000 Ang^3
#
#
#
# Elastic Constant Matrix: (Units=GPa)
#
#
# Indices 1 2 3 4 5 6 
#
# 1 80.3915 45.9150 65.3991 0.0000 0.0000 0.0000
# 2 45.9150 120.1417 70.8393 0.0000 0.0000 0.0000
# 3 65.3991 70.8393 141.2036 0.0000 0.0000 0.0000
# 4 0.0000 0.0000 0.0000 6.0459 0.0000 0.0000
# 5 0.0000 0.0000 0.0000 0.0000 33.9875 0.0000
# 6 0.0000 0.0000 0.0000 0.0000 0.0000 26.4296
#
#
#
# Elastic Compliance Matrix: (Units=1/GPa)
#
#
# Indices 1 2 3 4 5 6 
#
# 1 0.020802 -0.003222 -0.008018 0.000000 0.000000 0.000000
# 2 -0.003222 0.012319 -0.004688 0.000000 0.000000 0.000000
# 3 -0.008018 -0.004688 0.013147 0.000000 0.000000 0.000000
# 4 0.000000 0.000000 0.000000 0.165400 0.000000 0.000000
# 5 0.000000 0.000000 0.000000 0.000000 0.029423 0.000000
# 6 0.000000 0.000000 0.000000 0.000000 0.000000 0.037836
#
#
# Mechanical properties :
#
#
# Convention : Reuss Voigt Hill
#
# Bulk Modulus (GPa) = 69.38543 78.44929 73.91736
# Shear Modulus (GPa) = 15.84341 23.93152 19.88746
#
# Velocity S-wave (km/s) = 3.17166 3.89805 3.55347
# Velocity P-wave (km/s) = 7.58073 8.37076 7.98552
#
# Compressibility (1/GPa) = 0.01441225
#
# Stress axis : x y z
#
# Youngs Moduli (GPa) = 48.07153 81.17484 76.06083
#
# Poissons Ratio (x) = 0.26158 0.60986
# Poissons Ratio (y) = 0.15491 0.35656
# Poissons Ratio (z) = 0.38544 0.38053
#
# Static dielectric constant tensor:
#      x y z
#    x 1.529140 0.000000 0.000000 
#    y 0.000000 1.508900 0.000000 
#    z 0.000000 0.000000 1.537420 
# 
# From -- ./inp_files/6432.got.cif
#   From: 2010.05.17/outbox.cif.g08.bks.cpg/sg28_4_cif.got.tgz:6432.got - 2010.06.04 01:15:21.
