data_PCOD9339623
_publ_section_title
;
Structure prediction by ZEFSAII (Michael W. Deem and Ramdas Pophale) SiO2 
 PCOD9339623
Probable space group: P M A 2
;
_chemical_formula_sum "Si O2"
_cell_formula_units_Z 28
_cell_length_a 8.741232
_cell_length_b 9.398520
_cell_length_c 18.599950
_cell_angle_alpha 90.000000
_cell_angle_beta 90.000000
_cell_angle_gamma 90.000000
_cell_volume 1528.072267
_symmetry_space_group_name_H-M "P M A 2"
_symmetry_group_IT_number 28
_symmetry_cell_setting 'orthorhombic'
loop_
_space_group_symop_operation_xyz
x,y,z
-x,-y,z
1/2-x,y,z
1/2+x,-y,z
loop_
_atom_site_type_symbol
_atom_site_label
_atom_site_fract_x
_atom_site_fract_y
_atom_site_fract_z
Si Si1 0.932882 0.342676 0.512830
Si Si2 0.066942 0.839401 0.077879
Si Si3 0.066206 0.341322 0.946537
Si Si4 0.066637 0.658648 0.676352
Si Si5 0.067002 0.157563 0.804886
Si Si6 0.067024 0.158609 0.384562
Si Si7 0.066391 0.160217 0.226303
O O1 0.750000 0.346602 0.507140
O O2 0.971878 0.296188 0.594447
O O3 0.000000 0.500000 0.504377
O O4 0.000444 0.245633 0.450604
O O5 0.250000 0.847142 0.077210
O O6 0.008893 0.777975 0.154537
O O7 0.000000 0.000000 0.070545
O O8 0.004927 0.743139 0.013544
O O9 0.250000 0.346648 0.953738
O O10 0.028675 0.253901 0.874161
O O11 0.000000 0.500000 0.942414
O O12 0.250000 0.652319 0.682894
O O13 0.000000 0.500000 0.687491
O O14 0.999224 0.765505 0.734604
O O15 0.250000 0.149084 0.799474
O O16 0.000000 0.000000 0.813082
O O17 0.250000 0.151568 0.389569
O O18 0.029957 0.222244 0.305172
O O19 0.000000 0.000000 0.387207
O O20 0.250000 0.155737 0.217847
O O21 0.000000 0.000000 0.229054
#
# Coordination Sequence:
#
# PCOD9339623 Si02
#       7
#     4   4   4   4   4   4   4
#     4  10  21  37  57  81 111 148 187 229 278 332
#     4  11  21  35  58  85 113 147 186 230 278 328
#     4  11  24  41  60  84 114 148 185 226 275 330
#     4  10  21  38  60  84 112 147 186 228 277 332
#     4  11  24  40  61  87 115 147 184 228 275 325
#     4  10  20  34  55  82 112 147 187 232 279 329
#     4   9  17  31  52  79 110 144 184 229 278 330
#
# _framework density 18.323739
#
# number of rings (size 3 to 8) (size 9 to 14) (size 15 to 20)
#    0.000    1.714    0.000    5.571    0.000    8.571 
#    0.000    0.714    0.000    3.429    0.000    0.000 
#    0.000    0.000    0.000    0.000    0.000    0.000 
#
# Total GULP energy -156374.278363 kJ/mol
# GULP energy per Si atom -5584.795656 kJ/mol
# Density = 1.828203 g / cm^3
# Si number density = 18.323739 Si / 1000 Ang^3
#
#
#
# Elastic Constant Matrix: (Units=GPa)
#
#
# Indices 1 2 3 4 5 6 
#
# 1 100.4270 56.9463 92.5650 0.0000 0.0000 0.0000
# 2 56.9463 105.1062 105.2357 0.0000 0.0000 0.0000
# 3 92.5650 105.2357 207.4466 0.0000 0.0000 0.0000
# 4 0.0000 0.0000 0.0000 121.6729 0.0000 0.0000
# 5 0.0000 0.0000 0.0000 0.0000 50.1575 0.0000
# 6 0.0000 0.0000 0.0000 0.0000 0.0000 33.3811
#
#
#
# Elastic Compliance Matrix: (Units=1/GPa)
#
#
# Indices 1 2 3 4 5 6 
#
# 1 0.017484 -0.003377 -0.006089 0.000000 0.000000 0.000000
# 2 -0.003377 0.019987 -0.008632 0.000000 0.000000 0.000000
# 3 -0.006089 -0.008632 0.011916 0.000000 0.000000 0.000000
# 4 0.000000 0.000000 0.000000 0.008219 0.000000 0.000000
# 5 0.000000 0.000000 0.000000 0.000000 0.019937 0.000000
# 6 0.000000 0.000000 0.000000 0.000000 0.000000 0.029957
#
#
# Mechanical properties :
#
#
# Convention : Reuss Voigt Hill
#
# Bulk Modulus (GPa) = 75.80419 102.49709 89.15064
# Shear Modulus (GPa) = 33.76257 51.59116 42.67686
#
# Velocity S-wave (km/s) = 4.29716 5.31192 4.83126
# Velocity P-wave (km/s) = 8.12896 9.67885 8.93757
#
# Compressibility (1/GPa) = 0.01319188
#
# Stress axis : x y z
#
# Youngs Moduli (GPa) = 57.19434 50.03346 83.91785
#
# Poissons Ratio (x) = 0.16895 0.51095
# Poissons Ratio (y) = 0.19313 0.72440
# Poissons Ratio (z) = 0.34824 0.43190
#
# Static dielectric constant tensor:
#      x y z
#    x 1.609950 0.000000 0.000000 
#    y 0.000000 1.592400 0.000000 
#    z 0.000000 0.000000 1.652540 
# 
# From -- ./inp_files/6857.got.cif
#   From: 2010.05.17/outbox.cif.g08.bks.cpg/sg28_4_cif.got.tgz:6857.got - 2010.06.04 01:15:21.
