data_PCOD9339272
_publ_section_title
;
Structure prediction by ZEFSAII (Michael W. Deem and Ramdas Pophale) SiO2 
 PCOD9339272
Probable space group: P M A 2
;
_chemical_formula_sum "Si O2"
_cell_formula_units_Z 32
_cell_length_a 17.011955
_cell_length_b 8.527066
_cell_length_c 12.316698
_cell_angle_alpha 90.000000
_cell_angle_beta 90.000000
_cell_angle_gamma 90.000000
_cell_volume 1786.685622
_symmetry_space_group_name_H-M "P M A 2"
_symmetry_group_IT_number 28
_symmetry_cell_setting 'orthorhombic'
loop_
_space_group_symop_operation_xyz
x,y,z
-x,-y,z
1/2-x,y,z
1/2+x,-y,z
loop_
_atom_site_type_symbol
_atom_site_label
_atom_site_fract_x
_atom_site_fract_y
_atom_site_fract_z
Si Si1 0.430083 0.877034 0.154370
Si Si2 0.157337 0.305962 0.599018
Si Si3 0.522325 0.681259 0.984469
Si Si4 0.159082 0.311480 0.353737
Si Si5 0.075008 0.616028 0.586411
Si Si6 0.842215 0.824964 0.127907
Si Si7 0.924341 0.382182 0.340038
Si Si8 0.982640 0.817899 0.745024
O O1 0.420934 0.754242 0.252167
O O2 0.500000 0.000000 0.179495
O O3 0.357357 0.988882 0.124980
O O4 0.457701 0.781654 0.049217
O O5 0.250000 0.268129 0.610572
O O6 0.128322 0.274965 0.474352
O O7 0.145222 0.494734 0.611694
O O8 0.098300 0.216278 0.679176
O O9 0.500000 0.500000 0.998067
O O10 0.523139 0.728618 0.859067
O O11 0.604293 0.732571 0.041465
O O12 0.250000 0.271064 0.359441
O O13 0.127581 0.225402 0.247970
O O14 0.146986 0.495335 0.332130
O O15 0.078231 0.679261 0.463643
O O16 0.054051 0.746051 0.673953
O O17 0.000000 0.500000 0.588992
O O18 0.750000 0.788109 0.116924
O O19 0.000000 0.500000 0.326753
O O20 0.000000 0.000000 0.762696
#
# Coordination Sequence:
#
# PCOD9339272 Si02
#       8
#     4   4   4   4   4   4   4   4
#     4  10  20  32  50  76 106 138 170 213 264 312
#     4   9  18  35  57  78 105 142 179 213 252 304
#     4  11  22  39  59  75  98 137 182 221 259 308
#     4   9  18  33  52  76 107 140 172 209 255 304
#     4   8  17  32  51  76 105 137 176 217 255 301
#     4  10  21  36  54  79 111 140 169 212 265 315
#     4  10  17  29  51  77 103 136 178 215 247 298
#     4  11  22  36  55  79 107 136 170 218 270 314
#
# _framework density 17.910257000000001
#
# number of rings (size 3 to 8) (size 9 to 14) (size 15 to 20)
#    0.000    2.250    0.000    5.625    0.000    2.500 
#    0.000    1.250    0.000    3.000    0.000    0.000 
#    0.000    0.000    0.000    0.000    0.000    0.000 
#
# Total GULP energy -178285.126365 kJ/mol
# GULP energy per Si atom -5571.410199 kJ/mol
# Density = 1.786949 g / cm^3
# Si number density = 17.910257 Si / 1000 Ang^3
#
#
#
# Elastic Constant Matrix: (Units=GPa)
#
#
# Indices 1 2 3 4 5 6 
#
# 1 53.8255 26.7573 33.9755 0.0000 0.0000 0.0000
# 2 26.7573 91.8804 58.0270 0.0000 0.0000 0.0000
# 3 33.9755 58.0270 119.1151 0.0000 0.0000 0.0000
# 4 0.0000 0.0000 0.0000 -39.9190 0.0000 0.0000
# 5 0.0000 0.0000 0.0000 0.0000 3.9903 0.0000
# 6 0.0000 0.0000 0.0000 0.0000 0.0000 16.0837
#
#
#
# Elastic Compliance Matrix: (Units=1/GPa)
#
#
# Indices 1 2 3 4 5 6 
#
# 1 0.023531 -0.003775 -0.004873 0.000000 0.000000 0.000000
# 2 -0.003775 0.016326 -0.006876 0.000000 0.000000 0.000000
# 3 -0.004873 -0.006876 0.013135 0.000000 0.000000 0.000000
# 4 0.000000 0.000000 0.000000 -0.025051 0.000000 0.000000
# 5 0.000000 0.000000 0.000000 0.000000 0.250607 0.000000
# 6 0.000000 0.000000 0.000000 0.000000 0.000000 0.062175
#
#
# Mechanical properties :
#
#
# Convention : Reuss Voigt Hill
#
# Bulk Modulus (GPa) = 45.57228 55.81561 50.69395
# Shear Modulus (GPa) = 13.18961 5.76841 9.47901
#
# Velocity S-wave (km/s) = 2.71666 1.79659 2.30304
# Velocity P-wave (km/s) = 5.94478 5.96115 5.95297
#
# Compressibility (1/GPa) = 0.02194316
#
# Stress axis : x y z
#
# Youngs Moduli (GPa) = 42.49711 61.25238 76.13320
#
# Poissons Ratio (x) = 0.23125 0.37097
# Poissons Ratio (y) = 0.16044 0.52352
# Poissons Ratio (z) = 0.20707 0.42119
#
# Static dielectric constant tensor:
#      x y z
#    x 1.652930 0.000000 0.000000 
#    y 0.000000 1.626320 0.000000 
#    z 0.000000 0.000000 1.628730 
# 
# From -- ./inp_files/5758.got.cif
#   From: 2010.05.17/outbox.cif.g08.bks.cpg/sg28_3_cif.got.tgz:5758.got - 2010.06.04 01:15:21.
