data_PCOD9339053
_publ_section_title
;
Structure prediction by ZEFSAII (Michael W. Deem and Ramdas Pophale) SiO2 
 PCOD9339053
Probable space group: P C C 2
;
_chemical_formula_sum "Si O2"
_cell_formula_units_Z 32
_cell_length_a 12.552605
_cell_length_b 9.231089
_cell_length_c 13.354409
_cell_angle_alpha 90.000000
_cell_angle_beta 90.000000
_cell_angle_gamma 90.000000
_cell_volume 1547.431645
_symmetry_space_group_name_H-M "P C C 2"
_symmetry_group_IT_number 27
_symmetry_cell_setting 'orthorhombic'
loop_
_space_group_symop_operation_xyz
x,y,z
-x,-y,z
-x,y,1/2+z
x,-y,1/2+z
loop_
_atom_site_type_symbol
_atom_site_label
_atom_site_fract_x
_atom_site_fract_y
_atom_site_fract_z
Si Si1 0.572070 0.360165 0.868060
Si Si2 0.253796 0.527009 0.472344
Si Si3 0.918338 0.876741 0.745554
Si Si4 0.743667 0.986370 0.383199
Si Si5 0.961843 0.663098 0.905700
Si Si6 0.154881 0.760624 0.038518
Si Si7 0.584538 0.123266 0.722399
Si Si8 0.405736 0.211440 0.998367
O O1 0.500000 0.500000 0.870993
O O2 0.689112 0.424957 0.888646
O O3 0.552841 0.279573 0.764282
O O4 0.521869 0.250339 0.951669
O O5 0.160609 0.635388 0.436862
O O6 0.205008 0.401268 0.542235
O O7 0.344073 0.635455 0.512548
O O8 0.846831 0.938803 0.835757
O O9 0.975532 0.743699 0.800478
O O10 0.853789 0.824666 0.649330
O O11 0.000000 0.000000 0.713078
O O12 0.662029 0.106654 0.425623
O O13 0.778964 0.870878 0.467603
O O14 0.688533 0.909928 0.288110
O O15 0.000000 0.500000 0.894677
O O16 0.037655 0.740350 0.987688
O O17 0.593066 0.132119 0.604155
O O18 0.500000 0.000000 0.748224
#
# Coordination Sequence:
#
# PCOD9339053 Si02
#       8
#     4   4   4   4   4   4   4   4
#     4  10  23  44  67  97 136 176 223 282 334 405
#     4  10  22  46  70  94 140 176 220 292 338 398
#     4  12  26  42  70 100 134 182 221 276 349 409
#     4  12  24  46  66 102 138 178 226 286 334 414
#     4  10  23  44  67  97 136 176 223 282 334 405
#     4  11  25  43  69  99 137 177 231 278 341 408
#     4  12  26  42  70 100 134 182 221 276 349 409
#     4  11  25  43  69  99 137 177 231 278 341 408
#
# _framework density 20.679428000000001
#
# number of rings (size 3 to 8) (size 9 to 14) (size 15 to 20)
#    0.000    1.000    5.000    0.750    3.500    6.000 
#    0.000    0.000    0.000    0.000    0.000    0.000 
#    0.000    0.000    0.000    0.000    0.000    0.000 
#
# Total GULP energy -178550.409643 kJ/mol
# GULP energy per Si atom -5579.700301 kJ/mol
# Density = 2.063236 g / cm^3
# Si number density = 20.679428 Si / 1000 Ang^3
#
#
#
# Elastic Constant Matrix: (Units=GPa)
#
#
# Indices 1 2 3 4 5 6 
#
# 1 55.2250 11.3546 -7.6546 0.0000 0.0000 0.0000
# 2 11.3546 84.1940 14.5788 0.0000 0.0000 0.0000
# 3 -7.6546 14.5788 56.9989 0.0000 0.0000 0.0000
# 4 0.0000 0.0000 0.0000 -2.7912 0.0000 0.0000
# 5 0.0000 0.0000 0.0000 0.0000 25.1759 0.0000
# 6 0.0000 0.0000 0.0000 0.0000 0.0000 26.6752
#
#
#
# Elastic Compliance Matrix: (Units=1/GPa)
#
#
# Indices 1 2 3 4 5 6 
#
# 1 0.019233 -0.003182 0.003397 0.000000 0.000000 0.000000
# 2 -0.003182 0.012954 -0.003741 0.000000 0.000000 0.000000
# 3 0.003397 -0.003741 0.018957 0.000000 0.000000 0.000000
# 4 0.000000 0.000000 0.000000 -0.358270 0.000000 0.000000
# 5 0.000000 0.000000 0.000000 0.000000 0.039721 0.000000
# 6 0.000000 0.000000 0.000000 0.000000 0.000000 0.037488
#
#
# Mechanical properties :
#
#
# Convention : Reuss Voigt Hill
#
# Bulk Modulus (GPa) = 22.67968 25.88614 24.28291
# Shear Modulus (GPa) = -24.01900 21.68793 -1.16554
#
# Velocity S-wave (km/s) = -3.41176 3.24198 -0.75156
# Velocity P-wave (km/s) = 2.12817 5.15354 3.31887
#
# Compressibility (1/GPa) = 0.04409232
#
# Stress axis : x y z
#
# Youngs Moduli (GPa) = 51.99456 77.19521 52.75066
#
# Poissons Ratio (x) = 0.24563 -0.17918
# Poissons Ratio (y) = 0.16544 0.19732
# Poissons Ratio (z) = -0.17661 0.28876
#
# Static dielectric constant tensor:
#      x y z
#    x 1.837330 0.000000 0.000000 
#    y 0.000000 1.864070 0.000000 
#    z 0.000000 0.000000 1.693650 
# 
# From -- ./inp_files/2780.got.cif
#   From: 2010.05.17/outbox.cif.g08.bks.cpg/sg27_2_cif.got.tgz:2780.got - 2010.06.04 01:11:05.
