data_PCOD9339032
_publ_section_title
;
Structure prediction by ZEFSAII (Michael W. Deem and Ramdas Pophale) SiO2 
 PCOD9339032
Probable space group: P C C 2
;
_chemical_formula_sum "Si O2"
_cell_formula_units_Z 28
_cell_length_a 6.361397
_cell_length_b 10.407449
_cell_length_c 18.499156
_cell_angle_alpha 90.000000
_cell_angle_beta 90.000000
_cell_angle_gamma 90.000000
_cell_volume 1224.753547
_symmetry_space_group_name_H-M "P C C 2"
_symmetry_group_IT_number 27
_symmetry_cell_setting 'orthorhombic'
loop_
_space_group_symop_operation_xyz
x,y,z
-x,-y,z
-x,y,1/2+z
x,-y,1/2+z
loop_
_atom_site_type_symbol
_atom_site_label
_atom_site_fract_x
_atom_site_fract_y
_atom_site_fract_z
Si Si1 0.715032 0.102472 0.730570
Si Si2 0.174326 0.200022 0.745843
Si Si3 0.561658 0.760426 0.618895
Si Si4 0.618576 0.632693 0.985064
Si Si5 0.038997 0.640052 0.376106
Si Si6 0.246971 0.954014 0.017473
Si Si7 0.358775 0.184245 0.386716
O O1 0.241978 0.049402 0.737778
O O2 0.597768 0.139942 0.657343
O O3 0.598583 0.145647 0.804526
O O4 0.928152 0.183963 0.728729
O O5 0.304086 0.283776 0.688118
O O6 0.175272 0.270533 0.822783
O O7 0.428185 0.666090 0.568259
O O8 0.732371 0.827528 0.566813
O O9 0.500000 0.500000 0.967237
O O10 0.851951 0.622952 0.953994
O O11 0.530702 0.753634 0.939005
O O12 0.000000 0.500000 0.343408
O O13 0.818451 0.707841 0.384361
O O14 0.500000 0.000000 0.028533
O O15 0.255303 0.932877 0.931127
O O16 0.000000 0.000000 0.032436
#
# Coordination Sequence:
#
# PCOD9339032 Si02
#       7
#     4   4   4   4   4   4   4
#     4  10  22  43  67 101 143 180 229 298 374 449
#     4  10  23  41  66 100 140 178 234 294 367 445
#     4  11  25  42  66 100 142 194 232 296 378 446
#     4  11  24  45  64  96 138 187 244 303 362 442
#     4  11  23  45  74  99 135 187 246 310 363 437
#     4  11  27  42  71 109 152 195 249 301 376 457
#     4  10  24  42  72 103 134 187 239 307 368 430
#
# _framework density 22.861740999999999
#
# number of rings (size 3 to 8) (size 9 to 14) (size 15 to 20)
#    0.000    1.429    1.429    2.143   12.000    2.286 
#    5.143    0.000    0.000    0.000    0.000    0.000 
#    0.000    0.000    0.000    0.000    0.000    0.000 
#
# Total GULP energy -155892.787711 kJ/mol
# GULP energy per Si atom -5567.599561 kJ/mol
# Density = 2.280971 g / cm^3
# Si number density = 22.861741 Si / 1000 Ang^3
#
#
#
# Elastic Constant Matrix: (Units=GPa)
#
#
# Indices 1 2 3 4 5 6 
#
# 1 85.3651 25.1853 24.3102 0.0000 0.0000 0.0000
# 2 25.1853 54.7629 26.0975 0.0000 0.0000 0.0000
# 3 24.3102 26.0975 115.9890 0.0000 0.0000 0.0000
# 4 0.0000 0.0000 0.0000 30.5962 0.0000 0.0000
# 5 0.0000 0.0000 0.0000 0.0000 38.7805 0.0000
# 6 0.0000 0.0000 0.0000 0.0000 0.0000 29.7494
#
#
#
# Elastic Compliance Matrix: (Units=1/GPa)
#
#
# Indices 1 2 3 4 5 6 
#
# 1 0.013828 -0.005576 -0.001644 0.000000 0.000000 0.000000
# 2 -0.005576 0.022702 -0.003939 0.000000 0.000000 0.000000
# 3 -0.001644 -0.003939 0.009852 0.000000 0.000000 0.000000
# 4 0.000000 0.000000 0.000000 0.032684 0.000000 0.000000
# 5 0.000000 0.000000 0.000000 0.000000 0.025786 0.000000
# 6 0.000000 0.000000 0.000000 0.000000 0.000000 0.033614
#
#
# Mechanical properties :
#
#
# Convention : Reuss Voigt Hill
#
# Bulk Modulus (GPa) = 41.55519 45.25588 43.40553
# Shear Modulus (GPa) = 29.61992 31.86016 30.74004
#
# Velocity S-wave (km/s) = 3.60336 3.73715 3.67087
# Velocity P-wave (km/s) = 5.96058 6.20162 6.08230
#
# Compressibility (1/GPa) = 0.02406438
#
# Stress axis : x y z
#
# Youngs Moduli (GPa) = 72.31953 44.04850 101.49898
#
# Poissons Ratio (x) = 0.24562 0.16681
# Poissons Ratio (y) = 0.40326 0.39984
# Poissons Ratio (z) = 0.11886 0.17352
#
# Static dielectric constant tensor:
#      x y z
#    x 1.959760 0.000000 0.000000 
#    y 0.000000 1.874910 0.000000 
#    z 0.000000 0.000000 1.847340 
# 
# From -- ./inp_files/4670.got.cif
#   From: 2010.05.17/outbox.cif.g08.bks.cpg/sg27_3_cif.got.tgz:4670.got - 2010.06.04 01:11:05.
