data_PCOD9339544
_publ_section_title
;
Structure prediction by ZEFSAII (Michael W. Deem and Ramdas Pophale) SiO2 
 PCOD9339544
Probable space group: P M A 2
;
_chemical_formula_sum "Si O2"
_cell_formula_units_Z 32
_cell_length_a 17.748995
_cell_length_b 11.102458
_cell_length_c 8.141819
_cell_angle_alpha 90.000000
_cell_angle_beta 90.000000
_cell_angle_gamma 90.000000
_cell_volume 1604.406266
_symmetry_space_group_name_H-M "P M A 2"
_symmetry_group_IT_number 28
_symmetry_cell_setting 'orthorhombic'
loop_
_space_group_symop_operation_xyz
x,y,z
-x,-y,z
1/2-x,y,z
1/2+x,-y,z
loop_
_atom_site_type_symbol
_atom_site_label
_atom_site_fract_x
_atom_site_fract_y
_atom_site_fract_z
Si Si1 0.661414 0.426275 0.650310
Si Si2 0.555805 0.111311 0.208173
Si Si3 0.335298 0.048690 0.021966
Si Si4 0.029726 0.174065 0.875284
Si Si5 0.665474 0.697026 0.212031
Si Si6 0.556169 0.232911 0.565232
Si Si7 0.557400 0.588592 0.433047
Si Si8 0.418879 0.440495 0.943333
O O1 0.750000 0.439859 0.652139
O O2 0.635234 0.289749 0.619305
O O3 0.623448 0.509467 0.510460
O O4 0.624677 0.474683 0.817426
O O5 0.561489 0.182270 0.379855
O O6 0.500000 0.000000 0.242292
O O7 0.634266 0.055346 0.142534
O O8 0.518250 0.173534 0.046483
O O9 0.250000 0.026257 0.961306
O O10 0.333255 0.175505 0.120403
O O11 0.403091 0.076281 0.894043
O O12 0.066628 0.306742 0.871025
O O13 0.979629 0.155653 0.712734
O O14 0.750000 0.673660 0.272051
O O15 0.599737 0.697470 0.345115
O O16 0.635707 0.589128 0.096040
O O17 0.500266 0.348881 0.556936
O O18 0.500000 0.500000 0.336626
O O19 0.500000 0.500000 0.976164
#
# Coordination Sequence:
#
# PCOD9339544 Si02
#       8
#     4   4   4   4   4   4   4   4
#     4  11  22  36  54  84 126 160 194 247 305 360
#     4  10  22  39  63  90 115 155 205 261 303 358
#     4   9  20  39  60  87 123 155 198 260 322 365
#     4  10  20  38  63  90 116 156 209 253 293 362
#     4  10  20  33  55  86 115 150 200 252 304 361
#     4  11  21  39  62  88 118 158 208 248 300 371
#     4  10  19  35  54  82 118 157 198 248 296 361
#     4  11  18  35  57  81 115 158 195 241 296 351
#
# _framework density 19.945074999999999
#
# number of rings (size 3 to 8) (size 9 to 14) (size 15 to 20)
#    0.000    1.750    2.500    3.750    0.000    3.500 
#    0.000    0.625    0.000    7.500    0.000    0.000 
#    0.000    0.000    0.000    0.000    0.000    0.000 
#
# Total GULP energy -178263.421083 kJ/mol
# GULP energy per Si atom -5570.731909 kJ/mol
# Density = 1.989968 g / cm^3
# Si number density = 19.945075 Si / 1000 Ang^3
#
#
#
# Elastic Constant Matrix: (Units=GPa)
#
#
# Indices 1 2 3 4 5 6 
#
# 1 134.8191 38.4622 49.5661 0.0000 0.0000 0.0000
# 2 38.4622 43.3991 18.4995 0.0000 0.0000 0.0000
# 3 49.5661 18.4995 82.1770 0.0000 0.0000 0.0000
# 4 0.0000 0.0000 0.0000 26.9690 0.0000 0.0000
# 5 0.0000 0.0000 0.0000 0.0000 20.0760 0.0000
# 6 0.0000 0.0000 0.0000 0.0000 0.0000 24.6833
#
#
#
# Elastic Compliance Matrix: (Units=1/GPa)
#
#
# Indices 1 2 3 4 5 6 
#
# 1 0.011639 -0.008099 -0.005197 0.000000 0.000000 0.000000
# 2 -0.008099 0.031124 -0.002121 0.000000 0.000000 0.000000
# 3 -0.005197 -0.002121 0.015781 0.000000 0.000000 0.000000
# 4 0.000000 0.000000 0.000000 0.037080 0.000000 0.000000
# 5 0.000000 0.000000 0.000000 0.000000 0.049811 0.000000
# 6 0.000000 0.000000 0.000000 0.000000 0.000000 0.040513
#
#
# Mechanical properties :
#
#
# Convention : Reuss Voigt Hill
#
# Bulk Modulus (GPa) = 36.08957 52.60564 44.34761
# Shear Modulus (GPa) = 22.12212 24.60351 23.36282
#
# Velocity S-wave (km/s) = 3.33401 3.51602 3.42622
# Velocity P-wave (km/s) = 5.74061 6.55101 6.15915
#
# Compressibility (1/GPa) = 0.02770883
#
# Stress axis : x y z
#
# Youngs Moduli (GPa) = 85.92146 32.12927 63.36811
#
# Poissons Ratio (x) = 0.26023 0.32930
# Poissons Ratio (y) = 0.69592 0.13443
# Poissons Ratio (z) = 0.44650 0.06816
#
# Static dielectric constant tensor:
#      x y z
#    x 1.713430 0.000000 0.000000 
#    y 0.000000 1.767900 0.000000 
#    z 0.000000 0.000000 1.778710 
# 
# From -- ./inp_files/3957.got.cif
#   From: 2010.05.17/outbox.cif.g08.bks.cpg/sg28_2_cif.got.tgz:3957.got - 2010.06.04 01:15:21.
