data_PCOD9339712
_publ_section_title
;
Structure prediction by ZEFSAII (Michael W. Deem and Ramdas Pophale) SiO2 
 PCOD9339712
Probable space group: P M A 2
;
_chemical_formula_sum "Si O2"
_cell_formula_units_Z 20
_cell_length_a 16.881180
_cell_length_b 9.777503
_cell_length_c 5.252157
_cell_angle_alpha 90.000000
_cell_angle_beta 90.000000
_cell_angle_gamma 90.000000
_cell_volume 866.898913
_symmetry_space_group_name_H-M "P M A 2"
_symmetry_group_IT_number 28
_symmetry_cell_setting 'orthorhombic'
loop_
_space_group_symop_operation_xyz
x,y,z
-x,-y,z
1/2-x,y,z
1/2+x,-y,z
loop_
_atom_site_type_symbol
_atom_site_label
_atom_site_fract_x
_atom_site_fract_y
_atom_site_fract_z
Si Si1 0.339490 0.742297 0.846340
Si Si2 0.066706 0.384711 0.482280
Si Si3 0.660407 0.986002 0.115948
Si Si4 0.657043 0.671960 0.993878
Si Si5 0.424944 0.775590 0.342775
O O1 0.250000 0.691431 0.890023
O O2 0.371141 0.713533 0.567603
O O3 0.336786 0.907511 0.880670
O O4 0.400103 0.705379 0.073814
O O5 0.107460 0.380244 0.754887
O O6 0.000000 0.500000 0.467952
O O7 0.014542 0.249042 0.423133
O O8 0.129840 0.395442 0.257100
O O9 0.750000 0.985217 0.227903
O O10 0.641761 0.834542 0.028686
O O11 0.600442 0.066832 0.299384
O O12 0.750000 0.653594 0.948517
#
# Coordination Sequence:
#
# PCOD9339712 Si02
#       5
#     4   4   4   4   4
#     4   9  17  33  57  94 136 169 210 261 332 403
#     4  12  27  48  67  96 141 182 233 288 329 396
#     4   8  19  37  64  98 136 170 216 273 334 408
#     4  11  25  47  73  98 131 180 230 280 346 419
#     4  10  20  37  60  95 131 175 213 274 347 386
#
# _framework density 23.070741999999999
#
# number of rings (size 3 to 8) (size 9 to 14) (size 15 to 20)
#    1.200    0.800    0.000    3.600    2.800    0.800 
#    0.000    8.000    0.000    0.000    0.000    0.000 
#    0.000    0.000    0.000    0.000    0.000    0.000 
#
# Total GULP energy -111672.108075 kJ/mol
# GULP energy per Si atom -5583.605404 kJ/mol
# Density = 2.301823 g / cm^3
# Si number density = 23.070742 Si / 1000 Ang^3
#
#
#
# Elastic Constant Matrix: (Units=GPa)
#
#
# Indices 1 2 3 4 5 6 
#
# 1 64.2968 -2.1589 28.6708 0.0000 0.0000 0.0000
# 2 -2.1589 84.7774 2.6878 0.0000 0.0000 0.0000
# 3 28.6708 2.6878 128.3045 0.0000 0.0000 0.0000
# 4 0.0000 0.0000 0.0000 16.4185 0.0000 0.0000
# 5 0.0000 0.0000 0.0000 0.0000 45.0697 0.0000
# 6 0.0000 0.0000 0.0000 0.0000 0.0000 3867.2300
#
#
#
# Elastic Compliance Matrix: (Units=1/GPa)
#
#
# Indices 1 2 3 4 5 6 
#
# 1 0.017301 0.000564 -0.003878 0.000000 0.000000 0.000000
# 2 0.000564 0.011822 -0.000374 0.000000 0.000000 0.000000
# 3 -0.003878 -0.000374 0.008668 0.000000 0.000000 0.000000
# 4 0.000000 0.000000 0.000000 0.060907 0.000000 0.000000
# 5 0.000000 0.000000 0.000000 0.000000 0.022188 0.000000
# 6 0.000000 0.000000 0.000000 0.000000 0.000000 0.000259
#
#
# Mechanical properties :
#
#
# Convention : Reuss Voigt Hill
#
# Bulk Modulus (GPa) = 32.87820 37.30866 35.09343
# Shear Modulus (GPa) = 36.05975 802.28890 419.17432
#
# Velocity S-wave (km/s) = 3.95778 18.66833 13.49390
# Velocity P-wave (km/s) = 5.93020 21.92902 16.06315
#
# Compressibility (1/GPa) = 0.03041529
#
# Stress axis : x y z
#
# Youngs Moduli (GPa) = 57.80016 84.58951 115.36249
#
# Poissons Ratio (x) = -0.04767 0.44736
# Poissons Ratio (y) = -0.03257 0.04310
# Poissons Ratio (z) = 0.22414 0.03160
#
# Static dielectric constant tensor:
#      x y z
#    x 1.858240 0.000000 0.000000 
#    y 0.000000 1.948290 0.000000 
#    z 0.000000 0.000000 1.809600 
# 
# From -- ./inp_files/708.got.cif
#   From: 2010.05.17/outbox.cif.g08.bks.cpg/sg28_1_cif.got.tgz:708.got - 2010.06.04 01:15:21.
