data_PCOD9339485
_publ_section_title
;
Structure prediction by ZEFSAII (Michael W. Deem and Ramdas Pophale) SiO2 
 PCOD9339485
Probable space group: P M A 2
;
_chemical_formula_sum "Si O2"
_cell_formula_units_Z 20
_cell_length_a 11.304909
_cell_length_b 7.176297
_cell_length_c 11.060458
_cell_angle_alpha 90.000000
_cell_angle_beta 90.000000
_cell_angle_gamma 90.000000
_cell_volume 897.306029
_symmetry_space_group_name_H-M "P M A 2"
_symmetry_group_IT_number 28
_symmetry_cell_setting 'orthorhombic'
loop_
_space_group_symop_operation_xyz
x,y,z
-x,-y,z
1/2-x,y,z
1/2+x,-y,z
loop_
_atom_site_type_symbol
_atom_site_label
_atom_site_fract_x
_atom_site_fract_y
_atom_site_fract_z
Si Si1 0.877158 0.770388 0.737530
Si Si2 0.623281 0.719265 0.024799
Si Si3 0.381909 0.623486 0.398970
Si Si4 0.622126 0.290710 0.117114
Si Si5 0.122265 0.802355 0.646586
O O1 0.750000 0.694615 0.692229
O O2 0.004901 0.702689 0.693887
O O3 0.877519 0.986513 0.694844
O O4 0.877118 0.747684 0.881378
O O5 0.750000 0.791120 0.072685
O O6 0.622969 0.500888 0.062446
O O7 0.499654 0.796824 0.072700
O O8 0.500000 0.500000 0.415954
O O9 0.250000 0.530739 0.411859
O O10 0.384874 0.695502 0.261919
O O11 0.383973 0.782332 0.501659
O O12 0.750000 0.209168 0.081659
O O13 0.250000 0.723784 0.686043
#
# Coordination Sequence:
#
# PCOD9339485 Si02
#       5
#     4   4   4   4   4
#     4   9  18  34  55  77 105 144 188 228 266 320
#     4   9  16  29  51  77 106 139 177 222 270 321
#     4  10  19  33  54  81 114 145 179 225 276 329
#     4   9  17  30  50  79 110 140 174 219 275 328
#     4   9  19  35  54  77 107 145 186 226 272 323
#
# _framework density 22.288941999999999
#
# number of rings (size 3 to 8) (size 9 to 14) (size 15 to 20)
#    0.000    2.800    2.000    0.000    0.000    1.600 
#    3.600    0.000    0.000    4.800    0.000   25.200 
#    0.000    0.000    0.000    0.000    0.000    0.000 
#
# Total GULP energy -111350.927579 kJ/mol
# GULP energy per Si atom -5567.546379 kJ/mol
# Density = 2.223821 g / cm^3
# Si number density = 22.288942 Si / 1000 Ang^3
#
#
#
# Elastic Constant Matrix: (Units=GPa)
#
#
# Indices 1 2 3 4 5 6 
#
# 1 303.3931 21.9627 54.5581 0.0000 0.0000 0.0000
# 2 21.9627 99.8693 29.5159 0.0000 0.0000 0.0000
# 3 54.5581 29.5159 113.6427 0.0000 0.0000 0.0000
# 4 0.0000 0.0000 0.0000 6.5836 0.0000 0.0000
# 5 0.0000 0.0000 0.0000 0.0000 36.1816 0.0000
# 6 0.0000 0.0000 0.0000 0.0000 0.0000 -17.3834
#
#
#
# Elastic Compliance Matrix: (Units=1/GPa)
#
#
# Indices 1 2 3 4 5 6 
#
# 1 0.003616 -0.000306 -0.001657 0.000000 0.000000 0.000000
# 2 -0.000306 0.010871 -0.002677 0.000000 0.000000 0.000000
# 3 -0.001657 -0.002677 0.010290 0.000000 0.000000 0.000000
# 4 0.000000 0.000000 0.000000 0.151891 0.000000 0.000000
# 5 0.000000 0.000000 0.000000 0.000000 0.027638 0.000000
# 6 0.000000 0.000000 0.000000 0.000000 0.000000 -0.057526
#
#
# Mechanical properties :
#
#
# Convention : Reuss Voigt Hill
#
# Bulk Modulus (GPa) = 64.51885 80.99761 72.75823
# Shear Modulus (GPa) = 31.01235 32.46760 31.73997
#
# Velocity S-wave (km/s) = 3.73417 3.82077 3.77772
# Velocity P-wave (km/s) = 6.89938 7.47550 7.19321
#
# Compressibility (1/GPa) = 0.01549935
#
# Stress axis : x y z
#
# Youngs Moduli (GPa) = 276.54210 91.98422 97.18088
#
# Poissons Ratio (x) = 0.02811 0.16099
# Poissons Ratio (y) = 0.08451 0.26014
# Poissons Ratio (z) = 0.45813 0.24623
#
# Static dielectric constant tensor:
#      x y z
#    x 1.941060 0.000000 0.000000 
#    y 0.000000 1.777880 0.000000 
#    z 0.000000 0.000000 1.768840 
# 
# From -- ./inp_files/2910.got.cif
#   From: 2010.05.17/outbox.cif.g08.bks.cpg/sg28_2_cif.got.tgz:2910.got - 2010.06.04 01:15:21.
