data_PCOD9339933
_publ_section_title
;
Structure prediction by ZEFSAII (Michael W. Deem and Ramdas Pophale) SiO2 
 PCOD9339933
Probable space group: P M A 2
;
_chemical_formula_sum "Si O2"
_cell_formula_units_Z 32
_cell_length_a 7.595557
_cell_length_b 12.957789
_cell_length_c 13.167097
_cell_angle_alpha 90.000000
_cell_angle_beta 90.000000
_cell_angle_gamma 90.000000
_cell_volume 1295.927083
_symmetry_space_group_name_H-M "P M A 2"
_symmetry_group_IT_number 28
_symmetry_cell_setting 'orthorhombic'
loop_
_space_group_symop_operation_xyz
x,y,z
-x,-y,z
1/2-x,y,z
1/2+x,-y,z
loop_
_atom_site_type_symbol
_atom_site_label
_atom_site_fract_x
_atom_site_fract_y
_atom_site_fract_z
Si Si1 0.960033 0.388903 0.809000
Si Si2 0.951857 0.342090 0.370782
Si Si3 0.960462 0.388907 0.151462
Si Si4 0.036466 0.837811 0.095669
Si Si5 0.533960 0.331633 0.587699
Si Si6 0.965374 0.165151 0.877583
Si Si7 0.050662 0.114831 0.322837
Si Si8 0.459757 0.890161 0.656603
O O1 0.750000 0.379588 0.804470
O O2 0.025723 0.384345 0.692064
O O3 0.019491 0.285369 0.865007
O O4 0.000000 0.500000 0.854458
O O5 0.750000 0.377926 0.371584
O O6 0.034604 0.382881 0.266666
O O7 0.031210 0.371125 0.479344
O O8 0.948809 0.216595 0.360360
O O9 0.750000 0.380731 0.157259
O O10 0.015417 0.283503 0.098014
O O11 0.000000 0.500000 0.105708
O O12 0.250000 0.845765 0.101593
O O13 0.964969 0.884416 0.199710
O O14 0.975804 0.877996 0.986071
O O15 0.750000 0.335227 0.585430
O O16 0.478799 0.211876 0.599698
O O17 0.750000 0.161848 0.878983
O O18 0.027315 0.113397 0.773124
O O19 0.250000 0.134104 0.352525
O O20 0.000000 0.000000 0.357280
O O21 0.250000 0.880297 0.662453
O O22 0.500000 0.000000 0.609189
#
# Coordination Sequence:
#
# PCOD9339933 Si02
#       8
#     4   4   4   4   4   4   4   4
#     4   9  17  31  50  74 102 135 169 203 244 292
#     4   9  18  35  54  72  96 131 170 207 245 290
#     4   9  18  30  47  69  95 125 159 199 244 288
#     4   9  18  35  54  72  96 131 170 207 245 290
#     4   8  16  32  52  70  96 132 166 197 240 292
#     4   8  16  32  52  70  96 132 166 197 240 292
#     4  11  22  36  53  75 101 129 161 203 250 300
#     4   9  17  31  50  72  96 125 157 195 238 284
#
# _framework density 24.692747000000001
#
# number of rings (size 3 to 8) (size 9 to 14) (size 15 to 20)
#    0.000    3.000    0.000    3.375    0.000    4.000 
#    0.000    7.500    0.000    0.000    0.000    0.000 
#    0.000    0.000    0.000    0.000    0.000    0.000 
#
# Total GULP energy -178681.664924 kJ/mol
# GULP energy per Si atom -5583.802029 kJ/mol
# Density = 2.463655 g / cm^3
# Si number density = 24.692747 Si / 1000 Ang^3
#
#
#
# Elastic Constant Matrix: (Units=GPa)
#
#
# Indices 1 2 3 4 5 6 
#
# 1 58.2087 -12.5240 0.0424 0.0000 0.0000 0.0000
# 2 -12.5240 122.6990 -5.1969 0.0000 0.0000 0.0000
# 3 0.0424 -5.1969 117.9822 0.0000 0.0000 0.0000
# 4 0.0000 0.0000 0.0000 -16.9523 0.0000 0.0000
# 5 0.0000 0.0000 0.0000 0.0000 -0.4082 0.0000
# 6 0.0000 0.0000 0.0000 0.0000 0.0000 12.8268
#
#
#
# Elastic Compliance Matrix: (Units=1/GPa)
#
#
# Indices 1 2 3 4 5 6 
#
# 1 0.017566 0.001796 0.000073 0.000000 0.000000 0.000000
# 2 0.001796 0.008349 0.000367 0.000000 0.000000 0.000000
# 3 0.000073 0.000367 0.008492 0.000000 0.000000 0.000000
# 4 0.000000 0.000000 0.000000 -0.058989 0.000000 0.000000
# 5 0.000000 0.000000 0.000000 0.000000 -2.449737 0.000000
# 6 0.000000 0.000000 0.000000 0.000000 0.000000 0.077962
#
#
# Mechanical properties :
#
#
# Convention : Reuss Voigt Hill
#
# Bulk Modulus (GPa) = 25.72097 29.28143 27.50120
# Shear Modulus (GPa) = -2.09392 20.19782 9.05195
#
# Velocity S-wave (km/s) = -0.92186 2.86311 1.91671
# Velocity P-wave (km/s) = 3.05056 4.77639 4.00748
#
# Compressibility (1/GPa) = 0.03887878
#
# Stress axis : x y z
#
# Youngs Moduli (GPa) = 56.92834 119.77624 117.75791
#
# Poissons Ratio (x) = -0.21513 -0.00857
# Poissons Ratio (y) = -0.10225 -0.04323
# Poissons Ratio (z) = -0.00414 -0.04397
#
# Static dielectric constant tensor:
#      x y z
#    x 1.946290 0.000000 0.000000 
#    y 0.000000 1.949920 0.000000 
#    z 0.000000 0.000000 1.972320 
# 
# From -- ./inp_files/6345.got.cif
#   From: 2010.05.17/outbox.cif.g08.bks.cpg/sg28_4_cif.got.tgz:6345.got - 2010.06.04 01:15:21.
