data_PCOD9339804
_publ_section_title
;
Structure prediction by ZEFSAII (Michael W. Deem and Ramdas Pophale) SiO2 
 PCOD9339804
Probable space group: P M A 2
;
_chemical_formula_sum "Si O2"
_cell_formula_units_Z 32
_cell_length_a 29.318578
_cell_length_b 6.498649
_cell_length_c 7.740994
_cell_angle_alpha 90.000000
_cell_angle_beta 90.000000
_cell_angle_gamma 90.000000
_cell_volume 1474.900470
_symmetry_space_group_name_H-M "P M A 2"
_symmetry_group_IT_number 28
_symmetry_cell_setting 'orthorhombic'
loop_
_space_group_symop_operation_xyz
x,y,z
-x,-y,z
1/2-x,y,z
1/2+x,-y,z
loop_
_atom_site_type_symbol
_atom_site_label
_atom_site_fract_x
_atom_site_fract_y
_atom_site_fract_z
Si Si1 0.883935 0.703370 0.936770
Si Si2 0.356710 0.912481 0.718984
Si Si3 0.543924 0.384281 0.898675
Si Si4 0.434290 0.634749 0.544400
Si Si5 0.895859 0.735076 0.326353
Si Si6 0.302357 0.243122 0.500188
Si Si7 0.046801 0.882060 0.224040
Si Si8 0.302083 0.533820 0.826526
O O1 0.883199 0.921491 0.839420
O O2 0.916013 0.540365 0.840780
O O3 0.832344 0.624064 0.934981
O O4 0.903454 0.673331 0.128068
O O5 0.321265 0.047119 0.607290
O O6 0.390416 0.775393 0.600825
O O7 0.327312 0.751491 0.829087
O O8 0.500000 0.500000 0.971952
O O9 0.531841 0.312646 0.705131
O O10 0.560147 0.223412 0.042131
O O11 0.417341 0.410602 0.473436
O O12 0.459062 0.714439 0.371791
O O13 0.841591 0.730426 0.358823
O O14 0.917262 0.961561 0.311225
O O15 0.250000 0.215467 0.443661
O O16 0.303377 0.436202 0.633067
O O17 0.000000 0.000000 0.189562
O O18 0.250000 0.547484 0.881392
#
# Coordination Sequence:
#
# PCOD9339804 Si02
#       8
#     4   4   4   4   4   4   4   4
#     4  11  24  41  70  97 142 178 230 292 351 419
#     4  11  20  42  69  99 131 184 229 282 356 409
#     4  12  27  48  72 102 141 185 237 292 357 428
#     4  12  25  44  75 102 138 187 231 289 358 424
#     4  12  24  44  70  98 142 179 229 293 352 423
#     4  10  21  38  64  99 134 180 235 288 343 418
#     4  12  29  47  72 104 143 182 236 295 360 423
#     4  10  21  40  66  96 134 181 235 288 347 416
#
# _framework density 21.696379
#
# number of rings (size 3 to 8) (size 9 to 14) (size 15 to 20)
#    0.000    0.750    5.000    2.625    1.750    1.500 
#    0.000    0.000    0.000    0.000    0.000    0.000 
#    0.000    0.000    0.000    0.000    0.000    0.000 
#
# Total GULP energy -178381.398522 kJ/mol
# GULP energy per Si atom -5574.418704 kJ/mol
# Density = 2.164700 g / cm^3
# Si number density = 21.696379 Si / 1000 Ang^3
#
#
#
# Elastic Constant Matrix: (Units=GPa)
#
#
# Indices 1 2 3 4 5 6 
#
# 1 79.1222 39.9040 0.0553 0.0000 0.0000 0.0000
# 2 39.9040 104.6523 40.7825 0.0000 0.0000 0.0000
# 3 0.0553 40.7825 109.3990 0.0000 0.0000 0.0000
# 4 0.0000 0.0000 0.0000 36.4868 0.0000 0.0000
# 5 0.0000 0.0000 0.0000 0.0000 24.9747 0.0000
# 6 0.0000 0.0000 0.0000 0.0000 0.0000 35.4424
#
#
#
# Elastic Compliance Matrix: (Units=1/GPa)
#
#
# Indices 1 2 3 4 5 6 
#
# 1 0.016303 -0.007269 0.002702 0.000000 0.000000 0.000000
# 2 -0.007269 0.014421 -0.005372 0.000000 0.000000 0.000000
# 3 0.002702 -0.005372 0.011142 0.000000 0.000000 0.000000
# 4 0.000000 0.000000 0.000000 0.027407 0.000000 0.000000
# 5 0.000000 0.000000 0.000000 0.000000 0.040040 0.000000
# 6 0.000000 0.000000 0.000000 0.000000 0.000000 0.028215
#
#
# Mechanical properties :
#
#
# Convention : Reuss Voigt Hill
#
# Bulk Modulus (GPa) = 45.48281 50.51746 48.00013
# Shear Modulus (GPa) = 30.35157 33.54291 31.94724
#
# Velocity S-wave (km/s) = 3.74428 3.93620 3.84144
# Velocity P-wave (km/s) = 6.30092 6.63269 6.46894
#
# Compressibility (1/GPa) = 0.02198633
#
# Stress axis : x y z
#
# Youngs Moduli (GPa) = 61.33904 69.34491 89.74925
#
# Poissons Ratio (x) = 0.50407 -0.24246
# Poissons Ratio (y) = 0.44588 0.48215
# Poissons Ratio (z) = -0.16571 0.37253
#
# Static dielectric constant tensor:
#      x y z
#    x 1.841320 0.000000 0.000000 
#    y 0.000000 1.934230 0.000000 
#    z 0.000000 0.000000 1.898600 
# 
# From -- ./inp_files/4370.got.cif
#   From: 2010.05.17/outbox.cif.g08.bks.cpg/sg28_3_cif.got.tgz:4370.got - 2010.06.04 01:15:21.
