data_PCOD9339408
_publ_section_title
;
Structure prediction by ZEFSAII (Michael W. Deem and Ramdas Pophale) SiO2 
 PCOD9339408
Probable space group: P M A 2
;
_chemical_formula_sum "Si O2"
_cell_formula_units_Z 32
_cell_length_a 9.316197
_cell_length_b 21.515807
_cell_length_c 7.432747
_cell_angle_alpha 90.000000
_cell_angle_beta 90.000000
_cell_angle_gamma 90.000000
_cell_volume 1489.860664
_symmetry_space_group_name_H-M "P M A 2"
_symmetry_group_IT_number 28
_symmetry_cell_setting 'orthorhombic'
loop_
_space_group_symop_operation_xyz
x,y,z
-x,-y,z
1/2-x,y,z
1/2+x,-y,z
loop_
_atom_site_type_symbol
_atom_site_label
_atom_site_fract_x
_atom_site_fract_y
_atom_site_fract_z
Si Si1 0.081878 0.562772 0.640900
Si Si2 0.578213 0.688258 0.631662
Si Si3 0.083419 0.062824 0.670210
Si Si4 0.078569 0.689684 0.258988
Si Si5 0.912676 0.441007 0.200286
Si Si6 0.593115 0.172455 0.126120
Si Si7 0.410888 0.059505 0.110093
Si Si8 0.086803 0.815734 0.701647
O O1 0.250000 0.563902 0.692459
O O2 0.079296 0.561689 0.420110
O O3 0.000000 0.500000 0.697962
O O4 0.998245 0.625010 0.700639
O O5 0.750000 0.687615 0.657593
O O6 0.532085 0.688345 0.422385
O O7 0.503881 0.752103 0.696045
O O8 0.250000 0.063682 0.612708
O O9 0.997686 0.125661 0.618280
O O10 0.086907 0.061697 0.890684
O O11 0.000000 0.000000 0.615409
O O12 0.250000 0.683759 0.312615
O O13 0.046347 0.628519 0.141782
O O14 0.063166 0.756254 0.169603
O O15 0.750000 0.451697 0.148324
O O16 0.000000 0.500000 0.138007
O O17 0.750000 0.156078 0.200537
O O18 0.476569 0.122973 0.183542
O O19 0.601257 0.168093 0.911271
O O20 0.250000 0.051946 0.169337
O O21 0.500000 0.000000 0.165746
O O22 0.250000 0.806740 0.629798
#
# Coordination Sequence:
#
# PCOD9339408 Si02
#       8
#     4   4   4   4   4   4   4   4
#     4   9  16  28  46  69  95 123 157 200 243 283
#     4  11  21  32  48  72 100 131 164 199 239 287
#     4   9  16  27  44  68  95 123 156 197 239 282
#     4   9  18  33  50  70  96 126 159 198 242 289
#     4   8  14  24  41  64  90 117 148 187 230 272
#     4   9  18  32  51  72  95 125 161 199 243 288
#     4   9  16  26  43  67  95 123 155 195 236 278
#     4  10  19  32  50  72  97 128 163 201 243 287
#
# _framework density 21.478518999999999
#
# number of rings (size 3 to 8) (size 9 to 14) (size 15 to 20)
#    0.000    2.750    0.000    3.375    0.000    7.000 
#    0.000    0.000    0.000    1.500    0.000    3.500 
#    0.000    0.000    0.000    0.000    0.000    0.000 
#
# Total GULP energy -178520.923211 kJ/mol
# GULP energy per Si atom -5578.778850 kJ/mol
# Density = 2.142963 g / cm^3
# Si number density = 21.478519 Si / 1000 Ang^3
#
#
#
# Elastic Constant Matrix: (Units=GPa)
#
#
# Indices 1 2 3 4 5 6 
#
# 1 194.0231 135.7750 13.2270 0.0000 0.0000 0.0000
# 2 135.7750 210.9998 -3.7459 0.0000 0.0000 0.0000
# 3 13.2270 -3.7459 46.4741 0.0000 0.0000 0.0000
# 4 0.0000 0.0000 0.0000 14.9678 0.0000 0.0000
# 5 0.0000 0.0000 0.0000 0.0000 10.6301 0.0000
# 6 0.0000 0.0000 0.0000 0.0000 0.0000 46.7618
#
#
#
# Elastic Compliance Matrix: (Units=1/GPa)
#
#
# Indices 1 2 3 4 5 6 
#
# 1 0.009863 -0.006406 -0.003324 0.000000 0.000000 0.000000
# 2 -0.006406 0.008907 0.002541 0.000000 0.000000 0.000000
# 3 -0.003324 0.002541 0.022668 0.000000 0.000000 0.000000
# 4 0.000000 0.000000 0.000000 0.066810 0.000000 0.000000
# 5 0.000000 0.000000 0.000000 0.000000 0.094072 0.000000
# 6 0.000000 0.000000 0.000000 0.000000 0.000000 0.021385
#
#
# Mechanical properties :
#
#
# Convention : Reuss Voigt Hill
#
# Bulk Modulus (GPa) = 36.95324 82.44548 59.69936
# Shear Modulus (GPa) = 20.23449 34.88800 27.56124
#
# Velocity S-wave (km/s) = 3.07266 4.03466 3.58606
# Velocity P-wave (km/s) = 5.46172 7.75713 6.70833
#
# Compressibility (1/GPa) = 0.02706123
#
# Stress axis : x y z
#
# Youngs Moduli (GPa) = 101.38487 112.27654 44.11488
#
# Poissons Ratio (x) = 0.71924 0.14662
# Poissons Ratio (y) = 0.64947 -0.11210
# Poissons Ratio (z) = 0.33696 -0.28531
#
# Static dielectric constant tensor:
#      x y z
#    x 1.741920 0.000000 0.000000 
#    y 0.000000 1.784590 0.000000 
#    z 0.000000 0.000000 1.850740 
# 
# From -- ./inp_files/5172.got.cif
#   From: 2010.05.17/outbox.cif.g08.bks.cpg/sg28_3_cif.got.tgz:5172.got - 2010.06.04 01:15:21.
