data_PCOD9339332
_publ_section_title
;
Structure prediction by ZEFSAII (Michael W. Deem and Ramdas Pophale) SiO2 
 PCOD9339332
Probable space group: P M A 2
;
_chemical_formula_sum "Si O2"
_cell_formula_units_Z 32
_cell_length_a 8.209240
_cell_length_b 14.747726
_cell_length_c 16.304415
_cell_angle_alpha 90.000000
_cell_angle_beta 90.000000
_cell_angle_gamma 90.000000
_cell_volume 1973.936755
_symmetry_space_group_name_H-M "P M A 2"
_symmetry_group_IT_number 28
_symmetry_cell_setting 'orthorhombic'
loop_
_space_group_symop_operation_xyz
x,y,z
-x,-y,z
1/2-x,y,z
1/2+x,-y,z
loop_
_atom_site_type_symbol
_atom_site_label
_atom_site_fract_x
_atom_site_fract_y
_atom_site_fract_z
Si Si1 0.442979 0.099675 0.782090
Si Si2 0.447294 0.604796 0.557183
Si Si3 0.053449 0.713659 0.715963
Si Si4 0.946612 0.396189 0.876305
Si Si5 0.947241 0.395193 0.198792
Si Si6 0.949476 0.288205 0.038735
Si Si7 0.555832 0.099815 0.970150
Si Si8 0.446346 0.604820 0.377983
O O1 0.250000 0.100401 0.784734
O O2 0.504233 0.182322 0.727093
O O3 0.505572 0.113514 0.875303
O O4 0.500000 0.000000 0.755137
O O5 0.500000 0.500000 0.567074
O O6 0.250000 0.605723 0.557780
O O7 0.505544 0.665325 0.633044
O O8 0.502441 0.639639 0.467059
O O9 0.250000 0.709474 0.715922
O O10 0.995183 0.658218 0.796092
O O11 0.750000 0.393156 0.875780
O O12 0.000000 0.500000 0.873762
O O13 0.001052 0.347274 0.959904
O O14 0.750000 0.394316 0.198123
O O15 0.004999 0.334745 0.122778
O O16 0.002356 0.360325 0.288899
O O17 0.000000 0.500000 0.188939
O O18 0.750000 0.288309 0.039653
O O19 0.003824 0.184967 0.023293
O O20 0.750000 0.100822 0.971996
O O21 0.500000 0.000000 0.996260
O O22 0.500000 0.500000 0.377967
O O23 0.250000 0.609807 0.377980
#
# Coordination Sequence:
#
# PCOD9339332 Si02
#       8
#     4   4   4   4   4   4   4   4
#     4  11  21  33  50  69  88 112 146 185 226 266
#     4   9  17  28  44  65  91 121 151 186 223 260
#     4  10  19  32  46  62  89 121 150 183 220 258
#     4  10  19  30  41  57  85 119 150 179 211 251
#     4   9  16  27  43  63  88 118 149 182 217 258
#     4   9  17  29  44  61  86 118 147 178 220 261
#     4  10  18  32  49  65  87 113 146 184 226 265
#     4   8  14  25  41  62  86 113 148 184 220 258
#
# _framework density 16.211259999999999
#
# number of rings (size 3 to 8) (size 9 to 14) (size 15 to 20)
#    0.000    2.500    1.250    3.000    0.000    1.000 
#    0.000    1.250    0.000    0.000    0.000    0.875 
#    0.000    2.000    0.000    0.000    0.000    0.500 
#
# Total GULP energy -178312.506826 kJ/mol
# GULP energy per Si atom -5572.265838 kJ/mol
# Density = 1.617436 g / cm^3
# Si number density = 16.211260 Si / 1000 Ang^3
#
#
#
# Elastic Constant Matrix: (Units=GPa)
#
#
# Indices 1 2 3 4 5 6 
#
# 1 12.5869 7.0980 16.2018 0.0000 0.0000 0.0000
# 2 7.0980 121.0015 86.7003 0.0000 0.0000 0.0000
# 3 16.2018 86.7003 166.2216 0.0000 0.0000 0.0000
# 4 0.0000 0.0000 0.0000 10.2209 0.0000 0.0000
# 5 0.0000 0.0000 0.0000 0.0000 7.1775 0.0000
# 6 0.0000 0.0000 0.0000 0.0000 0.0000 23.2097
#
#
#
# Elastic Compliance Matrix: (Units=1/GPa)
#
#
# Indices 1 2 3 4 5 6 
#
# 1 0.091045 0.001625 -0.009722 0.000000 0.000000 0.000000
# 2 0.001625 0.013225 -0.007057 0.000000 0.000000 0.000000
# 3 -0.009722 -0.007057 0.010644 0.000000 0.000000 0.000000
# 4 0.000000 0.000000 0.000000 0.097839 0.000000 0.000000
# 5 0.000000 0.000000 0.000000 0.000000 0.139324 0.000000
# 6 0.000000 0.000000 0.000000 0.000000 0.000000 0.043085
#
#
# Mechanical properties :
#
#
# Convention : Reuss Voigt Hill
#
# Bulk Modulus (GPa) = 11.81920 57.75670 34.78795
# Shear Modulus (GPa) = 11.02117 20.77562 15.89840
#
# Velocity S-wave (km/s) = 2.61022 3.58376 3.13501
# Velocity P-wave (km/s) = 4.04856 7.26838 5.88304
#
# Compressibility (1/GPa) = 0.08460810
#
# Stress axis : x y z
#
# Youngs Moduli (GPa) = 10.98355 75.61281 93.94621
#
# Poissons Ratio (x) = -0.12289 0.91335
# Poissons Ratio (y) = -0.01785 0.66295
# Poissons Ratio (z) = 0.10678 0.53357
#
# Static dielectric constant tensor:
#      x y z
#    x 1.557820 0.000000 0.000000 
#    y 0.000000 1.528100 0.000000 
#    z 0.000000 0.000000 1.578980 
# 
# From -- ./inp_files/6389.got.cif
#   From: 2010.05.17/outbox.cif.g08.bks.cpg/sg28_4_cif.got.tgz:6389.got - 2010.06.04 01:15:21.
