data_PCOD9339578
_publ_section_title
;
Structure prediction by ZEFSAII (Michael W. Deem and Ramdas Pophale) SiO2 
 PCOD9339578
Probable space group: P M A 2
;
_chemical_formula_sum "Si O2"
_cell_formula_units_Z 32
_cell_length_a 8.653734
_cell_length_b 9.162120
_cell_length_c 22.152624
_cell_angle_alpha 90.000000
_cell_angle_beta 90.000000
_cell_angle_gamma 90.000000
_cell_volume 1756.405116
_symmetry_space_group_name_H-M "P M A 2"
_symmetry_group_IT_number 28
_symmetry_cell_setting 'orthorhombic'
loop_
_space_group_symop_operation_xyz
x,y,z
-x,-y,z
1/2-x,y,z
1/2+x,-y,z
loop_
_atom_site_type_symbol
_atom_site_label
_atom_site_fract_x
_atom_site_fract_y
_atom_site_fract_z
Si Si1 0.064343 0.333776 0.449820
Si Si2 0.564976 0.163898 0.205632
Si Si3 0.064152 0.333738 0.711026
Si Si4 0.065973 0.664016 0.835293
Si Si5 0.064397 0.164316 0.949020
Si Si6 0.434855 0.165345 0.081901
Si Si7 0.064862 0.663888 0.325628
Si Si8 0.936183 0.665380 0.580383
O O1 0.250000 0.337743 0.445718
O O2 0.018698 0.268233 0.515327
O O3 0.000000 0.500000 0.450803
O O4 0.997382 0.268024 0.388273
O O5 0.750000 0.158221 0.202851
O O6 0.503506 0.232480 0.142945
O O7 0.517851 0.249933 0.265639
O O8 0.500000 0.000000 0.209602
O O9 0.250000 0.337246 0.715716
O O10 0.019169 0.268133 0.645460
O O11 0.000000 0.500000 0.709667
O O12 0.995414 0.267929 0.772253
O O13 0.250000 0.659184 0.833681
O O14 0.007049 0.748296 0.893794
O O15 0.000000 0.500000 0.838473
O O16 0.750000 0.838454 0.943967
O O17 0.025249 0.227692 0.015779
O O18 0.000000 0.000000 0.946908
O O19 0.750000 0.839955 0.087040
O O20 0.500000 0.000000 0.080753
O O21 0.250000 0.658407 0.328626
O O22 0.000000 0.500000 0.321488
O O23 0.750000 0.657234 0.580413
O O24 0.000000 0.500000 0.580344
#
# Coordination Sequence:
#
# PCOD9339578 Si02
#       8
#     4   4   4   4   4   4   4   4
#     4   9  15  24  39  60  87 120 154 190 232 277
#     4  10  20  33  51  73  96 122 157 195 233 277
#     4   9  15  25  40  60  89 122 155 194 236 281
#     4  11  21  33  49  71 100 133 165 200 242 289
#     4  10  20  35  54  77 100 126 160 198 239 286
#     4   9  17  30  51  74  96 121 153 192 235 278
#     4  10  20  32  46  68  96 127 158 191 233 281
#     4   8  14  22  35  57  84 115 152 190 231 275
#
# _framework density 18.219031000000001
#
# number of rings (size 3 to 8) (size 9 to 14) (size 15 to 20)
#    0.000    2.500    0.000    5.625    0.000    4.500 
#    0.000    0.625    0.000    1.500    0.000    0.875 
#    0.000    2.000    0.000    0.000    0.000    0.000 
#
# Total GULP energy -178184.734295 kJ/mol
# GULP energy per Si atom -5568.272947 kJ/mol
# Density = 1.817756 g / cm^3
# Si number density = 18.219031 Si / 1000 Ang^3
#
#
#
# Elastic Constant Matrix: (Units=GPa)
#
#
# Indices 1 2 3 4 5 6 
#
# 1 74.1329 11.0379 65.2774 0.0000 0.0000 0.0000
# 2 11.0379 15.7931 39.8600 0.0000 0.0000 0.0000
# 3 65.2774 39.8600 251.3999 0.0000 0.0000 0.0000
# 4 0.0000 0.0000 0.0000 103.4317 0.0000 0.0000
# 5 0.0000 0.0000 0.0000 0.0000 41.4224 0.0000
# 6 0.0000 0.0000 0.0000 0.0000 0.0000 13.0941
#
#
#
# Elastic Compliance Matrix: (Units=1/GPa)
#
#
# Indices 1 2 3 4 5 6 
#
# 1 0.017503 -0.001271 -0.004343 0.000000 0.000000 0.000000
# 2 -0.001271 0.105653 -0.016421 0.000000 0.000000 0.000000
# 3 -0.004343 -0.016421 0.007709 0.000000 0.000000 0.000000
# 4 0.000000 0.000000 0.000000 0.009668 0.000000 0.000000
# 5 0.000000 0.000000 0.000000 0.000000 0.024142 0.000000
# 6 0.000000 0.000000 0.000000 0.000000 0.000000 0.076370
#
#
# Mechanical properties :
#
#
# Convention : Reuss Voigt Hill
#
# Bulk Modulus (GPa) = 11.52158 63.74183 37.63170
# Shear Modulus (GPa) = 15.92111 46.59969 31.26040
#
# Velocity S-wave (km/s) = 2.95934 5.06290 4.14673
# Velocity P-wave (km/s) = 4.24436 8.32104 6.60508
#
# Compressibility (1/GPa) = 0.08679368
#
# Stress axis : x y z
#
# Youngs Moduli (GPa) = 57.13329 9.46491 129.71654
#
# Poissons Ratio (x) = 0.01203 0.56338
# Poissons Ratio (y) = 0.07263 2.13014
# Poissons Ratio (z) = 0.24814 0.15543
#
# Static dielectric constant tensor:
#      x y z
#    x 1.607080 0.000000 0.000000 
#    y 0.000000 1.598500 0.000000 
#    z 0.000000 0.000000 1.728640 
# 
# From -- ./inp_files/7198.got.cif
#   From: 2010.05.17/outbox.cif.g08.bks.cpg/sg28_4_cif.got.tgz:7198.got - 2010.06.04 01:15:21.
