data_PCOD9339358
_publ_section_title
;
Structure prediction by ZEFSAII (Michael W. Deem and Ramdas Pophale) SiO2 
 PCOD9339358
Probable space group: P M A 2
;
_chemical_formula_sum "Si O2"
_cell_formula_units_Z 32
_cell_length_a 21.429902
_cell_length_b 9.984023
_cell_length_c 5.686206
_cell_angle_alpha 90.000000
_cell_angle_beta 90.000000
_cell_angle_gamma 90.000000
_cell_volume 1216.601499
_symmetry_space_group_name_H-M "P M A 2"
_symmetry_group_IT_number 28
_symmetry_cell_setting 'orthorhombic'
loop_
_space_group_symop_operation_xyz
x,y,z
-x,-y,z
1/2-x,y,z
1/2+x,-y,z
loop_
_atom_site_type_symbol
_atom_site_label
_atom_site_fract_x
_atom_site_fract_y
_atom_site_fract_z
Si Si1 0.176778 0.592814 0.468110
Si Si2 0.915709 0.661137 0.451533
Si Si3 0.823660 0.403847 0.968443
Si Si4 0.953139 0.128021 0.749456
Si Si5 0.846179 0.921568 0.282915
Si Si6 0.184523 0.997148 0.786171
Si Si7 0.453585 0.870923 0.247807
Si Si8 0.443964 0.406661 0.952888
O O1 0.250000 0.555820 0.467915
O O2 0.134517 0.460168 0.469910
O O3 0.165521 0.665544 0.716273
O O4 0.166368 0.667480 0.220107
O O5 0.887545 0.793568 0.335995
O O6 0.934173 0.689821 0.724278
O O7 0.958455 0.620846 0.228464
O O8 0.750000 0.446011 0.968387
O O9 0.876040 0.519378 0.969507
O O10 0.960628 0.199861 0.498839
O O11 0.883556 0.068662 0.771022
O O12 0.962401 0.201487 0.998477
O O13 0.000000 0.000000 0.744290
O O14 0.817347 0.911164 0.022091
O O15 0.887446 0.055082 0.261046
O O16 0.810809 0.935560 0.529652
O O17 0.250000 0.916395 0.816060
O O18 0.500000 0.000000 0.243408
O O19 0.500000 0.500000 0.863593
#
# Coordination Sequence:
#
# PCOD9339358 Si02
#       8
#     4   4   4   4   4   4   4   4
#     4   8  14  23  35  50  70  98 132 161 185 222
#     4  10  19  30  42  59  82 111 145 178 214 260
#     4   8  14  25  39  55  74  97 128 163 195 238
#     4   8  14  25  40  56  77 110 148 185 223 262
#     4  10  19  30  42  59  86 119 150 186 221 262
#     4  10  19  29  41  61  89 121 156 193 227 260
#     4   8  14  25  41  58  76 104 142 179 215 256
#     4  10  19  31  46  62  82 112 144 181 222 256
#
# _framework density 26.302781
#
# number of rings (size 3 to 8) (size 9 to 14) (size 15 to 20)
#    0.000    3.000    0.000    1.500    0.000    1.000 
#    0.000    5.000    0.000    0.000    0.000    0.000 
#    0.000    0.000    0.000  108.000    0.000    9.000 
#
# Total GULP energy -178286.000243 kJ/mol
# GULP energy per Si atom -5571.437508 kJ/mol
# Density = 2.624291 g / cm^3
# Si number density = 26.302781 Si / 1000 Ang^3
#
#
#
# Elastic Constant Matrix: (Units=GPa)
#
#
# Indices 1 2 3 4 5 6 
#
# 1 77.8179 28.9976 32.8237 0.0000 0.0000 0.0000
# 2 28.9976 60.5079 28.6515 0.0000 0.0000 0.0000
# 3 32.8237 28.6515 356.0092 0.0000 0.0000 0.0000
# 4 0.0000 0.0000 0.0000 27.9873 0.0000 0.0000
# 5 0.0000 0.0000 0.0000 0.0000 84.0412 0.0000
# 6 0.0000 0.0000 0.0000 0.0000 0.0000 27.6519
#
#
#
# Elastic Compliance Matrix: (Units=1/GPa)
#
#
# Indices 1 2 3 4 5 6 
#
# 1 0.015909 -0.007204 -0.000887 0.000000 0.000000 0.000000
# 2 -0.007204 0.020444 -0.000981 0.000000 0.000000 0.000000
# 3 -0.000887 -0.000981 0.002970 0.000000 0.000000 0.000000
# 4 0.000000 0.000000 0.000000 0.035730 0.000000 0.000000
# 5 0.000000 0.000000 0.000000 0.000000 0.011899 0.000000
# 6 0.000000 0.000000 0.000000 0.000000 0.000000 0.036164
#
#
# Mechanical properties :
#
#
# Convention : Reuss Voigt Hill
#
# Bulk Modulus (GPa) = 47.21877 75.03117 61.12497
# Shear Modulus (GPa) = 33.71087 54.86024 44.28556
#
# Velocity S-wave (km/s) = 3.58389 4.57192 4.10772
# Velocity P-wave (km/s) = 5.92593 7.51384 6.76663
#
# Compressibility (1/GPa) = 0.02117802
#
# Stress axis : x y z
#
# Youngs Moduli (GPa) = 62.85664 48.91437 336.73937
#
# Poissons Ratio (x) = 0.35239 0.29869
# Poissons Ratio (y) = 0.45284 0.33037
# Poissons Ratio (z) = 0.05575 0.04799
#
# Static dielectric constant tensor:
#      x y z
#    x 2.282380 0.000000 0.000000 
#    y 0.000000 1.959400 0.000000 
#    z 0.000000 0.000000 2.166030 
# 
# From -- ./inp_files/1208.got.cif
#   From: 2010.05.17/outbox.cif.g08.bks.cpg/sg28_1_cif.got.tgz:1208.got - 2010.06.04 01:15:21.
