data_PCOD9339304
_publ_section_title
;
Structure prediction by ZEFSAII (Michael W. Deem and Ramdas Pophale) SiO2 
 PCOD9339304
Probable space group: P M A 2
;
_chemical_formula_sum "Si O2"
_cell_formula_units_Z 32
_cell_length_a 18.134296
_cell_length_b 8.610687
_cell_length_c 10.246371
_cell_angle_alpha 90.000000
_cell_angle_beta 90.000000
_cell_angle_gamma 90.000000
_cell_volume 1599.957991
_symmetry_space_group_name_H-M "P M A 2"
_symmetry_group_IT_number 28
_symmetry_cell_setting 'orthorhombic'
loop_
_space_group_symop_operation_xyz
x,y,z
-x,-y,z
1/2-x,y,z
1/2+x,-y,z
loop_
_atom_site_type_symbol
_atom_site_label
_atom_site_fract_x
_atom_site_fract_y
_atom_site_fract_z
Si Si1 0.084494 0.054676 0.527390
Si Si2 0.836379 0.782545 0.902794
Si Si3 0.414577 0.946846 0.811901
Si Si4 0.031676 0.825432 0.162904
Si Si5 0.995694 0.681903 0.883557
Si Si6 0.332087 0.322232 0.193364
Si Si7 0.334123 0.958100 0.272952
Si Si8 0.951468 0.641478 0.389277
O O1 0.129893 0.967327 0.415951
O O2 0.082800 0.238655 0.493780
O O3 0.110681 0.004312 0.670088
O O4 0.000000 0.000000 0.521520
O O5 0.750000 0.771138 0.858219
O O6 0.858975 0.966653 0.910954
O O7 0.840285 0.685275 0.037577
O O8 0.912845 0.726519 0.833227
O O9 0.500000 0.000000 0.838983
O O10 0.433420 0.764699 0.815812
O O11 0.005300 0.736777 0.034454
O O12 0.002023 0.743777 0.292481
O O13 0.118312 0.848279 0.180403
O O14 0.000000 0.000000 0.158791
O O15 0.000000 0.500000 0.874492
O O16 0.250000 0.374082 0.225184
O O17 0.338844 0.138351 0.227579
O O18 0.388984 0.411462 0.285496
O O19 0.250000 0.911947 0.277192
O O20 0.000000 0.500000 0.442367
#
# Coordination Sequence:
#
# PCOD9339304 Si02
#       8
#     4   4   4   4   4   4   4   4
#     4  10  18  37  56  77 107 150 202 246 275 341
#     4  10  19  35  58  86 117 157 202 244 290 350
#     4   9  20  36  59  81 107 150 205 252 284 343
#     4  12  18  34  57  81 116 153 191 236 284 351
#     4  11  22  37  59  90 121 153 193 247 305 359
#     4   9  17  30  51  81 114 149 186 229 285 347
#     4  10  18  30  53  82 110 147 195 241 282 330
#     4  11  20  32  56  85 113 150 186 236 295 343
#
# _framework density 20.000523999999999
#
# number of rings (size 3 to 8) (size 9 to 14) (size 15 to 20)
#    0.000    1.750    5.000    2.250    0.000    0.500 
#    0.000    7.500    0.000    0.000    0.000    0.000 
#    0.000    0.000    0.000    0.000    0.000    0.000 
#
# Total GULP energy -178157.058084 kJ/mol
# GULP energy per Si atom -5567.408065 kJ/mol
# Density = 1.995500 g / cm^3
# Si number density = 20.000524 Si / 1000 Ang^3
#
#
#
# Elastic Constant Matrix: (Units=GPa)
#
#
# Indices 1 2 3 4 5 6 
#
# 1 118.4095 18.9659 -1.9445 0.0000 0.0000 0.0000
# 2 18.9659 84.1234 16.4714 0.0000 0.0000 0.0000
# 3 -1.9445 16.4714 52.6106 0.0000 0.0000 0.0000
# 4 0.0000 0.0000 0.0000 11.7584 0.0000 0.0000
# 5 0.0000 0.0000 0.0000 0.0000 15.9009 0.0000
# 6 0.0000 0.0000 0.0000 0.0000 0.0000 15.8732
#
#
#
# Elastic Compliance Matrix: (Units=1/GPa)
#
#
# Indices 1 2 3 4 5 6 
#
# 1 0.008812 -0.002184 0.001010 0.000000 0.000000 0.000000
# 2 -0.002184 0.013205 -0.004215 0.000000 0.000000 0.000000
# 3 0.001010 -0.004215 0.020365 0.000000 0.000000 0.000000
# 4 0.000000 0.000000 0.000000 0.085045 0.000000 0.000000
# 5 0.000000 0.000000 0.000000 0.000000 0.062889 0.000000
# 6 0.000000 0.000000 0.000000 0.000000 0.000000 0.062999
#
#
# Mechanical properties :
#
#
# Convention : Reuss Voigt Hill
#
# Bulk Modulus (GPa) = 31.64378 35.79214 33.71796
# Shear Modulus (GPa) = 18.20637 23.48320 20.84479
#
# Velocity S-wave (km/s) = 3.02038 3.43027 3.23183
# Velocity P-wave (km/s) = 5.29334 5.79858 5.55171
#
# Compressibility (1/GPa) = 0.03160179
#
# Stress axis : x y z
#
# Youngs Moduli (GPa) = 113.48533 75.72854 49.10497
#
# Poissons Ratio (x) = 0.16541 -0.04957
# Poissons Ratio (y) = 0.24789 0.20698
# Poissons Ratio (z) = -0.11457 0.31920
#
# Static dielectric constant tensor:
#      x y z
#    x 1.743370 0.000000 0.000000 
#    y 0.000000 1.798430 0.000000 
#    z 0.000000 0.000000 1.767810 
# 
# From -- ./inp_files/5719.got.cif
#   From: 2010.05.17/outbox.cif.g08.bks.cpg/sg28_3_cif.got.tgz:5719.got - 2010.06.04 01:15:21.
