data_PCOD9339468
_publ_section_title
;
Structure prediction by ZEFSAII (Michael W. Deem and Ramdas Pophale) SiO2 
 PCOD9339468
Probable space group: P M A 2
;
_chemical_formula_sum "Si O2"
_cell_formula_units_Z 28
_cell_length_a 8.596056
_cell_length_b 9.470120
_cell_length_c 18.834696
_cell_angle_alpha 90.000000
_cell_angle_beta 90.000000
_cell_angle_gamma 90.000000
_cell_volume 1533.251270
_symmetry_space_group_name_H-M "P M A 2"
_symmetry_group_IT_number 28
_symmetry_cell_setting 'orthorhombic'
loop_
_space_group_symop_operation_xyz
x,y,z
-x,-y,z
1/2-x,y,z
1/2+x,-y,z
loop_
_atom_site_type_symbol
_atom_site_label
_atom_site_fract_x
_atom_site_fract_y
_atom_site_fract_z
Si Si1 0.436749 0.659387 0.790940
Si Si2 0.062064 0.341773 0.368839
Si Si3 0.563654 0.842321 0.662314
Si Si4 0.563253 0.841281 0.231924
Si Si5 0.062210 0.158129 0.502433
Si Si6 0.937396 0.339352 0.101306
Si Si7 0.062752 0.659726 0.945248
O O1 0.500000 0.500000 0.787316
O O2 0.250000 0.656733 0.788233
O O3 0.500031 0.745618 0.724733
O O4 0.485200 0.721239 0.868665
O O5 0.250000 0.346832 0.369299
O O6 0.013847 0.247078 0.301555
O O7 0.009660 0.264518 0.441155
O O8 0.000000 0.500000 0.363300
O O9 0.750000 0.843734 0.665043
O O10 0.515993 0.797201 0.582330
O O11 0.500000 0.000000 0.671960
O O12 0.750000 0.845412 0.230558
O O13 0.502899 0.758716 0.162939
O O14 0.500000 0.000000 0.234561
O O15 0.250000 0.151978 0.500364
O O16 0.000000 0.000000 0.489887
O O17 0.750000 0.343442 0.105294
O O18 0.000000 0.500000 0.108765
O O19 0.984570 0.283068 0.022516
O O20 0.250000 0.656357 0.945284
O O21 0.000000 0.500000 0.944789
#
# Coordination Sequence:
#
# PCOD9339468 Si02
#       7
#     4   4   4   4   4   4   4
#     4  10  19  33  53  78 107 139 177 219 264 312
#     4  10  22  38  56  80 108 137 172 213 257 307
#     4  10  20  35  54  77 106 140 178 218 263 314
#     4  11  23  38  56  79 107 140 177 216 262 313
#     4   9  19  36  56  78 104 136 174 214 258 310
#     4  10  19  34  56  81 108 138 175 218 263 311
#     4   8  16  30  50  75 103 136 173 214 260 311
#
# _framework density 18.261848000000001
#
# number of rings (size 3 to 8) (size 9 to 14) (size 15 to 20)
#    0.000    2.286    0.000    2.571    0.000    5.143 
#    0.000    2.143    0.000    0.000    0.000    0.000 
#    0.000    0.000    0.000    0.000    0.000    0.000 
#
# Total GULP energy -156161.105022 kJ/mol
# GULP energy per Si atom -5577.182322 kJ/mol
# Density = 1.822028 g / cm^3
# Si number density = 18.261848 Si / 1000 Ang^3
#
#
#
# Elastic Constant Matrix: (Units=GPa)
#
#
# Indices 1 2 3 4 5 6 
#
# 1 36.0149 29.7362 48.7806 0.0000 0.0000 0.0000
# 2 29.7362 108.5837 112.9371 0.0000 0.0000 0.0000
# 3 48.7806 112.9371 223.6159 0.0000 0.0000 0.0000
# 4 0.0000 0.0000 0.0000 -339.3598 0.0000 0.0000
# 5 0.0000 0.0000 0.0000 0.0000 27.0268 0.0000
# 6 0.0000 0.0000 0.0000 0.0000 0.0000 33.0039
#
#
#
# Elastic Compliance Matrix: (Units=1/GPa)
#
#
# Indices 1 2 3 4 5 6 
#
# 1 0.040210 -0.003978 -0.006762 0.000000 0.000000 0.000000
# 2 -0.003978 0.019794 -0.009129 0.000000 0.000000 0.000000
# 3 -0.006762 -0.009129 0.010558 0.000000 0.000000 0.000000
# 4 0.000000 0.000000 0.000000 -0.002947 0.000000 0.000000
# 5 0.000000 0.000000 0.000000 0.000000 0.037000 0.000000
# 6 0.000000 0.000000 0.000000 0.000000 0.000000 0.030299
#
#
# Mechanical properties :
#
#
# Convention : Reuss Voigt Hill
#
# Bulk Modulus (GPa) = 32.44369 83.45803 57.95086
# Shear Modulus (GPa) = 27.03731 -44.08177 -8.52223
#
# Velocity S-wave (km/s) = 3.85195 -4.91845 -2.16259
# Velocity P-wave (km/s) = 6.13088 3.68037 5.05633
#
# Compressibility (1/GPa) = 0.03082264
#
# Stress axis : x y z
#
# Youngs Moduli (GPa) = 24.86914 50.51991 94.71618
#
# Poissons Ratio (x) = 0.20098 0.64052
# Poissons Ratio (y) = 0.09894 0.86468
# Poissons Ratio (z) = 0.16818 0.46121
#
# Static dielectric constant tensor:
#      x y z
#    x 1.620400 0.000000 0.000000 
#    y 0.000000 1.579540 0.000000 
#    z 0.000000 0.000000 1.671090 
# 
# From -- ./inp_files/6712.got.cif
#   From: 2010.05.17/outbox.cif.g08.bks.cpg/sg28_4_cif.got.tgz:6712.got - 2010.06.04 01:15:21.
