data_PCOD9339310
_publ_section_title
;
Structure prediction by ZEFSAII (Michael W. Deem and Ramdas Pophale) SiO2 
 PCOD9339310
Probable space group: P M A 2
;
_chemical_formula_sum "Si O2"
_cell_formula_units_Z 32
_cell_length_a 8.644054
_cell_length_b 14.631440
_cell_length_c 15.967085
_cell_angle_alpha 90.000000
_cell_angle_beta 90.000000
_cell_angle_gamma 90.000000
_cell_volume 2019.436396
_symmetry_space_group_name_H-M "P M A 2"
_symmetry_group_IT_number 28
_symmetry_cell_setting 'orthorhombic'
loop_
_space_group_symop_operation_xyz
x,y,z
-x,-y,z
1/2-x,y,z
1/2+x,-y,z
loop_
_atom_site_type_symbol
_atom_site_label
_atom_site_fract_x
_atom_site_fract_y
_atom_site_fract_z
Si Si1 0.064371 0.214945 0.006350
Si Si2 0.936159 0.103232 0.500550
Si Si3 0.563038 0.209121 0.332721
Si Si4 0.564755 0.898084 0.172807
Si Si5 0.564248 0.401075 0.070609
Si Si6 0.564140 0.402141 0.266511
Si Si7 0.565056 0.896407 0.675271
Si Si8 0.565267 0.103245 0.850316
O O1 0.250000 0.212934 0.998814
O O2 0.019970 0.159948 0.090795
O O3 0.005822 0.317991 0.018391
O O4 0.989754 0.164624 0.927335
O O5 0.750000 0.098572 0.506016
O O6 0.981588 0.164012 0.420783
O O7 0.002707 0.142426 0.587700
O O8 0.000000 0.000000 0.489309
O O9 0.750000 0.207195 0.328203
O O10 0.499052 0.150159 0.255825
O O11 0.512593 0.313977 0.318951
O O12 0.750000 0.901193 0.176953
O O13 0.500000 0.000000 0.166147
O O14 0.500000 0.500000 0.045062
O O15 0.750000 0.399969 0.065738
O O16 0.519040 0.388113 0.168823
O O17 0.500000 0.500000 0.294139
O O18 0.750000 0.406226 0.268912
O O19 0.750000 0.897486 0.676113
O O20 0.500422 0.858016 0.762410
O O21 0.500000 0.000000 0.674675
O O22 0.750000 0.098109 0.846147
O O23 0.500000 0.000000 0.861183
#
# Coordination Sequence:
#
# PCOD9339310 Si02
#       8
#     4   4   4   4   4   4   4   4
#     4  11  22  35  50  73 100 132 171 207 248 298
#     4  10  19  31  48  70  98 130 165 203 244 291
#     4  10  20  34  50  70  98 131 167 205 246 293
#     4  11  23  34  47  66  96 134 170 203 239 286
#     4  10  19  33  53  73  98 129 166 211 256 298
#     4   9  18  32  50  71  95 126 163 207 252 293
#     4  10  18  31  50  71  97 127 162 204 248 292
#     4  11  21  34  52  74 101 133 168 206 250 297
#
# _framework density 15.846005
#
# number of rings (size 3 to 8) (size 9 to 14) (size 15 to 20)
#    0.000    1.750    1.250    6.000    0.000    5.500 
#    0.000    0.000    0.000    0.000    0.000    0.875 
#    0.000    2.000    0.000    0.000    0.000    0.000 
#
# Total GULP energy -178617.047706 kJ/mol
# GULP energy per Si atom -5581.782741 kJ/mol
# Density = 1.580994 g / cm^3
# Si number density = 15.846005 Si / 1000 Ang^3
#
#
#
# Elastic Constant Matrix: (Units=GPa)
#
#
# Indices 1 2 3 4 5 6 
#
# 1 72.5206 36.2803 53.5228 0.0000 0.0000 0.0000
# 2 36.2803 116.9719 70.4377 0.0000 0.0000 0.0000
# 3 53.5228 70.4377 147.6345 0.0000 0.0000 0.0000
# 4 0.0000 0.0000 0.0000 5.6573 0.0000 0.0000
# 5 0.0000 0.0000 0.0000 0.0000 30.9736 0.0000
# 6 0.0000 0.0000 0.0000 0.0000 0.0000 25.0925
#
#
#
# Elastic Compliance Matrix: (Units=1/GPa)
#
#
# Indices 1 2 3 4 5 6 
#
# 1 0.019330 -0.002491 -0.005819 0.000000 0.000000 0.000000
# 2 -0.002491 0.012316 -0.004973 0.000000 0.000000 0.000000
# 3 -0.005819 -0.004973 0.011256 0.000000 0.000000 0.000000
# 4 0.000000 0.000000 0.000000 0.176763 0.000000 0.000000
# 5 0.000000 0.000000 0.000000 0.000000 0.032286 0.000000
# 6 0.000000 0.000000 0.000000 0.000000 0.000000 0.039853
#
#
# Mechanical properties :
#
#
# Convention : Reuss Voigt Hill
#
# Bulk Modulus (GPa) = 61.21715 73.06762 67.14238
# Shear Modulus (GPa) = 15.44084 24.13708 19.78896
#
# Velocity S-wave (km/s) = 3.12497 3.90709 3.53771
# Velocity P-wave (km/s) = 7.19285 8.15874 7.69097
#
# Compressibility (1/GPa) = 0.01633529
#
# Stress axis : x y z
#
# Youngs Moduli (GPa) = 51.73196 81.19215 88.84220
#
# Poissons Ratio (x) = 0.20227 0.51700
# Poissons Ratio (y) = 0.12888 0.44182
# Poissons Ratio (z) = 0.30105 0.40378
#
# Static dielectric constant tensor:
#      x y z
#    x 1.532650 0.000000 0.000000 
#    y 0.000000 1.518240 0.000000 
#    z 0.000000 0.000000 1.540300 
# 
# From -- ./inp_files/6438.got.cif
#   From: 2010.05.17/outbox.cif.g08.bks.cpg/sg28_4_cif.got.tgz:6438.got - 2010.06.04 01:15:21.
