data_PCOD9339319
_publ_section_title
;
Structure prediction by ZEFSAII (Michael W. Deem and Ramdas Pophale) SiO2 
 PCOD9339319
Probable space group: P M A 2
;
_chemical_formula_sum "Si O2"
_cell_formula_units_Z 32
_cell_length_a 8.514754
_cell_length_b 14.356498
_cell_length_c 13.387668
_cell_angle_alpha 90.000000
_cell_angle_beta 90.000000
_cell_angle_gamma 90.000000
_cell_volume 1636.535965
_symmetry_space_group_name_H-M "P M A 2"
_symmetry_group_IT_number 28
_symmetry_cell_setting 'orthorhombic'
loop_
_space_group_symop_operation_xyz
x,y,z
-x,-y,z
1/2-x,y,z
1/2+x,-y,z
loop_
_atom_site_type_symbol
_atom_site_label
_atom_site_fract_x
_atom_site_fract_y
_atom_site_fract_z
Si Si1 0.560509 0.606239 0.424870
Si Si2 0.436793 0.717767 0.615562
Si Si3 0.062199 0.104404 0.099317
Si Si4 0.058682 0.287820 0.005087
Si Si5 0.936771 0.895003 0.524082
Si Si6 0.560212 0.605436 0.203502
Si Si7 0.062274 0.893564 0.311389
Si Si8 0.061094 0.394462 0.805944
O O1 0.500000 0.500000 0.432065
O O2 0.750000 0.608038 0.431490
O O3 0.490102 0.663468 0.515948
O O4 0.512749 0.641196 0.313784
O O5 0.250000 0.721146 0.619911
O O6 0.504183 0.822103 0.605916
O O7 0.502490 0.662215 0.710143
O O8 0.250000 0.099731 0.104098
O O9 0.003298 0.143039 0.206647
O O10 0.013483 0.179581 0.016293
O O11 0.000000 0.000000 0.083957
O O12 0.250000 0.290202 0.004762
O O13 0.006187 0.341563 0.906481
O O14 0.005281 0.339272 0.106196
O O15 0.750000 0.898056 0.521091
O O16 0.997735 0.857432 0.416482
O O17 0.000000 0.000000 0.538054
O O18 0.500000 0.500000 0.196061
O O19 0.750000 0.605423 0.202293
O O20 0.250000 0.891479 0.311494
O O21 0.000000 0.000000 0.310821
O O22 0.250000 0.396398 0.805332
O O23 0.000000 0.500000 0.804068
#
# Coordination Sequence:
#
# PCOD9339319 Si02
#       8
#     4   4   4   4   4   4   4   4
#     4  10  20  35  57  85 119 157 196 242 304 367
#     4  12  25  41  61  88 120 156 205 253 302 360
#     4  10  19  34  55  82 118 160 202 248 297 352
#     4   9  20  37  60  86 115 154 199 245 301 364
#     4  11  22  39  61  88 122 161 202 248 301 358
#     4   9  18  34  55  83 115 150 187 233 295 360
#     4  10  18  31  51  81 117 159 201 243 290 345
#     4  11  23  43  67  91 118 153 201 254 311 367
#
# _framework density 19.553498000000001
#
# number of rings (size 3 to 8) (size 9 to 14) (size 15 to 20)
#    0.000    1.750    0.000    6.750    1.750    0.500 
#    0.000    5.000    0.000    1.500    0.000    0.000 
#    0.000    0.000    0.000    0.000    0.000    0.000 
#
# Total GULP energy -178754.578106 kJ/mol
# GULP energy per Si atom -5586.080566 kJ/mol
# Density = 1.950899 g / cm^3
# Si number density = 19.553498 Si / 1000 Ang^3
#
#
#
# Elastic Constant Matrix: (Units=GPa)
#
#
# Indices 1 2 3 4 5 6 
#
# 1 109.5932 40.3839 44.2779 0.0000 0.0000 0.0000
# 2 40.3839 141.1820 98.9604 0.0000 0.0000 0.0000
# 3 44.2779 98.9604 151.8988 0.0000 0.0000 0.0000
# 4 0.0000 0.0000 0.0000 39.5842 0.0000 0.0000
# 5 0.0000 0.0000 0.0000 0.0000 26.3318 0.0000
# 6 0.0000 0.0000 0.0000 0.0000 0.0000 25.1822
#
#
#
# Elastic Compliance Matrix: (Units=1/GPa)
#
#
# Indices 1 2 3 4 5 6 
#
# 1 0.010532 -0.001584 -0.002038 0.000000 0.000000 0.000000
# 2 -0.001584 0.013274 -0.008186 0.000000 0.000000 0.000000
# 3 -0.002038 -0.008186 0.012511 0.000000 0.000000 0.000000
# 4 0.000000 0.000000 0.000000 0.025263 0.000000 0.000000
# 5 0.000000 0.000000 0.000000 0.000000 0.037977 0.000000
# 6 0.000000 0.000000 0.000000 0.000000 0.000000 0.039711
#
#
# Mechanical properties :
#
#
# Convention : Reuss Voigt Hill
#
# Bulk Modulus (GPa) = 78.73967 85.54650 82.14308
# Shear Modulus (GPa) = 29.91919 32.82309 31.37114
#
# Velocity S-wave (km/s) = 3.91592 4.10155 4.00981
# Velocity P-wave (km/s) = 7.79757 8.14096 7.97112
#
# Compressibility (1/GPa) = 0.01270008
#
# Stress axis : x y z
#
# Youngs Moduli (GPa) = 94.95115 75.33365 79.93159
#
# Poissons Ratio (x) = 0.11933 0.16290
# Poissons Ratio (y) = 0.15040 0.65435
# Poissons Ratio (z) = 0.19351 0.61671
#
# Static dielectric constant tensor:
#      x y z
#    x 1.654270 0.000000 0.000000 
#    y 0.000000 1.630400 0.000000 
#    z 0.000000 0.000000 1.692070 
# 
# From -- ./inp_files/5076.got.cif
#   From: 2010.05.17/outbox.cif.g08.bks.cpg/sg28_3_cif.got.tgz:5076.got - 2010.06.04 01:15:21.
