data_PCOD9339809
_publ_section_title
;
Structure prediction by ZEFSAII (Michael W. Deem and Ramdas Pophale) SiO2 
 PCOD9339809
Probable space group: P M A 2
;
_chemical_formula_sum "Si O2"
_cell_formula_units_Z 32
_cell_length_a 18.726767
_cell_length_b 6.653957
_cell_length_c 13.149685
_cell_angle_alpha 90.000000
_cell_angle_beta 90.000000
_cell_angle_gamma 90.000000
_cell_volume 1638.544145
_symmetry_space_group_name_H-M "P M A 2"
_symmetry_group_IT_number 28
_symmetry_cell_setting 'orthorhombic'
loop_
_space_group_symop_operation_xyz
x,y,z
-x,-y,z
1/2-x,y,z
1/2+x,-y,z
loop_
_atom_site_type_symbol
_atom_site_label
_atom_site_fract_x
_atom_site_fract_y
_atom_site_fract_z
Si Si1 0.076082 0.118679 0.899780
Si Si2 0.078351 0.486482 0.019539
Si Si3 0.168275 0.597472 0.541662
Si Si4 0.580462 0.080602 0.420529
Si Si5 0.918414 0.544496 0.722789
Si Si6 0.574154 0.410689 0.247875
Si Si7 0.671201 0.702437 0.353472
Si Si8 0.666281 0.263817 0.868685
O O1 0.081180 0.269853 0.802468
O O2 0.138902 0.958679 0.888992
O O3 0.088861 0.248888 0.002691
O O4 0.000000 0.000000 0.902138
O O5 0.068293 0.600151 0.126344
O O6 0.000000 0.500000 0.965572
O O7 0.141879 0.599051 0.963158
O O8 0.250000 0.656942 0.571398
O O9 0.116651 0.784100 0.509863
O O10 0.130560 0.450270 0.622916
O O11 0.174567 0.466393 0.440226
O O12 0.584579 0.214699 0.316661
O O13 0.500000 0.000000 0.440814
O O14 0.627261 0.886398 0.397207
O O15 0.882272 0.355498 0.779559
O O16 0.000000 0.500000 0.694753
O O17 0.500000 0.500000 0.288358
O O18 0.632575 0.583608 0.263795
O O19 0.750000 0.769974 0.324877
O O20 0.750000 0.277507 0.848350
#
# Coordination Sequence:
#
# PCOD9339809 Si02
#       8
#     4   4   4   4   4   4   4   4
#     4  11  20  41  63  90 120 163 208 250 307 369
#     4  10  21  39  64  88 124 164 204 252 310 371
#     4  10  24  42  62  91 130 167 205 258 316 367
#     4  11  22  39  65  90 124 164 212 258 304 368
#     4  11  23  40  67  91 123 163 209 254 309 372
#     4  10  21  39  61  93 122 160 207 255 308 365
#     4  10  22  41  62  89 125 163 202 254 314 368
#     4  11  23  40  62  92 127 161 204 259 311 366
#
# _framework density 19.529533000000001
#
# number of rings (size 3 to 8) (size 9 to 14) (size 15 to 20)
#    0.000    1.500    3.750    1.500    1.750    5.500 
#    0.000    2.500    0.000    0.000    0.000    0.000 
#    0.000    0.000    0.000    0.000    0.000    0.000 
#
# Total GULP energy -178253.342052 kJ/mol
# GULP energy per Si atom -5570.416939 kJ/mol
# Density = 1.948508 g / cm^3
# Si number density = 19.529533 Si / 1000 Ang^3
#
#
#
# Elastic Constant Matrix: (Units=GPa)
#
#
# Indices 1 2 3 4 5 6 
#
# 1 154.6655 40.1492 13.1949 0.0000 0.0000 0.0000
# 2 40.1492 84.9773 1.2276 0.0000 0.0000 0.0000
# 3 13.1949 1.2276 38.5709 0.0000 0.0000 0.0000
# 4 0.0000 0.0000 0.0000 25.8858 0.0000 0.0000
# 5 0.0000 0.0000 0.0000 0.0000 22.6405 0.0000
# 6 0.0000 0.0000 0.0000 0.0000 0.0000 30.9843
#
#
#
# Elastic Compliance Matrix: (Units=1/GPa)
#
#
# Indices 1 2 3 4 5 6 
#
# 1 0.007601 -0.003555 -0.002487 0.000000 0.000000 0.000000
# 2 -0.003555 0.013436 0.000789 0.000000 0.000000 0.000000
# 3 -0.002487 0.000789 0.026752 0.000000 0.000000 0.000000
# 4 0.000000 0.000000 0.000000 0.038631 0.000000 0.000000
# 5 0.000000 0.000000 0.000000 0.000000 0.044169 0.000000
# 6 0.000000 0.000000 0.000000 0.000000 0.000000 0.032274
#
#
# Mechanical properties :
#
#
# Convention : Reuss Voigt Hill
#
# Bulk Modulus (GPa) = 26.82287 43.03969 34.93128
# Shear Modulus (GPa) = 26.91105 30.81159 28.86132
#
# Velocity S-wave (km/s) = 3.71612 3.97633 3.84843
# Velocity P-wave (km/s) = 5.67249 6.57021 6.13778
#
# Compressibility (1/GPa) = 0.03728162
#
# Stress axis : x y z
#
# Youngs Moduli (GPa) = 131.56855 74.42612 37.38042
#
# Poissons Ratio (x) = 0.26459 0.09296
# Poissons Ratio (y) = 0.46774 -0.02948
# Poissons Ratio (z) = 0.32721 -0.05869
#
# Static dielectric constant tensor:
#      x y z
#    x 1.709940 0.000000 0.000000 
#    y 0.000000 1.685450 0.000000 
#    z 0.000000 0.000000 1.740250 
# 
# From -- ./inp_files/6628.got.cif
#   From: 2010.05.17/outbox.cif.g08.bks.cpg/sg28_4_cif.got.tgz:6628.got - 2010.06.04 01:15:21.
