data_PCOD9339512
_publ_section_title
;
Structure prediction by ZEFSAII (Michael W. Deem and Ramdas Pophale) SiO2 
 PCOD9339512
Probable space group: P M A 2
;
_chemical_formula_sum "Si O2"
_cell_formula_units_Z 28
_cell_length_a 8.604904
_cell_length_b 14.839628
_cell_length_c 13.101252
_cell_angle_alpha 90.000000
_cell_angle_beta 90.000000
_cell_angle_gamma 90.000000
_cell_volume 1672.945696
_symmetry_space_group_name_H-M "P M A 2"
_symmetry_group_IT_number 28
_symmetry_cell_setting 'orthorhombic'
loop_
_space_group_symop_operation_xyz
x,y,z
-x,-y,z
1/2-x,y,z
1/2+x,-y,z
loop_
_atom_site_type_symbol
_atom_site_label
_atom_site_fract_x
_atom_site_fract_y
_atom_site_fract_z
Si Si1 0.063013 0.398575 0.521260
Si Si2 0.563640 0.902965 0.640911
Si Si3 0.560536 0.713743 0.320355
Si Si4 0.935144 0.283726 0.711646
Si Si5 0.062494 0.400604 0.128938
Si Si6 0.063054 0.096149 0.401572
Si Si7 0.563227 0.600047 0.894979
O O1 0.250000 0.400071 0.525423
O O2 0.015502 0.348683 0.416354
O O3 0.000000 0.500000 0.524414
O O4 0.001708 0.341188 0.616684
O O5 0.750000 0.901674 0.647067
O O6 0.494752 0.818239 0.700124
O O7 0.519140 0.892556 0.520976
O O8 0.500000 0.000000 0.674866
O O9 0.750000 0.715263 0.319625
O O10 0.508521 0.669687 0.214393
O O11 0.508232 0.815876 0.340808
O O12 0.750000 0.286034 0.708178
O O13 0.995354 0.330000 0.814702
O O14 0.250000 0.403679 0.131865
O O15 0.000000 0.500000 0.153538
O O16 0.017456 0.379102 0.012277
O O17 0.250000 0.093573 0.397838
O O18 0.000000 0.000000 0.365737
O O19 0.500000 0.500000 0.871343
O O20 0.750000 0.599135 0.888158
#
# Coordination Sequence:
#
# PCOD9339512 Si02
#       7
#     4   4   4   4   4   4   4
#     4  11  21  34  49  72 106 139 169 207 257 313
#     4  10  19  34  54  78 106 138 171 212 258 308
#     4   9  17  32  52  74 103 136 167 205 257 309
#     4  12  23  35  52  75 103 138 176 216 258 307
#     4   9  18  33  54  76 100 133 173 213 256 306
#     4   9  17  31  50  73 102 135 167 204 248 300
#     4  10  20  35  54  76 101 134 176 220 263 310
#
# _framework density 16.736944999999999
#
# number of rings (size 3 to 8) (size 9 to 14) (size 15 to 20)
#    0.000    2.000    1.429    3.429    0.000    1.143 
#    0.000    1.429    0.000    0.857    0.000    2.000 
#    0.000    0.000    0.000    0.000    0.000    0.000 
#
# Total GULP energy -156296.288738 kJ/mol
# GULP energy per Si atom -5582.010312 kJ/mol
# Density = 1.669885 g / cm^3
# Si number density = 16.736945 Si / 1000 Ang^3
#
#
#
# Elastic Constant Matrix: (Units=GPa)
#
#
# Indices 1 2 3 4 5 6 
#
# 1 49.8328 43.8326 31.9133 0.0000 0.0000 0.0000
# 2 43.8326 183.4250 98.0867 0.0000 0.0000 0.0000
# 3 31.9133 98.0867 105.2040 0.0000 0.0000 0.0000
# 4 0.0000 0.0000 0.0000 20.4278 0.0000 0.0000
# 5 0.0000 0.0000 0.0000 0.0000 -16.6515 0.0000
# 6 0.0000 0.0000 0.0000 0.0000 0.0000 31.1073
#
#
#
# Elastic Compliance Matrix: (Units=1/GPa)
#
#
# Indices 1 2 3 4 5 6 
#
# 1 0.026318 -0.004028 -0.004228 0.000000 0.000000 0.000000
# 2 -0.004028 0.011489 -0.009490 0.000000 0.000000 0.000000
# 3 -0.004228 -0.009490 0.019636 0.000000 0.000000 0.000000
# 4 0.000000 0.000000 0.000000 0.048953 0.000000 0.000000
# 5 0.000000 0.000000 0.000000 0.000000 -0.060055 0.000000
# 6 0.000000 0.000000 0.000000 0.000000 0.000000 0.032147
#
#
# Mechanical properties :
#
#
# Convention : Reuss Voigt Hill
#
# Bulk Modulus (GPa) = 45.55619 76.23635 60.89627
# Shear Modulus (GPa) = 41.22119 17.95199 29.58659
#
# Velocity S-wave (km/s) = 4.96813 3.27860 4.20901
# Velocity P-wave (km/s) = 7.75808 7.74474 7.75141
#
# Compressibility (1/GPa) = 0.02195091
#
# Stress axis : x y z
#
# Youngs Moduli (GPa) = 37.99711 87.03779 50.92764
#
# Poissons Ratio (x) = 0.35063 0.21530
# Poissons Ratio (y) = 0.15307 0.48330
# Poissons Ratio (z) = 0.16063 0.82599
#
# Static dielectric constant tensor:
#      x y z
#    x 1.564310 0.000000 0.000000 
#    y 0.000000 1.547520 0.000000 
#    z 0.000000 0.000000 1.556750 
# 
# From -- ./inp_files/4851.got.cif
#   From: 2010.05.17/outbox.cif.g08.bks.cpg/sg28_3_cif.got.tgz:4851.got - 2010.06.04 01:15:21.
