data_PCOD9339317
_publ_section_title
;
Structure prediction by ZEFSAII (Michael W. Deem and Ramdas Pophale) SiO2 
 PCOD9339317
Probable space group: P M A 2
;
_chemical_formula_sum "Si O2"
_cell_formula_units_Z 24
_cell_length_a 8.586033
_cell_length_b 9.423681
_cell_length_c 16.332544
_cell_angle_alpha 90.000000
_cell_angle_beta 90.000000
_cell_angle_gamma 90.000000
_cell_volume 1321.499389
_symmetry_space_group_name_H-M "P M A 2"
_symmetry_group_IT_number 28
_symmetry_cell_setting 'orthorhombic'
loop_
_space_group_symop_operation_xyz
x,y,z
-x,-y,z
1/2-x,y,z
1/2+x,-y,z
loop_
_atom_site_type_symbol
_atom_site_label
_atom_site_fract_x
_atom_site_fract_y
_atom_site_fract_z
Si Si1 0.936048 0.661787 0.204600
Si Si2 0.437132 0.838470 0.711575
Si Si3 0.063933 0.660666 0.033521
Si Si4 0.437644 0.840194 0.532054
Si Si5 0.437439 0.660283 0.375167
Si Si6 0.064075 0.160998 0.882025
O O1 0.750000 0.660100 0.203717
O O2 0.000000 0.500000 0.205138
O O3 0.000436 0.722994 0.119595
O O4 0.997878 0.723999 0.290004
O O5 0.250000 0.839407 0.719317
O O6 0.481052 0.779154 0.621967
O O7 0.509664 0.776267 0.794233
O O8 0.500000 0.000000 0.709067
O O9 0.250000 0.656724 0.036008
O O10 0.000000 0.500000 0.026292
O O11 0.004275 0.750292 0.956935
O O12 0.250000 0.846444 0.530736
O O13 0.488532 0.747748 0.454807
O O14 0.500000 0.000000 0.525293
O O15 0.500000 0.500000 0.382266
O O16 0.250000 0.657018 0.371052
O O17 0.250000 0.158123 0.885285
O O18 0.000000 0.000000 0.886761
#
# Coordination Sequence:
#
# PCOD9339317 Si02
#       6
#     4   4   4   4   4   4
#     4  10  18  31  51  75 100 133 171 208 249 303
#     4   9  16  30  50  73  99 133 171 210 251 301
#     4  11  21  36  56  79 105 136 171 213 257 306
#     4   9  19  33  52  75 102 132 169 211 254 300
#     4  10  19  33  51  75 102 133 169 209 252 300
#     4  11  21  35  54  79 106 137 173 213 257 306
#
# _framework density 18.161190000000001
#
# number of rings (size 3 to 8) (size 9 to 14) (size 15 to 20)
#    0.000    2.000    0.000    8.500    0.000    2.000 
#    0.000    1.667    0.000    4.000    0.000    0.000 
#    0.000    0.000    0.000    0.000    0.000    0.000 
#
# Total GULP energy -133849.147813 kJ/mol
# GULP energy per Si atom -5577.047826 kJ/mol
# Density = 1.811985 g / cm^3
# Si number density = 18.161190 Si / 1000 Ang^3
#
#
#
# Elastic Constant Matrix: (Units=GPa)
#
#
# Indices 1 2 3 4 5 6 
#
# 1 134.8179 21.0000 72.0343 0.0000 0.0000 0.0000
# 2 21.0000 35.0956 57.2785 0.0000 0.0000 0.0000
# 3 72.0343 57.2785 233.7947 0.0000 0.0000 0.0000
# 4 0.0000 0.0000 0.0000 86.6765 0.0000 0.0000
# 5 0.0000 0.0000 0.0000 0.0000 45.9870 0.0000
# 6 0.0000 0.0000 0.0000 0.0000 0.0000 16.7161
#
#
#
# Elastic Compliance Matrix: (Units=1/GPa)
#
#
# Indices 1 2 3 4 5 6 
#
# 1 0.008921 -0.001420 -0.002401 0.000000 0.000000 0.000000
# 2 -0.001420 0.047703 -0.011250 0.000000 0.000000 0.000000
# 3 -0.002401 -0.011250 0.007773 0.000000 0.000000 0.000000
# 4 0.000000 0.000000 0.000000 0.011537 0.000000 0.000000
# 5 0.000000 0.000000 0.000000 0.000000 0.021745 0.000000
# 6 0.000000 0.000000 0.000000 0.000000 0.000000 0.059822
#
#
# Mechanical properties :
#
#
# Convention : Reuss Voigt Hill
#
# Bulk Modulus (GPa) = 29.19100 78.25931 53.72515
# Shear Modulus (GPa) = 25.11778 46.76896 35.94337
#
# Velocity S-wave (km/s) = 3.72297 5.08016 4.45357
# Velocity P-wave (km/s) = 5.88123 8.80885 7.48948
#
# Compressibility (1/GPa) = 0.03425713
#
# Stress axis : x y z
#
# Youngs Moduli (GPa) = 112.09001 20.96294 128.64878
#
# Poissons Ratio (x) = 0.02976 0.30888
# Poissons Ratio (y) = 0.15914 1.44725
# Poissons Ratio (z) = 0.26912 0.23582
#
# Static dielectric constant tensor:
#      x y z
#    x 1.605060 0.000000 0.000000 
#    y 0.000000 -0.264860 0.000000 
#    z 0.000000 0.000000 1.692360 
# 
# From -- ./inp_files/6690.got.cif
#   From: 2010.05.17/outbox.cif.g08.bks.cpg/sg28_4_cif.got.tgz:6690.got - 2010.06.04 01:15:21.
