data_PCOD9339257
_publ_section_title
;
Structure prediction by ZEFSAII (Michael W. Deem and Ramdas Pophale) SiO2 
 PCOD9339257
Probable space group: P M A 2
;
_chemical_formula_sum "Si O2"
_cell_formula_units_Z 32
_cell_length_a 8.652308
_cell_length_b 9.163333
_cell_length_c 21.905420
_cell_angle_alpha 90.000000
_cell_angle_beta 90.000000
_cell_angle_gamma 90.000000
_cell_volume 1736.748869
_symmetry_space_group_name_H-M "P M A 2"
_symmetry_group_IT_number 28
_symmetry_cell_setting 'orthorhombic'
loop_
_space_group_symop_operation_xyz
x,y,z
-x,-y,z
1/2-x,y,z
1/2+x,-y,z
loop_
_atom_site_type_symbol
_atom_site_label
_atom_site_fract_x
_atom_site_fract_y
_atom_site_fract_z
Si Si1 0.435715 0.164409 0.796950
Si Si2 0.565236 0.666349 0.038022
Si Si3 0.434781 0.165386 0.662124
Si Si4 0.065152 0.163442 0.412087
Si Si5 0.935162 0.663530 0.289273
Si Si6 0.933988 0.166169 0.537726
Si Si7 0.065430 0.666284 0.163396
Si Si8 0.565587 0.336086 0.911876
O O1 0.250000 0.162482 0.803311
O O2 0.471886 0.227814 0.729200
O O3 0.511329 0.251302 0.852115
O O4 0.500000 0.000000 0.798719
O O5 0.500000 0.500000 0.037537
O O6 0.750000 0.662504 0.038765
O O7 0.503629 0.731064 0.974494
O O8 0.501492 0.733576 0.100977
O O9 0.250000 0.159365 0.655566
O O10 0.506067 0.234651 0.601080
O O11 0.500000 0.000000 0.664186
O O12 0.250000 0.157425 0.418537
O O13 0.026111 0.249950 0.350697
O O14 0.995237 0.231059 0.474192
O O15 0.000000 0.000000 0.406325
O O16 0.750000 0.658136 0.282231
O O17 0.000000 0.500000 0.295432
O O18 0.007456 0.730867 0.227501
O O19 0.750000 0.160692 0.537785
O O20 0.000000 0.000000 0.537470
O O21 0.250000 0.662130 0.160928
O O22 0.000000 0.500000 0.164733
O O23 0.500000 0.500000 0.907089
O O24 0.750000 0.340388 0.916537
#
# Coordination Sequence:
#
# PCOD9339257 Si02
#       8
#     4   4   4   4   4   4   4   4
#     4  10  20  34  52  76 103 134 168 205 249 297
#     4  10  17  28  46  69  97 126 161 204 246 289
#     4   9  16  27  45  68  96 125 159 201 243 285
#     4  10  20  33  50  72  99 129 163 200 242 289
#     4  10  20  33  50  73  99 129 162 199 242 289
#     4  10  17  26  44  68  95 124 159 200 243 285
#     4  10  17  27  45  69  96 125 159 200 243 286
#     4  11  21  34  52  75 103 134 168 207 250 298
#
# _framework density 18.425232000000001
#
# number of rings (size 3 to 8) (size 9 to 14) (size 15 to 20)
#    0.000    2.000    0.000    9.750    0.000    3.500 
#    0.000    0.000    0.000    1.500    0.000    7.000 
#    0.000    0.000    0.000    0.000    0.000    0.000 
#
# Total GULP energy -178431.677899 kJ/mol
# GULP energy per Si atom -5575.989934 kJ/mol
# Density = 1.838330 g / cm^3
# Si number density = 18.425232 Si / 1000 Ang^3
#
#
#
# Elastic Constant Matrix: (Units=GPa)
#
#
# Indices 1 2 3 4 5 6 
#
# 1 147.2202 15.7063 96.8508 0.0000 0.0000 0.0000
# 2 15.7063 16.1462 38.2684 0.0000 0.0000 0.0000
# 3 96.8508 38.2684 237.0022 0.0000 0.0000 0.0000
# 4 0.0000 0.0000 0.0000 22.8851 0.0000 0.0000
# 5 0.0000 0.0000 0.0000 0.0000 39.0615 0.0000
# 6 0.0000 0.0000 0.0000 0.0000 0.0000 13.8417
#
#
#
# Elastic Compliance Matrix: (Units=1/GPa)
#
#
# Indices 1 2 3 4 5 6 
#
# 1 0.009290 -0.000063 -0.003786 0.000000 0.000000 0.000000
# 2 -0.000063 0.100331 -0.016174 0.000000 0.000000 0.000000
# 3 -0.003786 -0.016174 0.008378 0.000000 0.000000 0.000000
# 4 0.000000 0.000000 0.000000 0.043697 0.000000 0.000000
# 5 0.000000 0.000000 0.000000 0.000000 0.025601 0.000000
# 6 0.000000 0.000000 0.000000 0.000000 0.000000 0.072246
#
#
# Mechanical properties :
#
#
# Convention : Reuss Voigt Hill
#
# Bulk Modulus (GPa) = 12.82851 78.00220 45.41536
# Shear Modulus (GPa) = 15.35751 31.79386 23.57568
#
# Velocity S-wave (km/s) = 2.89018 4.15849 3.58094
# Velocity P-wave (km/s) = 4.25618 8.09220 6.46525
#
# Compressibility (1/GPa) = 0.07795138
#
# Stress axis : x y z
#
# Youngs Moduli (GPa) = 107.64169 9.96702 119.35674
#
# Poissons Ratio (x) = 0.00063 0.45190
# Poissons Ratio (y) = 0.00682 1.93053
# Poissons Ratio (z) = 0.40755 0.16121
#
# Static dielectric constant tensor:
#      x y z
#    x 1.612070 0.000000 0.000000 
#    y 0.000000 1.619160 0.000000 
#    z 0.000000 0.000000 1.728520 
# 
# From -- ./inp_files/6943.got.cif
#   From: 2010.05.17/outbox.cif.g08.bks.cpg/sg28_4_cif.got.tgz:6943.got - 2010.06.04 01:15:21.
