data_PCOD9339537
_publ_section_title
;
Structure prediction by ZEFSAII (Michael W. Deem and Ramdas Pophale) SiO2 
 PCOD9339537
Probable space group: P M A 2
;
_chemical_formula_sum "Si O2"
_cell_formula_units_Z 20
_cell_length_a 8.736464
_cell_length_b 14.756466
_cell_length_c 7.892235
_cell_angle_alpha 90.000000
_cell_angle_beta 90.000000
_cell_angle_gamma 90.000000
_cell_volume 1017.461680
_symmetry_space_group_name_H-M "P M A 2"
_symmetry_group_IT_number 28
_symmetry_cell_setting 'orthorhombic'
loop_
_space_group_symop_operation_xyz
x,y,z
-x,-y,z
1/2-x,y,z
1/2+x,-y,z
loop_
_atom_site_type_symbol
_atom_site_label
_atom_site_fract_x
_atom_site_fract_y
_atom_site_fract_z
Si Si1 0.068009 0.899484 0.437220
Si Si2 0.067231 0.407315 0.625853
Si Si3 0.432550 0.207984 0.750802
Si Si4 0.933510 0.782298 0.130466
Si Si5 0.067120 0.594982 0.245956
O O1 0.250000 0.902724 0.422413
O O2 0.020572 0.847585 0.608567
O O3 0.999417 0.844136 0.279197
O O4 0.000000 0.000000 0.439740
O O5 0.250000 0.416785 0.605026
O O6 0.036569 0.315218 0.726792
O O7 0.000000 0.500000 0.701881
O O8 0.991083 0.396941 0.440547
O O9 0.250000 0.195315 0.723895
O O10 0.470343 0.181506 0.942925
O O11 0.750000 0.776610 0.146396
O O12 0.002467 0.682111 0.150764
O O13 0.250000 0.593251 0.242563
O O14 0.000000 0.500000 0.180285
#
# Coordination Sequence:
#
# PCOD9339537 Si02
#       5
#     4   4   4   4   4
#     4  12  26  45  70  95 124 163 206 260 320 378
#     4  10  19  34  58  88 125 167 210 256 307 365
#     4  10  23  42  66  94 128 168 208 259 314 371
#     4  11  23  42  66  95 130 167 210 259 313 374
#     4  11  21  35  58  90 126 171 215 258 310 366
#
# _framework density 19.656762000000001
#
# number of rings (size 3 to 8) (size 9 to 14) (size 15 to 20)
#    0.000    1.200    2.000    6.000    0.000    4.000 
#    0.000    2.000    0.000    0.000    0.000    0.000 
#    0.000    0.000    0.000    0.000    0.000    0.000 
#
# Total GULP energy -111865.693569 kJ/mol
# GULP energy per Si atom -5593.284678 kJ/mol
# Density = 1.961202 g / cm^3
# Si number density = 19.656762 Si / 1000 Ang^3
#
#
#
# Elastic Constant Matrix: (Units=GPa)
#
#
# Indices 1 2 3 4 5 6 
#
# 1 139.1011 75.7442 81.0345 0.0000 0.0000 0.0000
# 2 75.7442 134.9035 68.7650 0.0000 0.0000 0.0000
# 3 81.0345 68.7650 126.2344 0.0000 0.0000 0.0000
# 4 0.0000 0.0000 0.0000 -8.6911 0.0000 0.0000
# 5 0.0000 0.0000 0.0000 0.0000 10.9152 0.0000
# 6 0.0000 0.0000 0.0000 0.0000 0.0000 35.6186
#
#
#
# Elastic Compliance Matrix: (Units=1/GPa)
#
#
# Indices 1 2 3 4 5 6 
#
# 1 0.013015 -0.004221 -0.006056 0.000000 0.000000 0.000000
# 2 -0.004221 0.011631 -0.003626 0.000000 0.000000 0.000000
# 3 -0.006056 -0.003626 0.013785 0.000000 0.000000 0.000000
# 4 0.000000 0.000000 0.000000 -0.115060 0.000000 0.000000
# 5 0.000000 0.000000 0.000000 0.000000 0.091615 0.000000
# 6 0.000000 0.000000 0.000000 0.000000 0.000000 0.028075
#
#
# Mechanical properties :
#
#
# Convention : Reuss Voigt Hill
#
# Bulk Modulus (GPa) = 94.11753 94.59182 94.35468
# Shear Modulus (GPa) = 67.19639 19.21490 43.20564
#
# Velocity S-wave (km/s) = 5.85313 3.12993 4.69337
# Velocity P-wave (km/s) = 9.67798 7.82867 8.80203
#
# Compressibility (1/GPa) = 0.01062501
#
# Stress axis : x y z
#
# Youngs Moduli (GPa) = 76.83371 85.97648 72.54494
#
# Poissons Ratio (x) = 0.36289 0.43930
# Poissons Ratio (y) = 0.32430 0.26308
# Poissons Ratio (z) = 0.46528 0.31179
#
# Static dielectric constant tensor:
#      x y z
#    x 1.653280 0.000000 0.000000 
#    y 0.000000 1.703630 0.000000 
#    z 0.000000 0.000000 1.692060 
# 
# From -- ./inp_files/2369.got.cif
#   From: 2010.05.17/outbox.cif.g08.bks.cpg/sg28_2_cif.got.tgz:2369.got - 2010.06.04 01:15:21.
