data_PCOD9339984
_publ_section_title
;
Structure prediction by ZEFSAII (Michael W. Deem and Ramdas Pophale) SiO2 
 PCOD9339984
Probable space group: P C A 21
;
_chemical_formula_sum "Si O2"
_cell_formula_units_Z 28
_cell_length_a 13.262833
_cell_length_b 8.043546
_cell_length_c 8.973334
_cell_angle_alpha 90.000000
_cell_angle_beta 90.000000
_cell_angle_gamma 90.000000
_cell_volume 957.277132
_symmetry_space_group_name_H-M "P C A 21"
_symmetry_group_IT_number 29
_symmetry_cell_setting 'orthorhombic'
loop_
_space_group_symop_operation_xyz
x,y,z
-x,-y,1/2+z
1/2-x,y,1/2+z
1/2+x,-y,z
loop_
_atom_site_type_symbol
_atom_site_label
_atom_site_fract_x
_atom_site_fract_y
_atom_site_fract_z
Si Si1 0.422283 0.704226 0.154000
Si Si2 0.441656 0.327111 0.219199
Si Si3 0.845536 0.482510 0.782713
Si Si4 0.645366 0.713019 0.028078
Si Si5 0.821992 0.016703 0.711225
Si Si6 0.451589 0.195417 0.908752
Si Si7 0.731999 0.216424 0.956212
O O1 0.412744 0.505249 0.147376
O O2 0.529849 0.746709 0.080430
O O3 0.443043 0.749472 0.329103
O O4 0.334089 0.784075 0.060348
O O5 0.551683 0.374263 0.287115
O O6 0.364360 0.289772 0.351778
O O7 0.446978 0.195325 0.085961
O O8 0.827621 0.540987 0.612160
O O9 0.755908 0.379846 0.856030
O O10 0.873587 0.656099 0.862696
O O11 0.706195 0.859787 0.107389
O O12 0.740764 0.073182 0.831748
O O13 0.841789 0.160144 0.589194
O O14 0.914728 0.964831 0.818516
#
# Coordination Sequence:
#
# PCOD9339984 Si02
#       7
#     4   4   4   4   4   4   4
#     4   9  17  36  73 106 133 162 234 301 355 406
#     4  10  15  35  77 112 133 159 224 317 366 412
#     4   9  17  36  70 104 132 167 233 296 360 418
#     4   9  19  41  69 109 135 174 230 298 367 415
#     4  10  27  43  62  88 149 195 229 279 352 444
#     4   9  19  41  67 109 135 173 232 296 367 420
#     4  12  22  48  62  94 143 192 240 287 353 433
#
# _framework density 29.249628000000001
#
# number of rings (size 3 to 8) (size 9 to 14) (size 15 to 20)
#    0.000    2.857    2.857    2.571    0.000    1.143 
#   10.286    8.571    0.000    0.000    0.000    0.000 
#    0.000    0.000    0.000    0.000    0.000    0.000 
#
# Total GULP energy -156848.243243 kJ/mol
# GULP energy per Si atom -5601.722973 kJ/mol
# Density = 2.918305 g / cm^3
# Si number density = 29.249628 Si / 1000 Ang^3
#
#
#
# Elastic Constant Matrix: (Units=GPa)
#
#
# Indices 1 2 3 4 5 6 
#
# 1 93.7348 47.8911 42.0905 0.0000 0.0000 0.0000
# 2 47.8911 119.1825 74.0384 0.0000 0.0000 0.0000
# 3 42.0905 74.0384 253.9920 0.0000 0.0000 0.0000
# 4 0.0000 0.0000 0.0000 56.3127 0.0000 0.0000
# 5 0.0000 0.0000 0.0000 0.0000 47.6204 0.0000
# 6 0.0000 0.0000 0.0000 0.0000 0.0000 41.2350
#
#
#
# Elastic Compliance Matrix: (Units=1/GPa)
#
#
# Indices 1 2 3 4 5 6 
#
# 1 0.013558 -0.004948 -0.000804 0.000000 0.000000 0.000000
# 2 -0.004948 0.012052 -0.002693 0.000000 0.000000 0.000000
# 3 -0.000804 -0.002693 0.004855 0.000000 0.000000 0.000000
# 4 0.000000 0.000000 0.000000 0.017758 0.000000 0.000000
# 5 0.000000 0.000000 0.000000 0.000000 0.020999 0.000000
# 6 0.000000 0.000000 0.000000 0.000000 0.000000 0.024251
#
#
# Mechanical properties :
#
#
# Convention : Reuss Voigt Hill
#
# Bulk Modulus (GPa) = 73.67185 88.32770 80.99977
# Shear Modulus (GPa) = 43.52005 49.22624 46.37314
#
# Velocity S-wave (km/s) = 3.86149 4.10685 3.98606
# Velocity P-wave (km/s) = 6.71740 7.26304 6.99554
#
# Compressibility (1/GPa) = 0.01357371
#
# Stress axis : x y z
#
# Youngs Moduli (GPa) = 73.75866 82.97483 205.95390
#
# Poissons Ratio (x) = 0.41058 0.16565
# Poissons Ratio (y) = 0.36498 0.55465
# Poissons Ratio (z) = 0.05933 0.22346
#
# Static dielectric constant tensor:
#      x y z
#    x 2.347840 0.000000 0.000000 
#    y 0.000000 2.272460 0.000000 
#    z 0.000000 0.000000 2.323040 
# 
# From -- ./inp_files/2119.got.cif
#   From: 2010.05.17/outbox.cif.g08.bks.cpg/sg29_2_cif.got.tgz:2119.got - 2010.06.04 01:19:37.
