data_PCOD9339363
_publ_section_title
;
Structure prediction by ZEFSAII (Michael W. Deem and Ramdas Pophale) SiO2 
 PCOD9339363
Probable space group: P M A 2
;
_chemical_formula_sum "Si O2"
_cell_formula_units_Z 32
_cell_length_a 9.019172
_cell_length_b 16.654852
_cell_length_c 10.416898
_cell_angle_alpha 90.000000
_cell_angle_beta 90.000000
_cell_angle_gamma 90.000000
_cell_volume 1564.753237
_symmetry_space_group_name_H-M "P M A 2"
_symmetry_group_IT_number 28
_symmetry_cell_setting 'orthorhombic'
loop_
_space_group_symop_operation_xyz
x,y,z
-x,-y,z
1/2-x,y,z
1/2+x,-y,z
loop_
_atom_site_type_symbol
_atom_site_label
_atom_site_fract_x
_atom_site_fract_y
_atom_site_fract_z
Si Si1 0.428922 0.588885 0.937000
Si Si2 0.071756 0.915340 0.104773
Si Si3 0.072360 0.127701 0.366526
Si Si4 0.923843 0.415624 0.636257
Si Si5 0.405129 0.196793 0.735945
Si Si6 0.581064 0.746427 0.018852
Si Si7 0.418956 0.926373 0.628562
Si Si8 0.413518 0.295584 0.472673
O O1 0.500000 0.500000 0.960769
O O2 0.250000 0.585453 0.951876
O O3 0.460538 0.608480 0.784891
O O4 0.496372 0.660555 0.026141
O O5 0.250000 0.917214 0.089309
O O6 0.022013 0.910705 0.253726
O O7 0.000000 0.000000 0.054216
O O8 0.002714 0.829693 0.056849
O O9 0.250000 0.114821 0.353483
O O10 0.046738 0.224350 0.374722
O O11 0.012648 0.092914 0.500592
O O12 0.750000 0.423560 0.635056
O O13 0.000000 0.500000 0.618290
O O14 0.971413 0.361963 0.514780
O O15 0.250000 0.146875 0.731748
O O16 0.402494 0.243051 0.866631
O O17 0.555000 0.147243 0.723126
O O18 0.400036 0.250571 0.609964
O O19 0.750000 0.744867 0.074438
O O20 0.250000 0.940015 0.596955
O O21 0.500000 0.000000 0.693338
O O22 0.250000 0.327497 0.439295
#
# Coordination Sequence:
#
# PCOD9339363 Si02
#       8
#     4   4   4   4   4   4   4   4
#     4  10  20  34  55  87 123 162 203 246 292 350
#     4  12  26  44  64  87 114 150 200 254 304 360
#     4  10  21  39  60  82 108 142 185 235 290 345
#     4  10  19  29  48  79 118 156 192 231 278 338
#     4   9  19  34  52  76 108 144 181 223 277 341
#     4  11  22  39  62  86 118 158 198 247 303 358
#     4  11  21  33  52  77 107 141 179 226 280 337
#     4   9  17  32  54  80 111 145 181 226 280 339
#
# _framework density 20.450509
#
# number of rings (size 3 to 8) (size 9 to 14) (size 15 to 20)
#    0.000    1.750    1.250    4.875    0.000    5.000 
#    0.000    0.000    0.000    0.750    0.000    1.750 
#    0.000    0.000    0.000    0.000    0.000    0.000 
#
# Total GULP energy -178157.875562 kJ/mol
# GULP energy per Si atom -5567.433611 kJ/mol
# Density = 2.040396 g / cm^3
# Si number density = 20.450509 Si / 1000 Ang^3
#
#
#
# Elastic Constant Matrix: (Units=GPa)
#
#
# Indices 1 2 3 4 5 6 
#
# 1 134.3437 77.6993 9.9187 0.0000 0.0000 0.0000
# 2 77.6993 113.3662 16.5948 0.0000 0.0000 0.0000
# 3 9.9187 16.5948 16.0795 0.0000 0.0000 0.0000
# 4 0.0000 0.0000 0.0000 17.2239 0.0000 0.0000
# 5 0.0000 0.0000 0.0000 0.0000 24.9506 0.0000
# 6 0.0000 0.0000 0.0000 0.0000 0.0000 35.4615
#
#
#
# Elastic Compliance Matrix: (Units=1/GPa)
#
#
# Indices 1 2 3 4 5 6 
#
# 1 0.012356 -0.008661 0.001317 0.000000 0.000000 0.000000
# 2 -0.008661 0.016462 -0.011647 0.000000 0.000000 0.000000
# 3 0.001317 -0.011647 0.073399 0.000000 0.000000 0.000000
# 4 0.000000 0.000000 0.000000 0.058059 0.000000 0.000000
# 5 0.000000 0.000000 0.000000 0.000000 0.040079 0.000000
# 6 0.000000 0.000000 0.000000 0.000000 0.000000 0.028200
#
#
# Mechanical properties :
#
#
# Convention : Reuss Voigt Hill
#
# Bulk Modulus (GPa) = 15.56800 52.46836 34.01818
# Shear Modulus (GPa) = 17.36427 26.16564 21.76496
#
# Velocity S-wave (km/s) = 2.91707 3.58084 3.26586
# Velocity P-wave (km/s) = 4.35601 6.54282 5.55802
#
# Compressibility (1/GPa) = 0.06423432
#
# Stress axis : x y z
#
# Youngs Moduli (GPa) = 80.93481 60.74571 13.62422
#
# Poissons Ratio (x) = 0.52613 -0.01794
# Poissons Ratio (y) = 0.70099 0.15868
# Poissons Ratio (z) = -0.10659 0.70750
#
# Static dielectric constant tensor:
#      x y z
#    x 1.774910 0.000000 0.000000 
#    y 0.000000 1.932950 0.000000 
#    z 0.000000 0.000000 1.742180 
# 
# From -- ./inp_files/4996.got.cif
#   From: 2010.05.17/outbox.cif.g08.bks.cpg/sg28_3_cif.got.tgz:4996.got - 2010.06.04 01:15:21.
