data_PCOD9339858
_publ_section_title
;
Structure prediction by ZEFSAII (Michael W. Deem and Ramdas Pophale) SiO2 
 PCOD9339858
Probable space group: P M A 2
;
_chemical_formula_sum "Si O2"
_cell_formula_units_Z 32
_cell_length_a 15.819600
_cell_length_b 9.721105
_cell_length_c 9.790126
_cell_angle_alpha 90.000000
_cell_angle_beta 90.000000
_cell_angle_gamma 90.000000
_cell_volume 1505.564665
_symmetry_space_group_name_H-M "P M A 2"
_symmetry_group_IT_number 28
_symmetry_cell_setting 'orthorhombic'
loop_
_space_group_symop_operation_xyz
x,y,z
-x,-y,z
1/2-x,y,z
1/2+x,-y,z
loop_
_atom_site_type_symbol
_atom_site_label
_atom_site_fract_x
_atom_site_fract_y
_atom_site_fract_z
Si Si1 0.481028 0.836460 0.344700
Si Si2 0.975477 0.648737 0.750653
Si Si3 0.589854 0.539240 0.043919
Si Si4 0.398636 0.019991 0.009955
Si Si5 0.072307 0.882522 0.642664
Si Si6 0.154960 0.746984 0.114928
Si Si7 0.844252 0.862926 0.721965
Si Si8 0.845216 0.769075 0.238818
O O1 0.438415 0.822563 0.491919
O O2 0.417764 0.779149 0.228453
O O3 0.573772 0.768103 0.337591
O O4 0.500000 0.000000 0.327962
O O5 0.937697 0.609965 0.900692
O O6 0.905258 0.740175 0.673880
O O7 0.000000 0.500000 0.691229
O O8 0.053955 0.756634 0.745645
O O9 0.500000 0.500000 0.111613
O O10 0.637584 0.395093 0.037158
O O11 0.643037 0.640664 0.137434
O O12 0.373450 0.102807 0.876022
O O13 0.500000 0.000000 0.014773
O O14 0.363127 0.100554 0.140666
O O15 0.355059 0.872764 0.011204
O O16 0.150216 0.987087 0.651206
O O17 0.000000 0.000000 0.666910
O O18 0.250000 0.746102 0.173158
O O19 0.750000 0.811050 0.719579
O O20 0.750000 0.774694 0.295436
#
# Coordination Sequence:
#
# PCOD9339858 Si02
#       8
#     4   4   4   4   4   4   4   4
#     4  11  22  42  65  95 131 173 219 268 326 388
#     4  10  22  41  65  89 126 174 215 266 332 400
#     4  11  22  38  61  91 130 171 210 267 340 399
#     4  12  21  38  63  92 131 167 210 273 341 399
#     4   9  22  43  67  92 122 172 228 264 326 393
#     4  12  24  38  60  95 129 171 220 268 330 404
#     4  11  23  39  66 100 129 165 221 285 335 389
#     4  12  22  38  64  95 131 168 213 271 333 396
#
# _framework density 21.254484000000001
#
# number of rings (size 3 to 8) (size 9 to 14) (size 15 to 20)
#    0.000    1.000    5.000    2.625    5.250    1.000 
#    2.250    5.625    0.000    0.000    0.000    0.000 
#    0.000    0.000    0.000    0.000    0.000    0.000 
#
# Total GULP energy -178499.706396 kJ/mol
# GULP energy per Si atom -5578.115825 kJ/mol
# Density = 2.120611 g / cm^3
# Si number density = 21.254484 Si / 1000 Ang^3
#
#
#
# Elastic Constant Matrix: (Units=GPa)
#
#
# Indices 1 2 3 4 5 6 
#
# 1 137.0681 29.2705 12.4386 0.0000 0.0000 0.0000
# 2 29.2705 158.5934 20.0523 0.0000 0.0000 0.0000
# 3 12.4386 20.0523 72.7404 0.0000 0.0000 0.0000
# 4 0.0000 0.0000 0.0000 18.9373 0.0000 0.0000
# 5 0.0000 0.0000 0.0000 0.0000 0.3729 0.0000
# 6 0.0000 0.0000 0.0000 0.0000 0.0000 20.2894
#
#
#
# Elastic Compliance Matrix: (Units=1/GPa)
#
#
# Indices 1 2 3 4 5 6 
#
# 1 0.007658 -0.001293 -0.000953 0.000000 0.000000 0.000000
# 2 -0.001293 0.006751 -0.001640 0.000000 0.000000 0.000000
# 3 -0.000953 -0.001640 0.014363 0.000000 0.000000 0.000000
# 4 0.000000 0.000000 0.000000 0.052806 0.000000 0.000000
# 5 0.000000 0.000000 0.000000 0.000000 2.681816 0.000000
# 6 0.000000 0.000000 0.000000 0.000000 0.000000 0.049287
#
#
# Mechanical properties :
#
#
# Convention : Reuss Voigt Hill
#
# Bulk Modulus (GPa) = 47.61899 54.65831 51.13865
# Shear Modulus (GPa) = 1.76838 28.36262 15.06550
#
# Velocity S-wave (km/s) = 0.91313 3.65695 2.66525
# Velocity P-wave (km/s) = 4.85434 6.60326 5.79515
#
# Compressibility (1/GPa) = 0.02100002
#
# Stress axis : x y z
#
# Youngs Moduli (GPa) = 130.57835 148.11691 69.62521
#
# Poissons Ratio (x) = 0.19150 0.06636
# Poissons Ratio (y) = 0.16883 0.11419
# Poissons Ratio (z) = 0.12446 0.24292
#
# Static dielectric constant tensor:
#      x y z
#    x 1.868370 0.000000 0.000000 
#    y 0.000000 1.811900 0.000000 
#    z 0.000000 0.000000 1.804530 
# 
# From -- ./inp_files/5624.got.cif
#   From: 2010.05.17/outbox.cif.g08.bks.cpg/sg28_3_cif.got.tgz:5624.got - 2010.06.04 01:15:21.
