data_PCOD9339680
_publ_section_title
;
Structure prediction by ZEFSAII (Michael W. Deem and Ramdas Pophale) SiO2 
 PCOD9339680
Probable space group: P M A 2
;
_chemical_formula_sum "Si O2"
_cell_formula_units_Z 24
_cell_length_a 8.568908
_cell_length_b 9.796624
_cell_length_c 15.472374
_cell_angle_alpha 90.000000
_cell_angle_beta 90.000000
_cell_angle_gamma 90.000000
_cell_volume 1298.849629
_symmetry_space_group_name_H-M "P M A 2"
_symmetry_group_IT_number 28
_symmetry_cell_setting 'orthorhombic'
loop_
_space_group_symop_operation_xyz
x,y,z
-x,-y,z
1/2-x,y,z
1/2+x,-y,z
loop_
_atom_site_type_symbol
_atom_site_label
_atom_site_fract_x
_atom_site_fract_y
_atom_site_fract_z
Si Si1 0.562206 0.149419 0.631170
Si Si2 0.061459 0.850046 0.322971
Si Si3 0.437615 0.653335 0.971220
Si Si4 0.936407 0.849483 0.823400
Si Si5 0.061860 0.850211 0.125210
Si Si6 0.561695 0.347144 0.475889
O O1 0.750000 0.144156 0.636033
O O2 0.495265 0.178933 0.726183
O O3 0.515038 0.261437 0.560712
O O4 0.500000 0.000000 0.605192
O O5 0.250000 0.853982 0.324495
O O6 0.011562 0.821814 0.224046
O O7 0.008918 0.736984 0.391342
O O8 0.000000 0.000000 0.346907
O O9 0.500000 0.500000 0.971631
O O10 0.250000 0.651523 0.968690
O O11 0.500060 0.737833 0.889532
O O12 0.488424 0.736318 0.056974
O O13 0.750000 0.852540 0.824710
O O14 0.000000 0.000000 0.847291
O O15 0.250000 0.855164 0.124302
O O16 0.000000 0.000000 0.100803
O O17 0.500000 0.500000 0.477021
O O18 0.750000 0.350787 0.474555
#
# Coordination Sequence:
#
# PCOD9339680 Si02
#       6
#     4   4   4   4   4   4
#     4  10  20  36  57  82 108 139 180 226 269 318
#     4   9  18  35  56  81 108 139 179 223 266 315
#     4  11  23  38  55  80 112 147 183 224 272 326
#     4  11  22  38  60  84 109 142 181 226 273 323
#     4   9  19  35  57  81 108 140 179 223 268 317
#     4  10  22  36  53  78 111 145 179 218 265 319
#
# _framework density 18.477889000000001
#
# number of rings (size 3 to 8) (size 9 to 14) (size 15 to 20)
#    0.000    2.000    0.000    4.500    0.000    6.000 
#    0.000    1.667    0.000    0.000    0.000    0.000 
#    0.000    0.000    0.000    0.000    0.000    0.000 
#
# Total GULP energy -134063.799909 kJ/mol
# GULP energy per Si atom -5585.991663 kJ/mol
# Density = 1.843583 g / cm^3
# Si number density = 18.477889 Si / 1000 Ang^3
#
#
#
# Elastic Constant Matrix: (Units=GPa)
#
#
# Indices 1 2 3 4 5 6 
#
# 1 55.1434 45.6248 40.6805 0.0000 0.0000 0.0000
# 2 45.6248 201.8296 137.9250 0.0000 0.0000 0.0000
# 3 40.6805 137.9250 131.7724 0.0000 0.0000 0.0000
# 4 0.0000 0.0000 0.0000 -25.5689 0.0000 0.0000
# 5 0.0000 0.0000 0.0000 0.0000 12.3806 0.0000
# 6 0.0000 0.0000 0.0000 0.0000 0.0000 36.3712
#
#
#
# Elastic Compliance Matrix: (Units=1/GPa)
#
#
# Indices 1 2 3 4 5 6 
#
# 1 0.023572 -0.001249 -0.005970 0.000000 0.000000 0.000000
# 2 -0.001249 0.017468 -0.017898 0.000000 0.000000 0.000000
# 3 -0.005970 -0.017898 0.028166 0.000000 0.000000 0.000000
# 4 0.000000 0.000000 0.000000 -0.039110 0.000000 0.000000
# 5 0.000000 0.000000 0.000000 0.000000 0.080772 0.000000
# 6 0.000000 0.000000 0.000000 0.000000 0.000000 0.027494
#
#
# Mechanical properties :
#
#
# Convention : Reuss Voigt Hill
#
# Bulk Modulus (GPa) = 52.70947 93.02287 72.86617
# Shear Modulus (GPa) = 25.65165 15.60427 20.62796
#
# Velocity S-wave (km/s) = 3.72994 2.90915 3.34482
# Velocity P-wave (km/s) = 6.86568 7.85725 7.37814
#
# Compressibility (1/GPa) = 0.01897192
#
# Stress axis : x y z
#
# Youngs Moduli (GPa) = 42.42324 57.24712 35.50428
#
# Poissons Ratio (x) = 0.07150 0.21195
# Poissons Ratio (y) = 0.05299 0.63546
# Poissons Ratio (z) = 0.25326 1.02462
#
# Static dielectric constant tensor:
#      x y z
#    x 1.624170 0.000000 0.000000 
#    y 0.000000 1.593620 0.000000 
#    z 0.000000 0.000000 1.643690 
# 
# From -- ./inp_files/6027.got.cif
#   From: 2010.05.17/outbox.cif.g08.bks.cpg/sg28_4_cif.got.tgz:6027.got - 2010.06.04 01:15:21.
