data_PCOD9339389
_publ_section_title
;
Structure prediction by ZEFSAII (Michael W. Deem and Ramdas Pophale) SiO2 
 PCOD9339389
Probable space group: P M A 2
;
_chemical_formula_sum "Si O2"
_cell_formula_units_Z 32
_cell_length_a 8.477074
_cell_length_b 9.467285
_cell_length_c 21.761657
_cell_angle_alpha 90.000000
_cell_angle_beta 90.000000
_cell_angle_gamma 90.000000
_cell_volume 1746.479074
_symmetry_space_group_name_H-M "P M A 2"
_symmetry_group_IT_number 28
_symmetry_cell_setting 'orthorhombic'
loop_
_space_group_symop_operation_xyz
x,y,z
-x,-y,z
1/2-x,y,z
1/2+x,-y,z
loop_
_atom_site_type_symbol
_atom_site_label
_atom_site_fract_x
_atom_site_fract_y
_atom_site_fract_z
Si Si1 0.440663 0.837958 0.611480
Si Si2 0.939039 0.160175 0.477918
Si Si3 0.440570 0.838242 0.743432
Si Si4 0.059181 0.659732 0.995461
Si Si5 0.439321 0.340495 0.226623
Si Si6 0.938552 0.658224 0.365198
Si Si7 0.059046 0.838901 0.877954
Si Si8 0.938943 0.159296 0.113661
O O1 0.250000 0.838618 0.611634
O O2 0.490976 0.778990 0.544988
O O3 0.492922 0.774888 0.677488
O O4 0.500000 0.000000 0.611518
O O5 0.750000 0.159300 0.476704
O O6 0.000080 0.245145 0.419770
O O7 0.000000 0.000000 0.474471
O O8 0.250000 0.837806 0.743332
O O9 0.491443 0.782607 0.810306
O O10 0.500000 0.000000 0.743155
O O11 0.250000 0.657830 0.995301
O O12 0.007006 0.748434 0.055080
O O13 0.000000 0.500000 0.997817
O O14 0.005529 0.740781 0.933851
O O15 0.500000 0.500000 0.215614
O O16 0.250000 0.342023 0.224015
O O17 0.488773 0.298431 0.296055
O O18 0.503796 0.235629 0.175418
O O19 0.750000 0.658011 0.366302
O O20 0.000000 0.500000 0.374527
O O21 0.250000 0.843055 0.879045
O O22 0.000000 0.000000 0.885189
O O23 0.750000 0.156839 0.113268
O O24 0.000000 0.000000 0.109534
#
# Coordination Sequence:
#
# PCOD9339389 Si02
#       8
#     4   4   4   4   4   4   4   4
#     4   8  14  24  40  65  95 128 164 203 249 297
#     4  10  19  31  49  74 104 136 172 214 258 304
#     4   8  13  23  41  65  94 126 160 201 248 296
#     4  10  22  37  53  75 102 135 172 207 247 296
#     4  10  21  38  59  81 105 134 169 208 251 302
#     4  10  21  37  56  77 102 134 171 210 253 303
#     4   9  17  30  49  74 101 129 164 207 253 298
#     4  11  23  38  57  81 108 136 168 208 253 300
#
# _framework density 18.322579000000001
#
# number of rings (size 3 to 8) (size 9 to 14) (size 15 to 20)
#    0.000    2.500    0.000    2.250    0.000    5.000 
#    0.000    0.000    0.000    0.750    0.000    1.750 
#    0.000    0.000    0.000    0.000    0.000    0.000 
#
# Total GULP energy -178321.126696 kJ/mol
# GULP energy per Si atom -5572.535209 kJ/mol
# Density = 1.828088 g / cm^3
# Si number density = 18.322579 Si / 1000 Ang^3
#
#
#
# Elastic Constant Matrix: (Units=GPa)
#
#
# Indices 1 2 3 4 5 6 
#
# 1 24.5122 18.7512 36.7186 0.0000 0.0000 0.0000
# 2 18.7512 87.3666 103.3321 0.0000 0.0000 0.0000
# 3 36.7186 103.3321 229.3905 0.0000 0.0000 0.0000
# 4 0.0000 0.0000 0.0000 18.1693 0.0000 0.0000
# 5 0.0000 0.0000 0.0000 0.0000 310.5334 0.0000
# 6 0.0000 0.0000 0.0000 0.0000 0.0000 28.4758
#
#
#
# Elastic Compliance Matrix: (Units=1/GPa)
#
#
# Indices 1 2 3 4 5 6 
#
# 1 0.054010 -0.002925 -0.007328 0.000000 0.000000 0.000000
# 2 -0.002925 0.024657 -0.010639 0.000000 0.000000 0.000000
# 3 -0.007328 -0.010639 0.010325 0.000000 0.000000 0.000000
# 4 0.000000 0.000000 0.000000 0.055038 0.000000 0.000000
# 5 0.000000 0.000000 0.000000 0.000000 0.003220 0.000000
# 6 0.000000 0.000000 0.000000 0.000000 0.000000 0.035117
#
#
# Mechanical properties :
#
#
# Convention : Reuss Voigt Hill
#
# Bulk Modulus (GPa) = 21.18265 73.20813 47.19539
# Shear Modulus (GPa) = 20.84314 83.60020 52.22167
#
# Velocity S-wave (km/s) = 3.37644 6.76209 5.34445
# Velocity P-wave (km/s) = 5.17557 10.05036 7.99363
#
# Compressibility (1/GPa) = 0.04720845
#
# Stress axis : x y z
#
# Youngs Moduli (GPa) = 18.51493 40.55695 96.85521
#
# Poissons Ratio (x) = 0.11864 0.70973
# Poissons Ratio (y) = 0.05416 1.03041
# Poissons Ratio (z) = 0.13567 0.43147
#
# Static dielectric constant tensor:
#      x y z
#    x 1.606640 0.000000 0.000000 
#    y 0.000000 1.538640 0.000000 
#    z 0.000000 0.000000 1.698170 
# 
# From -- ./inp_files/7043.got.cif
#   From: 2010.05.17/outbox.cif.g08.bks.cpg/sg28_4_cif.got.tgz:7043.got - 2010.06.04 01:15:21.
