data_PCOD9339555
_publ_section_title
;
Structure prediction by ZEFSAII (Michael W. Deem and Ramdas Pophale) SiO2 
 PCOD9339555
Probable space group: P M A 2
;
_chemical_formula_sum "Si O2"
_cell_formula_units_Z 32
_cell_length_a 14.880037
_cell_length_b 9.238206
_cell_length_c 9.720286
_cell_angle_alpha 90.000000
_cell_angle_beta 90.000000
_cell_angle_gamma 90.000000
_cell_volume 1336.197629
_symmetry_space_group_name_H-M "P M A 2"
_symmetry_group_IT_number 28
_symmetry_cell_setting 'orthorhombic'
loop_
_space_group_symop_operation_xyz
x,y,z
-x,-y,z
1/2-x,y,z
1/2+x,-y,z
loop_
_atom_site_type_symbol
_atom_site_label
_atom_site_fract_x
_atom_site_fract_y
_atom_site_fract_z
Si Si1 0.355207 0.100362 0.332410
Si Si2 0.141121 0.591072 0.499859
Si Si3 0.854838 0.705107 0.058847
Si Si4 0.358212 0.282451 0.597644
Si Si5 0.920449 0.105102 0.530521
Si Si6 0.350042 0.020229 0.786114
Si Si7 0.968620 0.146402 0.015177
Si Si8 0.855594 0.387015 0.174770
O O1 0.250000 0.070703 0.347835
O O2 0.361510 0.194036 0.195278
O O3 0.387602 0.204293 0.456307
O O4 0.399298 0.947621 0.375514
O O5 0.250000 0.617988 0.517288
O O6 0.115663 0.449211 0.585992
O O7 0.126997 0.577189 0.335243
O O8 0.078304 0.724363 0.540880
O O9 0.750000 0.713700 0.011095
O O10 0.871294 0.537864 0.095018
O O11 0.940173 0.768088 0.977591
O O12 0.250000 0.285418 0.589254
O O13 0.376567 0.179669 0.727145
O O14 0.845390 0.063362 0.641100
O O15 0.000000 0.000000 0.578755
O O16 0.250000 0.026115 0.848094
O O17 0.412383 0.925088 0.888364
O O18 0.000000 0.000000 0.093146
O O19 0.911286 0.257257 0.106336
O O20 0.750000 0.350320 0.163885
#
# Coordination Sequence:
#
# PCOD9339555 Si02
#       8
#     4   4   4   4   4   4   4   4
#     4   9  17  34  59  89 129 177 224 287 373 446
#     4  10  19  35  63 103 141 179 238 305 376 452
#     4  10  22  42  67  98 142 195 249 305 375 449
#     4   8  15  34  65  95 126 174 237 303 370 443
#     4  11  23  36  60 102 145 179 226 301 380 444
#     4  10  22  46  71  92 131 189 247 307 373 444
#     4  12  27  43  66  98 144 193 257 304 361 444
#     4  10  22  42  68 101 147 200 249 308 377 454
#
# _framework density 23.948550999999998
#
# number of rings (size 3 to 8) (size 9 to 14) (size 15 to 20)
#    0.000    2.000    1.250    3.000    3.500    1.000 
#    0.000    5.000    0.000    3.000    0.000    0.000 
#    0.000    4.000    0.000    0.000    0.000    0.000 
#
# Total GULP energy -178479.032402 kJ/mol
# GULP energy per Si atom -5577.469763 kJ/mol
# Density = 2.389404 g / cm^3
# Si number density = 23.948551 Si / 1000 Ang^3
#
#
#
# Elastic Constant Matrix: (Units=GPa)
#
#
# Indices 1 2 3 4 5 6 
#
# 1 122.6705 83.7713 48.5706 0.0000 0.0000 0.0000
# 2 83.7713 181.6303 42.6862 0.0000 0.0000 0.0000
# 3 48.5706 42.6862 68.2811 0.0000 0.0000 0.0000
# 4 0.0000 0.0000 0.0000 36.4925 0.0000 0.0000
# 5 0.0000 0.0000 0.0000 0.0000 13.5379 0.0000
# 6 0.0000 0.0000 0.0000 0.0000 0.0000 -59.4755
#
#
#
# Elastic Compliance Matrix: (Units=1/GPa)
#
#
# Indices 1 2 3 4 5 6 
#
# 1 0.014345 -0.004944 -0.007113 0.000000 0.000000 0.000000
# 2 -0.004944 0.008158 -0.001583 0.000000 0.000000 0.000000
# 3 -0.007113 -0.001583 0.020695 0.000000 0.000000 0.000000
# 4 0.000000 0.000000 0.000000 0.027403 0.000000 0.000000
# 5 0.000000 0.000000 0.000000 0.000000 0.073867 0.000000
# 6 0.000000 0.000000 0.000000 0.000000 0.000000 -0.016814
#
#
# Mechanical properties :
#
#
# Convention : Reuss Voigt Hill
#
# Bulk Modulus (GPa) = 62.82615 80.29312 71.55964
# Shear Modulus (GPa) = 31.20330 11.28125 21.24227
#
# Velocity S-wave (km/s) = 3.61353 2.17275 2.98148
# Velocity P-wave (km/s) = 6.61066 6.31622 6.46512
#
# Compressibility (1/GPa) = 0.01591694
#
# Stress axis : x y z
#
# Youngs Moduli (GPa) = 69.71196 122.57647 48.32189
#
# Poissons Ratio (x) = 0.60607 0.34371
# Poissons Ratio (y) = 0.34469 0.07649
# Poissons Ratio (z) = 0.49585 0.19404
#
# Static dielectric constant tensor:
#      x y z
#    x 2.005430 0.000000 0.000000 
#    y 0.000000 1.923150 0.000000 
#    z 0.000000 0.000000 1.933930 
# 
# From -- ./inp_files/5629.got.cif
#   From: 2010.05.17/outbox.cif.g08.bks.cpg/sg28_3_cif.got.tgz:5629.got - 2010.06.04 01:15:21.
