data_PCOD9339289
_publ_section_title
;
Structure prediction by ZEFSAII (Michael W. Deem and Ramdas Pophale) SiO2 
 PCOD9339289
Probable space group: P M A 2
;
_chemical_formula_sum "Si O2"
_cell_formula_units_Z 32
_cell_length_a 8.925101
_cell_length_b 18.201171
_cell_length_c 11.880078
_cell_angle_alpha 90.000000
_cell_angle_beta 90.000000
_cell_angle_gamma 90.000000
_cell_volume 1929.886470
_symmetry_space_group_name_H-M "P M A 2"
_symmetry_group_IT_number 28
_symmetry_cell_setting 'orthorhombic'
loop_
_space_group_symop_operation_xyz
x,y,z
-x,-y,z
1/2-x,y,z
1/2+x,-y,z
loop_
_atom_site_type_symbol
_atom_site_label
_atom_site_fract_x
_atom_site_fract_y
_atom_site_fract_z
Si Si1 0.072147 0.577441 0.321100
Si Si2 0.921878 0.653784 0.114289
Si Si3 0.925749 0.702486 0.467739
Si Si4 0.070468 0.221014 0.695109
Si Si5 0.572195 0.253768 0.934772
Si Si6 0.928073 0.866164 0.368360
Si Si7 0.578005 0.821251 0.129725
Si Si8 0.428311 0.924081 0.586375
O O1 0.250000 0.571891 0.315224
O O2 0.000000 0.500000 0.353792
O O3 0.006393 0.601007 0.199348
O O4 0.023134 0.640706 0.408129
O O5 0.750000 0.630961 0.095764
O O6 0.917343 0.735596 0.169977
O O7 0.006958 0.674090 0.998833
O O8 0.750000 0.682887 0.455823
O O9 0.960153 0.718085 0.598768
O O10 0.946648 0.782177 0.410381
O O11 0.250000 0.211620 0.700187
O O12 0.996556 0.145180 0.652965
O O13 0.004701 0.243177 0.815071
O O14 0.750000 0.257117 0.926240
O O15 0.522725 0.186940 0.018858
O O16 0.750000 0.883185 0.377500
O O17 0.971754 0.868393 0.236849
O O18 0.021910 0.913383 0.456135
O O19 0.750000 0.840427 0.100354
O O20 0.750000 0.074931 0.595759
O O21 0.500000 0.000000 0.627458
#
# Coordination Sequence:
#
# PCOD9339289 Si02
#       8
#     4   4   4   4   4   4   4   4
#     4  12  23  33  50  75 106 139 172 213 264 317
#     4   9  17  32  50  71 101 133 167 208 256 305
#     4   9  17  32  51  72  99 130 168 209 251 302
#     4  10  20  35  55  76 102 138 176 216 262 306
#     4  10  18  29  49  78 104 127 164 209 250 296
#     4   9  16  30  52  75 100 132 165 204 253 303
#     4   8  15  28  49  72 101 133 162 202 252 299
#     4  11  22  35  51  75 106 138 173 214 260 313
#
# _framework density 16.581287
#
# number of rings (size 3 to 8) (size 9 to 14) (size 15 to 20)
#    0.750    1.500    1.250    4.500    0.000    3.000 
#    0.000    0.000    0.000    1.500    0.000    3.500 
#    0.000    0.000    0.000    0.000    0.000    0.000 
#
# Total GULP energy -178185.598975 kJ/mol
# GULP energy per Si atom -5568.299968 kJ/mol
# Density = 1.654355 g / cm^3
# Si number density = 16.581287 Si / 1000 Ang^3
#
#
#
# Elastic Constant Matrix: (Units=GPa)
#
#
# Indices 1 2 3 4 5 6 
#
# 1 132.4661 47.0251 62.3372 0.0000 0.0000 0.0000
# 2 47.0251 52.9838 21.7512 0.0000 0.0000 0.0000
# 3 62.3372 21.7512 108.0571 0.0000 0.0000 0.0000
# 4 0.0000 0.0000 0.0000 10.9156 0.0000 0.0000
# 5 0.0000 0.0000 0.0000 0.0000 28.8381 0.0000
# 6 0.0000 0.0000 0.0000 0.0000 0.0000 21.9402
#
#
#
# Elastic Compliance Matrix: (Units=1/GPa)
#
#
# Indices 1 2 3 4 5 6 
#
# 1 0.013879 -0.009845 -0.006025 0.000000 0.000000 0.000000
# 2 -0.009845 0.027557 0.000132 0.000000 0.000000 0.000000
# 3 -0.006025 0.000132 0.012704 0.000000 0.000000 0.000000
# 4 0.000000 0.000000 0.000000 0.091612 0.000000 0.000000
# 5 0.000000 0.000000 0.000000 0.000000 0.034676 0.000000
# 6 0.000000 0.000000 0.000000 0.000000 0.000000 0.045578
#
#
# Mechanical properties :
#
#
# Convention : Reuss Voigt Hill
#
# Bulk Modulus (GPa) = 44.12164 61.74823 52.93494
# Shear Modulus (GPa) = 18.86526 23.16501 21.01513
#
# Velocity S-wave (km/s) = 3.37671 3.74178 3.56392
# Velocity P-wave (km/s) = 6.47070 7.48254 6.99494
#
# Compressibility (1/GPa) = 0.02266461
#
# Stress axis : x y z
#
# Youngs Moduli (GPa) = 72.04891 36.28820 78.71786
#
# Poissons Ratio (x) = 0.35726 0.47429
# Poissons Ratio (y) = 0.70932 -0.01043
# Poissons Ratio (z) = 0.43411 -0.00481
#
# Static dielectric constant tensor:
#      x y z
#    x 1.548500 0.000000 0.000000 
#    y 0.000000 1.555550 0.000000 
#    z 0.000000 0.000000 1.572520 
# 
# From -- ./inp_files/5206.got.cif
#   From: 2010.05.17/outbox.cif.g08.bks.cpg/sg28_3_cif.got.tgz:5206.got - 2010.06.04 01:15:21.
