data_PCOD9339490
_publ_section_title
;
Structure prediction by ZEFSAII (Michael W. Deem and Ramdas Pophale) SiO2 
 PCOD9339490
Probable space group: P M A 2
;
_chemical_formula_sum "Si O2"
_cell_formula_units_Z 32
_cell_length_a 8.469299
_cell_length_b 15.119288
_cell_length_c 12.633623
_cell_angle_alpha 90.000000
_cell_angle_beta 90.000000
_cell_angle_gamma 90.000000
_cell_volume 1617.732529
_symmetry_space_group_name_H-M "P M A 2"
_symmetry_group_IT_number 28
_symmetry_cell_setting 'orthorhombic'
loop_
_space_group_symop_operation_xyz
x,y,z
-x,-y,z
1/2-x,y,z
1/2+x,-y,z
loop_
_atom_site_type_symbol
_atom_site_label
_atom_site_fract_x
_atom_site_fract_y
_atom_site_fract_z
Si Si1 0.439226 0.225177 0.210420
Si Si2 0.059723 0.593484 0.762580
Si Si3 0.061089 0.593654 0.290295
Si Si4 0.062122 0.898687 0.021335
Si Si5 0.061541 0.090219 0.384018
Si Si6 0.060423 0.213900 0.824036
Si Si7 0.940434 0.823197 0.587315
Si Si8 0.062251 0.634209 0.526947
O O1 0.250000 0.230371 0.208051
O O2 0.505614 0.323765 0.220129
O O3 0.494985 0.162968 0.115151
O O4 0.492084 0.173780 0.316468
O O5 0.250000 0.595761 0.763563
O O6 0.001393 0.596164 0.639185
O O7 0.000000 0.500000 0.808217
O O8 0.998199 0.683853 0.817251
O O9 0.250000 0.594002 0.293895
O O10 0.999329 0.603722 0.412608
O O11 0.000000 0.500000 0.249380
O O12 0.250000 0.902321 0.030089
O O13 0.000000 0.000000 0.023528
O O14 0.013076 0.846178 0.915154
O O15 0.250000 0.088433 0.379609
O O16 0.013107 0.100454 0.506116
O O17 0.000000 0.000000 0.335938
O O18 0.250000 0.214880 0.835562
O O19 0.018651 0.170904 0.710094
O O20 0.750000 0.811392 0.581406
O O21 0.022835 0.736708 0.540733
O O22 0.250000 0.619072 0.525815
#
# Coordination Sequence:
#
# PCOD9339490 Si02
#       8
#     4   4   4   4   4   4   4   4
#     4  11  23  42  65  89 121 158 203 255 307 362
#     4  10  19  33  54  86 125 167 211 253 301 357
#     4  11  22  36  57  88 124 165 208 251 302 360
#     4  12  26  46  70  94 120 154 203 256 308 366
#     4  10  21  35  55  85 119 156 194 239 297 360
#     4  10  21  39  63  90 122 159 204 254 307 362
#     4   9  18  34  55  83 120 160 198 243 300 358
#     4   9  18  31  51  81 119 163 208 249 294 351
#
# _framework density 19.780773
#
# number of rings (size 3 to 8) (size 9 to 14) (size 15 to 20)
#    0.000    1.750    1.250    3.375    0.000    4.500 
#    0.000    1.875    0.000    0.000    0.000    0.000 
#    0.000    0.000    0.000    0.000    0.000    0.000 
#
# Total GULP energy -178548.947897 kJ/mol
# GULP energy per Si atom -5579.654622 kJ/mol
# Density = 1.973575 g / cm^3
# Si number density = 19.780773 Si / 1000 Ang^3
#
#
#
# Elastic Constant Matrix: (Units=GPa)
#
#
# Indices 1 2 3 4 5 6 
#
# 1 48.9040 37.9453 29.3062 0.0000 0.0000 0.0000
# 2 37.9453 167.4389 57.3749 0.0000 0.0000 0.0000
# 3 29.3062 57.3749 79.9885 0.0000 0.0000 0.0000
# 4 0.0000 0.0000 0.0000 13.5963 0.0000 0.0000
# 5 0.0000 0.0000 0.0000 0.0000 18.7357 0.0000
# 6 0.0000 0.0000 0.0000 0.0000 0.0000 34.3094
#
#
#
# Elastic Compliance Matrix: (Units=1/GPa)
#
#
# Indices 1 2 3 4 5 6 
#
# 1 0.027856 -0.003733 -0.007528 0.000000 0.000000 0.000000
# 2 -0.003733 0.008419 -0.004671 0.000000 0.000000 0.000000
# 3 -0.007528 -0.004671 0.018610 0.000000 0.000000 0.000000
# 4 0.000000 0.000000 0.000000 0.073549 0.000000 0.000000
# 5 0.000000 0.000000 0.000000 0.000000 0.053374 0.000000
# 6 0.000000 0.000000 0.000000 0.000000 0.000000 0.029147
#
#
# Mechanical properties :
#
#
# Convention : Reuss Voigt Hill
#
# Bulk Modulus (GPa) = 43.43904 60.62048 52.02976
# Shear Modulus (GPa) = 19.96056 24.77528 22.36792
#
# Velocity S-wave (km/s) = 3.18006 3.54290 3.36637
# Velocity P-wave (km/s) = 5.95749 6.88831 6.43974
#
# Compressibility (1/GPa) = 0.02302077
#
# Stress axis : x y z
#
# Youngs Moduli (GPa) = 35.89863 118.77971 53.73321
#
# Poissons Ratio (x) = 0.44343 0.40451
# Poissons Ratio (y) = 0.13402 0.25099
# Poissons Ratio (z) = 0.27025 0.55483
#
# Static dielectric constant tensor:
#      x y z
#    x 1.672900 0.000000 0.000000 
#    y 0.000000 1.628890 0.000000 
#    z 0.000000 0.000000 1.729360 
# 
# From -- ./inp_files/5101.got.cif
#   From: 2010.05.17/outbox.cif.g08.bks.cpg/sg28_3_cif.got.tgz:5101.got - 2010.06.04 01:15:21.
