data_PCOD9339957
_publ_section_title
;
Structure prediction by ZEFSAII (Michael W. Deem and Ramdas Pophale) SiO2 
 PCOD9339957
Probable space group: P M A 2
;
_chemical_formula_sum "Si O2"
_cell_formula_units_Z 24
_cell_length_a 13.264646
_cell_length_b 13.767476
_cell_length_c 5.460001
_cell_angle_alpha 90.000000
_cell_angle_beta 90.000000
_cell_angle_gamma 90.000000
_cell_volume 997.109180
_symmetry_space_group_name_H-M "P M A 2"
_symmetry_group_IT_number 28
_symmetry_cell_setting 'orthorhombic'
loop_
_space_group_symop_operation_xyz
x,y,z
-x,-y,z
1/2-x,y,z
1/2+x,-y,z
loop_
_atom_site_type_symbol
_atom_site_label
_atom_site_fract_x
_atom_site_fract_y
_atom_site_fract_z
Si Si1 0.058635 0.285779 0.460830
Si Si2 0.750000 0.636227 0.189225
Si Si3 0.250000 0.486752 0.682520
Si Si4 0.095337 0.071312 0.615502
Si Si5 0.048954 0.592322 0.826193
Si Si6 0.627752 0.236171 0.165092
Si Si7 0.357016 0.976220 0.109276
O O1 0.143712 0.307415 0.252544
O O2 0.041103 0.374456 0.645676
O O3 0.941791 0.265481 0.391822
O O4 0.091227 0.185742 0.586055
O O5 0.750000 0.559625 0.413068
O O6 0.750000 0.588210 0.918717
O O7 0.150695 0.552497 0.706369
O O8 0.145691 0.028920 0.368726
O O9 0.129855 0.049598 0.889591
O O10 0.000000 0.000000 0.608494
O O11 0.000000 0.500000 0.972607
O O12 0.087036 0.686761 0.969849
O O13 0.750000 0.246479 0.202682
O O14 0.584071 0.125880 0.112872
O O15 0.250000 0.931093 0.051362
#
# Coordination Sequence:
#
# PCOD9339957 Si02
#       7
#     4   2   2   4   4   4   4
#     4  12  29  47  80 115 160 212 261 328 394 472
#     4  12  30  54  78 118 161 203 268 322 400 482
#     4  12  28  54  78 110 153 211 260 330 390 462
#     4  12  25  48  74 111 158 201 260 317 389 464
#     4  12  26  48  77 113 156 205 263 320 397 467
#     4  11  26  48  77 116 158 208 266 328 388 467
#     4  11  26  47  75 112 153 204 263 322 387 461
#
# _framework density 24.069579000000001
#
# number of rings (size 3 to 8) (size 9 to 14) (size 15 to 20)
#    0.000    0.333    4.167    3.000    8.167    0.667 
#    0.000    0.000    0.000    0.000    2.167    0.000 
#    0.000    0.000    0.000    0.000    0.000    0.000 
#
# Total GULP energy -133657.788667 kJ/mol
# GULP energy per Si atom -5569.074528 kJ/mol
# Density = 2.401480 g / cm^3
# Si number density = 24.069579 Si / 1000 Ang^3
#
#
#
# Elastic Constant Matrix: (Units=GPa)
#
#
# Indices 1 2 3 4 5 6 
#
# 1 98.4376 30.6807 26.1742 0.0000 0.0000 0.0000
# 2 30.6807 99.4164 41.0427 0.0000 0.0000 0.0000
# 3 26.1742 41.0427 82.3338 0.0000 0.0000 0.0000
# 4 0.0000 0.0000 0.0000 30.5242 0.0000 0.0000
# 5 0.0000 0.0000 0.0000 0.0000 25.2056 0.0000
# 6 0.0000 0.0000 0.0000 0.0000 0.0000 26.3745
#
#
#
# Elastic Compliance Matrix: (Units=1/GPa)
#
#
# Indices 1 2 3 4 5 6 
#
# 1 0.011604 -0.002591 -0.002397 0.000000 0.000000 0.000000
# 2 -0.002591 0.013244 -0.005778 0.000000 0.000000 0.000000
# 3 -0.002397 -0.005778 0.015788 0.000000 0.000000 0.000000
# 4 0.000000 0.000000 0.000000 0.032761 0.000000 0.000000
# 5 0.000000 0.000000 0.000000 0.000000 0.039674 0.000000
# 6 0.000000 0.000000 0.000000 0.000000 0.000000 0.037915
#
#
# Mechanical properties :
#
#
# Convention : Reuss Voigt Hill
#
# Bulk Modulus (GPa) = 52.34931 52.88700 52.61815
# Shear Modulus (GPa) = 27.95069 28.57354 28.26212
#
# Velocity S-wave (km/s) = 3.41140 3.44920 3.43035
# Velocity P-wave (km/s) = 6.10846 6.15491 6.13173
#
# Compressibility (1/GPa) = 0.01910245
#
# Stress axis : x y z
#
# Youngs Moduli (GPa) = 86.17877 75.50668 63.33897
#
# Poissons Ratio (x) = 0.19567 0.15183
# Poissons Ratio (y) = 0.22333 0.36598
# Poissons Ratio (z) = 0.20658 0.43629
#
# Static dielectric constant tensor:
#      x y z
#    x 1.979580 0.000000 0.000000 
#    y 0.000000 1.605060 0.000000 
#    z 0.000000 0.000000 2.037520 
# 
# From -- ./inp_files/799.got.cif
#   From: 2010.05.17/outbox.cif.g08.bks.cpg/sg28_1_cif.got.tgz:799.got - 2010.06.04 01:15:21.
