data_PCOD9339576
_publ_section_title
;
Structure prediction by ZEFSAII (Michael W. Deem and Ramdas Pophale) SiO2 
 PCOD9339576
Probable space group: P M A 2
;
_chemical_formula_sum "Si O2"
_cell_formula_units_Z 32
_cell_length_a 8.837651
_cell_length_b 15.631252
_cell_length_c 15.773231
_cell_angle_alpha 90.000000
_cell_angle_beta 90.000000
_cell_angle_gamma 90.000000
_cell_volume 2178.970123
_symmetry_space_group_name_H-M "P M A 2"
_symmetry_group_IT_number 28
_symmetry_cell_setting 'orthorhombic'
loop_
_space_group_symop_operation_xyz
x,y,z
-x,-y,z
1/2-x,y,z
1/2+x,-y,z
loop_
_atom_site_type_symbol
_atom_site_label
_atom_site_fract_x
_atom_site_fract_y
_atom_site_fract_z
Si Si1 0.430178 0.404642 0.597420
Si Si2 0.568368 0.404641 0.954687
Si Si3 0.933403 0.725943 0.088378
Si Si4 0.068940 0.730372 0.276326
Si Si5 0.430322 0.595532 0.765663
Si Si6 0.422756 0.086598 0.076768
Si Si7 0.575187 0.911333 0.282993
Si Si8 0.931730 0.595725 0.407289
O O1 0.500000 0.500000 0.594951
O O2 0.250000 0.410189 0.607667
O O3 0.500297 0.361985 0.681400
O O4 0.462403 0.370306 0.503188
O O5 0.500000 0.500000 0.959985
O O6 0.750000 0.408703 0.964956
O O7 0.493514 0.346092 0.025780
O O8 0.536656 0.369042 0.859496
O O9 0.750000 0.726115 0.093111
O O10 0.985747 0.819802 0.055354
O O11 0.999402 0.715135 0.182761
O O12 0.250000 0.727770 0.272240
O O13 0.013799 0.824870 0.305070
O O14 0.005095 0.658772 0.339400
O O15 0.500000 0.500000 0.768273
O O16 0.250000 0.589720 0.755970
O O17 0.250000 0.084055 0.048897
O O18 0.425470 0.085264 0.179842
O O19 0.500000 0.000000 0.046551
O O20 0.750000 0.905443 0.309687
O O21 0.500000 0.000000 0.312554
O O22 0.750000 0.591276 0.396577
O O23 0.000000 0.500000 0.399741
#
# Coordination Sequence:
#
# PCOD9339576 Si02
#       8
#     4   4   4   4   4   4   4   4
#     4   9  16  26  43  63  83 107 137 174 218 261
#     4  10  20  32  45  63  86 116 150 183 217 255
#     4  10  20  33  46  62  86 116 149 185 218 254
#     4  11  21  32  46  64  87 118 152 185 220 260
#     4   9  16  26  42  62  84 107 136 174 216 259
#     4   8  15  26  42  62  82 105 134 170 214 255
#     4   9  16  28  45  65  87 111 141 179 221 263
#     4  10  20  33  46  63  87 116 150 186 219 257
#
# _framework density 14.685836999999999
#
# number of rings (size 3 to 8) (size 9 to 14) (size 15 to 20)
#    0.000    2.500    0.000    4.875    0.000    7.000 
#    0.000    2.500    0.000    0.000    0.000    0.000 
#    0.000    1.000    0.000    9.000    0.000    6.750 
#
# Total GULP energy -178153.568724 kJ/mol
# GULP energy per Si atom -5567.299023 kJ/mol
# Density = 1.465241 g / cm^3
# Si number density = 14.685837 Si / 1000 Ang^3
#
#
#
# Elastic Constant Matrix: (Units=GPa)
#
#
# Indices 1 2 3 4 5 6 
#
# 1 92.6481 44.0200 51.4687 0.0000 0.0000 0.0000
# 2 44.0200 88.1431 57.9423 0.0000 0.0000 0.0000
# 3 51.4687 57.9423 95.0521 0.0000 0.0000 0.0000
# 4 0.0000 0.0000 0.0000 -1.1483 0.0000 0.0000
# 5 0.0000 0.0000 0.0000 0.0000 21.5030 0.0000
# 6 0.0000 0.0000 0.0000 0.0000 0.0000 21.4443
#
#
#
# Elastic Compliance Matrix: (Units=1/GPa)
#
#
# Indices 1 2 3 4 5 6 
#
# 1 0.016194 -0.003877 -0.006405 0.000000 0.000000 0.000000
# 2 -0.003877 0.019859 -0.010007 0.000000 0.000000 0.000000
# 3 -0.006405 -0.010007 0.020089 0.000000 0.000000 0.000000
# 4 0.000000 0.000000 0.000000 -0.870822 0.000000 0.000000
# 5 0.000000 0.000000 0.000000 0.000000 0.046505 0.000000
# 6 0.000000 0.000000 0.000000 0.000000 0.000000 0.046633
#
#
# Mechanical properties :
#
#
# Convention : Reuss Voigt Hill
#
# Bulk Modulus (GPa) = 64.24978 64.74503 64.49740
# Shear Modulus (GPa) = -7.39891 16.52060 4.56085
#
# Velocity S-wave (km/s) = -2.24701 3.35764 1.76419
# Velocity P-wave (km/s) = 6.09199 7.69507 6.93997
#
# Compressibility (1/GPa) = 0.01556426
#
# Stress axis : x y z
#
# Youngs Moduli (GPa) = 61.75163 50.35391 49.77858
#
# Poissons Ratio (x) = 0.19521 0.31885
# Poissons Ratio (y) = 0.23940 0.49813
# Poissons Ratio (z) = 0.39555 0.50388
#
# Static dielectric constant tensor:
#      x y z
#    x 1.493860 0.000000 0.000000 
#    y 0.000000 1.474500 0.000000 
#    z 0.000000 0.000000 1.504240 
# 
# From -- ./inp_files/6445.got.cif
#   From: 2010.05.17/outbox.cif.g08.bks.cpg/sg28_4_cif.got.tgz:6445.got - 2010.06.04 01:15:21.
