data_PCOD9339973
_publ_section_title
;
Structure prediction by ZEFSAII (Michael W. Deem and Ramdas Pophale) SiO2 
 PCOD9339973
Probable space group: P M A 2
;
_chemical_formula_sum "Si O2"
_cell_formula_units_Z 32
_cell_length_a 9.000000
_cell_length_b 15.000000
_cell_length_c 15.000000
_cell_angle_alpha 90.000000
_cell_angle_beta 90.000000
_cell_angle_gamma 90.000000
_cell_volume 2025.000000
_symmetry_space_group_name_H-M "P M A 2"
_symmetry_group_IT_number 28
_symmetry_cell_setting 'orthorhombic'
loop_
_space_group_symop_operation_xyz
x,y,z
-x,-y,z
1/2-x,y,z
1/2+x,-y,z
loop_
_atom_site_type_symbol
_atom_site_label
_atom_site_fract_x
_atom_site_fract_y
_atom_site_fract_z
Si Si1 0.079674 0.713897 0.765720
Si Si2 0.075048 0.597049 0.082261
Si Si3 0.425709 0.598082 0.282653
Si Si4 0.422367 0.595727 0.587136
Si Si5 0.928317 0.090726 0.693874
Si Si6 0.071281 0.091244 0.497463
Si Si7 0.924889 0.597609 0.908829
Si Si8 0.927555 0.712502 0.433410
O O1 0.250000 0.708977 0.800126
O O2 0.075991 0.656298 0.675264
O O3 0.044295 0.817149 0.746038
O O4 0.968648 0.664540 0.831189
O O5 0.250000 0.589692 0.063377
O O6 0.056477 0.632702 0.181454
O O7 0.000000 0.500000 0.086763
O O8 0.991327 0.639485 0.999478
O O9 0.500000 0.500000 0.291992
O O10 0.250000 0.588598 0.300693
O O11 0.501696 0.668176 0.347011
O O12 0.500000 0.500000 0.600316
O O13 0.250000 0.581506 0.561093
O O14 0.507167 0.653411 0.513544
O O15 0.750000 0.080397 0.684878
O O16 0.002182 0.101137 0.596387
O O17 0.000000 0.000000 0.732500
O O18 0.250000 0.082192 0.503135
O O19 0.035833 0.183065 0.446564
O O20 0.000000 0.000000 0.460029
O O21 0.750000 0.584387 0.915729
O O22 0.000000 0.500000 0.894139
O O23 0.750000 0.704536 0.432232
#
# Coordination Sequence:
#
# PCOD9339973 Si02
#       8
#     4   4   4   4   4   4   4   4
#     4  10  21  35  50  70  97 131 167 202 242 288
#     4   9  17  31  50  71  96 126 162 202 245 288
#     4  10  20  33  51  73  99 132 166 203 243 288
#     4  11  22  35  48  65  95 133 170 202 237 282
#     4  10  19  33  52  73  96 125 161 204 249 290
#     4  10  20  33  51  72  95 125 162 204 248 290
#     4  11  21  32  50  73 100 132 165 203 245 290
#     4  11  22  34  49  71  98 130 165 202 243 290
#
# _framework density 15.802469
#
# number of rings (size 3 to 8) (size 9 to 14) (size 15 to 20)
#    0.000    1.750    1.250    5.625    0.000    6.000 
#    0.000    0.000    0.000    0.000    0.000    0.875 
#    0.000    6.000    0.000    0.000    0.000    0.000 
#
# Total GULP energy -178450.377755 kJ/mol
# GULP energy per Si atom -5576.574305 kJ/mol
# Density = 1.576650 g / cm^3
# Si number density = 15.802469 Si / 1000 Ang^3
#
#
#
# Elastic Constant Matrix: (Units=GPa)
#
#
# Indices 1 2 3 4 5 6 
#
# 1 112.3851 59.5561 52.5921 0.0000 0.0000 0.0000
# 2 59.5561 121.8817 40.4178 0.0000 0.0000 0.0000
# 3 52.5921 40.4178 70.8344 0.0000 0.0000 0.0000
# 4 0.0000 0.0000 0.0000 -35.4982 0.0000 0.0000
# 5 0.0000 0.0000 0.0000 0.0000 8.8499 0.0000
# 6 0.0000 0.0000 0.0000 0.0000 0.0000 26.7543
#
#
#
# Elastic Compliance Matrix: (Units=1/GPa)
#
#
# Indices 1 2 3 4 5 6 
#
# 1 0.015503 -0.004636 -0.008866 0.000000 0.000000 0.000000
# 2 -0.004636 0.011505 -0.003123 0.000000 0.000000 0.000000
# 3 -0.008866 -0.003123 0.022482 0.000000 0.000000 0.000000
# 4 0.000000 0.000000 0.000000 -0.028170 0.000000 0.000000
# 5 0.000000 0.000000 0.000000 0.000000 0.112995 0.000000
# 6 0.000000 0.000000 0.000000 0.000000 0.000000 0.037377
#
#
# Mechanical properties :
#
#
# Convention : Reuss Voigt Hill
#
# Bulk Modulus (GPa) = 61.56913 67.80369 64.68641
# Shear Modulus (GPa) = 23.76930 10.19023 16.97976
#
# Velocity S-wave (km/s) = 3.88255 2.54215 3.28151
# Velocity P-wave (km/s) = 7.69059 7.18449 7.44184
#
# Compressibility (1/GPa) = 0.01624191
#
# Stress axis : x y z
#
# Youngs Moduli (GPa) = 64.50253 86.91507 44.48001
#
# Poissons Ratio (x) = 0.40290 0.39434
# Poissons Ratio (y) = 0.29900 0.13892
# Poissons Ratio (z) = 0.57186 0.27146
#
# Static dielectric constant tensor:
#      x y z
#    x 1.539870 0.000000 0.000000 
#    y 0.000000 1.505920 0.000000 
#    z 0.000000 0.000000 1.562480 
# 
# From -- ./inp_files/6440.got.cif
#   From: 2010.05.17/outbox.ucp.g08.bks.cvg/sg28_4_cif.got.tgz:6440.got - 2010.06.11 15:23:59.
