data_PCOD9339351
_publ_section_title
;
Structure prediction by ZEFSAII (Michael W. Deem and Ramdas Pophale) SiO2 
 PCOD9339351
Probable space group: P M A 2
;
_chemical_formula_sum "Si O2"
_cell_formula_units_Z 28
_cell_length_a 16.743700
_cell_length_b 10.072566
_cell_length_c 6.733600
_cell_angle_alpha 90.000000
_cell_angle_beta 90.000000
_cell_angle_gamma 90.000000
_cell_volume 1135.635264
_symmetry_space_group_name_H-M "P M A 2"
_symmetry_group_IT_number 28
_symmetry_cell_setting 'orthorhombic'
loop_
_space_group_symop_operation_xyz
x,y,z
-x,-y,z
1/2-x,y,z
1/2+x,-y,z
loop_
_atom_site_type_symbol
_atom_site_label
_atom_site_fract_x
_atom_site_fract_y
_atom_site_fract_z
Si Si1 0.161265 0.892927 0.683230
Si Si2 0.085995 0.064118 0.428935
Si Si3 0.908739 0.943497 0.936822
Si Si4 0.907472 0.391187 0.686986
Si Si5 0.927565 0.640782 0.915304
Si Si6 0.847000 0.125485 0.186512
Si Si7 0.007554 0.680434 0.305990
O O1 0.250000 0.947131 0.686419
O O2 0.151102 0.732878 0.687570
O O3 0.144497 0.911791 0.434517
O O4 0.143704 0.912142 0.935829
O O5 0.103260 0.037130 0.677977
O O6 0.056318 0.220805 0.418158
O O7 0.119971 0.045319 0.188323
O O8 0.000000 0.000000 0.408945
O O9 0.891957 0.786554 0.922445
O O10 0.000000 0.000000 0.952151
O O11 0.881245 0.525588 0.797312
O O12 0.941010 0.402749 0.464249
O O13 0.987382 0.348719 0.804449
O O14 0.952512 0.611199 0.140991
O O15 0.750000 0.157840 0.184810
O O16 0.921463 0.233887 0.195628
#
# Coordination Sequence:
#
# PCOD9339351 Si02
#       7
#     4   4   4   4   4   4   4
#     4  12  23  38  64 101 140 178 230 292 356 423
#     4  10  18  34  63  97 128 172 223 288 342 406
#     4  12  20  39  66  97 139 180 227 293 351 409
#     4  11  24  40  65  96 135 182 231 284 347 419
#     4  11  24  41  64 100 134 173 237 287 339 423
#     4  11  20  33  62 105 139 172 225 294 363 413
#     4  11  21  41  69  99 141 184 235 298 351 412
#
# _framework density 24.655805000000001
#
# number of rings (size 3 to 8) (size 9 to 14) (size 15 to 20)
#    0.000    0.857    7.143    2.571    0.000    2.286 
#    0.000    1.429    0.000    0.000    0.000    2.000 
#    0.000    0.000    0.000    0.000    0.000    0.000 
#
# Total GULP energy -155868.773101 kJ/mol
# GULP energy per Si atom -5566.741896 kJ/mol
# Density = 2.459969 g / cm^3
# Si number density = 24.655805 Si / 1000 Ang^3
#
#
#
# Elastic Constant Matrix: (Units=GPa)
#
#
# Indices 1 2 3 4 5 6 
#
# 1 91.0016 29.3214 16.2212 0.0000 0.0000 0.0000
# 2 29.3214 181.9611 97.7044 0.0000 0.0000 0.0000
# 3 16.2212 97.7044 227.1536 0.0000 0.0000 0.0000
# 4 0.0000 0.0000 0.0000 65.1583 0.0000 0.0000
# 5 0.0000 0.0000 0.0000 0.0000 58.7449 0.0000
# 6 0.0000 0.0000 0.0000 0.0000 0.0000 13.3460
#
#
#
# Elastic Compliance Matrix: (Units=1/GPa)
#
#
# Indices 1 2 3 4 5 6 
#
# 1 0.011591 -0.001851 -0.000032 0.000000 0.000000 0.000000
# 2 -0.001851 0.007442 -0.003069 0.000000 0.000000 0.000000
# 3 -0.000032 -0.003069 0.005724 0.000000 0.000000 0.000000
# 4 0.000000 0.000000 0.000000 0.015347 0.000000 0.000000
# 5 0.000000 0.000000 0.000000 0.000000 0.017023 0.000000
# 6 0.000000 0.000000 0.000000 0.000000 0.000000 0.074929
#
#
# Mechanical properties :
#
#
# Convention : Reuss Voigt Hill
#
# Bulk Modulus (GPa) = 67.31853 87.40115 77.35984
# Shear Modulus (GPa) = 34.03452 51.24111 42.63781
#
# Velocity S-wave (km/s) = 3.71938 4.56374 4.16302
# Velocity P-wave (km/s) = 6.76814 7.95586 7.38591
#
# Compressibility (1/GPa) = 0.01485475
#
# Stress axis : x y z
#
# Youngs Moduli (GPa) = 86.27540 134.37889 174.68837
#
# Poissons Ratio (x) = 0.24870 0.00553
# Poissons Ratio (y) = 0.15968 0.53606
# Poissons Ratio (z) = 0.00273 0.41236
#
# Static dielectric constant tensor:
#      x y z
#    x 1.815110 0.000000 0.000000 
#    y 0.000000 2.073640 0.000000 
#    z 0.000000 0.000000 2.207910 
# 
# From -- ./inp_files/1384.got.cif
#   From: 2010.05.17/outbox.cif.g08.bks.cpg/sg28_1_cif.got.tgz:1384.got - 2010.06.04 01:15:21.
