data_PCOD9339084
_publ_section_title
;
Structure prediction by ZEFSAII (Michael W. Deem and Ramdas Pophale) SiO2 
 PCOD9339084
Probable space group: P C C 2
;
_chemical_formula_sum "Si O2"
_cell_formula_units_Z 20
_cell_length_a 4.817712
_cell_length_b 12.461432
_cell_length_c 12.529777
_cell_angle_alpha 90.000000
_cell_angle_beta 90.000000
_cell_angle_gamma 90.000000
_cell_volume 752.232561
_symmetry_space_group_name_H-M "P C C 2"
_symmetry_group_IT_number 27
_symmetry_cell_setting 'orthorhombic'
loop_
_space_group_symop_operation_xyz
x,y,z
-x,-y,z
-x,y,1/2+z
x,-y,1/2+z
loop_
_atom_site_type_symbol
_atom_site_label
_atom_site_fract_x
_atom_site_fract_y
_atom_site_fract_z
Si Si1 0.951311 0.831454 0.180480
Si Si2 0.261556 0.578286 0.975151
Si Si3 0.154255 0.610387 0.202741
Si Si4 0.849578 0.752650 0.883009
Si Si5 0.480886 0.883840 0.044159
O O1 0.927428 0.701948 0.174619
O O2 0.048508 0.845721 0.302330
O O3 0.176642 0.861049 0.089868
O O4 0.670767 0.888071 0.150233
O O5 0.500000 0.500000 0.930068
O O6 0.000000 0.500000 0.988070
O O7 0.114462 0.682880 0.923196
O O8 0.340927 0.603918 0.097924
O O9 0.300345 0.669066 0.301834
O O10 0.000000 0.500000 0.230171
O O11 0.639588 0.797436 0.970316
O O12 0.500000 0.000000 0.990769
#
# Coordination Sequence:
#
# PCOD9339084 Si02
#       5
#     4   4   4   4   4
#     4  10  26  46  74 112 158 195 265 325 390 474
#     4  11  24  41  71 107 154 207 251 304 385 473
#     4   9  21  46  69 112 158 205 244 314 392 474
#     4  10  23  48  75 116 154 207 265 326 386 490
#     4  12  26  51  78 111 152 210 265 340 403 462
#
# _framework density 26.587520000000001
#
# number of rings (size 3 to 8) (size 9 to 14) (size 15 to 20)
#    1.200    0.400    2.000    1.200    2.800    4.000 
#    0.000    4.000    0.000    0.000    0.000    0.000 
#    0.000    0.000    0.000    0.000    0.000    0.000 
#
# Total GULP energy -111698.567452 kJ/mol
# GULP energy per Si atom -5584.928373 kJ/mol
# Density = 2.652701 g / cm^3
# Si number density = 26.587520 Si / 1000 Ang^3
#
#
#
# Elastic Constant Matrix: (Units=GPa)
#
#
# Indices 1 2 3 4 5 6 
#
# 1 111.7743 38.2554 -2.5691 0.0000 0.0000 0.0000
# 2 38.2554 128.0978 30.8401 0.0000 0.0000 0.0000
# 3 -2.5691 30.8401 88.2460 0.0000 0.0000 0.0000
# 4 0.0000 0.0000 0.0000 13.7825 0.0000 0.0000
# 5 0.0000 0.0000 0.0000 0.0000 10.9581 0.0000
# 6 0.0000 0.0000 0.0000 0.0000 0.0000 28.8493
#
#
#
# Elastic Compliance Matrix: (Units=1/GPa)
#
#
# Indices 1 2 3 4 5 6 
#
# 1 0.010139 -0.003384 0.001478 0.000000 0.000000 0.000000
# 2 -0.003384 0.009653 -0.003472 0.000000 0.000000 0.000000
# 3 0.001478 -0.003472 0.012588 0.000000 0.000000 0.000000
# 4 0.000000 0.000000 0.000000 0.072556 0.000000 0.000000
# 5 0.000000 0.000000 0.000000 0.000000 0.091257 0.000000
# 6 0.000000 0.000000 0.000000 0.000000 0.000000 0.034663
#
#
# Mechanical properties :
#
#
# Convention : Reuss Voigt Hill
#
# Bulk Modulus (GPa) = 46.24477 51.24121 48.74299
# Shear Modulus (GPa) = 20.09494 28.15743 24.12618
#
# Velocity S-wave (km/s) = 2.75217 3.25783 3.01562
# Velocity P-wave (km/s) = 5.24694 5.78496 5.52251
#
# Compressibility (1/GPa) = 0.02162407
#
# Stress axis : x y z
#
# Youngs Moduli (GPa) = 98.63285 103.59575 79.43843
#
# Poissons Ratio (x) = 0.35052 -0.11738
# Poissons Ratio (y) = 0.33373 0.27581
# Poissons Ratio (z) = -0.14575 0.35968
#
# Static dielectric constant tensor:
#      x y z
#    x 2.063070 0.000000 0.000000 
#    y 0.000000 2.177480 0.000000 
#    z 0.000000 0.000000 2.190610 
# 
# From -- ./inp_files/2948.got.cif
#   From: 2010.05.17/outbox.cif.g08.bks.cpg/sg27_2_cif.got.tgz:2948.got - 2010.06.04 01:11:05.
