data_PCOD9339657
_publ_section_title
;
Structure prediction by ZEFSAII (Michael W. Deem and Ramdas Pophale) SiO2 
 PCOD9339657
Probable space group: P M A 2
;
_chemical_formula_sum "Si O2"
_cell_formula_units_Z 28
_cell_length_a 8.641877
_cell_length_b 9.373919
_cell_length_c 18.699174
_cell_angle_alpha 90.000000
_cell_angle_beta 90.000000
_cell_angle_gamma 90.000000
_cell_volume 1514.787456
_symmetry_space_group_name_H-M "P M A 2"
_symmetry_group_IT_number 28
_symmetry_cell_setting 'orthorhombic'
loop_
_space_group_symop_operation_xyz
x,y,z
-x,-y,z
1/2-x,y,z
1/2+x,-y,z
loop_
_atom_site_type_symbol
_atom_site_label
_atom_site_fract_x
_atom_site_fract_y
_atom_site_fract_z
Si Si1 0.564856 0.660165 0.468860
Si Si2 0.564170 0.340382 0.038759
Si Si3 0.064392 0.161366 0.906969
Si Si4 0.435303 0.161351 0.748009
Si Si5 0.065254 0.838883 0.600653
Si Si6 0.063495 0.840639 0.177455
Si Si7 0.936363 0.339913 0.316243
O O1 0.500000 0.500000 0.476473
O O2 0.750000 0.658050 0.468803
O O3 0.501598 0.752989 0.533965
O O4 0.503466 0.712785 0.391863
O O5 0.500000 0.500000 0.041875
O O6 0.750000 0.344813 0.037896
O O7 0.513577 0.251075 0.108646
O O8 0.504745 0.259220 0.968554
O O9 0.250000 0.155284 0.913088
O O10 0.026991 0.219254 0.827001
O O11 0.000000 0.000000 0.913487
O O12 0.250000 0.158302 0.739809
O O13 0.509537 0.226181 0.676711
O O14 0.500000 0.000000 0.750234
O O15 0.250000 0.842372 0.598676
O O16 0.000000 0.000000 0.597250
O O17 0.250000 0.846581 0.176515
O O18 0.017378 0.759858 0.250199
O O19 0.000000 0.000000 0.174294
O O20 0.750000 0.345944 0.320563
O O21 0.000000 0.500000 0.304797
#
# Coordination Sequence:
#
# PCOD9339657 Si02
#       7
#     4   4   4   4   4   4   4
#     4  11  22  38  58  82 112 148 187 228 277 331
#     4  11  23  39  58  82 112 148 187 228 277 331
#     4  10  20  35  57  84 113 146 185 230 277 328
#     4   9  17  31  52  79 110 144 183 227 277 329
#     4  11  21  35  56  83 113 147 187 231 278 328
#     4  10  23  39  58  84 113 144 181 226 274 326
#     4  10  20  37  58  82 110 143 184 226 273 329
#
# _framework density 18.484441
#
# number of rings (size 3 to 8) (size 9 to 14) (size 15 to 20)
#    0.000    1.714    0.000    6.857    0.000    5.714 
#    0.000    2.143    0.000    3.429    0.000    0.000 
#    0.000    0.000    0.000    0.000    0.000    0.000 
#
# Total GULP energy -156381.242509 kJ/mol
# GULP energy per Si atom -5585.044375 kJ/mol
# Density = 1.844237 g / cm^3
# Si number density = 18.484441 Si / 1000 Ang^3
#
#
#
# Elastic Constant Matrix: (Units=GPa)
#
#
# Indices 1 2 3 4 5 6 
#
# 1 111.2601 40.9892 78.1177 0.0000 0.0000 0.0000
# 2 40.9892 94.9551 99.8783 0.0000 0.0000 0.0000
# 3 78.1177 99.8783 225.7447 0.0000 0.0000 0.0000
# 4 0.0000 0.0000 0.0000 60.6502 0.0000 0.0000
# 5 0.0000 0.0000 0.0000 0.0000 41.4435 0.0000
# 6 0.0000 0.0000 0.0000 0.0000 0.0000 32.6251
#
#
#
# Elastic Compliance Matrix: (Units=1/GPa)
#
#
# Indices 1 2 3 4 5 6 
#
# 1 0.011988 -0.001518 -0.003477 0.000000 0.000000 0.000000
# 2 -0.001518 0.019891 -0.008275 0.000000 0.000000 0.000000
# 3 -0.003477 -0.008275 0.009294 0.000000 0.000000 0.000000
# 4 0.000000 0.000000 0.000000 0.016488 0.000000 0.000000
# 5 0.000000 0.000000 0.000000 0.000000 0.024129 0.000000
# 6 0.000000 0.000000 0.000000 0.000000 0.000000 0.030651
#
#
# Mechanical properties :
#
#
# Convention : Reuss Voigt Hill
#
# Bulk Modulus (GPa) = 68.33664 96.65890 82.49777
# Shear Modulus (GPa) = 34.75611 41.14208 37.94909
#
# Velocity S-wave (km/s) = 4.34094 4.72292 4.53595
# Velocity P-wave (km/s) = 7.88511 9.06349 8.49476
#
# Compressibility (1/GPa) = 0.01463344
#
# Stress axis : x y z
#
# Youngs Moduli (GPa) = 83.41425 50.27458 107.59307
#
# Poissons Ratio (x) = 0.07630 0.37410
# Poissons Ratio (y) = 0.12660 0.89036
# Poissons Ratio (z) = 0.29003 0.41604
#
# Static dielectric constant tensor:
#      x y z
#    x 1.619880 0.000000 0.000000 
#    y 0.000000 1.600300 0.000000 
#    z 0.000000 0.000000 1.662970 
# 
# From -- ./inp_files/6848.got.cif
#   From: 2010.05.17/outbox.cif.g08.bks.cpg/sg28_4_cif.got.tgz:6848.got - 2010.06.04 01:15:21.
