data_PCOD9339545
_publ_section_title
;
Structure prediction by ZEFSAII (Michael W. Deem and Ramdas Pophale) SiO2 
 PCOD9339545
Probable space group: P M A 2
;
_chemical_formula_sum "Si O2"
_cell_formula_units_Z 32
_cell_length_a 14.618536
_cell_length_b 9.575700
_cell_length_c 9.698237
_cell_angle_alpha 90.000000
_cell_angle_beta 90.000000
_cell_angle_gamma 90.000000
_cell_volume 1357.585548
_symmetry_space_group_name_H-M "P M A 2"
_symmetry_group_IT_number 28
_symmetry_cell_setting 'orthorhombic'
loop_
_space_group_symop_operation_xyz
x,y,z
-x,-y,z
1/2-x,y,z
1/2+x,-y,z
loop_
_atom_site_type_symbol
_atom_site_label
_atom_site_fract_x
_atom_site_fract_y
_atom_site_fract_z
Si Si1 0.140805 0.052795 0.525140
Si Si2 0.104372 0.450042 0.748051
Si Si3 0.142877 0.128210 0.832647
Si Si4 0.649740 0.452925 0.448505
Si Si5 0.894761 0.547591 0.174278
Si Si6 0.845153 0.322379 0.967413
Si Si7 0.473859 0.809299 0.386256
Si Si8 0.973211 0.813880 0.065809
O O1 0.250000 0.075433 0.501767
O O2 0.126624 0.043608 0.690608
O O3 0.069169 0.167264 0.466773
O O4 0.100886 0.916783 0.447791
O O5 0.118949 0.290070 0.792402
O O6 0.138280 0.475126 0.594255
O O7 0.000000 0.500000 0.754520
O O8 0.151108 0.563454 0.846949
O O9 0.250000 0.121245 0.864101
O O10 0.083449 0.084819 0.965778
O O11 0.750000 0.384457 0.443068
O O12 0.642770 0.564090 0.325890
O O13 0.570391 0.341013 0.416346
O O14 0.845035 0.419499 0.102852
O O15 0.899373 0.688839 0.089404
O O16 0.000000 0.500000 0.176262
O O17 0.750000 0.240331 0.957579
O O18 0.938569 0.237941 0.980694
O O19 0.492614 0.839279 0.223240
#
# Coordination Sequence:
#
# PCOD9339545 Si02
#       8
#     4   4   4   4   4   4   4   4
#     4  10  25  49  72  97 127 174 236 294 347 397
#     4  12  22  37  59  92 143 185 224 277 334 408
#     4  11  23  42  67  99 138 182 229 277 339 413
#     4  12  24  36  61 102 141 182 226 273 337 408
#     4  10  19  35  54  90 138 177 212 260 330 404
#     4  11  20  35  57  91 139 183 218 264 331 410
#     4  11  24  45  73  96 133 178 226 291 346 397
#     4  11  23  40  65 100 138 182 222 274 343 413
#
# _framework density 23.571259000000001
#
# number of rings (size 3 to 8) (size 9 to 14) (size 15 to 20)
#    0.000    1.000    5.000    3.375    1.750    1.500 
#    0.000    2.500    0.000    0.000    0.000    0.000 
#    0.000    0.000    0.000    0.000    0.000    0.000 
#
# Total GULP energy -178863.880124 kJ/mol
# GULP energy per Si atom -5589.496254 kJ/mol
# Density = 2.351761 g / cm^3
# Si number density = 23.571259 Si / 1000 Ang^3
#
#
#
# Elastic Constant Matrix: (Units=GPa)
#
#
# Indices 1 2 3 4 5 6 
#
# 1 158.5079 3.4515 41.7033 0.0000 0.0000 0.0000
# 2 3.4515 63.0830 7.5833 0.0000 0.0000 0.0000
# 3 41.7033 7.5833 165.0442 0.0000 0.0000 0.0000
# 4 0.0000 0.0000 0.0000 14.9305 0.0000 0.0000
# 5 0.0000 0.0000 0.0000 0.0000 65.6819 0.0000
# 6 0.0000 0.0000 0.0000 0.0000 0.0000 7.3200
#
#
#
# Elastic Compliance Matrix: (Units=1/GPa)
#
#
# Indices 1 2 3 4 5 6 
#
# 1 0.006760 -0.000165 -0.001700 0.000000 0.000000 0.000000
# 2 -0.000165 0.015944 -0.000691 0.000000 0.000000 0.000000
# 3 -0.001700 -0.000691 0.006520 0.000000 0.000000 0.000000
# 4 0.000000 0.000000 0.000000 0.066977 0.000000 0.000000
# 5 0.000000 0.000000 0.000000 0.000000 0.015225 0.000000
# 6 0.000000 0.000000 0.000000 0.000000 0.000000 0.136612
#
#
# Mechanical properties :
#
#
# Convention : Reuss Voigt Hill
#
# Bulk Modulus (GPa) = 41.47476 54.67904 48.07690
# Shear Modulus (GPa) = 19.14323 39.84628 29.49475
#
# Velocity S-wave (km/s) = 2.85290 4.11598 3.54121
# Velocity P-wave (km/s) = 5.33721 6.77024 6.09598
#
# Compressibility (1/GPa) = 0.02411105
#
# Stress axis : x y z
#
# Youngs Moduli (GPa) = 147.93281 62.71867 153.36498
#
# Poissons Ratio (x) = 0.01038 0.26079
# Poissons Ratio (y) = 0.02447 0.10594
# Poissons Ratio (z) = 0.25155 0.04333
#
# Static dielectric constant tensor:
#      x y z
#    x 1.856450 0.000000 0.000000 
#    y 0.000000 1.954520 0.000000 
#    z 0.000000 0.000000 1.895930 
# 
# From -- ./inp_files/3523.got.cif
#   From: 2010.05.17/outbox.cif.g08.bks.cpg/sg28_2_cif.got.tgz:3523.got - 2010.06.04 01:15:21.
