data_PCOD9339013
_publ_section_title
;
Structure prediction by ZEFSAII (Michael W. Deem and Ramdas Pophale) SiO2 
 PCOD9339013
Probable space group: P C C 2
;
_chemical_formula_sum "Si O2"
_cell_formula_units_Z 26
_cell_length_a 9.104207
_cell_length_b 9.688464
_cell_length_c 14.054541
_cell_angle_alpha 90.000000
_cell_angle_beta 90.000000
_cell_angle_gamma 90.000000
_cell_volume 1239.691776
_symmetry_space_group_name_H-M "P C C 2"
_symmetry_group_IT_number 27
_symmetry_cell_setting 'orthorhombic'
loop_
_space_group_symop_operation_xyz
x,y,z
-x,-y,z
-x,y,1/2+z
x,-y,1/2+z
loop_
_atom_site_type_symbol
_atom_site_label
_atom_site_fract_x
_atom_site_fract_y
_atom_site_fract_z
Si Si1 0.348408 0.523335 0.085740
Si Si2 0.860092 0.401963 0.724420
Si Si3 0.055087 0.144919 0.758956
Si Si4 0.637197 0.786871 0.695870
Si Si5 0.824033 0.485065 0.422658
Si Si6 0.704289 0.177058 0.404071
Si Si7 0.500000 0.000000 0.546110
O O1 0.500000 0.500000 0.031900
O O2 0.256219 0.405379 0.139629
O O3 0.397295 0.633229 0.164207
O O4 0.239819 0.579496 0.005570
O O5 0.785956 0.468821 0.816760
O O6 0.000000 0.500000 0.698939
O O7 0.926527 0.256391 0.756403
O O8 0.185883 0.202725 0.694244
O O9 0.140281 0.122156 0.859676
O O10 0.000000 0.000000 0.722977
O O11 0.604385 0.814926 0.807259
O O12 0.572053 0.889966 0.618490
O O13 0.753513 0.332006 0.435417
O O14 0.000000 0.500000 0.426864
O O15 0.618990 0.083019 0.480382
#
# Coordination Sequence:
#
# PCOD9339013 Si02
#       7
#     4   4   4   4   4   4   2
#     4  12  25  40  68 106 132 180 233 282 351 418
#     4  11  19  46  69  89 138 181 219 292 339 390
#     4  10  22  41  70  99 131 182 235 276 346 406
#     4  10  23  46  63  93 141 179 223 278 342 417
#     4  11  21  41  72  95 131 183 231 290 337 405
#     4  10  22  45  67  96 141 181 227 282 348 418
#     4  12  24  42  68 102 146 186 218 286 360 426
#
# _framework density 20.972954000000001
#
# number of rings (size 3 to 8) (size 9 to 14) (size 15 to 20)
#    0.923    0.308    6.154    1.846    0.000    4.308 
#    2.769    0.000    0.000    0.000    0.000    0.000 
#    0.000    0.000    0.000    0.000    0.000    0.000 
#
# Total GULP energy -144741.376188 kJ/mol
# GULP energy per Si atom -5566.976007 kJ/mol
# Density = 2.092522 g / cm^3
# Si number density = 20.972954 Si / 1000 Ang^3
#
#
#
# Elastic Constant Matrix: (Units=GPa)
#
#
# Indices 1 2 3 4 5 6 
#
# 1 62.2746 24.7469 45.7538 0.0000 0.0000 0.0000
# 2 24.7469 84.6791 15.3224 0.0000 0.0000 0.0000
# 3 45.7538 15.3224 117.3687 0.0000 0.0000 0.0000
# 4 0.0000 0.0000 0.0000 -4.2449 0.0000 0.0000
# 5 0.0000 0.0000 0.0000 0.0000 -51.9628 0.0000
# 6 0.0000 0.0000 0.0000 0.0000 0.0000 28.8701
#
#
#
# Elastic Compliance Matrix: (Units=1/GPa)
#
#
# Indices 1 2 3 4 5 6 
#
# 1 0.024891 -0.005652 -0.008965 0.000000 0.000000 0.000000
# 2 -0.005652 0.013378 0.000457 0.000000 0.000000 0.000000
# 3 -0.008965 0.000457 0.011955 0.000000 0.000000 0.000000
# 4 0.000000 0.000000 0.000000 -0.235578 0.000000 0.000000
# 5 0.000000 0.000000 0.000000 0.000000 -0.019245 0.000000
# 6 0.000000 0.000000 0.000000 0.000000 0.000000 0.034638
#
#
# Mechanical properties :
#
#
# Convention : Reuss Voigt Hill
#
# Bulk Modulus (GPa) = 45.65443 48.44095 47.04769
# Shear Modulus (GPa) = -37.21972 6.43244 -15.39364
#
# Velocity S-wave (km/s) = -4.21723 1.75319 -2.71214
# Velocity P-wave (km/s) = 1.37765 5.21970 3.56001
#
# Compressibility (1/GPa) = 0.02190368
#
# Stress axis : x y z
#
# Youngs Moduli (GPa) = 40.17553 74.74745 83.64373
#
# Poissons Ratio (x) = 0.42247 0.74989
# Poissons Ratio (y) = 0.22707 -0.03820
# Poissons Ratio (z) = 0.36019 -0.03414
#
# Static dielectric constant tensor:
#      x y z
#    x 1.920070 0.000000 0.000000 
#    y 0.000000 1.878490 0.000000 
#    z 0.000000 0.000000 1.776750 
# 
# From -- ./inp_files/3358.got.cif
#   From: 2010.05.17/outbox.cif.g08.bks.cpg/sg27_2_cif.got.tgz:3358.got - 2010.06.04 01:11:05.
