data_PCOD9339988
_publ_section_title
;
Structure prediction by ZEFSAII (Michael W. Deem and Ramdas Pophale) SiO2 
 PCOD9339988
Probable space group: P C A 21
;
_chemical_formula_sum "Si O2"
_cell_formula_units_Z 32
_cell_length_a 5.410609
_cell_length_b 7.079485
_cell_length_c 35.745991
_cell_angle_alpha 90.000000
_cell_angle_beta 90.000000
_cell_angle_gamma 90.000000
_cell_volume 1369.226066
_symmetry_space_group_name_H-M "P C A 21"
_symmetry_group_IT_number 29
_symmetry_cell_setting 'orthorhombic'
loop_
_space_group_symop_operation_xyz
x,y,z
-x,-y,1/2+z
1/2-x,y,1/2+z
1/2+x,-y,z
loop_
_atom_site_type_symbol
_atom_site_label
_atom_site_fract_x
_atom_site_fract_y
_atom_site_fract_z
Si Si1 0.090027 0.714875 0.476080
Si Si2 0.915195 0.278441 0.828320
Si Si3 0.584380 0.220217 0.637355
Si Si4 0.021619 0.122195 0.053808
Si Si5 0.026897 0.624540 0.244287
Si Si6 0.915887 0.789202 0.167064
Si Si7 0.584862 0.709967 0.358545
Si Si8 0.409748 0.287337 0.946043
O O1 0.359831 0.800294 0.468121
O O2 0.118144 0.498815 0.462715
O O3 0.016633 0.738305 0.519083
O O4 0.862080 0.796479 0.452205
O O5 0.977801 0.276995 0.784695
O O6 0.644715 0.199728 0.836925
O O7 0.889839 0.497780 0.841847
O O8 0.146327 0.202977 0.851719
O O9 0.506972 0.217519 0.594266
O O10 0.859443 0.297972 0.643108
O O11 0.355178 0.298697 0.661122
O O12 0.612959 0.003503 0.652284
O O13 0.291585 0.025552 0.051666
O O14 0.289756 0.515524 0.242199
O O15 0.997179 0.767775 0.209840
O O16 0.528457 0.701516 0.402399
#
# Coordination Sequence:
#
# PCOD9339988 Si02
#       8
#     4   4   4   4   4   4   4   4
#     4  10  20  32  54  80 115 139 173 223 280 314
#     4  10  16  27  43  75 107 144 176 203 246 309
#     4  10  19  40  59  79  92 136 202 236 254 303
#     4  12  21  37  62  81 105 136 184 245 263 310
#     4  12  21  34  50  81 129 142 161 221 281 338
#     4  10  20  35  61  76 104 139 180 234 267 309
#     4  10  16  28  51  69 111 142 186 206 233 317
#     4  10  19  35  52  83 117 144 172 218 266 336
#
# _framework density 23.370867000000001
#
# number of rings (size 3 to 8) (size 9 to 14) (size 15 to 20)
#    0.000    1.500    5.000    5.250    0.000    0.000 
#    0.000    0.000   16.500    0.000    0.000    0.000 
#  127.500    0.000    0.000    0.000    0.000    0.000 
#
# Total GULP energy -178754.046407 kJ/mol
# GULP energy per Si atom -5586.063950 kJ/mol
# Density = 2.331767 g / cm^3
# Si number density = 23.370867 Si / 1000 Ang^3
#
#
#
# Elastic Constant Matrix: (Units=GPa)
#
#
# Indices 1 2 3 4 5 6 
#
# 1 170.0631 -25.6883 -34.8129 0.0000 0.0000 0.0000
# 2 -25.6883 60.9605 -20.8179 0.0000 0.0000 0.0000
# 3 -34.8129 -20.8179 122.2821 0.0000 0.0000 0.0000
# 4 0.0000 0.0000 0.0000 10.2070 0.0000 0.0000
# 5 0.0000 0.0000 0.0000 0.0000 44.4313 0.0000
# 6 0.0000 0.0000 0.0000 0.0000 0.0000 -10.8103
#
#
#
# Elastic Compliance Matrix: (Units=1/GPa)
#
#
# Indices 1 2 3 4 5 6 
#
# 1 0.007006 0.003857 0.002651 0.000000 0.000000 0.000000
# 2 0.003857 0.019541 0.004425 0.000000 0.000000 0.000000
# 3 0.002651 0.004425 0.009686 0.000000 0.000000 0.000000
# 4 0.000000 0.000000 0.000000 0.097972 0.000000 0.000000
# 5 0.000000 0.000000 0.000000 0.000000 0.022507 0.000000
# 6 0.000000 0.000000 0.000000 0.000000 0.000000 -0.092504
#
#
# Mechanical properties :
#
#
# Convention : Reuss Voigt Hill
#
# Bulk Modulus (GPa) = 17.21196 21.18525 19.19860
# Shear Modulus (GPa) = 81.02938 37.74057 59.38498
#
# Velocity S-wave (km/s) = 5.89461 4.02289 5.04629
# Velocity P-wave (km/s) = 7.32866 5.53739 6.49507
#
# Compressibility (1/GPa) = 0.05809915
#
# Stress axis : x y z
#
# Youngs Moduli (GPa) = 142.74393 51.17529 103.24288
#
# Poissons Ratio (x) = -0.19741 -0.27371
# Poissons Ratio (y) = -0.55063 -0.45684
# Poissons Ratio (z) = -0.37844 -0.22645
#
# Static dielectric constant tensor:
#      x y z
#    x 1.982640 0.000000 0.000000 
#    y 0.000000 1.679520 0.000000 
#    z 0.000000 0.000000 1.820440 
# 
# From -- ./inp_files/5805.got.cif
#   From: 2010.05.17/outbox.cif.g08.bks.cpg/sg29_3_cif.got.tgz:5805.got - 2010.06.04 01:19:37.
