data_PCOD9339802
_publ_section_title
;
Structure prediction by ZEFSAII (Michael W. Deem and Ramdas Pophale) SiO2 
 PCOD9339802
Probable space group: P M A 2
;
_chemical_formula_sum "Si O2"
_cell_formula_units_Z 24
_cell_length_a 17.652984
_cell_length_b 11.668016
_cell_length_c 5.424866
_cell_angle_alpha 90.000000
_cell_angle_beta 90.000000
_cell_angle_gamma 90.000000
_cell_volume 1117.388401
_symmetry_space_group_name_H-M "P M A 2"
_symmetry_group_IT_number 28
_symmetry_cell_setting 'orthorhombic'
loop_
_space_group_symop_operation_xyz
x,y,z
-x,-y,z
1/2-x,y,z
1/2+x,-y,z
loop_
_atom_site_type_symbol
_atom_site_label
_atom_site_fract_x
_atom_site_fract_y
_atom_site_fract_z
Si Si1 0.928511 0.818222 0.156100
Si Si2 0.660209 0.487162 0.926187
Si Si3 0.448108 0.916539 0.510824
Si Si4 0.339342 0.372311 0.433432
Si Si5 0.160602 0.968648 0.125601
Si Si6 0.927721 0.250947 0.893549
O O1 0.884662 0.739888 0.351230
O O2 0.871547 0.909122 0.030213
O O3 0.989416 0.892634 0.303819
O O4 0.985212 0.746571 0.983891
O O5 0.750000 0.462725 0.894337
O O6 0.638309 0.567105 0.691239
O O7 0.613527 0.370110 0.925675
O O8 0.651095 0.546199 0.193105
O O9 0.431115 0.791591 0.614590
O O10 0.500000 0.000000 0.683768
O O11 0.369655 0.965483 0.408700
O O12 0.250000 0.345113 0.454428
O O13 0.250000 0.961835 0.103002
O O14 0.120315 0.856008 0.010652
#
# Coordination Sequence:
#
# PCOD9339802 Si02
#       6
#     4   4   4   4   4   4
#     4  10  22  39  63  92 127 168 210 273 327 395
#     4  10  24  43  66  92 129 172 220 271 322 384
#     4   9  20  38  58  88 126 158 203 259 323 384
#     4  10  23  45  66  93 129 173 219 271 324 384
#     4  10  21  38  63  93 124 166 215 266 331 401
#     4  11  22  39  61  94 126 167 212 271 332 393
#
# _framework density 21.478656000000001
#
# number of rings (size 3 to 8) (size 9 to 14) (size 15 to 20)
#    0.000    2.000    0.000    3.500    7.000    2.000 
#    0.000    0.000    0.000    0.000    0.000    0.000 
#    0.000    0.000    0.000    0.000    0.000    0.000 
#
# Total GULP energy -133733.687598 kJ/mol
# GULP energy per Si atom -5572.236983 kJ/mol
# Density = 2.142977 g / cm^3
# Si number density = 21.478656 Si / 1000 Ang^3
#
#
#
# Elastic Constant Matrix: (Units=GPa)
#
#
# Indices 1 2 3 4 5 6 
#
# 1 117.5135 57.7926 26.7109 0.0000 0.0000 0.0000
# 2 57.7926 103.3299 14.0286 0.0000 0.0000 0.0000
# 3 26.7109 14.0286 54.7078 0.0000 0.0000 0.0000
# 4 0.0000 0.0000 0.0000 31.8517 0.0000 0.0000
# 5 0.0000 0.0000 0.0000 0.0000 16.7589 0.0000
# 6 0.0000 0.0000 0.0000 0.0000 0.0000 51.1978
#
#
#
# Elastic Compliance Matrix: (Units=1/GPa)
#
#
# Indices 1 2 3 4 5 6 
#
# 1 0.012747 -0.006511 -0.004554 0.000000 0.000000 0.000000
# 2 -0.006511 0.013353 -0.000245 0.000000 0.000000 0.000000
# 3 -0.004554 -0.000245 0.020565 0.000000 0.000000 0.000000
# 4 0.000000 0.000000 0.000000 0.031396 0.000000 0.000000
# 5 0.000000 0.000000 0.000000 0.000000 0.059670 0.000000
# 6 0.000000 0.000000 0.000000 0.000000 0.000000 0.019532
#
#
# Mechanical properties :
#
#
# Convention : Reuss Voigt Hill
#
# Bulk Modulus (GPa) = 41.58934 52.51284 47.05109
# Shear Modulus (GPa) = 26.61031 31.76295 29.18663
#
# Velocity S-wave (km/s) = 3.52365 3.84971 3.69028
# Velocity P-wave (km/s) = 5.99666 6.65299 6.33333
#
# Compressibility (1/GPa) = 0.02404462
#
# Stress axis : x y z
#
# Youngs Moduli (GPa) = 78.45033 74.89147 48.62579
#
# Poissons Ratio (x) = 0.48762 0.22144
# Poissons Ratio (y) = 0.51080 0.01191
# Poissons Ratio (z) = 0.35726 0.01835
#
# Static dielectric constant tensor:
#      x y z
#    x 1.762480 0.000000 0.000000 
#    y 0.000000 1.774480 0.000000 
#    z 0.000000 0.000000 1.948130 
# 
# From -- ./inp_files/1119.got.cif
#   From: 2010.05.17/outbox.cif.g08.bks.cpg/sg28_1_cif.got.tgz:1119.got - 2010.06.04 01:15:21.
