data_PCOD9339568
_publ_section_title
;
Structure prediction by ZEFSAII (Michael W. Deem and Ramdas Pophale) SiO2 
 PCOD9339568
Probable space group: P M A 2
;
_chemical_formula_sum "Si O2"
_cell_formula_units_Z 32
_cell_length_a 8.616240
_cell_length_b 15.817133
_cell_length_c 12.117049
_cell_angle_alpha 90.000000
_cell_angle_beta 90.000000
_cell_angle_gamma 90.000000
_cell_volume 1651.362499
_symmetry_space_group_name_H-M "P M A 2"
_symmetry_group_IT_number 28
_symmetry_cell_setting 'orthorhombic'
loop_
_space_group_symop_operation_xyz
x,y,z
-x,-y,z
1/2-x,y,z
1/2+x,-y,z
loop_
_atom_site_type_symbol
_atom_site_label
_atom_site_fract_x
_atom_site_fract_y
_atom_site_fract_z
Si Si1 0.561675 0.153352 0.585230
Si Si2 0.062842 0.909978 0.347988
Si Si3 0.062992 0.648309 0.577617
Si Si4 0.563994 0.409023 0.823376
Si Si5 0.065034 0.250205 0.959001
Si Si6 0.565747 0.590719 0.346377
Si Si7 0.436640 0.908864 0.824657
Si Si8 0.936533 0.253432 0.205746
O O1 0.750000 0.150412 0.585153
O O2 0.507358 0.108941 0.473122
O O3 0.520274 0.252415 0.582710
O O4 0.509468 0.110783 0.698913
O O5 0.250000 0.912480 0.349562
O O6 0.016594 0.831705 0.270987
O O7 0.000000 0.000000 0.310077
O O8 0.250000 0.642985 0.562139
O O9 0.023321 0.606905 0.694749
O O10 0.981199 0.606053 0.473742
O O11 0.500000 0.500000 0.858275
O O12 0.750000 0.407101 0.832361
O O13 0.495170 0.332556 0.894078
O O14 0.250000 0.247213 0.954153
O O15 0.995997 0.167022 0.900684
O O16 0.008256 0.254464 0.084633
O O17 0.500000 0.500000 0.311192
O O18 0.750000 0.592065 0.334840
O O19 0.491728 0.666157 0.275787
O O20 0.250000 0.909337 0.826314
O O21 0.500000 0.000000 0.859131
O O22 0.750000 0.254547 0.198365
#
# Coordination Sequence:
#
# PCOD9339568 Si02
#       8
#     4   4   4   4   4   4   4   4
#     4   9  17  35  62  92 126 164 202 247 309 371
#     4  10  21  38  63  92 125 161 200 248 305 366
#     4  10  19  38  65  93 128 167 206 252 310 374
#     4  11  23  41  66  95 128 167 209 257 313 377
#     4  12  26  44  65  92 125 163 213 267 317 378
#     4  12  25  41  64  96 129 165 208 257 312 376
#     4  11  22  40  65  95 129 168 210 259 315 377
#     4  11  24  45  68  89 121 166 212 262 317 371
#
# _framework density 19.377938
#
# number of rings (size 3 to 8) (size 9 to 14) (size 15 to 20)
#    0.000    1.250    2.500    4.125    0.000    4.000 
#    0.000    4.375    0.000    0.000    0.000    0.000 
#    0.000    0.000    0.000    0.000    0.000    0.000 
#
# Total GULP energy -178981.190466 kJ/mol
# GULP energy per Si atom -5593.162202 kJ/mol
# Density = 1.933383 g / cm^3
# Si number density = 19.377938 Si / 1000 Ang^3
#
#
#
# Elastic Constant Matrix: (Units=GPa)
#
#
# Indices 1 2 3 4 5 6 
#
# 1 74.3724 51.9106 48.9901 0.0000 0.0000 0.0000
# 2 51.9106 192.5250 74.9130 0.0000 0.0000 0.0000
# 3 48.9901 74.9130 134.2365 0.0000 0.0000 0.0000
# 4 0.0000 0.0000 0.0000 -7.7931 0.0000 0.0000
# 5 0.0000 0.0000 0.0000 0.0000 27.6104 0.0000
# 6 0.0000 0.0000 0.0000 0.0000 0.0000 30.7715
#
#
#
# Elastic Compliance Matrix: (Units=1/GPa)
#
#
# Indices 1 2 3 4 5 6 
#
# 1 0.019052 -0.003106 -0.005220 0.000000 0.000000 0.000000
# 2 -0.003106 0.007141 -0.002852 0.000000 0.000000 0.000000
# 3 -0.005220 -0.002852 0.010946 0.000000 0.000000 0.000000
# 4 0.000000 0.000000 0.000000 -0.128318 0.000000 0.000000
# 5 0.000000 0.000000 0.000000 0.000000 0.036218 0.000000
# 6 0.000000 0.000000 0.000000 0.000000 0.000000 0.032498
#
#
# Mechanical properties :
#
#
# Convention : Reuss Voigt Hill
#
# Bulk Modulus (GPa) = 67.63932 83.64014 75.63973
# Shear Modulus (GPa) = 1037.26487 25.13910 531.20199
#
# Velocity S-wave (km/s) = 23.16125 3.60572 16.57475
# Velocity P-wave (km/s) = 27.39049 7.78404 20.13492
#
# Compressibility (1/GPa) = 0.01478430
#
# Stress axis : x y z
#
# Youngs Moduli (GPa) = 52.48764 140.03176 91.35766
#
# Poissons Ratio (x) = 0.43493 0.47687
# Poissons Ratio (y) = 0.16303 0.26053
# Poissons Ratio (z) = 0.27397 0.39934
#
# Static dielectric constant tensor:
#      x y z
#    x 1.647550 0.000000 0.000000 
#    y 0.000000 1.653740 0.000000 
#    z 0.000000 0.000000 1.658510 
# 
# From -- ./inp_files/5093.got.cif
#   From: 2010.05.17/outbox.cif.g08.bks.cpg/sg28_3_cif.got.tgz:5093.got - 2010.06.04 01:15:21.
