data_PCOD9339778
_publ_section_title
;
Structure prediction by ZEFSAII (Michael W. Deem and Ramdas Pophale) SiO2 
 PCOD9339778
Probable space group: P M A 2
;
_chemical_formula_sum "Si O2"
_cell_formula_units_Z 32
_cell_length_a 14.898660
_cell_length_b 9.428206
_cell_length_c 10.817243
_cell_angle_alpha 90.000000
_cell_angle_beta 90.000000
_cell_angle_gamma 90.000000
_cell_volume 1519.472548
_symmetry_space_group_name_H-M "P M A 2"
_symmetry_group_IT_number 28
_symmetry_cell_setting 'orthorhombic'
loop_
_space_group_symop_operation_xyz
x,y,z
-x,-y,z
1/2-x,y,z
1/2+x,-y,z
loop_
_atom_site_type_symbol
_atom_site_label
_atom_site_fract_x
_atom_site_fract_y
_atom_site_fract_z
Si Si1 0.466426 0.343255 0.453570
Si Si2 0.353374 0.370329 0.973057
Si Si3 0.855286 0.260657 0.752019
Si Si4 0.644075 0.298343 0.029229
Si Si5 0.913085 0.090601 0.524225
Si Si6 0.482492 0.144436 0.097096
Si Si7 0.147555 0.125060 0.318790
Si Si8 0.643626 0.572600 0.685812
O O1 0.500000 0.500000 0.419930
O O2 0.548318 0.231802 0.458171
O O3 0.390067 0.276098 0.366651
O O4 0.417745 0.349852 0.586973
O O5 0.250000 0.333139 0.000791
O O6 0.367515 0.531717 0.020204
O O7 0.364108 0.370940 0.824879
O O8 0.421396 0.261098 0.031485
O O9 0.750000 0.287882 0.769840
O O10 0.886564 0.241878 0.892743
O O11 0.867408 0.139474 0.651049
O O12 0.888774 0.409084 0.694958
O O13 0.750000 0.268689 0.050090
O O14 0.576584 0.223365 0.123335
O O15 0.860148 0.990591 0.429006
O O16 0.000000 0.000000 0.559066
O O17 0.422803 0.090221 0.211729
O O18 0.500000 0.000000 0.022330
O O19 0.250000 0.133139 0.277173
O O20 0.750000 0.578010 0.651059
#
# Coordination Sequence:
#
# PCOD9339778 Si02
#       8
#     4   4   4   4   4   4   4   4
#     4  11  21  36  62  97 130 159 214 275 332 383
#     4   9  20  40  66  96 130 173 216 267 330 389
#     4   9  17  34  60  92 129 167 202 252 323 399
#     4   9  21  40  65  98 132 165 215 272 334 399
#     4  10  21  37  60  89 127 173 218 259 324 386
#     4  12  25  42  65  89 127 172 226 269 325 380
#     4  11  26  48  65  85 125 180 229 276 323 386
#     4   9  18  34  60  95 132 164 201 256 329 393
#
# _framework density 21.059940000000001
#
# number of rings (size 3 to 8) (size 9 to 14) (size 15 to 20)
#    0.000    2.000    1.250    4.125    1.750    2.500 
#    2.250    0.000    0.000    0.750    0.000    0.000 
#    0.000    0.000    0.000    0.000    0.000    0.000 
#
# Total GULP energy -178626.990616 kJ/mol
# GULP energy per Si atom -5582.093457 kJ/mol
# Density = 2.101201 g / cm^3
# Si number density = 21.059940 Si / 1000 Ang^3
#
#
#
# Elastic Constant Matrix: (Units=GPa)
#
#
# Indices 1 2 3 4 5 6 
#
# 1 119.6996 53.1729 34.1367 0.0000 0.0000 0.0000
# 2 53.1729 109.0256 27.6425 0.0000 0.0000 0.0000
# 3 34.1367 27.6425 44.6805 0.0000 0.0000 0.0000
# 4 0.0000 0.0000 0.0000 26.0168 0.0000 0.0000
# 5 0.0000 0.0000 0.0000 0.0000 29.1159 0.0000
# 6 0.0000 0.0000 0.0000 0.0000 0.0000 15.8375
#
#
#
# Elastic Compliance Matrix: (Units=1/GPa)
#
#
# Indices 1 2 3 4 5 6 
#
# 1 0.012130 -0.004230 -0.006651 0.000000 0.000000 0.000000
# 2 -0.004230 0.012353 -0.004411 0.000000 0.000000 0.000000
# 3 -0.006651 -0.004411 0.030191 0.000000 0.000000 0.000000
# 4 0.000000 0.000000 0.000000 0.038437 0.000000 0.000000
# 5 0.000000 0.000000 0.000000 0.000000 0.034346 0.000000
# 6 0.000000 0.000000 0.000000 0.000000 0.000000 0.063141
#
#
# Mechanical properties :
#
#
# Convention : Reuss Voigt Hill
#
# Bulk Modulus (GPa) = 41.50804 55.92332 48.71568
# Shear Modulus (GPa) = 21.81391 24.75761 23.28576
#
# Velocity S-wave (km/s) = 3.22188 3.43239 3.32880
# Velocity P-wave (km/s) = 5.79594 6.50541 6.16090
#
# Compressibility (1/GPa) = 0.02409172
#
# Stress axis : x y z
#
# Youngs Moduli (GPa) = 82.44161 80.94938 33.12203
#
# Poissons Ratio (x) = 0.34238 0.22028
# Poissons Ratio (y) = 0.34870 0.14611
# Poissons Ratio (z) = 0.54829 0.35708
#
# Static dielectric constant tensor:
#      x y z
#    x 1.759630 0.000000 0.000000 
#    y 0.000000 1.782950 0.000000 
#    z 0.000000 0.000000 1.805610 
# 
# From -- ./inp_files/5651.got.cif
#   From: 2010.05.17/outbox.cif.g08.bks.cpg/sg28_3_cif.got.tgz:5651.got - 2010.06.04 01:15:21.
