data_PCOD9339216
_publ_section_title
;
Structure prediction by ZEFSAII (Michael W. Deem and Ramdas Pophale) SiO2 
 PCOD9339216
Probable space group: P C C 2
;
_chemical_formula_sum "Si O2"
_cell_formula_units_Z 18
_cell_length_a 7.841897
_cell_length_b 9.392694
_cell_length_c 10.385224
_cell_angle_alpha 90.000000
_cell_angle_beta 90.000000
_cell_angle_gamma 90.000000
_cell_volume 764.939656
_symmetry_space_group_name_H-M "P C C 2"
_symmetry_group_IT_number 27
_symmetry_cell_setting 'orthorhombic'
loop_
_space_group_symop_operation_xyz
x,y,z
-x,-y,z
-x,y,1/2+z
x,-y,1/2+z
loop_
_atom_site_type_symbol
_atom_site_label
_atom_site_fract_x
_atom_site_fract_y
_atom_site_fract_z
Si Si1 0.701446 0.528505 0.193340
Si Si2 0.181844 0.342848 0.930077
Si Si3 0.000000 0.000000 0.180841
Si Si4 0.687336 0.036758 0.492688
Si Si5 0.141708 0.781691 0.848456
O O1 0.500000 0.500000 0.192458
O O2 0.789291 0.414511 0.290057
O O3 0.748208 0.675795 0.264318
O O4 0.763060 0.551590 0.046353
O O5 0.294613 0.198845 0.944330
O O6 0.981855 0.300191 0.947980
O O7 0.995574 0.139501 0.266517
O O8 0.167432 0.018317 0.098259
O O9 0.500000 0.000000 0.540742
O O10 0.740518 0.910804 0.395151
#
# Coordination Sequence:
#
# PCOD9339216 Si02
#       5
#     4   4   2   4   4
#     4  12  28  49  75 114 159 209 264 324 399 482
#     4  12  26  50  75 115 157 213 263 325 398 480
#     4  12  22  48  78 112 152 196 266 332 402 470
#     4  12  25  46  78 114 151 201 263 334 402 470
#     4  12  24  49  78 110 156 203 265 330 405 471
#
# _framework density 23.531268000000001
#
# number of rings (size 3 to 8) (size 9 to 14) (size 15 to 20)
#    0.000    0.000    6.667    2.667    0.000    8.000 
#    0.000    0.000    0.000    0.000    0.000    0.000 
#    0.000    0.000    0.000    0.000    0.000    0.000 
#
# Total GULP energy -100679.136964 kJ/mol
# GULP energy per Si atom -5593.285387 kJ/mol
# Density = 2.347771 g / cm^3
# Si number density = 23.531268 Si / 1000 Ang^3
#
#
#
# Elastic Constant Matrix: (Units=GPa)
#
#
# Indices 1 2 3 4 5 6 
#
# 1 125.3061 65.5119 49.7244 0.0000 0.0000 0.0000
# 2 65.5119 139.9256 38.9293 0.0000 0.0000 0.0000
# 3 49.7244 38.9293 74.4176 0.0000 0.0000 0.0000
# 4 0.0000 0.0000 0.0000 -371.6909 0.0000 0.0000
# 5 0.0000 0.0000 0.0000 0.0000 7.6538 0.0000
# 6 0.0000 0.0000 0.0000 0.0000 0.0000 42.9385
#
#
#
# Elastic Compliance Matrix: (Units=1/GPa)
#
#
# Indices 1 2 3 4 5 6 
#
# 1 0.012653 -0.004180 -0.006268 0.000000 0.000000 0.000000
# 2 -0.004180 0.009745 -0.002305 0.000000 0.000000 0.000000
# 3 -0.006268 -0.002305 0.018831 0.000000 0.000000 0.000000
# 4 0.000000 0.000000 0.000000 -0.002690 0.000000 0.000000
# 5 0.000000 0.000000 0.000000 0.000000 0.130654 0.000000
# 6 0.000000 0.000000 0.000000 0.000000 0.000000 0.023289
#
#
# Mechanical properties :
#
#
# Convention : Reuss Voigt Hill
#
# Bulk Modulus (GPa) = 63.59687 71.99782 67.79734
# Shear Modulus (GPa) = 22.39851 -51.85413 -14.72781
#
# Velocity S-wave (km/s) = 3.08857 -4.69937 -2.50448
# Velocity P-wave (km/s) = 6.30906 1.10345 4.52890
#
# Compressibility (1/GPa) = 0.01572405
#
# Stress axis : x y z
#
# Youngs Moduli (GPa) = 79.03136 102.61654 53.10306
#
# Poissons Ratio (x) = 0.42897 0.33284
# Poissons Ratio (y) = 0.33038 0.12238
# Poissons Ratio (z) = 0.49535 0.23649
#
# Static dielectric constant tensor:
#      x y z
#    x 1.840300 0.000000 0.000000 
#    y 0.000000 2.012680 0.000000 
#    z 0.000000 0.000000 2.005990 
# 
# From -- ./inp_files/2208.got.cif
#   From: 2010.05.17/outbox.cif.g08.bks.cpg/sg27_2_cif.got.tgz:2208.got - 2010.06.04 01:11:05.
