data_PCOD9339115
_publ_section_title
;
Structure prediction by ZEFSAII (Michael W. Deem and Ramdas Pophale) SiO2 
 PCOD9339115
Probable space group: P C C 2
;
_chemical_formula_sum "Si O2"
_cell_formula_units_Z 26
_cell_length_a 19.127913
_cell_length_b 5.471684
_cell_length_c 9.939899
_cell_angle_alpha 90.000000
_cell_angle_beta 90.000000
_cell_angle_gamma 90.000000
_cell_volume 1040.328671
_symmetry_space_group_name_H-M "P C C 2"
_symmetry_group_IT_number 27
_symmetry_cell_setting 'orthorhombic'
loop_
_space_group_symop_operation_xyz
x,y,z
-x,-y,z
-x,y,1/2+z
x,-y,1/2+z
loop_
_atom_site_type_symbol
_atom_site_label
_atom_site_fract_x
_atom_site_fract_y
_atom_site_fract_z
Si Si1 0.000000 0.000000 0.207631
Si Si2 0.106394 0.376267 0.585224
Si Si3 0.652157 0.460462 0.361831
Si Si4 0.354432 0.198147 0.135377
Si Si5 0.500000 0.000000 0.048761
Si Si6 0.500000 0.500000 0.886054
Si Si7 0.872761 0.760001 0.304459
Si Si8 0.239444 0.108329 0.713915
O O1 0.937090 0.941968 0.309295
O O2 0.037264 0.783608 0.120129
O O3 0.117946 0.419715 0.428231
O O4 0.111695 0.625445 0.665648
O O5 0.175283 0.234504 0.637453
O O6 0.661327 0.716551 0.287057
O O7 0.649829 0.410089 0.521662
O O8 0.571244 0.414214 0.313649
O O9 0.712350 0.289654 0.300644
O O10 0.430594 0.079702 0.127263
O O11 0.292585 0.010256 0.107373
O O12 0.518458 0.250090 0.967048
O O13 0.800764 0.902843 0.300221
#
# Coordination Sequence:
#
# PCOD9339115 Si02
#       8
#     2   4   4   4   2   2   4   4
#     4  10  24  44  76 108 142 198 244 316 370 462
#     4  11  25  46  71 106 150 194 250 307 380 458
#     4  11  27  45  75 106 145 193 257 320 397 469
#     4  11  27  46  77 104 149 194 256 323 397 470
#     4  10  26  48  78 110 152 194 260 326 410 476
#     4  10  26  48  76 112 148 198 256 330 402 478
#     4  11  25  46  72 108 152 194 253 307 385 456
#     4  11  26  44  72 105 150 202 253 312 388 469
#
# _framework density 24.992104000000001
#
# number of rings (size 3 to 8) (size 9 to 14) (size 15 to 20)
#    0.000    1.231    0.000    2.769   10.769   12.923 
#    0.000    0.000    0.000    0.000    0.000    0.000 
#    0.000    0.000    0.000    0.000    0.000    0.000 
#
# Total GULP energy -145222.620572 kJ/mol
# GULP energy per Si atom -5585.485407 kJ/mol
# Density = 2.493522 g / cm^3
# Si number density = 24.992104 Si / 1000 Ang^3
#
#
#
# Elastic Constant Matrix: (Units=GPa)
#
#
# Indices 1 2 3 4 5 6 
#
# 1 217.6273 38.5323 22.5616 0.0000 0.0000 0.0000
# 2 38.5323 76.0901 9.1354 0.0000 0.0000 0.0000
# 3 22.5616 9.1354 62.1175 0.0000 0.0000 0.0000
# 4 0.0000 0.0000 0.0000 27.5443 0.0000 0.0000
# 5 0.0000 0.0000 0.0000 0.0000 7.0492 0.0000
# 6 0.0000 0.0000 0.0000 0.0000 0.0000 44.7302
#
#
#
# Elastic Compliance Matrix: (Units=1/GPa)
#
#
# Indices 1 2 3 4 5 6 
#
# 1 0.005186 -0.002443 -0.001524 0.000000 0.000000 0.000000
# 2 -0.002443 0.014529 -0.001249 0.000000 0.000000 0.000000
# 3 -0.001524 -0.001249 0.016836 0.000000 0.000000 0.000000
# 4 0.000000 0.000000 0.000000 0.036305 0.000000 0.000000
# 5 0.000000 0.000000 0.000000 0.000000 0.141861 0.000000
# 6 0.000000 0.000000 0.000000 0.000000 0.000000 0.022356
#
#
# Mechanical properties :
#
#
# Convention : Reuss Voigt Hill
#
# Bulk Modulus (GPa) = 38.28832 55.14375 46.71603
# Shear Modulus (GPa) = 19.51506 34.90510 27.21008
#
# Velocity S-wave (km/s) = 2.79740 3.74123 3.30320
# Velocity P-wave (km/s) = 5.07812 6.38551 5.76897
#
# Compressibility (1/GPa) = 0.02611763
#
# Stress axis : x y z
#
# Youngs Moduli (GPa) = 192.84277 68.82564 59.39697
#
# Poissons Ratio (x) = 0.16814 0.09053
# Poissons Ratio (y) = 0.47112 0.07422
# Poissons Ratio (z) = 0.29392 0.08600
#
# Static dielectric constant tensor:
#      x y z
#    x 2.031880 0.000000 0.000000 
#    y 0.000000 2.050550 0.000000 
#    z 0.000000 0.000000 1.994800 
# 
# From -- ./inp_files/2824.got.cif
#   From: 2010.05.17/outbox.cif.g08.bks.cpg/sg27_2_cif.got.tgz:2824.got - 2010.06.04 01:11:05.
