data_PCOD9339380
_publ_section_title
;
Structure prediction by ZEFSAII (Michael W. Deem and Ramdas Pophale) SiO2 
 PCOD9339380
Probable space group: P M A 2
;
_chemical_formula_sum "Si O2"
_cell_formula_units_Z 32
_cell_length_a 8.547982
_cell_length_b 14.706752
_cell_length_c 16.175042
_cell_angle_alpha 90.000000
_cell_angle_beta 90.000000
_cell_angle_gamma 90.000000
_cell_volume 2033.413886
_symmetry_space_group_name_H-M "P M A 2"
_symmetry_group_IT_number 28
_symmetry_cell_setting 'orthorhombic'
loop_
_space_group_symop_operation_xyz
x,y,z
-x,-y,z
1/2-x,y,z
1/2+x,-y,z
loop_
_atom_site_type_symbol
_atom_site_label
_atom_site_fract_x
_atom_site_fract_y
_atom_site_fract_z
Si Si1 0.562679 0.901755 0.679770
Si Si2 0.062126 0.602343 0.779653
Si Si3 0.562704 0.284562 0.617305
Si Si4 0.561699 0.902251 0.872095
Si Si5 0.060545 0.396639 0.100555
Si Si6 0.061542 0.396943 0.281311
Si Si7 0.938070 0.603453 0.462717
Si Si8 0.439545 0.289574 0.938445
O O1 0.750000 0.901744 0.677721
O O2 0.498811 0.817547 0.627960
O O3 0.512085 0.889391 0.776071
O O4 0.500000 0.000000 0.652728
O O5 0.250000 0.601140 0.782202
O O6 0.011467 0.658634 0.698557
O O7 0.000000 0.500000 0.774997
O O8 0.998832 0.651266 0.861494
O O9 0.750000 0.283977 0.615939
O O10 0.500906 0.334567 0.536063
O O11 0.750000 0.904935 0.872950
O O12 0.509653 0.814570 0.923837
O O13 0.500000 0.000000 0.900409
O O14 0.250000 0.400030 0.098812
O O15 0.011838 0.359835 0.191514
O O16 0.000000 0.500000 0.091066
O O17 0.007855 0.334643 0.024302
O O18 0.250000 0.397361 0.281393
O O19 0.012838 0.360331 0.371265
O O20 0.000000 0.500000 0.280944
O O21 0.750000 0.600627 0.466225
O O22 0.000000 0.500000 0.471650
O O23 0.250000 0.290844 0.937108
#
# Coordination Sequence:
#
# PCOD9339380 Si02
#       8
#     4   4   4   4   4   4   4   4
#     4  10  19  33  52  71  94 122 156 198 240 282
#     4  11  23  34  45  62  91 128 161 191 224 269
#     4  11  22  34  48  69  94 125 162 196 236 281
#     4   9  18  31  48  68  90 119 153 193 234 274
#     4   9  17  29  46  67  94 123 155 191 229 276
#     4   8  15  28  45  66  90 119 153 192 235 278
#     4  10  19  31  48  69  95 125 159 197 239 284
#     4  10  19  32  48  68  93 123 157 192 232 276
#
# _framework density 15.737080000000001
#
# number of rings (size 3 to 8) (size 9 to 14) (size 15 to 20)
#    0.000    2.250    1.250    2.250    0.000    5.500 
#    0.000    0.000    0.000    0.000    0.000    0.875 
#    0.000    2.000    0.000    0.000    0.000    0.000 
#
# Total GULP energy -178391.151844 kJ/mol
# GULP energy per Si atom -5574.723495 kJ/mol
# Density = 1.570126 g / cm^3
# Si number density = 15.737080 Si / 1000 Ang^3
#
#
#
# Elastic Constant Matrix: (Units=GPa)
#
#
# Indices 1 2 3 4 5 6 
#
# 1 20.6682 23.8659 27.9936 0.0000 0.0000 0.0000
# 2 23.8659 125.9880 80.1276 0.0000 0.0000 0.0000
# 3 27.9936 80.1276 156.3971 0.0000 0.0000 0.0000
# 4 0.0000 0.0000 0.0000 6.0167 0.0000 0.0000
# 5 0.0000 0.0000 0.0000 0.0000 13.5645 0.0000
# 6 0.0000 0.0000 0.0000 0.0000 0.0000 24.6675
#
#
#
# Elastic Compliance Matrix: (Units=1/GPa)
#
#
# Indices 1 2 3 4 5 6 
#
# 1 0.068541 -0.007686 -0.008331 0.000000 0.000000 0.000000
# 2 -0.007686 0.012635 -0.005098 0.000000 0.000000 0.000000
# 3 -0.008331 -0.005098 0.010497 0.000000 0.000000 0.000000
# 4 0.000000 0.000000 0.000000 0.166205 0.000000 0.000000
# 5 0.000000 0.000000 0.000000 0.000000 0.073722 0.000000
# 6 0.000000 0.000000 0.000000 0.000000 0.000000 0.040539
#
#
# Mechanical properties :
#
#
# Convention : Reuss Voigt Hill
#
# Bulk Modulus (GPa) = 20.22430 63.00304 41.61367
# Shear Modulus (GPa) = 11.60497 20.25415 15.92956
#
# Velocity S-wave (km/s) = 2.71851 3.59142 3.18501
# Velocity P-wave (km/s) = 4.76791 7.57096 6.32662
#
# Compressibility (1/GPa) = 0.04944547
#
# Stress axis : x y z
#
# Youngs Moduli (GPa) = 14.58972 79.14301 95.26601
#
# Poissons Ratio (x) = 0.60825 0.79363
# Poissons Ratio (y) = 0.11213 0.48566
# Poissons Ratio (z) = 0.12154 0.40346
#
# Static dielectric constant tensor:
#      x y z
#    x 1.531130 0.000000 0.000000 
#    y 0.000000 1.496370 0.000000 
#    z 0.000000 0.000000 1.549170 
# 
# From -- ./inp_files/6304.got.cif
#   From: 2010.05.17/outbox.cif.g08.bks.cpg/sg28_4_cif.got.tgz:6304.got - 2010.06.04 01:15:21.
