data_PCOD9339954
_publ_section_title
;
Structure prediction by ZEFSAII (Michael W. Deem and Ramdas Pophale) SiO2 
 PCOD9339954
Probable space group: P M A 2
;
_chemical_formula_sum "Si O2"
_cell_formula_units_Z 28
_cell_length_a 23.349414
_cell_length_b 6.814202
_cell_length_c 6.960642
_cell_angle_alpha 90.000000
_cell_angle_beta 90.000000
_cell_angle_gamma 90.000000
_cell_volume 1107.491207
_symmetry_space_group_name_H-M "P M A 2"
_symmetry_group_IT_number 28
_symmetry_cell_setting 'orthorhombic'
loop_
_space_group_symop_operation_xyz
x,y,z
-x,-y,z
1/2-x,y,z
1/2+x,-y,z
loop_
_atom_site_type_symbol
_atom_site_label
_atom_site_fract_x
_atom_site_fract_y
_atom_site_fract_z
Si Si1 0.438179 0.109244 0.548150
Si Si2 0.310991 0.560555 0.807900
Si Si3 0.062738 0.409430 0.294573
Si Si4 0.310991 0.939445 0.539322
Si Si5 0.561821 0.609243 0.799072
Si Si6 0.562738 0.909430 0.052649
Si Si7 0.853061 0.250000 0.173611
O O1 0.500000 0.000000 0.531188
O O2 0.372497 0.035687 0.570049
O O3 0.430051 0.157505 0.299707
O O4 0.442551 0.143541 0.802126
O O5 0.250000 0.453476 0.778332
O O6 0.309881 0.750000 0.673611
O O7 0.372497 0.464313 0.777173
O O8 0.314889 0.631880 0.025893
O O9 0.057449 0.356459 0.545096
O O10 0.108031 0.590980 0.288511
O O11 0.000000 0.500000 0.274487
O O12 0.069949 0.342495 0.047515
O O13 0.250000 0.046524 0.568890
O O14 0.314889 0.868120 0.321329
O O15 0.500000 0.500000 0.816034
O O16 0.608031 0.090979 0.058711
O O17 0.500000 0.000000 0.072735
#
# Coordination Sequence:
#
# PCOD9339954 Si02
#       7
#     4   4   4   4   4   4   4
#     4  12  24  43  68 104 140 182 235 295 352 421
#     4  11  25  46  70 100 142 188 234 292 356 417
#     4  12  22  39  65 101 141 178 226 287 350 413
#     4  11  25  46  70 100 142 188 234 292 356 417
#     4  12  24  43  68 104 140 182 235 295 352 421
#     4  12  22  39  65 101 141 178 226 287 350 413
#     4  12  23  44  70 100 140 186 237 288 347 422
#
# _framework density 25.282364999999999
#
# number of rings (size 3 to 8) (size 9 to 14) (size 15 to 20)
#    0.000    0.286    4.286    6.429    0.000    0.571 
#    0.000    4.286    0.000    0.000    0.000    0.000 
#    0.000    0.000    0.000    0.000    0.000    0.000 
#
# Total GULP energy -156081.517197 kJ/mol
# GULP energy per Si atom -5574.339900 kJ/mol
# Density = 2.522482 g / cm^3
# Si number density = 25.282365 Si / 1000 Ang^3
#
#
#
# Elastic Constant Matrix: (Units=GPa)
#
#
# Indices 1 2 3 4 5 6 
#
# 1 291.3588 101.4114 58.1399 0.0000 0.0000 0.0000
# 2 101.4114 107.5290 48.2214 0.0000 0.0000 0.0000
# 3 58.1399 48.2214 187.9173 0.0000 0.0000 0.0000
# 4 0.0000 0.0000 0.0000 89.4056 0.0000 0.0000
# 5 0.0000 0.0000 0.0000 0.0000 52.3043 0.0000
# 6 0.0000 0.0000 0.0000 0.0000 0.0000 20.6330
#
#
#
# Elastic Compliance Matrix: (Units=1/GPa)
#
#
# Indices 1 2 3 4 5 6 
#
# 1 0.005135 -0.004667 -0.000391 0.000000 0.000000 0.000000
# 2 -0.004667 0.014752 -0.002341 0.000000 0.000000 0.000000
# 3 -0.000391 -0.002341 0.006043 0.000000 0.000000 0.000000
# 4 0.000000 0.000000 0.000000 0.011185 0.000000 0.000000
# 5 0.000000 0.000000 0.000000 0.000000 0.019119 0.000000
# 6 0.000000 0.000000 0.000000 0.000000 0.000000 0.048466
#
#
# Mechanical properties :
#
#
# Convention : Reuss Voigt Hill
#
# Bulk Modulus (GPa) = 89.84476 111.37227 100.60851
# Shear Modulus (GPa) = 40.58152 57.73741 49.15947
#
# Velocity S-wave (km/s) = 4.01076 4.78399 4.41434
# Velocity P-wave (km/s) = 7.55393 8.64074 8.11555
#
# Compressibility (1/GPa) = 0.01113031
#
# Stress axis : x y z
#
# Youngs Moduli (GPa) = 194.75278 67.78954 165.47323
#
# Poissons Ratio (x) = 0.31639 0.06470
# Poissons Ratio (y) = 0.90896 0.38744
# Poissons Ratio (z) = 0.07614 0.15872
#
# Static dielectric constant tensor:
#      x y z
#    x 1.845910 0.000000 0.000000 
#    y 0.000000 2.104760 0.000000 
#    z 0.000000 0.000000 2.515130 
# 
# From -- ./inp_files/1246.got.cif
#   From: 2010.05.17/outbox.cif.g08.bks.cpg/sg28_1_cif.got.tgz:1246.got - 2010.06.04 01:15:21.
