data_PCOD9339669
_publ_section_title
;
Structure prediction by ZEFSAII (Michael W. Deem and Ramdas Pophale) SiO2 
 PCOD9339669
Probable space group: P M A 2
;
_chemical_formula_sum "Si O2"
_cell_formula_units_Z 28
_cell_length_a 8.626338
_cell_length_b 9.489781
_cell_length_c 18.744899
_cell_angle_alpha 90.000000
_cell_angle_beta 90.000000
_cell_angle_gamma 90.000000
_cell_volume 1534.496018
_symmetry_space_group_name_H-M "P M A 2"
_symmetry_group_IT_number 28
_symmetry_cell_setting 'orthorhombic'
loop_
_space_group_symop_operation_xyz
x,y,z
-x,-y,z
1/2-x,y,z
1/2+x,-y,z
loop_
_atom_site_type_symbol
_atom_site_label
_atom_site_fract_x
_atom_site_fract_y
_atom_site_fract_z
Si Si1 0.934454 0.341318 0.804370
Si Si2 0.937000 0.658994 0.499831
Si Si3 0.064151 0.340252 0.657350
Si Si4 0.937357 0.657570 0.227825
Si Si5 0.437426 0.157932 0.364677
Si Si6 0.063785 0.157472 0.932709
Si Si7 0.436842 0.157103 0.094321
O O1 0.750000 0.346555 0.803197
O O2 0.000000 0.500000 0.808694
O O3 0.994061 0.276128 0.729340
O O4 0.994346 0.255938 0.872100
O O5 0.750000 0.650042 0.497565
O O6 0.978916 0.716276 0.578883
O O7 0.989099 0.759438 0.435871
O O8 0.000000 0.500000 0.491429
O O9 0.250000 0.342313 0.663667
O O10 0.000000 0.500000 0.655918
O O11 0.750000 0.652114 0.227585
O O12 0.985517 0.751907 0.295513
O O13 0.989107 0.735343 0.155279
O O14 0.000000 0.500000 0.233021
O O15 0.250000 0.152644 0.365195
O O16 0.500000 0.000000 0.361879
O O17 0.250000 0.157535 0.927831
O O18 0.019237 0.200477 0.013701
O O19 0.000000 0.000000 0.922737
O O20 0.250000 0.149941 0.096812
O O21 0.500000 0.000000 0.107505
#
# Coordination Sequence:
#
# PCOD9339669 Si02
#       7
#     4   4   4   4   4   4   4
#     4  11  21  34  53  78 106 138 177 219 265 313
#     4   9  18  32  52  77 103 133 171 215 259 306
#     4   9  16  29  49  73 102 134 170 214 262 309
#     4  10  21  36  54  79 108 136 171 213 255 301
#     4  10  21  36  53  76 106 138 173 211 253 303
#     4  10  20  36  55  77 106 139 176 216 261 313
#     4   9  19  35  55  78 104 136 173 212 255 307
#
# _framework density 18.247033999999999
#
# number of rings (size 3 to 8) (size 9 to 14) (size 15 to 20)
#    0.000    2.286    0.000    3.857    0.000    3.429 
#    0.000    2.143    0.000    1.714    0.000    0.000 
#    0.000    0.000    0.000    0.000    0.000    0.000 
#
# Total GULP energy -156207.273630 kJ/mol
# GULP energy per Si atom -5578.831201 kJ/mol
# Density = 1.820550 g / cm^3
# Si number density = 18.247034 Si / 1000 Ang^3
#
#
#
# Elastic Constant Matrix: (Units=GPa)
#
#
# Indices 1 2 3 4 5 6 
#
# 1 50.8874 28.9278 52.8619 0.0000 0.0000 0.0000
# 2 28.9278 107.7690 110.2366 0.0000 0.0000 0.0000
# 3 52.8619 110.2366 211.4736 0.0000 0.0000 0.0000
# 4 0.0000 0.0000 0.0000 -2.4877 0.0000 0.0000
# 5 0.0000 0.0000 0.0000 0.0000 -18.2706 0.0000
# 6 0.0000 0.0000 0.0000 0.0000 0.0000 30.6852
#
#
#
# Elastic Compliance Matrix: (Units=1/GPa)
#
#
# Indices 1 2 3 4 5 6 
#
# 1 0.026570 -0.000725 -0.006264 0.000000 0.000000 0.000000
# 2 -0.000725 0.019898 -0.010192 0.000000 0.000000 0.000000
# 3 -0.006264 -0.010192 0.011607 0.000000 0.000000 0.000000
# 4 0.000000 0.000000 0.000000 -0.401982 0.000000 0.000000
# 5 0.000000 0.000000 0.000000 0.000000 -0.054733 0.000000
# 6 0.000000 0.000000 0.000000 0.000000 0.000000 0.032589
#
#
# Mechanical properties :
#
#
# Convention : Reuss Voigt Hill
#
# Bulk Modulus (GPa) = 42.16654 83.79809 62.98232
# Shear Modulus (GPa) = -15.44239 13.85895 -0.79172
#
# Velocity S-wave (km/s) = -2.91227 2.75893 -0.65942
# Velocity P-wave (km/s) = 3.44245 7.49485 5.83195
#
# Compressibility (1/GPa) = 0.02371548
#
# Stress axis : x y z
#
# Youngs Moduli (GPa) = 37.63616 50.25505 86.15392
#
# Poissons Ratio (x) = 0.03642 0.53966
# Poissons Ratio (y) = 0.02727 0.87804
# Poissons Ratio (z) = 0.23575 0.51217
#
# Static dielectric constant tensor:
#      x y z
#    x 1.613280 0.000000 0.000000 
#    y 0.000000 1.558930 0.000000 
#    z 0.000000 0.000000 1.668070 
# 
# From -- ./inp_files/6761.got.cif
#   From: 2010.05.17/outbox.cif.g08.bks.cpg/sg28_4_cif.got.tgz:6761.got - 2010.06.04 01:15:21.
