data_PCOD9339208
_publ_section_title
;
Structure prediction by ZEFSAII (Michael W. Deem and Ramdas Pophale) SiO2 
 PCOD9339208
Probable space group: P C C 2
;
_chemical_formula_sum "Si O2"
_cell_formula_units_Z 24
_cell_length_a 5.483826
_cell_length_b 14.447096
_cell_length_c 13.588072
_cell_angle_alpha 90.000000
_cell_angle_beta 90.000000
_cell_angle_gamma 90.000000
_cell_volume 1076.519905
_symmetry_space_group_name_H-M "P C C 2"
_symmetry_group_IT_number 27
_symmetry_cell_setting 'orthorhombic'
loop_
_space_group_symop_operation_xyz
x,y,z
-x,-y,z
-x,y,1/2+z
x,-y,1/2+z
loop_
_atom_site_type_symbol
_atom_site_label
_atom_site_fract_x
_atom_site_fract_y
_atom_site_fract_z
Si Si1 0.000000 0.500000 0.204420
Si Si2 0.500000 0.000000 0.569347
Si Si3 0.000000 0.000000 0.192532
Si Si4 0.987911 0.686363 0.089767
Si Si5 0.500000 0.500000 0.322361
Si Si6 0.941454 0.797102 0.768965
Si Si7 0.362854 0.187366 0.970440
Si Si8 0.260052 0.323010 0.402053
O O1 0.928278 0.591214 0.144333
O O2 0.247498 0.520571 0.264852
O O3 0.577834 0.084490 0.500964
O O4 0.746336 0.983310 0.633065
O O5 0.968731 0.902030 0.249427
O O6 0.149554 0.746553 0.168757
O O7 0.067050 0.646900 0.982979
O O8 0.789495 0.762056 0.056034
O O9 0.438180 0.406986 0.380909
O O10 0.149254 0.725470 0.806241
O O11 0.764531 0.803754 0.863476
O O12 0.611924 0.241148 0.960122
#
# Coordination Sequence:
#
# PCOD9339208 Si02
#       8
#     2   2   2   4   2   4   4   4
#     4  12  28  48  82 112 152 208 254 324 384 474
#     4  12  28  50  78 116 154 202 264 314 398 458
#     4  12  28  48  82 112 152 208 254 324 384 474
#     4  11  25  49  73 112 151 203 261 314 391 456
#     4  12  28  50  78 116 154 202 264 314 398 458
#     4  11  25  49  73 112 151 203 261 314 391 456
#     4  11  27  45  76 109 157 203 256 328 382 470
#     4  11  27  45  76 109 157 203 256 328 382 470
#
# _framework density 22.294060999999999
#
# number of rings (size 3 to 8) (size 9 to 14) (size 15 to 20)
#    0.000    0.667    3.333    2.000   14.000    1.333 
#    0.000    0.000    0.000    0.000    0.000    0.000 
#    0.000    0.000    0.000    0.000    0.000    0.000 
#
# Total GULP energy -133867.757988 kJ/mol
# GULP energy per Si atom -5577.823249 kJ/mol
# Density = 2.224332 g / cm^3
# Si number density = 22.294061 Si / 1000 Ang^3
#
#
#
# Elastic Constant Matrix: (Units=GPa)
#
#
# Indices 1 2 3 4 5 6 
#
# 1 73.4155 12.6317 26.4274 0.0000 0.0000 0.0000
# 2 12.6317 143.9733 58.8836 0.0000 0.0000 0.0000
# 3 26.4274 58.8836 98.5074 0.0000 0.0000 0.0000
# 4 0.0000 0.0000 0.0000 40.2434 0.0000 0.0000
# 5 0.0000 0.0000 0.0000 0.0000 -124.0430 0.0000
# 6 0.0000 0.0000 0.0000 0.0000 0.0000 29.1411
#
#
#
# Elastic Compliance Matrix: (Units=1/GPa)
#
#
# Indices 1 2 3 4 5 6 
#
# 1 0.015098 0.000439 -0.004313 0.000000 0.000000 0.000000
# 2 0.000439 0.009206 -0.005621 0.000000 0.000000 0.000000
# 3 -0.004313 -0.005621 0.014669 0.000000 0.000000 0.000000
# 4 0.000000 0.000000 0.000000 0.024849 0.000000 0.000000
# 5 0.000000 0.000000 0.000000 0.000000 -0.008062 0.000000
# 6 0.000000 0.000000 0.000000 0.000000 0.000000 0.034316
#
#
# Mechanical properties :
#
#
# Convention : Reuss Voigt Hill
#
# Bulk Modulus (GPa) = 50.04136 56.86462 53.45299
# Shear Modulus (GPa) = 43.20547 3.59852 23.40200
#
# Velocity S-wave (km/s) = 4.40703 1.27186 3.24342
# Velocity P-wave (km/s) = 6.95634 5.26487 6.16885
#
# Compressibility (1/GPa) = 0.01998347
#
# Stress axis : x y z
#
# Youngs Moduli (GPa) = 66.23344 108.62417 68.17304
#
# Poissons Ratio (x) = -0.04773 0.29404
# Poissons Ratio (y) = -0.02910 0.38319
# Poissons Ratio (z) = 0.28567 0.61056
#
# Static dielectric constant tensor:
#      x y z
#    x 2.123880 0.000000 0.000000 
#    y 0.000000 1.804820 0.000000 
#    z 0.000000 0.000000 1.971050 
# 
# From -- ./inp_files/3059.got.cif
#   From: 2010.05.17/outbox.cif.g08.bks.cpg/sg27_2_cif.got.tgz:3059.got - 2010.06.04 01:11:05.
