data_PCOD9339801
_publ_section_title
;
Structure prediction by ZEFSAII (Michael W. Deem and Ramdas Pophale) SiO2 
 PCOD9339801
Probable space group: P M A 2
;
_chemical_formula_sum "Si O2"
_cell_formula_units_Z 32
_cell_length_a 15.844117
_cell_length_b 8.951342
_cell_length_c 9.164875
_cell_angle_alpha 90.000000
_cell_angle_beta 90.000000
_cell_angle_gamma 90.000000
_cell_volume 1299.818569
_symmetry_space_group_name_H-M "P M A 2"
_symmetry_group_IT_number 28
_symmetry_cell_setting 'orthorhombic'
loop_
_space_group_symop_operation_xyz
x,y,z
-x,-y,z
1/2-x,y,z
1/2+x,-y,z
loop_
_atom_site_type_symbol
_atom_site_label
_atom_site_fract_x
_atom_site_fract_y
_atom_site_fract_z
Si Si1 0.581545 0.423449 0.119700
Si Si2 0.651890 0.722052 0.995774
Si Si3 0.156587 0.999822 0.198549
Si Si4 0.345235 0.616614 0.435033
Si Si5 0.525179 0.147313 0.427813
Si Si6 0.847619 0.727494 0.457262
Si Si7 0.348788 0.064700 0.740957
Si Si8 0.569055 0.126287 0.949321
O O1 0.500000 0.500000 0.190926
O O2 0.621544 0.556581 0.027211
O O3 0.639814 0.383369 0.258225
O O4 0.550587 0.290623 0.012211
O O5 0.750000 0.709673 0.961944
O O6 0.645684 0.831519 0.136431
O O7 0.616172 0.811211 0.856795
O O8 0.250000 0.981619 0.264374
O O9 0.083861 0.928914 0.300537
O O10 0.150725 0.910090 0.048378
O O11 0.250000 0.665436 0.466194
O O12 0.414448 0.729493 0.495728
O O13 0.356174 0.447844 0.491246
O O14 0.437861 0.228208 0.384610
O O15 0.500000 0.000000 0.517358
O O16 0.750000 0.734397 0.396412
O O17 0.848269 0.846419 0.589248
O O18 0.250000 0.030116 0.767506
O O19 0.402039 0.917617 0.786809
O O20 0.500000 0.000000 0.994627
#
# Coordination Sequence:
#
# PCOD9339801 Si02
#       8
#     4   4   4   4   4   4   4   4
#     4  12  23  35  61 103 149 183 231 296 374 455
#     4   9  20  37  62  96 130 176 230 294 369 437
#     4  10  21  38  62  95 140 187 233 291 375 449
#     4  11  25  43  67 100 145 195 249 307 369 449
#     4  12  25  40  65  98 137 188 240 301 362 437
#     4  10  24  47  70  96 135 195 256 307 361 435
#     4   9  20  44  71  91 128 184 247 305 366 435
#     4  11  22  38  65 101 144 184 235 302 376 439
#
# _framework density 24.618818999999998
#
# number of rings (size 3 to 8) (size 9 to 14) (size 15 to 20)
#    0.000    1.500    1.250    4.875    3.500    3.000 
#    0.000    5.000    0.000    3.000    0.000    0.000 
#    0.000    2.000    0.000    0.000    0.000    0.000 
#
# Total GULP energy -178376.091110 kJ/mol
# GULP energy per Si atom -5574.252847 kJ/mol
# Density = 2.456279 g / cm^3
# Si number density = 24.618819 Si / 1000 Ang^3
#
#
#
# Elastic Constant Matrix: (Units=GPa)
#
#
# Indices 1 2 3 4 5 6 
#
# 1 137.7716 56.3827 23.7438 0.0000 0.0000 0.0000
# 2 56.3827 146.1325 17.1597 0.0000 0.0000 0.0000
# 3 23.7438 17.1597 53.1818 0.0000 0.0000 0.0000
# 4 0.0000 0.0000 0.0000 33.2918 0.0000 0.0000
# 5 0.0000 0.0000 0.0000 0.0000 18.4406 0.0000
# 6 0.0000 0.0000 0.0000 0.0000 0.0000 20.5612
#
#
#
# Elastic Compliance Matrix: (Units=1/GPa)
#
#
# Indices 1 2 3 4 5 6 
#
# 1 0.009067 -0.003142 -0.003034 0.000000 0.000000 0.000000
# 2 -0.003142 0.008201 -0.001243 0.000000 0.000000 0.000000
# 3 -0.003034 -0.001243 0.020559 0.000000 0.000000 0.000000
# 4 0.000000 0.000000 0.000000 0.030037 0.000000 0.000000
# 5 0.000000 0.000000 0.000000 0.000000 0.054228 0.000000
# 6 0.000000 0.000000 0.000000 0.000000 0.000000 0.048635
#
#
# Mechanical properties :
#
#
# Convention : Reuss Voigt Hill
#
# Bulk Modulus (GPa) = 43.50058 59.07315 51.28686
# Shear Modulus (GPa) = 25.87569 30.44535 28.16052
#
# Velocity S-wave (km/s) = 3.24551 3.52045 3.38577
# Velocity P-wave (km/s) = 5.63493 6.36961 6.01350
#
# Compressibility (1/GPa) = 0.02298820
#
# Stress axis : x y z
#
# Youngs Moduli (GPa) = 110.28703 121.92956 48.63961
#
# Poissons Ratio (x) = 0.38312 0.14759
# Poissons Ratio (y) = 0.34654 0.06048
# Poissons Ratio (z) = 0.33465 0.15161
#
# Static dielectric constant tensor:
#      x y z
#    x 2.102480 0.000000 0.000000 
#    y 0.000000 2.003200 0.000000 
#    z 0.000000 0.000000 2.004230 
# 
# From -- ./inp_files/5621.got.cif
#   From: 2010.05.17/outbox.cif.g08.bks.cpg/sg28_3_cif.got.tgz:5621.got - 2010.06.04 01:15:21.
