data_PCOD9339983
_publ_section_title
;
Structure prediction by ZEFSAII (Michael W. Deem and Ramdas Pophale) SiO2 
 PCOD9339983
Probable space group: P C A 21
;
_chemical_formula_sum "Si O2"
_cell_formula_units_Z 28
_cell_length_a 30.192628
_cell_length_b 7.345658
_cell_length_c 5.412573
_cell_angle_alpha 90.000000
_cell_angle_beta 90.000000
_cell_angle_gamma 90.000000
_cell_volume 1200.425984
_symmetry_space_group_name_H-M "P C A 21"
_symmetry_group_IT_number 29
_symmetry_cell_setting 'orthorhombic'
loop_
_space_group_symop_operation_xyz
x,y,z
-x,-y,1/2+z
1/2-x,y,1/2+z
1/2+x,-y,z
loop_
_atom_site_type_symbol
_atom_site_label
_atom_site_fract_x
_atom_site_fract_y
_atom_site_fract_z
Si Si1 0.525706 0.456407 0.934910
Si Si2 0.056297 0.180934 0.979542
Si Si3 0.270269 0.664256 0.914666
Si Si4 0.234689 0.089244 0.923773
Si Si5 0.638569 0.020400 0.801454
Si Si6 0.458163 0.848322 0.756452
Si Si7 0.365102 0.760088 0.809439
O O1 0.507846 0.493866 0.661456
O O2 0.563857 0.603424 0.990565
O O3 0.535778 0.246433 0.986555
O O4 0.093919 0.095116 0.811565
O O5 0.005703 0.158134 0.884562
O O6 0.057145 0.056244 0.224358
O O7 0.240867 0.594761 0.687022
O O8 0.321799 0.635956 0.842994
O O9 0.255835 0.881908 0.933221
O O10 0.257430 0.175792 0.687737
O O11 0.182878 0.084074 0.871429
O O12 0.644695 0.096494 0.528157
O O13 0.635557 0.167556 0.026795
O O14 0.417592 0.727653 0.863076
#
# Coordination Sequence:
#
# PCOD9339983 Si02
#       7
#     4   4   4   4   4   4   4
#     4  10  22  40  60  78 108 152 186 220 276 326
#     4  10  21  36  57  83 114 145 183 228 272 326
#     4  10  15  26  43  66 103 133 172 220 261 314
#     4  10  15  26  43  66 103 133 172 220 261 314
#     4  11  19  29  48  76 106 139 178 222 269 318
#     4  10  21  36  57  83 114 145 183 228 272 326
#     4  11  19  29  48  76 106 139 178 222 269 318
#
# _framework density 23.325050999999998
#
# number of rings (size 3 to 8) (size 9 to 14) (size 15 to 20)
#    0.000    1.714    5.714    1.714    0.000    6.857 
#    0.000    0.000    0.000    0.000    0.000    2.000 
#    0.000    0.000    0.000    0.000    0.000    0.000 
#
# Total GULP energy -155936.147896 kJ/mol
# GULP energy per Si atom -5569.148139 kJ/mol
# Density = 2.327196 g / cm^3
# Si number density = 23.325051 Si / 1000 Ang^3
#
#
#
# Elastic Constant Matrix: (Units=GPa)
#
#
# Indices 1 2 3 4 5 6 
#
# 1 338.4917 -7.3704 182.0583 0.0000 0.0000 0.0000
# 2 -7.3704 52.1030 15.2280 0.0000 0.0000 0.0000
# 3 182.0583 15.2280 239.6882 0.0000 0.0000 0.0000
# 4 0.0000 0.0000 0.0000 10.0384 0.0000 0.0000
# 5 0.0000 0.0000 0.0000 0.0000 38.2182 0.0000
# 6 0.0000 0.0000 0.0000 0.0000 0.0000 -3.3698
#
#
#
# Elastic Compliance Matrix: (Units=1/GPa)
#
#
# Indices 1 2 3 4 5 6 
#
# 1 0.005176 0.001917 -0.004053 0.000000 0.000000 0.000000
# 2 0.001917 0.020266 -0.002744 0.000000 0.000000 0.000000
# 3 -0.004053 -0.002744 0.007425 0.000000 0.000000 0.000000
# 4 0.000000 0.000000 0.000000 0.099617 0.000000 0.000000
# 5 0.000000 0.000000 0.000000 0.000000 0.026166 0.000000
# 6 0.000000 0.000000 0.000000 0.000000 0.000000 -0.296756
#
#
# Mechanical properties :
#
#
# Convention : Reuss Voigt Hill
#
# Bulk Modulus (GPa) = 43.27690 112.23497 77.75593
# Shear Modulus (GPa) = -41.44441 38.33517 -1.55462
#
# Velocity S-wave (km/s) = -4.21981 4.05843 -0.81728
# Velocity P-wave (km/s) = 2.26898 8.37755 5.70242
#
# Compressibility (1/GPa) = 0.02310702
#
# Stress axis : x y z
#
# Youngs Moduli (GPa) = 193.19407 49.34432 134.67658
#
# Poissons Ratio (x) = -0.09459 0.54590
# Poissons Ratio (y) = -0.37033 0.36949
# Poissons Ratio (z) = 0.78309 0.13538
#
# Static dielectric constant tensor:
#      x y z
#    x 1.916870 0.000000 0.000000 
#    y 0.000000 1.906550 0.000000 
#    z 0.000000 0.000000 1.905300 
# 
# From -- ./inp_files/883.got.cif
#   From: 2010.05.17/outbox.cif.g08.bks.cpg/sg29_1_cif.got.tgz:883.got - 2010.06.04 01:19:37.
