data_PCOD9339142
_publ_section_title
;
Structure prediction by ZEFSAII (Michael W. Deem and Ramdas Pophale) SiO2 
 PCOD9339142
Probable space group: P C C 2
;
_chemical_formula_sum "Si O2"
_cell_formula_units_Z 16
_cell_length_a 8.737625
_cell_length_b 7.985185
_cell_length_c 9.064227
_cell_angle_alpha 90.000000
_cell_angle_beta 90.000000
_cell_angle_gamma 90.000000
_cell_volume 632.425186
_symmetry_space_group_name_H-M "P C C 2"
_symmetry_group_IT_number 27
_symmetry_cell_setting 'orthorhombic'
loop_
_space_group_symop_operation_xyz
x,y,z
-x,-y,z
-x,y,1/2+z
x,-y,1/2+z
loop_
_atom_site_type_symbol
_atom_site_label
_atom_site_fract_x
_atom_site_fract_y
_atom_site_fract_z
Si Si1 0.179907 0.493515 0.610560
Si Si2 0.371561 0.642381 0.834450
Si Si3 0.000000 0.000000 0.979172
Si Si4 0.500000 0.000000 0.784643
Si Si5 0.805582 0.842428 0.724887
O O1 0.259473 0.652173 0.690215
O O2 0.278453 0.419264 0.477065
O O3 0.200407 0.355211 0.739527
O O4 0.000000 0.500000 0.576054
O O5 0.500000 0.500000 0.803829
O O6 0.444228 0.826530 0.861926
O O7 0.877286 0.916476 0.872487
O O8 0.083175 0.873626 0.087976
O O9 0.353850 0.067174 0.696453
#
# Coordination Sequence:
#
# PCOD9339142 Si02
#       5
#     4   4   2   2   4
#     4  12  29  49  82 117 161 208 265 332 404 473
#     4  12  28  55  79 120 161 211 267 331 403 483
#     4  10  26  46  74 118 158 204 276 320 404 478
#     4  12  28  52  82 116 162 216 268 328 406 480
#     4  11  26  48  78 115 158 213 263 336 396 481
#
# _framework density 25.299437999999999
#
# number of rings (size 3 to 8) (size 9 to 14) (size 15 to 20)
#    0.000    0.500    2.500    3.000   14.000    4.000 
#    0.000    0.000    0.000    0.000    0.000    0.000 
#    0.000    0.000    0.000    0.000    0.000    0.000 
#
# Total GULP energy -89590.001108 kJ/mol
# GULP energy per Si atom -5599.375069 kJ/mol
# Density = 2.524186 g / cm^3
# Si number density = 25.299438 Si / 1000 Ang^3
#
#
#
# Elastic Constant Matrix: (Units=GPa)
#
#
# Indices 1 2 3 4 5 6 
#
# 1 163.3296 46.4412 39.3199 0.0000 0.0000 0.0000
# 2 46.4412 130.6603 40.2379 0.0000 0.0000 0.0000
# 3 39.3199 40.2379 99.6903 0.0000 0.0000 0.0000
# 4 0.0000 0.0000 0.0000 10.3069 0.0000 0.0000
# 5 0.0000 0.0000 0.0000 0.0000 42.4533 0.0000
# 6 0.0000 0.0000 0.0000 0.0000 0.0000 43.7479
#
#
#
# Elastic Compliance Matrix: (Units=1/GPa)
#
#
# Indices 1 2 3 4 5 6 
#
# 1 0.007161 -0.001913 -0.002052 0.000000 0.000000 0.000000
# 2 -0.001913 0.009251 -0.002979 0.000000 0.000000 0.000000
# 3 -0.002052 -0.002979 0.012043 0.000000 0.000000 0.000000
# 4 0.000000 0.000000 0.000000 0.097023 0.000000 0.000000
# 5 0.000000 0.000000 0.000000 0.000000 0.023555 0.000000
# 6 0.000000 0.000000 0.000000 0.000000 0.000000 0.022858
#
#
# Mechanical properties :
#
#
# Convention : Reuss Voigt Hill
#
# Bulk Modulus (GPa) = 68.65610 71.74201 70.19906
# Shear Modulus (GPa) = 26.22810 37.14703 31.68757
#
# Velocity S-wave (km/s) = 3.22329 3.83599 3.54291
# Velocity P-wave (km/s) = 6.40696 6.93098 6.67411
#
# Compressibility (1/GPa) = 0.01456535
#
# Stress axis : x y z
#
# Youngs Moduli (GPa) = 139.65323 108.09686 83.03573
#
# Poissons Ratio (x) = 0.20681 0.17040
# Poissons Ratio (y) = 0.26718 0.24739
# Poissons Ratio (z) = 0.28658 0.32206
#
# Static dielectric constant tensor:
#      x y z
#    x 1.950600 0.000000 0.000000 
#    y 0.000000 2.122760 0.000000 
#    z 0.000000 0.000000 1.935150 
# 
# From -- ./inp_files/934.got.cif
#   From: 2010.05.17/outbox.cif.g08.bks.cpg/sg27_1_cif.got.tgz:934.got - 2010.06.04 01:11:05.
