data_PCOD9339157
_publ_section_title
;
Structure prediction by ZEFSAII (Michael W. Deem and Ramdas Pophale) SiO2 
 PCOD9339157
Probable space group: P C C 2
;
_chemical_formula_sum "Si O2"
_cell_formula_units_Z 30
_cell_length_a 12.325847
_cell_length_b 8.426744
_cell_length_c 13.759840
_cell_angle_alpha 90.000000
_cell_angle_beta 90.000000
_cell_angle_gamma 90.000000
_cell_volume 1429.189961
_symmetry_space_group_name_H-M "P C C 2"
_symmetry_group_IT_number 27
_symmetry_cell_setting 'orthorhombic'
loop_
_space_group_symop_operation_xyz
x,y,z
-x,-y,z
-x,y,1/2+z
x,-y,1/2+z
loop_
_atom_site_type_symbol
_atom_site_label
_atom_site_fract_x
_atom_site_fract_y
_atom_site_fract_z
Si Si1 0.350194 0.873072 0.763820
Si Si2 0.427015 0.209939 0.686281
Si Si3 0.380625 0.926703 0.978725
Si Si4 0.798347 0.796066 0.971086
Si Si5 0.242607 0.636512 0.273445
Si Si6 0.842070 0.314402 0.684523
Si Si7 0.000000 0.000000 0.993991
Si Si8 0.939462 0.844246 0.684847
O O1 0.444125 0.784342 0.702431
O O2 0.355750 0.837647 0.878201
O O3 0.231667 0.828631 0.726591
O O4 0.383313 0.056140 0.746594
O O5 0.390589 0.177513 0.575958
O O6 0.363950 0.354703 0.732830
O O7 0.500000 0.000000 0.966990
O O8 0.293093 0.068941 0.988311
O O9 0.763372 0.677419 0.886480
O O10 0.820173 0.699122 0.069510
O O11 0.910440 0.889771 0.943655
O O12 0.193980 0.471764 0.238573
O O13 0.171755 0.777932 0.224492
O O14 0.969112 0.288197 0.698251
O O15 0.932107 0.109439 0.070565
O O16 0.000000 0.000000 0.727894
#
# Coordination Sequence:
#
# PCOD9339157 Si02
#       8
#     4   4   4   4   4   4   2   4
#     4  11  21  38  63  91 120 164 209 254 304 355
#     4  11  21  38  62  94 121 159 208 263 297 350
#     4  12  20  35  65  93 118 154 214 259 301 353
#     4  11  22  38  62  91 120 161 205 252 306 368
#     4  12  24  38  62  91 127 165 198 246 315 376
#     4  11  24  42  59  89 132 160 197 254 309 371
#     4   8  20  36  64  92 114 150 206 260 296 352
#     4   9  20  41  65  87 117 160 199 252 302 348
#
# _framework density 20.990911000000001
#
# number of rings (size 3 to 8) (size 9 to 14) (size 15 to 20)
#    0.400    0.800    5.333    2.000    0.933    1.600 
#    0.000    5.333    0.000    4.800    0.000    0.000 
#    0.000    0.000    0.000    0.000    0.000    0.000 
#
# Total GULP energy -167466.654117 kJ/mol
# GULP energy per Si atom -5582.221804 kJ/mol
# Density = 2.094313 g / cm^3
# Si number density = 20.990911 Si / 1000 Ang^3
#
#
#
# Elastic Constant Matrix: (Units=GPa)
#
#
# Indices 1 2 3 4 5 6 
#
# 1 77.3771 -6.0758 8.0746 0.0000 0.0000 0.0000
# 2 -6.0758 37.7611 1.0576 0.0000 0.0000 0.0000
# 3 8.0746 1.0576 113.6872 0.0000 0.0000 0.0000
# 4 0.0000 0.0000 0.0000 679.2826 0.0000 0.0000
# 5 0.0000 0.0000 0.0000 0.0000 2.8474 0.0000
# 6 0.0000 0.0000 0.0000 0.0000 0.0000 28.9103
#
#
#
# Elastic Compliance Matrix: (Units=1/GPa)
#
#
# Indices 1 2 3 4 5 6 
#
# 1 0.013192 0.002149 -0.000957 0.000000 0.000000 0.000000
# 2 0.002149 0.026839 -0.000402 0.000000 0.000000 0.000000
# 3 -0.000957 -0.000402 0.008868 0.000000 0.000000 0.000000
# 4 0.000000 0.000000 0.000000 0.001472 0.000000 0.000000
# 5 0.000000 0.000000 0.000000 0.000000 0.351194 0.000000
# 6 0.000000 0.000000 0.000000 0.000000 0.000000 0.034590
#
#
# Mechanical properties :
#
#
# Convention : Reuss Voigt Hill
#
# Bulk Modulus (GPa) = 19.80988 26.10423 22.95705
# Shear Modulus (GPa) = 11.07661 157.25933 84.16797
#
# Velocity S-wave (km/s) = 2.29963 8.66490 6.33912
# Velocity P-wave (km/s) = 4.06312 10.60991 8.03365
#
# Compressibility (1/GPa) = 0.05047987
#
# Stress axis : x y z
#
# Youngs Moduli (GPa) = 75.80138 37.25865 112.76786
#
# Poissons Ratio (x) = -0.08009 0.10792
# Poissons Ratio (y) = -0.16293 0.04537
# Poissons Ratio (z) = 0.07254 0.01499
#
# Static dielectric constant tensor:
#      x y z
#    x 1.751450 0.000000 0.000000 
#    y 0.000000 -1.444180 0.000000 
#    z 0.000000 0.000000 1.783880 
# 
# From -- ./inp_files/3626.got.cif
#   From: 2010.05.17/outbox.cif.g08.bks.cpg/sg27_2_cif.got.tgz:3626.got - 2010.06.04 01:11:05.
