data_PCOD9339303
_publ_section_title
;
Structure prediction by ZEFSAII (Michael W. Deem and Ramdas Pophale) SiO2 
 PCOD9339303
Probable space group: P M A 2
;
_chemical_formula_sum "Si O2"
_cell_formula_units_Z 28
_cell_length_a 17.860533
_cell_length_b 9.827982
_cell_length_c 9.364148
_cell_angle_alpha 90.000000
_cell_angle_beta 90.000000
_cell_angle_gamma 90.000000
_cell_volume 1643.716961
_symmetry_space_group_name_H-M "P M A 2"
_symmetry_group_IT_number 28
_symmetry_cell_setting 'orthorhombic'
loop_
_space_group_symop_operation_xyz
x,y,z
-x,-y,z
1/2-x,y,z
1/2+x,-y,z
loop_
_atom_site_type_symbol
_atom_site_label
_atom_site_fract_x
_atom_site_fract_y
_atom_site_fract_z
Si Si1 0.163378 0.402110 0.842370
Si Si2 0.031074 0.854958 0.901683
Si Si3 0.908597 0.818060 0.657107
Si Si4 0.160981 0.597535 0.596734
Si Si5 0.928781 0.599781 0.413785
Si Si6 0.046283 0.362337 0.090676
Si Si7 0.159561 0.891131 0.694651
O O1 0.250000 0.426785 0.874711
O O2 0.153126 0.268243 0.744759
O O3 0.131800 0.524227 0.742173
O O4 0.115305 0.378799 0.982856
O O5 0.116034 0.865669 0.845128
O O6 0.980782 0.822906 0.760816
O O7 0.000000 0.000000 0.951148
O O8 0.009266 0.749575 0.023929
O O9 0.928243 0.728488 0.519556
O O10 0.876705 0.969621 0.634610
O O11 0.250000 0.589740 0.606214
O O12 0.135801 0.503959 0.465487
O O13 0.141792 0.756943 0.599898
O O14 0.926641 0.654483 0.252841
O O15 0.000000 0.500000 0.431759
O O16 0.000000 0.500000 0.089502
O O17 0.250000 0.902173 0.708795
#
# Coordination Sequence:
#
# PCOD9339303 Si02
#       7
#     4   4   4   4   4   4   4
#     4   9  17  31  51  75  99 130 169 211 257 306
#     4   9  18  33  51  74 101 132 168 212 257 302
#     4   9  18  32  53  76 102 134 172 215 258 308
#     4   9  18  31  50  74 100 128 165 211 258 306
#     4  10  20  34  50  73 101 136 174 214 257 306
#     4  10  20  33  50  73 102 134 169 209 254 307
#     4  10  18  30  52  81 106 132 169 216 263 311
#
# _framework density 17.034562999999999
#
# number of rings (size 3 to 8) (size 9 to 14) (size 15 to 20)
#    0.000    2.571    0.000    2.143    0.000    5.143 
#    0.000    5.000    0.000    0.857    0.000   18.000 
#    0.000    0.000    0.000    0.000    0.000    0.000 
#
# Total GULP energy -155920.100495 kJ/mol
# GULP energy per Si atom -5568.575018 kJ/mol
# Density = 1.699579 g / cm^3
# Si number density = 17.034563 Si / 1000 Ang^3
#
#
#
# Elastic Constant Matrix: (Units=GPa)
#
#
# Indices 1 2 3 4 5 6 
#
# 1 49.5971 17.0662 27.6438 0.0000 0.0000 0.0000
# 2 17.0662 129.4508 65.8422 0.0000 0.0000 0.0000
# 3 27.6438 65.8422 115.3518 0.0000 0.0000 0.0000
# 4 0.0000 0.0000 0.0000 3.7845 0.0000 0.0000
# 5 0.0000 0.0000 0.0000 0.0000 -38.6583 0.0000
# 6 0.0000 0.0000 0.0000 0.0000 0.0000 21.3390
#
#
#
# Elastic Compliance Matrix: (Units=1/GPa)
#
#
# Indices 1 2 3 4 5 6 
#
# 1 0.023281 -0.000326 -0.005393 0.000000 0.000000 0.000000
# 2 -0.000326 0.010890 -0.006138 0.000000 0.000000 0.000000
# 3 -0.005393 -0.006138 0.013465 0.000000 0.000000 0.000000
# 4 0.000000 0.000000 0.000000 0.264232 0.000000 0.000000
# 5 0.000000 0.000000 0.000000 0.000000 -0.025868 0.000000
# 6 0.000000 0.000000 0.000000 0.000000 0.000000 0.046863
#
#
# Mechanical properties :
#
#
# Convention : Reuss Voigt Hill
#
# Bulk Modulus (GPa) = 41.80323 57.27823 49.54073
# Shear Modulus (GPa) = 13.71555 9.54957 11.63256
#
# Velocity S-wave (km/s) = 2.84061 2.37027 2.61603
# Velocity P-wave (km/s) = 5.94578 6.41783 6.18631
#
# Compressibility (1/GPa) = 0.02392160
#
# Stress axis : x y z
#
# Youngs Moduli (GPa) = 42.95435 91.82984 74.26748
#
# Poissons Ratio (x) = 0.02996 0.40052
# Poissons Ratio (y) = 0.01401 0.45582
# Poissons Ratio (z) = 0.23165 0.56362
#
# Static dielectric constant tensor:
#      x y z
#    x 1.784220 0.000000 0.000000 
#    y 0.000000 1.613960 0.000000 
#    z 0.000000 0.000000 1.564360 
# 
# From -- ./inp_files/4018.got.cif
#   From: 2010.05.17/outbox.cif.g08.bks.cpg/sg28_3_cif.got.tgz:4018.got - 2010.06.04 01:15:21.
