data_PCOD9339107
_publ_section_title
;
Structure prediction by ZEFSAII (Michael W. Deem and Ramdas Pophale) SiO2 
 PCOD9339107
Probable space group: P C C 2
;
_chemical_formula_sum "Si O2"
_cell_formula_units_Z 26
_cell_length_a 5.411211
_cell_length_b 23.124869
_cell_length_c 9.093208
_cell_angle_alpha 90.000000
_cell_angle_beta 90.000000
_cell_angle_gamma 90.000000
_cell_volume 1137.865357
_symmetry_space_group_name_H-M "P C C 2"
_symmetry_group_IT_number 27
_symmetry_cell_setting 'orthorhombic'
loop_
_space_group_symop_operation_xyz
x,y,z
-x,-y,z
-x,y,1/2+z
x,-y,1/2+z
loop_
_atom_site_type_symbol
_atom_site_label
_atom_site_fract_x
_atom_site_fract_y
_atom_site_fract_z
Si Si1 0.936408 0.566076 0.743400
Si Si2 0.807915 0.050340 0.932753
Si Si3 0.207943 0.183038 0.386732
Si Si4 0.820644 0.367244 0.967054
Si Si5 0.291819 0.776664 0.221923
Si Si6 0.500000 0.000000 0.671603
Si Si7 0.685782 0.663019 0.896300
O O1 0.864048 0.579982 0.577524
O O2 0.723510 0.596750 0.840182
O O3 0.000000 0.500000 0.766717
O O4 0.159125 0.606834 0.801685
O O5 0.874904 0.116397 0.911496
O O6 0.696755 0.028133 0.779771
O O7 0.000000 0.000000 0.974929
O O8 0.608456 0.047934 0.063115
O O9 0.464207 0.191247 0.292659
O O10 0.263877 0.208843 0.549372
O O11 0.970505 0.208457 0.300875
O O12 0.563837 0.336658 0.984341
O O13 0.060367 0.326800 0.984167
O O14 0.328390 0.709711 0.268402
#
# Coordination Sequence:
#
# PCOD9339107 Si02
#       7
#     4   4   4   4   4   2   4
#     4  10  24  44  68 101 137 178 234 289 354 425
#     4  11  25  43  73 100 146 181 244 289 375 428
#     4  12  29  48  75 111 146 195 247 312 364 447
#     4  10  24  42  69  98 134 180 230 285 356 417
#     4  12  28  48  77 105 152 191 255 302 375 434
#     4  10  24  42  72 102 136 190 228 292 358 440
#     4  10  26  43  72  97 142 180 238 285 362 420
#
# _framework density 22.849803000000001
#
# number of rings (size 3 to 8) (size 9 to 14) (size 15 to 20)
#    0.923    0.308    0.000    3.692   15.077    0.615 
#    0.000    0.000    0.000    0.000    0.000    0.000 
#    0.000    0.000    0.000    0.000    0.000    0.000 
#
# Total GULP energy -145007.323492 kJ/mol
# GULP energy per Si atom -5577.204750 kJ/mol
# Density = 2.279780 g / cm^3
# Si number density = 22.849803 Si / 1000 Ang^3
#
#
#
# Elastic Constant Matrix: (Units=GPa)
#
#
# Indices 1 2 3 4 5 6 
#
# 1 152.4921 36.2540 37.5431 0.0000 0.0000 0.0000
# 2 36.2540 100.8355 27.6467 0.0000 0.0000 0.0000
# 3 37.5431 27.6467 111.5815 0.0000 0.0000 0.0000
# 4 0.0000 0.0000 0.0000 176.2950 0.0000 0.0000
# 5 0.0000 0.0000 0.0000 0.0000 16.5059 0.0000
# 6 0.0000 0.0000 0.0000 0.0000 0.0000 23.0780
#
#
#
# Elastic Compliance Matrix: (Units=1/GPa)
#
#
# Indices 1 2 3 4 5 6 
#
# 1 0.007568 -0.002170 -0.002009 0.000000 0.000000 0.000000
# 2 -0.002170 0.011262 -0.002060 0.000000 0.000000 0.000000
# 3 -0.002009 -0.002060 0.010148 0.000000 0.000000 0.000000
# 4 0.000000 0.000000 0.000000 0.005672 0.000000 0.000000
# 5 0.000000 0.000000 0.000000 0.000000 0.060585 0.000000
# 6 0.000000 0.000000 0.000000 0.000000 0.000000 0.043331
#
#
# Mechanical properties :
#
#
# Convention : Reuss Voigt Hill
#
# Bulk Modulus (GPa) = 60.60452 63.08851 61.84652
# Shear Modulus (GPa) = 31.93953 60.74012 46.33983
#
# Velocity S-wave (km/s) = 3.74278 5.16140 4.50824
# Velocity P-wave (km/s) = 6.72744 7.94922 7.36371
#
# Compressibility (1/GPa) = 0.01650042
#
# Stress axis : x y z
#
# Youngs Moduli (GPa) = 132.13132 88.79169 98.53791
#
# Poissons Ratio (x) = 0.19271 0.19793
# Poissons Ratio (y) = 0.28677 0.20301
# Poissons Ratio (z) = 0.26541 0.18293
#
# Static dielectric constant tensor:
#      x y z
#    x 1.931300 0.000000 0.000000 
#    y 0.000000 1.804390 0.000000 
#    z 0.000000 0.000000 1.840080 
# 
# From -- ./inp_files/897.got.cif
#   From: 2010.05.17/outbox.cif.g08.bks.cpg/sg27_1_cif.got.tgz:897.got - 2010.06.04 01:11:05.
