data_PCOD9339861
_publ_section_title
;
Structure prediction by ZEFSAII (Michael W. Deem and Ramdas Pophale) SiO2 
 PCOD9339861
Probable space group: P M A 2
;
_chemical_formula_sum "Si O2"
_cell_formula_units_Z 24
_cell_length_a 13.571587
_cell_length_b 10.751302
_cell_length_c 8.930813
_cell_angle_alpha 90.000000
_cell_angle_beta 90.000000
_cell_angle_gamma 90.000000
_cell_volume 1303.114845
_symmetry_space_group_name_H-M "P M A 2"
_symmetry_group_IT_number 28
_symmetry_cell_setting 'orthorhombic'
loop_
_space_group_symop_operation_xyz
x,y,z
-x,-y,z
1/2-x,y,z
1/2+x,-y,z
loop_
_atom_site_type_symbol
_atom_site_label
_atom_site_fract_x
_atom_site_fract_y
_atom_site_fract_z
Si Si1 0.030859 0.859408 0.662970
Si Si2 0.432319 0.376796 0.148499
Si Si3 0.250000 0.782041 0.308750
Si Si4 0.536455 0.140335 0.302773
Si Si5 0.750000 0.505825 0.314498
Si Si6 0.750000 0.214600 0.672236
Si Si7 0.250000 0.503804 0.670749
Si Si8 0.861741 0.699621 0.820966
O O1 0.026761 0.838545 0.482716
O O2 0.144097 0.841547 0.715034
O O3 0.949956 0.774456 0.744622
O O4 0.000000 0.000000 0.690859
O O5 0.500000 0.500000 0.129246
O O6 0.483981 0.255980 0.221282
O O7 0.344872 0.422844 0.255146
O O8 0.388598 0.333516 0.990103
O O9 0.349015 0.849257 0.259943
O O10 0.250000 0.637719 0.260713
O O11 0.250000 0.784670 0.490382
O O12 0.500000 0.000000 0.270119
O O13 0.750000 0.500884 0.492958
O O14 0.750000 0.356341 0.725297
O O15 0.156323 0.429205 0.732724
O O16 0.750000 0.758271 0.813113
#
# Coordination Sequence:
#
# PCOD9339861 Si02
#       8
#     4   4   2   4   2   2   2   4
#     4  10  22  41  66  93 127 164 217 264 315 376
#     4  12  24  39  64  91 132 169 212 258 317 388
#     4   9  18  38  57  92 130 154 207 265 310 379
#     4  10  22  41  66  96 124 169 213 267 318 373
#     4  11  19  40  63  92 122 164 213 263 322 359
#     4   9  20  34  61  94 120 161 204 262 317 366
#     4   9  21  38  63  90 124 159 212 266 313 374
#     4  10  24  41  58  90 131 165 205 258 316 380
#
# _framework density 18.41741
#
# number of rings (size 3 to 8) (size 9 to 14) (size 15 to 20)
#    0.500    1.333    2.500    1.000    3.500    1.333 
#    1.500    0.833    0.000    0.000    0.000    0.000 
#    0.000    0.000    0.000    0.000    0.000    0.000 
#
# Total GULP energy -133776.667824 kJ/mol
# GULP energy per Si atom -5574.027826 kJ/mol
# Density = 1.837549 g / cm^3
# Si number density = 18.417410 Si / 1000 Ang^3
#
#
#
# Elastic Constant Matrix: (Units=GPa)
#
#
# Indices 1 2 3 4 5 6 
#
# 1 185.3811 97.5508 45.5172 0.0000 0.0000 0.0000
# 2 97.5508 138.4249 47.7038 0.0000 0.0000 0.0000
# 3 45.5172 47.7038 55.6131 0.0000 0.0000 0.0000
# 4 0.0000 0.0000 0.0000 -4.9927 0.0000 0.0000
# 5 0.0000 0.0000 0.0000 0.0000 -14.1047 0.0000
# 6 0.0000 0.0000 0.0000 0.0000 0.0000 28.9797
#
#
#
# Elastic Compliance Matrix: (Units=1/GPa)
#
#
# Indices 1 2 3 4 5 6 
#
# 1 0.008848 -0.005309 -0.002688 0.000000 0.000000 0.000000
# 2 -0.005309 0.013442 -0.007185 0.000000 0.000000 0.000000
# 3 -0.002688 -0.007185 0.026344 0.000000 0.000000 0.000000
# 4 0.000000 0.000000 0.000000 -0.200293 0.000000 0.000000
# 5 0.000000 0.000000 0.000000 0.000000 -0.070898 0.000000
# 6 0.000000 0.000000 0.000000 0.000000 0.000000 0.034507
#
#
# Mechanical properties :
#
#
# Convention : Reuss Voigt Hill
#
# Bulk Modulus (GPa) = 54.73248 84.55143 69.64195
# Shear Modulus (GPa) = -32.98187 14.55295 -9.21446
#
# Velocity S-wave (km/s) = -4.23637 2.81405 -2.23919
# Velocity P-wave (km/s) = 2.41933 7.52108 5.58658
#
# Compressibility (1/GPa) = 0.01827069
#
# Stress axis : x y z
#
# Youngs Moduli (GPa) = 113.02048 74.39640 37.95949
#
# Poissons Ratio (x) = 0.39498 0.10202
# Poissons Ratio (y) = 0.60004 0.27272
# Poissons Ratio (z) = 0.30376 0.53451
#
# Static dielectric constant tensor:
#      x y z
#    x 1.786030 0.000000 0.000000 
#    y 0.000000 1.625760 0.000000 
#    z 0.000000 0.000000 1.613450 
# 
# From -- ./inp_files/3036.got.cif
#   From: 2010.05.17/outbox.cif.g08.bks.cpg/sg28_2_cif.got.tgz:3036.got - 2010.06.04 01:15:21.
