data_PCOD9339571
_publ_section_title
;
Structure prediction by ZEFSAII (Michael W. Deem and Ramdas Pophale) SiO2 
 PCOD9339571
Probable space group: P M A 2
;
_chemical_formula_sum "Si O2"
_cell_formula_units_Z 24
_cell_length_a 15.043378
_cell_length_b 9.743298
_cell_length_c 7.139627
_cell_angle_alpha 90.000000
_cell_angle_beta 90.000000
_cell_angle_gamma 90.000000
_cell_volume 1046.470228
_symmetry_space_group_name_H-M "P M A 2"
_symmetry_group_IT_number 28
_symmetry_cell_setting 'orthorhombic'
loop_
_space_group_symop_operation_xyz
x,y,z
-x,-y,z
1/2-x,y,z
1/2+x,-y,z
loop_
_atom_site_type_symbol
_atom_site_label
_atom_site_fract_x
_atom_site_fract_y
_atom_site_fract_z
Si Si1 0.059405 0.861751 0.689920
Si Si2 0.852673 0.190097 0.295613
Si Si3 0.750000 0.027706 0.742749
Si Si4 0.250000 0.285746 0.776088
Si Si5 0.563814 0.608532 0.736854
Si Si6 0.905867 0.462964 0.134501
Si Si7 0.750000 0.950760 0.301056
Si Si8 0.250000 0.362867 0.207924
O O1 0.842470 0.107634 0.776787
O O2 0.998255 0.741277 0.773598
O O3 0.915293 0.182459 0.476557
O O4 0.000000 0.000000 0.689811
O O5 0.750000 0.232513 0.345298
O O6 0.886260 0.302584 0.151679
O O7 0.835371 0.034442 0.223711
O O8 0.750000 0.875795 0.826911
O O9 0.750000 0.986395 0.521755
O O10 0.340641 0.331875 0.672359
O O11 0.250000 0.351938 0.981622
O O12 0.500000 0.500000 0.631213
O O13 0.589853 0.521915 0.923559
O O14 0.834802 0.547068 0.252740
O O15 0.000000 0.500000 0.215482
O O16 0.750000 0.791005 0.277922
#
# Coordination Sequence:
#
# PCOD9339571 Si02
#       8
#     4   4   2   2   4   4   2   2
#     4  11  21  39  67  96 138 173 232 282 335 412
#     4   9  20  41  62  88 131 176 215 266 343 404
#     4  10  20  40  61  94 132 176 211 285 345 394
#     4  10  20  40  63  90 132 174 217 275 345 398
#     4  10  23  41  61  96 130 174 225 274 339 407
#     4  10  21  40  62  88 130 173 212 267 332 401
#     4   8  19  37  63  94 120 163 221 262 337 389
#     4  10  19  39  63  92 130 161 227 276 319 403
#
# _framework density 22.934242000000001
#
# number of rings (size 3 to 8) (size 9 to 14) (size 15 to 20)
#    0.500    1.667    3.333    0.000    0.000    4.000 
#    9.000    0.833    0.000    0.000    0.000    0.000 
#    0.000    0.000    0.000    0.000    0.000    0.000 
#
# Total GULP energy -133722.276611 kJ/mol
# GULP energy per Si atom -5571.761525 kJ/mol
# Density = 2.288204 g / cm^3
# Si number density = 22.934242 Si / 1000 Ang^3
#
#
#
# Elastic Constant Matrix: (Units=GPa)
#
#
# Indices 1 2 3 4 5 6 
#
# 1 165.3067 56.6350 -0.9897 0.0000 0.0000 0.0000
# 2 56.6350 127.3841 -0.6539 0.0000 0.0000 0.0000
# 3 -0.9897 -0.6539 51.7263 0.0000 0.0000 0.0000
# 4 0.0000 0.0000 0.0000 24.4754 0.0000 0.0000
# 5 0.0000 0.0000 0.0000 0.0000 26.6554 0.0000
# 6 0.0000 0.0000 0.0000 0.0000 0.0000 37.1016
#
#
#
# Elastic Compliance Matrix: (Units=1/GPa)
#
#
# Indices 1 2 3 4 5 6 
#
# 1 0.007137 -0.003173 0.000096 0.000000 0.000000 0.000000
# 2 -0.003173 0.009261 0.000056 0.000000 0.000000 0.000000
# 3 0.000096 0.000056 0.019335 0.000000 0.000000 0.000000
# 4 0.000000 0.000000 0.000000 0.040857 0.000000 0.000000
# 5 0.000000 0.000000 0.000000 0.000000 0.037516 0.000000
# 6 0.000000 0.000000 0.000000 0.000000 0.000000 0.026953
#
#
# Mechanical properties :
#
#
# Convention : Reuss Voigt Hill
#
# Bulk Modulus (GPa) = 33.67735 50.48888 42.08311
# Shear Modulus (GPa) = 31.84783 36.94153 34.39468
#
# Velocity S-wave (km/s) = 3.73051 4.01778 3.87681
# Velocity P-wave (km/s) = 5.76817 6.60196 6.19910
#
# Compressibility (1/GPa) = 0.02969355
#
# Stress axis : x y z
#
# Youngs Moduli (GPa) = 140.11730 107.97866 51.71947
#
# Poissons Ratio (x) = 0.34257 -0.00499
# Poissons Ratio (y) = 0.44453 -0.00292
# Poissons Ratio (z) = -0.01351 -0.00609
#
# Static dielectric constant tensor:
#      x y z
#    x 1.908150 0.000000 0.000000 
#    y 0.000000 1.908430 0.000000 
#    z 0.000000 0.000000 1.961030 
# 
# From -- ./inp_files/3840.got.cif
#   From: 2010.05.17/outbox.cif.g08.bks.cpg/sg28_2_cif.got.tgz:3840.got - 2010.06.04 01:15:21.
