data_PCOD9339435
_publ_section_title
;
Structure prediction by ZEFSAII (Michael W. Deem and Ramdas Pophale) SiO2 
 PCOD9339435
Probable space group: P M A 2
;
_chemical_formula_sum "Si O2"
_cell_formula_units_Z 32
_cell_length_a 8.595638
_cell_length_b 9.778965
_cell_length_c 21.171339
_cell_angle_alpha 90.000000
_cell_angle_beta 90.000000
_cell_angle_gamma 90.000000
_cell_volume 1779.587453
_symmetry_space_group_name_H-M "P M A 2"
_symmetry_group_IT_number 28
_symmetry_cell_setting 'orthorhombic'
loop_
_space_group_symop_operation_xyz
x,y,z
-x,-y,z
1/2-x,y,z
1/2+x,-y,z
loop_
_atom_site_type_symbol
_atom_site_label
_atom_site_fract_x
_atom_site_fract_y
_atom_site_fract_z
Si Si1 0.063281 0.154355 0.313330
Si Si2 0.937955 0.845774 0.037886
Si Si3 0.937024 0.348028 0.566831
Si Si4 0.064155 0.650402 0.420873
Si Si5 0.562338 0.651611 0.923528
Si Si6 0.936194 0.347059 0.784977
Si Si7 0.564142 0.845995 0.675080
Si Si8 0.062481 0.154966 0.175559
O O1 0.250000 0.150916 0.315541
O O2 0.014344 0.212656 0.243938
O O3 0.000910 0.243109 0.370767
O O4 0.000000 0.000000 0.317765
O O5 0.750000 0.850799 0.037064
O O6 0.986706 0.787986 0.107124
O O7 0.987493 0.753294 0.979223
O O8 0.000000 0.000000 0.032026
O O9 0.750000 0.348607 0.572709
O O10 0.979310 0.318650 0.493730
O O11 0.000000 0.500000 0.582209
O O12 0.008011 0.236435 0.613340
O O13 0.250000 0.648751 0.417568
O O14 0.000000 0.500000 0.406326
O O15 0.500000 0.500000 0.937288
O O16 0.750000 0.649077 0.919770
O O17 0.494826 0.690484 0.855133
O O18 0.250000 0.648878 0.783505
O O19 0.999248 0.239810 0.734338
O O20 0.000000 0.500000 0.771284
O O21 0.750000 0.848718 0.677408
O O22 0.500000 0.000000 0.675120
O O23 0.250000 0.152649 0.175649
O O24 0.000000 0.000000 0.175466
#
# Coordination Sequence:
#
# PCOD9339435 Si02
#       8
#     4   4   4   4   4   4   4   4
#     4  10  19  32  53  78 107 141 181 225 271 321
#     4   9  18  32  52  76 104 136 175 220 267 318
#     4  10  21  39  61  84 109 143 182 220 263 318
#     4  10  21  37  57  80 109 142 180 222 268 319
#     4  10  20  35  54  78 107 140 178 221 265 315
#     4  11  22  39  61  83 109 144 183 221 263 318
#     4  12  25  41  60  85 115 144 177 221 268 314
#     4   8  15  29  48  72 101 136 175 218 264 315
#
# _framework density 17.981697
#
# number of rings (size 3 to 8) (size 9 to 14) (size 15 to 20)
#    0.000    2.000    0.000    4.875    0.000    4.000 
#    0.000    1.875    0.000    1.500    0.000    0.000 
#    0.000    0.000    0.000    0.000    0.000    0.000 
#
# Total GULP energy -178564.873118 kJ/mol
# GULP energy per Si atom -5580.152285 kJ/mol
# Density = 1.794077 g / cm^3
# Si number density = 17.981697 Si / 1000 Ang^3
#
#
#
# Elastic Constant Matrix: (Units=GPa)
#
#
# Indices 1 2 3 4 5 6 
#
# 1 85.4094 45.4386 59.2416 0.0000 0.0000 0.0000
# 2 45.4386 108.3552 117.3893 0.0000 0.0000 0.0000
# 3 59.2416 117.3893 173.5810 0.0000 0.0000 0.0000
# 4 0.0000 0.0000 0.0000 40.9550 0.0000 0.0000
# 5 0.0000 0.0000 0.0000 0.0000 40.4877 0.0000
# 6 0.0000 0.0000 0.0000 0.0000 0.0000 31.6003
#
#
#
# Elastic Compliance Matrix: (Units=1/GPa)
#
#
# Indices 1 2 3 4 5 6 
#
# 1 0.015578 -0.002890 -0.003362 0.000000 0.000000 0.000000
# 2 -0.002890 0.035058 -0.022723 0.000000 0.000000 0.000000
# 3 -0.003362 -0.022723 0.022275 0.000000 0.000000 0.000000
# 4 0.000000 0.000000 0.000000 0.024417 0.000000 0.000000
# 5 0.000000 0.000000 0.000000 0.000000 0.024699 0.000000
# 6 0.000000 0.000000 0.000000 0.000000 0.000000 0.031645
#
#
# Mechanical properties :
#
#
# Convention : Reuss Voigt Hill
#
# Bulk Modulus (GPa) = 66.83856 90.16497 78.50176
# Shear Modulus (GPa) = 23.08305 32.29369 27.68837
#
# Velocity S-wave (km/s) = 3.58676 4.24243 3.92830
# Velocity P-wave (km/s) = 7.37592 8.61679 8.02039
#
# Compressibility (1/GPa) = 0.01496142
#
# Stress axis : x y z
#
# Youngs Moduli (GPa) = 64.19359 28.52410 44.89300
#
# Poissons Ratio (x) = 0.08245 0.15092
# Poissons Ratio (y) = 0.18555 1.02009
# Poissons Ratio (z) = 0.21581 0.64814
#
# Static dielectric constant tensor:
#      x y z
#    x 1.604640 0.000000 0.000000 
#    y 0.000000 1.559620 0.000000 
#    z 0.000000 0.000000 1.647760 
# 
# From -- ./inp_files/7056.got.cif
#   From: 2010.05.17/outbox.cif.g08.bks.cpg/sg28_4_cif.got.tgz:7056.got - 2010.06.04 01:15:21.
