data_PCOD9339416
_publ_section_title
;
Structure prediction by ZEFSAII (Michael W. Deem and Ramdas Pophale) SiO2 
 PCOD9339416
Probable space group: P M A 2
;
_chemical_formula_sum "Si O2"
_cell_formula_units_Z 24
_cell_length_a 8.752040
_cell_length_b 13.548453
_cell_length_c 11.810870
_cell_angle_alpha 90.000000
_cell_angle_beta 90.000000
_cell_angle_gamma 90.000000
_cell_volume 1400.492838
_symmetry_space_group_name_H-M "P M A 2"
_symmetry_group_IT_number 28
_symmetry_cell_setting 'orthorhombic'
loop_
_space_group_symop_operation_xyz
x,y,z
-x,-y,z
1/2-x,y,z
1/2+x,-y,z
loop_
_atom_site_type_symbol
_atom_site_label
_atom_site_fract_x
_atom_site_fract_y
_atom_site_fract_z
Si Si1 0.565701 0.394125 0.052600
Si Si2 0.932959 0.890742 0.436243
Si Si3 0.077444 0.761348 0.629046
Si Si4 0.435802 0.732259 0.263032
Si Si5 0.566808 0.607855 0.800916
Si Si6 0.416547 0.590781 0.445098
O O1 0.500000 0.500000 0.094435
O O2 0.750000 0.402514 0.043935
O O3 0.531464 0.301430 0.135248
O O4 0.492417 0.379048 0.929296
O O5 0.750000 0.890649 0.435122
O O6 0.990974 0.845367 0.556731
O O7 0.993295 0.824842 0.329722
O O8 0.000000 0.000000 0.425026
O O9 0.250000 0.792316 0.662762
O O10 0.093558 0.677414 0.533816
O O11 0.992152 0.701679 0.728358
O O12 0.250000 0.739732 0.275346
O O13 0.492154 0.637881 0.335554
O O14 0.500000 0.500000 0.764466
O O15 0.750000 0.602538 0.795824
O O16 0.500000 0.500000 0.497810
O O17 0.250000 0.555807 0.410593
#
# Coordination Sequence:
#
# PCOD9339416 Si02
#       6
#     4   4   4   4   4   4
#     4  10  19  32  51  75 107 145 181 216 254 299
#     4  11  22  37  58  81 104 132 168 213 267 320
#     4  10  20  35  52  73 102 134 172 215 259 308
#     4   9  19  34  50  72 102 135 172 213 257 305
#     4  11  21  33  50  75 108 145 183 217 255 304
#     4   9  17  27  42  66  97 129 160 200 246 296
#
# _framework density 17.136827
#
# number of rings (size 3 to 8) (size 9 to 14) (size 15 to 20)
#    0.000    2.000    0.000    7.000    0.000    6.000 
#    0.000    0.000    0.000    1.000    0.000    2.333 
#    0.000    0.000    0.000    0.000    0.000    0.000 
#
# Total GULP energy -133604.310477 kJ/mol
# GULP energy per Si atom -5566.846270 kJ/mol
# Density = 1.709782 g / cm^3
# Si number density = 17.136827 Si / 1000 Ang^3
#
#
#
# Elastic Constant Matrix: (Units=GPa)
#
#
# Indices 1 2 3 4 5 6 
#
# 1 122.1689 56.2964 47.4500 0.0000 0.0000 0.0000
# 2 56.2964 98.7358 56.1966 0.0000 0.0000 0.0000
# 3 47.4500 56.1966 100.7979 0.0000 0.0000 0.0000
# 4 0.0000 0.0000 0.0000 24.8930 0.0000 0.0000
# 5 0.0000 0.0000 0.0000 0.0000 25.7679 0.0000
# 6 0.0000 0.0000 0.0000 0.0000 0.0000 21.2314
#
#
#
# Elastic Compliance Matrix: (Units=1/GPa)
#
#
# Indices 1 2 3 4 5 6 
#
# 1 0.011545 -0.005111 -0.002585 0.000000 0.000000 0.000000
# 2 -0.005111 0.017099 -0.007127 0.000000 0.000000 0.000000
# 3 -0.002585 -0.007127 0.015111 0.000000 0.000000 0.000000
# 4 0.000000 0.000000 0.000000 0.040172 0.000000 0.000000
# 5 0.000000 0.000000 0.000000 0.000000 0.038808 0.000000
# 6 0.000000 0.000000 0.000000 0.000000 0.000000 0.047100
#
#
# Mechanical properties :
#
#
# Convention : Reuss Voigt Hill
#
# Bulk Modulus (GPa) = 70.87956 71.28764 71.08360
# Shear Modulus (GPa) = 24.48788 25.16243 24.82516
#
# Velocity S-wave (km/s) = 3.78426 3.83603 3.81023
# Velocity P-wave (km/s) = 7.78106 7.83004 7.80559
#
# Compressibility (1/GPa) = 0.01410844
#
# Stress axis : x y z
#
# Youngs Moduli (GPa) = 86.62006 58.48464 66.17709
#
# Poissons Ratio (x) = 0.29892 0.17107
# Poissons Ratio (y) = 0.44273 0.47162
# Poissons Ratio (z) = 0.22392 0.41680
#
# Static dielectric constant tensor:
#      x y z
#    x 1.620240 0.000000 0.000000 
#    y 0.000000 1.622470 0.000000 
#    z 0.000000 0.000000 1.609540 
# 
# From -- ./inp_files/4700.got.cif
#   From: 2010.05.17/outbox.cif.g08.bks.cpg/sg28_3_cif.got.tgz:4700.got - 2010.06.04 01:15:21.
