data_PCOD9339600
_publ_section_title
;
Structure prediction by ZEFSAII (Michael W. Deem and Ramdas Pophale) SiO2 
 PCOD9339600
Probable space group: P M A 2
;
_chemical_formula_sum "Si O2"
_cell_formula_units_Z 32
_cell_length_a 10.025824
_cell_length_b 14.199902
_cell_length_c 12.363840
_cell_angle_alpha 90.000000
_cell_angle_beta 90.000000
_cell_angle_gamma 90.000000
_cell_volume 1760.186962
_symmetry_space_group_name_H-M "P M A 2"
_symmetry_group_IT_number 28
_symmetry_cell_setting 'orthorhombic'
loop_
_space_group_symop_operation_xyz
x,y,z
-x,-y,z
1/2-x,y,z
1/2+x,-y,z
loop_
_atom_site_type_symbol
_atom_site_label
_atom_site_fract_x
_atom_site_fract_y
_atom_site_fract_z
Si Si1 0.405597 0.213407 0.260580
Si Si2 0.898115 0.585758 0.822172
Si Si3 0.898688 0.586014 0.338831
Si Si4 0.094828 0.087483 0.050336
Si Si5 0.091412 0.907005 0.415592
Si Si6 0.090810 0.205610 0.838594
Si Si7 0.100524 0.795627 0.638476
Si Si8 0.964807 0.609555 0.578378
O O1 0.250000 0.197831 0.297438
O O2 0.426597 0.325504 0.262050
O O3 0.417148 0.165237 0.144059
O O4 0.516179 0.165975 0.336876
O O5 0.750000 0.559347 0.859103
O O6 0.939637 0.685937 0.872276
O O7 0.000000 0.500000 0.836601
O O8 0.890935 0.610308 0.693523
O O9 0.750000 0.549992 0.319318
O O10 0.000000 0.500000 0.329133
O O11 0.901766 0.628605 0.461495
O O12 0.250000 0.057506 0.047422
O O13 0.060947 0.134769 0.935608
O O14 0.000000 0.000000 0.074024
O O15 0.250000 0.921648 0.389432
O O16 0.085873 0.863914 0.536203
O O17 0.000000 0.000000 0.409679
O O18 0.250000 0.202236 0.817058
O O19 0.006594 0.184297 0.731443
O O20 0.250000 0.803833 0.682323
O O21 0.077493 0.688469 0.596187
O O22 0.000000 0.500000 0.568717
#
# Coordination Sequence:
#
# PCOD9339600 Si02
#       8
#     4   4   4   4   4   4   4   4
#     4  10  21  39  61  84 112 148 189 234 283 336
#     4   9  17  29  48  75 107 144 182 219 262 318
#     4  10  20  33  53  82 116 154 190 226 274 331
#     4  10  22  41  63  84 107 140 188 241 290 337
#     4  11  23  38  56  81 112 146 183 229 285 343
#     4   9  20  37  56  79 110 146 183 228 281 336
#     4  10  21  36  55  81 114 149 184 228 278 334
#     4   9  17  29  48  76 110 146 186 218 266 316
#
# _framework density 18.179887999999998
#
# number of rings (size 3 to 8) (size 9 to 14) (size 15 to 20)
#    0.000    2.250    1.250    1.125    0.000   11.000 
#    0.000    3.125    0.000    0.000    0.000    0.000 
#    0.000    0.000    0.000    0.000    0.000    0.000 
#
# Total GULP energy -178249.394709 kJ/mol
# GULP energy per Si atom -5570.293585 kJ/mol
# Density = 1.813851 g / cm^3
# Si number density = 18.179888 Si / 1000 Ang^3
#
#
#
# Elastic Constant Matrix: (Units=GPa)
#
#
# Indices 1 2 3 4 5 6 
#
# 1 105.9450 54.0782 36.9350 0.0000 0.0000 0.0000
# 2 54.0782 79.0506 27.2481 0.0000 0.0000 0.0000
# 3 36.9350 27.2481 54.4535 0.0000 0.0000 0.0000
# 4 0.0000 0.0000 0.0000 34.4116 0.0000 0.0000
# 5 0.0000 0.0000 0.0000 0.0000 16.7455 0.0000
# 6 0.0000 0.0000 0.0000 0.0000 0.0000 28.4007
#
#
#
# Elastic Compliance Matrix: (Units=1/GPa)
#
#
# Indices 1 2 3 4 5 6 
#
# 1 0.016254 -0.008845 -0.006599 0.000000 0.000000 0.000000
# 2 -0.008845 0.020100 -0.004058 0.000000 0.000000 0.000000
# 3 -0.006599 -0.004058 0.024871 0.000000 0.000000 0.000000
# 4 0.000000 0.000000 0.000000 0.029060 0.000000 0.000000
# 5 0.000000 0.000000 0.000000 0.000000 0.059718 0.000000
# 6 0.000000 0.000000 0.000000 0.000000 0.000000 0.035210
#
#
# Mechanical properties :
#
#
# Convention : Reuss Voigt Hill
#
# Bulk Modulus (GPa) = 45.00368 52.88575 48.94472
# Shear Modulus (GPa) = 21.58666 23.99074 22.78870
#
# Velocity S-wave (km/s) = 3.44959 3.63661 3.54434
# Velocity P-wave (km/s) = 6.37767 6.84008 6.61292
#
# Compressibility (1/GPa) = 0.02222040
#
# Stress axis : x y z
#
# Youngs Moduli (GPa) = 61.52272 49.75195 40.20709
#
# Poissons Ratio (x) = 0.44004 0.26533
# Poissons Ratio (y) = 0.54415 0.16318
# Poissons Ratio (z) = 0.40600 0.20192
#
# Static dielectric constant tensor:
#      x y z
#    x 1.648430 0.000000 0.000000 
#    y 0.000000 1.586700 0.000000 
#    z 0.000000 0.000000 1.628210 
# 
# From -- ./inp_files/5100.got.cif
#   From: 2010.05.17/outbox.cif.g08.bks.cpg/sg28_3_cif.got.tgz:5100.got - 2010.06.04 01:15:21.
