data_PCOD9339137
_publ_section_title
;
Structure prediction by ZEFSAII (Michael W. Deem and Ramdas Pophale) SiO2 
 PCOD9339137
Probable space group: P C C 2
;
_chemical_formula_sum "Si O2"
_cell_formula_units_Z 20
_cell_length_a 8.601270
_cell_length_b 8.750782
_cell_length_c 10.604519
_cell_angle_alpha 90.000000
_cell_angle_beta 90.000000
_cell_angle_gamma 90.000000
_cell_volume 798.179226
_symmetry_space_group_name_H-M "P C C 2"
_symmetry_group_IT_number 27
_symmetry_cell_setting 'orthorhombic'
loop_
_space_group_symop_operation_xyz
x,y,z
-x,-y,z
-x,y,1/2+z
x,-y,1/2+z
loop_
_atom_site_type_symbol
_atom_site_label
_atom_site_fract_x
_atom_site_fract_y
_atom_site_fract_z
Si Si1 0.564861 0.853880 0.601690
Si Si2 0.651276 0.612548 0.185334
Si Si3 0.908279 0.350105 0.469477
Si Si4 0.218328 0.743082 0.927243
Si Si5 0.835120 0.062451 0.292055
O O1 0.428065 0.778278 0.678621
O O2 0.626972 0.727222 0.507870
O O3 0.704077 0.906481 0.690009
O O4 0.500000 0.000000 0.530318
O O5 0.500000 0.500000 0.193987
O O6 0.755811 0.627749 0.310522
O O7 0.772393 0.605140 0.067190
O O8 0.853524 0.222352 0.369241
O O9 0.000000 0.500000 0.420626
O O10 0.068439 0.272134 0.519390
O O11 0.209462 0.918436 0.880167
O O12 0.000000 0.000000 0.238811
#
# Coordination Sequence:
#
# PCOD9339137 Si02
#       5
#     4   4   4   4   4
#     4  12  26  45  79 110 160 202 271 323 402 461
#     4  12  29  49  77 118 161 207 263 337 402 480
#     4  11  27  50  80 110 155 208 269 326 401 481
#     4  11  27  47  77 110 157 210 265 327 398 488
#     4  10  25  47  77 112 155 205 265 330 396 482
#
# _framework density 25.057029
#
# number of rings (size 3 to 8) (size 9 to 14) (size 15 to 20)
#    0.000    0.800    2.000    2.400   14.000    2.400 
#    0.000    0.000    0.000    0.000    0.000    0.000 
#    0.000    0.000    0.000    0.000    0.000    0.000 
#
# Total GULP energy -111500.939391 kJ/mol
# GULP energy per Si atom -5575.046970 kJ/mol
# Density = 2.500000 g / cm^3
# Si number density = 25.057029 Si / 1000 Ang^3
#
#
#
# Elastic Constant Matrix: (Units=GPa)
#
#
# Indices 1 2 3 4 5 6 
#
# 1 182.9297 60.0492 75.3460 0.0000 0.0000 0.0000
# 2 60.0492 135.0196 42.3427 0.0000 0.0000 0.0000
# 3 75.3460 42.3427 63.9463 0.0000 0.0000 0.0000
# 4 0.0000 0.0000 0.0000 14.3315 0.0000 0.0000
# 5 0.0000 0.0000 0.0000 0.0000 38.8946 0.0000
# 6 0.0000 0.0000 0.0000 0.0000 0.0000 48.8580
#
#
#
# Elastic Compliance Matrix: (Units=1/GPa)
#
#
# Indices 1 2 3 4 5 6 
#
# 1 0.010731 -0.001019 -0.011969 0.000000 0.000000 0.000000
# 2 -0.001019 0.009444 -0.005053 0.000000 0.000000 0.000000
# 3 -0.011969 -0.005053 0.033087 0.000000 0.000000 0.000000
# 4 0.000000 0.000000 0.000000 0.069776 0.000000 0.000000
# 5 0.000000 0.000000 0.000000 0.000000 0.025710 0.000000
# 6 0.000000 0.000000 0.000000 0.000000 0.000000 0.020467
#
#
# Mechanical properties :
#
#
# Convention : Reuss Voigt Hill
#
# Bulk Modulus (GPa) = 58.20786 81.93014 70.06900
# Shear Modulus (GPa) = 23.69378 34.02734 28.86056
#
# Velocity S-wave (km/s) = 3.07839 3.68910 3.39749
# Velocity P-wave (km/s) = 5.99299 7.13543 6.58902
#
# Compressibility (1/GPa) = 0.01717981
#
# Stress axis : x y z
#
# Youngs Moduli (GPa) = 93.18723 105.88595 30.22317
#
# Poissons Ratio (x) = 0.10789 0.36175
# Poissons Ratio (y) = 0.09495 0.15272
# Poissons Ratio (z) = 1.11540 0.53504
#
# Static dielectric constant tensor:
#      x y z
#    x 2.247200 0.000000 0.000000 
#    y 0.000000 2.196980 0.000000 
#    z 0.000000 0.000000 1.955080 
# 
# From -- ./inp_files/2240.got.cif
#   From: 2010.05.17/outbox.cif.g08.bks.cpg/sg27_2_cif.got.tgz:2240.got - 2010.06.04 01:11:05.
