data_PCOD9339496
_publ_section_title
;
Structure prediction by ZEFSAII (Michael W. Deem and Ramdas Pophale) SiO2 
 PCOD9339496
Probable space group: P M A 2
;
_chemical_formula_sum "Si O2"
_cell_formula_units_Z 24
_cell_length_a 28.349156
_cell_length_b 5.102110
_cell_length_c 7.205169
_cell_angle_alpha 90.000000
_cell_angle_beta 90.000000
_cell_angle_gamma 90.000000
_cell_volume 1042.159336
_symmetry_space_group_name_H-M "P M A 2"
_symmetry_group_IT_number 28
_symmetry_cell_setting 'orthorhombic'
loop_
_space_group_symop_operation_xyz
x,y,z
-x,-y,z
1/2-x,y,z
1/2+x,-y,z
loop_
_atom_site_type_symbol
_atom_site_label
_atom_site_fract_x
_atom_site_fract_y
_atom_site_fract_z
Si Si1 0.049950 0.558662 0.423500
Si Si2 0.853394 0.277268 0.262218
Si Si3 0.302917 0.227178 0.266426
Si Si4 0.049778 0.051368 0.676692
Si Si5 0.145296 0.802907 0.821829
Si Si6 0.803175 0.701151 0.815714
O O1 0.097176 0.582800 0.305892
O O2 0.045676 0.848099 0.507266
O O3 0.000000 0.500000 0.325447
O O4 0.053944 0.342480 0.589777
O O5 0.814576 0.481849 0.332846
O O6 0.841248 0.986056 0.332279
O O7 0.850786 0.236852 0.041960
O O8 0.250000 0.142199 0.312400
O O9 0.305040 0.263101 0.041126
O O10 0.095354 0.940543 0.782051
O O11 0.000000 0.000000 0.781894
O O12 0.158718 0.513969 0.751171
O O13 0.183547 0.010040 0.749317
O O14 0.750000 0.622154 0.768555
#
# Coordination Sequence:
#
# PCOD9339496 Si02
#       6
#     4   4   4   4   4   4
#     4  10  21  38  57  76 104 145 183 216 270 337
#     4  10  19  33  55  82 106 134 178 226 265 305
#     4   9  17  30  51  79 109 139 172 213 264 321
#     4  10  21  38  57  76 104 145 183 216 270 337
#     4  10  19  33  55  82 106 134 178 226 265 305
#     4   9  17  30  51  79 109 139 172 213 264 321
#
# _framework density 23.029107
#
# number of rings (size 3 to 8) (size 9 to 14) (size 15 to 20)
#    0.000    2.333    0.000    3.000    0.000    4.000 
#    0.000   10.000    0.000   20.000    0.000    0.000 
#    0.000    0.000    0.000    0.000    0.000    0.000 
#
# Total GULP energy -133829.204037 kJ/mol
# GULP energy per Si atom -5576.216835 kJ/mol
# Density = 2.297669 g / cm^3
# Si number density = 23.029107 Si / 1000 Ang^3
#
#
#
# Elastic Constant Matrix: (Units=GPa)
#
#
# Indices 1 2 3 4 5 6 
#
# 1 130.9937 58.4662 -4.6031 0.0000 0.0000 0.0000
# 2 58.4662 141.7271 9.8506 0.0000 0.0000 0.0000
# 3 -4.6031 9.8506 54.8259 0.0000 0.0000 0.0000
# 4 0.0000 0.0000 0.0000 3.5721 0.0000 0.0000
# 5 0.0000 0.0000 0.0000 0.0000 26.4161 0.0000
# 6 0.0000 0.0000 0.0000 0.0000 0.0000 34.7724
#
#
#
# Elastic Compliance Matrix: (Units=1/GPa)
#
#
# Indices 1 2 3 4 5 6 
#
# 1 0.009480 -0.004016 0.001517 0.000000 0.000000 0.000000
# 2 -0.004016 0.008846 -0.001927 0.000000 0.000000 0.000000
# 3 0.001517 -0.001927 0.018713 0.000000 0.000000 0.000000
# 4 0.000000 0.000000 0.000000 0.279946 0.000000 0.000000
# 5 0.000000 0.000000 0.000000 0.000000 0.037856 0.000000
# 6 0.000000 0.000000 0.000000 0.000000 0.000000 0.028758
#
#
# Mechanical properties :
#
#
# Convention : Reuss Voigt Hill
#
# Bulk Modulus (GPa) = 35.47505 50.55269 43.01387
# Shear Modulus (GPa) = 12.44256 30.54099 21.49177
#
# Velocity S-wave (km/s) = 2.32695 3.64564 3.05822
# Velocity P-wave (km/s) = 4.75999 6.30240 5.58470
#
# Compressibility (1/GPa) = 0.02818882
#
# Stress axis : x y z
#
# Youngs Moduli (GPa) = 105.48748 113.03918 53.43842
#
# Poissons Ratio (x) = 0.45398 -0.08109
# Poissons Ratio (y) = 0.42365 0.10296
# Poissons Ratio (z) = -0.16008 0.21779
#
# Static dielectric constant tensor:
#      x y z
#    x 1.970910 0.000000 0.000000 
#    y 0.000000 1.826780 0.000000 
#    z 0.000000 0.000000 1.886030 
# 
# From -- ./inp_files/4149.got.cif
#   From: 2010.05.17/outbox.cif.g08.bks.cpg/sg28_3_cif.got.tgz:4149.got - 2010.06.04 01:15:21.
