data_PCOD9339626
_publ_section_title
;
Structure prediction by ZEFSAII (Michael W. Deem and Ramdas Pophale) SiO2 
 PCOD9339626
Probable space group: P M A 2
;
_chemical_formula_sum "Si O2"
_cell_formula_units_Z 24
_cell_length_a 9.662316
_cell_length_b 21.114575
_cell_length_c 5.564219
_cell_angle_alpha 90.000000
_cell_angle_beta 90.000000
_cell_angle_gamma 90.000000
_cell_volume 1135.188011
_symmetry_space_group_name_H-M "P M A 2"
_symmetry_group_IT_number 28
_symmetry_cell_setting 'orthorhombic'
loop_
_space_group_symop_operation_xyz
x,y,z
-x,-y,z
1/2-x,y,z
1/2+x,-y,z
loop_
_atom_site_type_symbol
_atom_site_label
_atom_site_fract_x
_atom_site_fract_y
_atom_site_fract_z
Si Si1 0.096925 0.876880 0.690070
Si Si2 0.594753 0.948267 0.363717
Si Si3 0.085012 0.632670 0.689268
Si Si4 0.080677 0.565950 0.184701
Si Si5 0.403965 0.183509 0.075804
Si Si6 0.596347 0.247989 0.397954
O O1 0.250000 0.898507 0.761509
O O2 0.112099 0.824329 0.481746
O O3 0.995021 0.931041 0.598358
O O4 0.019445 0.837209 0.889991
O O5 0.750000 0.972302 0.407628
O O6 0.608788 0.880946 0.232492
O O7 0.500000 0.000000 0.229298
O O8 0.250000 0.624709 0.699321
O O9 0.038136 0.607944 0.950125
O O10 0.061634 0.705922 0.619113
O O11 0.041051 0.595731 0.445030
O O12 0.250000 0.558838 0.182545
O O13 0.000000 0.500000 0.160881
O O14 0.250000 0.196522 0.977942
O O15 0.468096 0.242804 0.218313
O O16 0.750000 0.268352 0.302122
#
# Coordination Sequence:
#
# PCOD9339626 Si02
#       6
#     4   4   4   4   4   4
#     4  10  20  34  56  81 107 141 182 229 282 339
#     4  10  21  37  55  76 106 141 182 229 278 338
#     4   9  19  34  58  85 112 149 196 242 290 342
#     4  10  20  36  57  83 115 153 192 240 290 345
#     4  10  21  36  54  78 111 146 178 227 289 339
#     4   9  19  35  56  81 106 140 187 234 278 338
#
# _framework density 21.141871999999999
#
# number of rings (size 3 to 8) (size 9 to 14) (size 15 to 20)
#    0.000    2.333    0.000    2.000    2.333    3.333 
#    0.000    3.333    0.000    0.000    0.000    0.000 
#    0.000    0.000    0.000    0.000    0.000    0.000 
#
# Total GULP energy -133617.847639 kJ/mol
# GULP energy per Si atom -5567.410318 kJ/mol
# Density = 2.109375 g / cm^3
# Si number density = 21.141872 Si / 1000 Ang^3
#
#
#
# Elastic Constant Matrix: (Units=GPa)
#
#
# Indices 1 2 3 4 5 6 
#
# 1 128.4679 15.5573 23.1540 0.0000 0.0000 0.0000
# 2 15.5573 76.0823 8.9202 0.0000 0.0000 0.0000
# 3 23.1540 8.9202 63.4124 0.0000 0.0000 0.0000
# 4 0.0000 0.0000 0.0000 18.4849 0.0000 0.0000
# 5 0.0000 0.0000 0.0000 0.0000 15.0037 0.0000
# 6 0.0000 0.0000 0.0000 0.0000 0.0000 27.8998
#
#
#
# Elastic Compliance Matrix: (Units=1/GPa)
#
#
# Indices 1 2 3 4 5 6 
#
# 1 0.008475 -0.001393 -0.002899 0.000000 0.000000 0.000000
# 2 -0.001393 0.013593 -0.001403 0.000000 0.000000 0.000000
# 3 -0.002899 -0.001403 0.017026 0.000000 0.000000 0.000000
# 4 0.000000 0.000000 0.000000 0.054098 0.000000 0.000000
# 5 0.000000 0.000000 0.000000 0.000000 0.066650 0.000000
# 6 0.000000 0.000000 0.000000 0.000000 0.000000 0.035843
#
#
# Mechanical properties :
#
#
# Convention : Reuss Voigt Hill
#
# Bulk Modulus (GPa) = 36.09661 40.35841 38.22751
# Shear Modulus (GPa) = 23.11501 26.96642 25.04071
#
# Velocity S-wave (km/s) = 3.31014 3.57529 3.44526
# Velocity P-wave (km/s) = 5.63205 6.01451 5.82642
#
# Compressibility (1/GPa) = 0.02770343
#
# Stress axis : x y z
#
# Youngs Moduli (GPa) = 117.99164 73.56689 58.73514
#
# Poissons Ratio (x) = 0.10249 0.17025
# Poissons Ratio (y) = 0.16438 0.08243
# Poissons Ratio (z) = 0.34201 0.10325
#
# Static dielectric constant tensor:
#      x y z
#    x 1.779150 0.000000 0.000000 
#    y 0.000000 1.818780 0.000000 
#    z 0.000000 0.000000 1.861410 
# 
# From -- ./inp_files/209.got.cif
#   From: 2010.05.17/outbox.cif.g08.bks.cpg/sg28_1_cif.got.tgz:209.got - 2010.06.04 01:15:21.
