data_PCOD9339067
_publ_section_title
;
Structure prediction by ZEFSAII (Michael W. Deem and Ramdas Pophale) SiO2 
 PCOD9339067
Probable space group: P C C 2
;
_chemical_formula_sum "Si O2"
_cell_formula_units_Z 18
_cell_length_a 4.796216
_cell_length_b 14.592818
_cell_length_c 9.438493
_cell_angle_alpha 90.000000
_cell_angle_beta 90.000000
_cell_angle_gamma 90.000000
_cell_volume 660.603024
_symmetry_space_group_name_H-M "P C C 2"
_symmetry_group_IT_number 27
_symmetry_cell_setting 'orthorhombic'
loop_
_space_group_symop_operation_xyz
x,y,z
-x,-y,z
-x,y,1/2+z
x,-y,1/2+z
loop_
_atom_site_type_symbol
_atom_site_label
_atom_site_fract_x
_atom_site_fract_y
_atom_site_fract_z
Si Si1 0.749036 0.386369 0.414860
Si Si2 0.000000 0.500000 0.674018
Si Si3 0.563256 0.899610 0.774699
Si Si4 0.060328 0.898448 0.600081
Si Si5 0.232589 0.258905 0.425840
O O1 0.864655 0.428264 0.562506
O O2 0.453001 0.341056 0.454277
O O3 0.774806 0.457774 0.284814
O O4 0.971379 0.311118 0.358456
O O5 0.891298 0.897921 0.749034
O O6 0.433187 0.812471 0.847512
O O7 0.389067 0.896059 0.626818
O O8 0.500000 0.000000 0.834234
O O9 0.932654 0.807666 0.533414
O O10 0.000000 0.000000 0.540763
#
# Coordination Sequence:
#
# PCOD9339067 Si02
#       5
#     4   2   4   4   4
#     4  11  28  47  82 106 153 194 256 318 399 467
#     4  10  28  56  72 114 150 200 244 336 414 464
#     4  10  23  42  66 101 150 194 238 302 368 437
#     4  10  23  42  66 102 150 194 239 301 371 435
#     4  12  26  42  76 112 139 202 252 318 359 478
#
# _framework density 27.247833
#
# number of rings (size 3 to 8) (size 9 to 14) (size 15 to 20)
#    0.000    1.333    0.000    2.667    9.333   12.444 
#    0.000    0.000    0.000    0.000    0.000    0.000 
#    0.000    0.000    0.000    0.000    0.000    0.000 
#
# Total GULP energy -100578.865821 kJ/mol
# GULP energy per Si atom -5587.714768 kJ/mol
# Density = 2.718582 g / cm^3
# Si number density = 27.247833 Si / 1000 Ang^3
#
#
#
# Elastic Constant Matrix: (Units=GPa)
#
#
# Indices 1 2 3 4 5 6 
#
# 1 161.5575 47.9864 28.9328 0.0000 0.0000 0.0000
# 2 47.9864 130.7569 54.6227 0.0000 0.0000 0.0000
# 3 28.9328 54.6227 116.1444 0.0000 0.0000 0.0000
# 4 0.0000 0.0000 0.0000 2.0900 0.0000 0.0000
# 5 0.0000 0.0000 0.0000 0.0000 39.1190 0.0000
# 6 0.0000 0.0000 0.0000 0.0000 0.0000 65.6399
#
#
#
# Elastic Compliance Matrix: (Units=1/GPa)
#
#
# Indices 1 2 3 4 5 6 
#
# 1 0.006988 -0.002287 -0.000665 0.000000 0.000000 0.000000
# 2 -0.002287 0.010266 -0.004258 0.000000 0.000000 0.000000
# 3 -0.000665 -0.004258 0.010778 0.000000 0.000000 0.000000
# 4 0.000000 0.000000 0.000000 0.478469 0.000000 0.000000
# 5 0.000000 0.000000 0.000000 0.000000 0.025563 0.000000
# 6 0.000000 0.000000 0.000000 0.000000 0.000000 0.015235
#
#
# Mechanical properties :
#
#
# Convention : Reuss Voigt Hill
#
# Bulk Modulus (GPa) = 73.46696 74.61583 74.04140
# Shear Modulus (GPa) = 8.82991 39.83090 24.33041
#
# Velocity S-wave (km/s) = 1.80212 3.82750 2.99144
# Velocity P-wave (km/s) = 5.59921 6.85395 6.25811
#
# Compressibility (1/GPa) = 0.01361156
#
# Stress axis : x y z
#
# Youngs Moduli (GPa) = 143.10075 97.41030 92.77752
#
# Poissons Ratio (x) = 0.22274 0.06174
# Poissons Ratio (y) = 0.32721 0.39509
# Poissons Ratio (z) = 0.09522 0.41481
#
# Static dielectric constant tensor:
#      x y z
#    x 2.035530 0.000000 0.000000 
#    y 0.000000 2.155000 0.000000 
#    z 0.000000 0.000000 2.217330 
# 
# From -- ./inp_files/857.got.cif
#   From: 2010.05.17/outbox.cif.g08.bks.cpg/sg27_1_cif.got.tgz:857.got - 2010.06.04 01:11:05.
