data_PCOD9339146
_publ_section_title
;
Structure prediction by ZEFSAII (Michael W. Deem and Ramdas Pophale) SiO2 
 PCOD9339146
Probable space group: P C C 2
;
_chemical_formula_sum "Si O2"
_cell_formula_units_Z 12
_cell_length_a 5.189204
_cell_length_b 5.037532
_cell_length_c 17.925148
_cell_angle_alpha 90.000000
_cell_angle_beta 90.000000
_cell_angle_gamma 90.000000
_cell_volume 468.577372
_symmetry_space_group_name_H-M "P C C 2"
_symmetry_group_IT_number 27
_symmetry_cell_setting 'orthorhombic'
loop_
_space_group_symop_operation_xyz
x,y,z
-x,-y,z
-x,y,1/2+z
x,-y,1/2+z
loop_
_atom_site_type_symbol
_atom_site_label
_atom_site_fract_x
_atom_site_fract_y
_atom_site_fract_z
Si Si1 0.246241 0.670660 0.305020
Si Si2 0.317516 0.742421 0.078268
Si Si3 0.000000 0.000000 0.200043
Si Si4 0.000000 0.500000 0.447664
O O1 0.500000 0.500000 0.294051
O O2 0.176267 0.679831 0.392822
O O3 0.000000 0.500000 0.275773
O O4 0.226138 0.946639 0.261154
O O5 0.500000 0.500000 0.100411
O O6 0.500000 0.000000 0.074904
O O7 0.095276 0.786914 0.138910
O O8 0.181874 0.673555 0.000398
#
# Coordination Sequence:
#
# PCOD9339146 Si02
#       4
#     4   4   2   2
#     4  10  26  48  77 111 159 207 271 328 408 481
#     4  12  28  49  81 117 167 216 276 340 413 490
#     4  12  28  44  80 116 162 214 268 342 406 490
#     4  10  26  50  76 116 156 216 270 340 404 490
#
# _framework density 25.609428000000001
#
# number of rings (size 3 to 8) (size 9 to 14) (size 15 to 20)
#    1.000    0.000    0.000    4.000   11.667    6.667 
#    0.000    0.000    0.000    0.000    0.000    0.000 
#    0.000    0.000    0.000    0.000    0.000    0.000 
#
# Total GULP energy -66967.615172 kJ/mol
# GULP energy per Si atom -5580.634598 kJ/mol
# Density = 2.555114 g / cm^3
# Si number density = 25.609428 Si / 1000 Ang^3
#
#
#
# Elastic Constant Matrix: (Units=GPa)
#
#
# Indices 1 2 3 4 5 6 
#
# 1 184.4639 87.1249 57.1359 0.0000 0.0000 0.0000
# 2 87.1249 166.3335 64.0830 0.0000 0.0000 0.0000
# 3 57.1359 64.0830 210.5073 0.0000 0.0000 0.0000
# 4 0.0000 0.0000 0.0000 243.8116 0.0000 0.0000
# 5 0.0000 0.0000 0.0000 0.0000 -656.7511 0.0000
# 6 0.0000 0.0000 0.0000 0.0000 0.0000 53.5141
#
#
#
# Elastic Compliance Matrix: (Units=1/GPa)
#
#
# Indices 1 2 3 4 5 6 
#
# 1 0.007362 -0.003496 -0.000934 0.000000 0.000000 0.000000
# 2 -0.003496 0.008471 -0.001630 0.000000 0.000000 0.000000
# 3 -0.000934 -0.001630 0.005500 0.000000 0.000000 0.000000
# 4 0.000000 0.000000 0.000000 0.004102 0.000000 0.000000
# 5 0.000000 0.000000 0.000000 0.000000 -0.001523 0.000000
# 6 0.000000 0.000000 0.000000 0.000000 0.000000 0.018687
#
#
# Mechanical properties :
#
#
# Convention : Reuss Voigt Hill
#
# Bulk Modulus (GPa) = 108.54028 108.66579 108.60304
# Shear Modulus (GPa) = 86.52097 -48.35436 19.08330
#
# Velocity S-wave (km/s) = 5.81878 -4.35000 2.73274
# Velocity P-wave (km/s) = 9.36051 4.15862 7.24270
#
# Compressibility (1/GPa) = 0.00921317
#
# Stress axis : x y z
#
# Youngs Moduli (GPa) = 135.83862 118.04567 181.81663
#
# Poissons Ratio (x) = 0.41272 0.16977
# Poissons Ratio (y) = 0.47493 0.29634
# Poissons Ratio (z) = 0.12684 0.19240
#
# Static dielectric constant tensor:
#      x y z
#    x 2.038390 0.000000 0.000000 
#    y 0.000000 1.937420 0.000000 
#    z 0.000000 0.000000 1.999070 
# 
# From -- ./inp_files/3828.got.cif
#   From: 2010.05.17/outbox.cif.g08.bks.cpg/sg27_2_cif.got.tgz:3828.got - 2010.06.04 01:11:05.
