data_PCOD9339546
_publ_section_title
;
Structure prediction by ZEFSAII (Michael W. Deem and Ramdas Pophale) SiO2 
 PCOD9339546
Probable space group: P M A 2
;
_chemical_formula_sum "Si O2"
_cell_formula_units_Z 32
_cell_length_a 16.157729
_cell_length_b 12.231766
_cell_length_c 7.665990
_cell_angle_alpha 90.000000
_cell_angle_beta 90.000000
_cell_angle_gamma 90.000000
_cell_volume 1515.087560
_symmetry_space_group_name_H-M "P M A 2"
_symmetry_group_IT_number 28
_symmetry_cell_setting 'orthorhombic'
loop_
_space_group_symop_operation_xyz
x,y,z
-x,-y,z
1/2-x,y,z
1/2+x,-y,z
loop_
_atom_site_type_symbol
_atom_site_label
_atom_site_fract_x
_atom_site_fract_y
_atom_site_fract_z
Si Si1 0.847297 0.000001 0.772180
Si Si2 0.500000 0.373125 0.323691
Si Si3 0.841096 0.760736 0.315846
Si Si4 0.905490 0.000001 0.391683
Si Si5 0.657804 0.240208 0.902745
Si Si6 0.157804 0.240207 0.902743
Si Si7 0.841096 0.239266 0.315847
Si Si8 0.000000 0.373716 0.895486
O O1 0.750000 0.000001 0.719246
O O2 0.860929 0.888085 0.875625
O O3 0.902225 0.000002 0.600751
O O4 0.860927 0.111916 0.875631
O O5 0.500000 0.500000 0.373396
O O6 0.417842 0.309662 0.385272
O O7 0.582157 0.309663 0.385273
O O8 0.500000 0.368933 0.109611
O O9 0.750000 0.736728 0.390067
O O10 0.860703 0.888935 0.336017
O O11 0.837901 0.738568 0.109185
O O12 0.860703 0.111067 0.336015
O O13 0.000000 0.000000 0.327382
O O14 0.750000 0.262142 0.830160
O O15 0.582528 0.312126 0.833101
O O16 0.662099 0.261436 0.109187
O O17 0.250000 0.262140 0.830159
O O18 0.082529 0.312127 0.833100
O O19 0.750000 0.263272 0.390069
O O20 0.000000 0.500000 0.845543
#
# Coordination Sequence:
#
# PCOD9339546 Si02
#       8
#     4   4   4   4   4   4   4   4
#     4  10  21  36  52  77 107 136 172 215 258 312
#     4   9  18  33  51  80 110 135 174 217 254 305
#     4  10  19  35  56  79 107 140 172 212 261 311
#     4  12  23  34  52  80 108 139 174 216 263 314
#     4   9  19  34  55  79 105 136 172 211 257 308
#     4   9  19  34  55  79 105 136 172 211 257 308
#     4  10  19  35  56  79 107 140 172 212 261 311
#     4   9  18  31  51  78 108 137 170 211 256 301
#
# _framework density 21.120892000000001
#
# number of rings (size 3 to 8) (size 9 to 14) (size 15 to 20)
#    0.000    2.250    1.250    1.875    1.750    3.000 
#    0.000    5.000    0.000    3.000    0.000    3.500 
#    0.000    0.000    0.000    0.000    0.000    0.000 
#
# Total GULP energy -178672.085061 kJ/mol
# GULP energy per Si atom -5583.502658 kJ/mol
# Density = 2.107282 g / cm^3
# Si number density = 21.120892 Si / 1000 Ang^3
#
#
#
# Elastic Constant Matrix: (Units=GPa)
#
#
# Indices 1 2 3 4 5 6 
#
# 1 211.1973 124.2458 10.1497 0.0000 0.0000 0.0000
# 2 124.2458 162.9846 -10.5819 0.0000 0.0000 0.0000
# 3 10.1497 -10.5819 33.8218 0.0000 0.0000 0.0000
# 4 0.0000 0.0000 0.0000 -37.6696 0.0000 0.0000
# 5 0.0000 0.0000 0.0000 0.0000 8.8249 0.0000
# 6 0.0000 0.0000 0.0000 0.0000 0.0000 15.4813
#
#
#
# Elastic Compliance Matrix: (Units=1/GPa)
#
#
# Indices 1 2 3 4 5 6 
#
# 1 0.009393 -0.007495 -0.005164 0.000000 0.000000 0.000000
# 2 -0.007495 0.012244 0.006080 0.000000 0.000000 0.000000
# 3 -0.005164 0.006080 0.033019 0.000000 0.000000 0.000000
# 4 0.000000 0.000000 0.000000 -0.026547 0.000000 0.000000
# 5 0.000000 0.000000 0.000000 0.000000 0.113316 0.000000
# 6 0.000000 0.000000 0.000000 0.000000 0.000000 0.064594
#
#
# Mechanical properties :
#
#
# Convention : Reuss Voigt Hill
#
# Bulk Modulus (GPa) = 24.09782 72.84785 48.47284
# Shear Modulus (GPa) = 21.45846 16.27334 18.86590
#
# Velocity S-wave (km/s) = 3.19091 2.77877 2.99194
# Velocity P-wave (km/s) = 5.00101 6.69785 5.91064
#
# Compressibility (1/GPa) = 0.04149752
#
# Stress axis : x y z
#
# Youngs Moduli (GPa) = 106.46789 81.67194 30.28590
#
# Poissons Ratio (x) = 0.61216 0.15639
# Poissons Ratio (y) = 0.79801 -0.18414
# Poissons Ratio (z) = 0.54977 -0.49658
#
# Static dielectric constant tensor:
#      x y z
#    x 1.775990 0.000000 0.000000 
#    y 0.000000 1.712560 0.000000 
#    z 0.000000 0.000000 1.764530 
# 
# From -- ./inp_files/3532.got.cif
#   From: 2010.05.17/outbox.cif.g08.bks.cpg/sg28_2_cif.got.tgz:3532.got - 2010.06.04 01:15:21.
