data_PCOD9339235
_publ_section_title
;
Structure prediction by ZEFSAII (Michael W. Deem and Ramdas Pophale) SiO2 
 PCOD9339235
Probable space group: P M A 2
;
_chemical_formula_sum "Si O2"
_cell_formula_units_Z 28
_cell_length_a 8.548466
_cell_length_b 9.072727
_cell_length_c 19.366184
_cell_angle_alpha 90.000000
_cell_angle_beta 90.000000
_cell_angle_gamma 90.000000
_cell_volume 1502.000529
_symmetry_space_group_name_H-M "P M A 2"
_symmetry_group_IT_number 28
_symmetry_cell_setting 'orthorhombic'
loop_
_space_group_symop_operation_xyz
x,y,z
-x,-y,z
1/2-x,y,z
1/2+x,-y,z
loop_
_atom_site_type_symbol
_atom_site_label
_atom_site_fract_x
_atom_site_fract_y
_atom_site_fract_z
Si Si1 0.438327 0.664945 0.967950
Si Si2 0.936507 0.168695 0.245500
Si Si3 0.436211 0.168886 0.388243
Si Si4 0.561004 0.166890 0.830129
Si Si5 0.061315 0.831925 0.680191
Si Si6 0.061872 0.830911 0.530901
Si Si7 0.936622 0.833113 0.101548
O O1 0.500000 0.500000 0.968127
O O2 0.250000 0.668161 0.970561
O O3 0.490980 0.743193 0.896923
O O4 0.504609 0.747464 0.034716
O O5 0.250000 0.834289 0.245789
O O6 0.998414 0.236368 0.317172
O O7 0.998684 0.233285 0.173540
O O8 0.000000 0.000000 0.245092
O O9 0.250000 0.164482 0.385936
O O10 0.493075 0.236781 0.460734
O O11 0.500000 0.000000 0.389228
O O12 0.750000 0.163106 0.830901
O O13 0.511599 0.230372 0.754836
O O14 0.500000 0.000000 0.835235
O O15 0.250000 0.835547 0.679545
O O16 0.014316 0.765463 0.605797
O O17 0.000000 0.000000 0.680676
O O18 0.250000 0.833192 0.525542
O O19 0.000000 0.000000 0.532911
O O20 0.750000 0.836257 0.104396
O O21 0.000000 0.000000 0.096300
#
# Coordination Sequence:
#
# PCOD9339235 Si02
#       7
#     4   4   4   4   4   4   4
#     4  11  23  38  54  74 100 130 164 204 251 300
#     4  10  17  27  42  62  88 119 157 197 237 282
#     4  10  16  22  32  50  80 117 154 189 230 277
#     4   9  18  32  51  73  97 126 162 202 244 291
#     4   8  14  24  38  58  84 115 151 191 232 277
#     4   9  14  20  31  49  77 113 150 185 226 274
#     4  11  21  35  54  76 101 130 165 204 247 295
#
# _framework density 18.641804
#
# number of rings (size 3 to 8) (size 9 to 14) (size 15 to 20)
#    0.000    2.286    0.000    7.714    0.000    2.857 
#    0.000    0.000    0.000    0.000    0.000    0.000 
#    0.000    1.143    0.000    8.000    0.000   10.286 
#
# Total GULP energy -155999.093545 kJ/mol
# GULP energy per Si atom -5571.396198 kJ/mol
# Density = 1.859937 g / cm^3
# Si number density = 18.641804 Si / 1000 Ang^3
#
#
#
# Elastic Constant Matrix: (Units=GPa)
#
#
# Indices 1 2 3 4 5 6 
#
# 1 113.4696 12.3914 66.9868 0.0000 0.0000 0.0000
# 2 12.3914 26.3056 45.8515 0.0000 0.0000 0.0000
# 3 66.9868 45.8515 259.0213 0.0000 0.0000 0.0000
# 4 0.0000 0.0000 0.0000 -5.3403 0.0000 0.0000
# 5 0.0000 0.0000 0.0000 0.0000 26.5571 0.0000
# 6 0.0000 0.0000 0.0000 0.0000 0.0000 11.3528
#
#
#
# Elastic Compliance Matrix: (Units=1/GPa)
#
#
# Indices 1 2 3 4 5 6 
#
# 1 0.010403 -0.000305 -0.002636 0.000000 0.000000 0.000000
# 2 -0.000305 0.054987 -0.009655 0.000000 0.000000 0.000000
# 3 -0.002636 -0.009655 0.006252 0.000000 0.000000 0.000000
# 4 0.000000 0.000000 0.000000 -0.187255 0.000000 0.000000
# 5 0.000000 0.000000 0.000000 0.000000 0.037655 0.000000
# 6 0.000000 0.000000 0.000000 0.000000 0.000000 0.088084
#
#
# Mechanical properties :
#
#
# Convention : Reuss Voigt Hill
#
# Bulk Modulus (GPa) = 21.52902 72.13955 46.83429
# Shear Modulus (GPa) = 98.42402 24.75170 61.58786
#
# Velocity S-wave (km/s) = 7.27407 3.64779 5.75406
# Velocity P-wave (km/s) = 9.06219 7.51821 8.32607
#
# Compressibility (1/GPa) = 0.04644894
#
# Stress axis : x y z
#
# Youngs Moduli (GPa) = 96.13013 18.18604 159.96048
#
# Poissons Ratio (x) = 0.00555 0.42170
# Poissons Ratio (y) = 0.02933 1.54439
# Poissons Ratio (z) = 0.25342 0.17558
#
# Static dielectric constant tensor:
#      x y z
#    x 1.624020 0.000000 0.000000 
#    y 0.000000 1.589840 0.000000 
#    z 0.000000 0.000000 1.752310 
# 
# From -- ./inp_files/7009.got.cif
#   From: 2010.05.17/outbox.cif.g08.bks.cpg/sg28_4_cif.got.tgz:7009.got - 2010.06.04 01:15:21.
