data_PCOD9339687
_publ_section_title
;
Structure prediction by ZEFSAII (Michael W. Deem and Ramdas Pophale) SiO2 
 PCOD9339687
Probable space group: P M A 2
;
_chemical_formula_sum "Si O2"
_cell_formula_units_Z 20
_cell_length_a 8.601363
_cell_length_b 9.366481
_cell_length_c 13.145367
_cell_angle_alpha 90.000000
_cell_angle_beta 90.000000
_cell_angle_gamma 90.000000
_cell_volume 1059.049961
_symmetry_space_group_name_H-M "P M A 2"
_symmetry_group_IT_number 28
_symmetry_cell_setting 'orthorhombic'
loop_
_space_group_symop_operation_xyz
x,y,z
-x,-y,z
1/2-x,y,z
1/2+x,-y,z
loop_
_atom_site_type_symbol
_atom_site_label
_atom_site_fract_x
_atom_site_fract_y
_atom_site_fract_z
Si Si1 0.563035 0.159915 0.074740
Si Si2 0.435809 0.340120 0.261805
Si Si3 0.562378 0.159688 0.679291
Si Si4 0.937623 0.339806 0.875843
Si Si5 0.062871 0.659134 0.483179
O O1 0.750000 0.157282 0.079144
O O2 0.497774 0.235274 0.175382
O O3 0.500000 0.000000 0.065413
O O4 0.515212 0.253052 0.976551
O O5 0.500000 0.500000 0.242617
O O6 0.250000 0.344252 0.261472
O O7 0.496022 0.297020 0.373634
O O8 0.750000 0.155236 0.681362
O O9 0.510294 0.254715 0.775260
O O10 0.515837 0.235996 0.574127
O O11 0.500000 0.000000 0.686385
O O12 0.750000 0.345275 0.874389
O O13 0.000000 0.500000 0.877225
O O14 0.250000 0.653828 0.477288
O O15 0.000000 0.500000 0.504440
#
# Coordination Sequence:
#
# PCOD9339687 Si02
#       5
#     4   4   4   4   4
#     4  11  23  39  59  85 117 151 190 234 285 341
#     4  11  22  38  60  85 115 151 193 238 285 336
#     4  10  22  38  57  84 116 149 186 230 280 336
#     4  10  22  39  60  86 114 147 188 232 279 335
#     4  10  20  36  58  84 114 148 191 236 280 334
#
# _framework density 18.884851000000001
#
# number of rings (size 3 to 8) (size 9 to 14) (size 15 to 20)
#    0.000    1.600    0.000    6.000    0.000    6.400 
#    0.000    2.000    0.000    0.000    0.000    0.000 
#    0.000    0.000    0.000    0.000    0.000    0.000 
#
# Total GULP energy -111817.992482 kJ/mol
# GULP energy per Si atom -5590.899624 kJ/mol
# Density = 1.884187 g / cm^3
# Si number density = 18.884851 Si / 1000 Ang^3
#
#
#
# Elastic Constant Matrix: (Units=GPa)
#
#
# Indices 1 2 3 4 5 6 
#
# 1 69.0363 47.6167 54.1726 0.0000 0.0000 0.0000
# 2 47.6167 182.4628 144.9458 0.0000 0.0000 0.0000
# 3 54.1726 144.9458 184.8199 0.0000 0.0000 0.0000
# 4 0.0000 0.0000 0.0000 -84.3209 0.0000 0.0000
# 5 0.0000 0.0000 0.0000 0.0000 3.5267 0.0000
# 6 0.0000 0.0000 0.0000 0.0000 0.0000 38.7842
#
#
#
# Elastic Compliance Matrix: (Units=1/GPa)
#
#
# Indices 1 2 3 4 5 6 
#
# 1 0.018948 -0.001414 -0.004445 0.000000 0.000000 0.000000
# 2 -0.001414 0.014643 -0.011069 0.000000 0.000000 0.000000
# 3 -0.004445 -0.011069 0.015395 0.000000 0.000000 0.000000
# 4 0.000000 0.000000 0.000000 -0.011859 0.000000 0.000000
# 5 0.000000 0.000000 0.000000 0.000000 0.283548 0.000000
# 6 0.000000 0.000000 0.000000 0.000000 0.000000 0.025784
#
#
# Mechanical properties :
#
#
# Convention : Reuss Voigt Hill
#
# Bulk Modulus (GPa) = 66.09618 103.30992 84.70305
# Shear Modulus (GPa) = 12.97494 4.23693 8.60593
#
# Velocity S-wave (km/s) = 2.62402 1.49948 2.13704
# Velocity P-wave (km/s) = 6.65253 7.60407 7.14416
#
# Compressibility (1/GPa) = 0.01512947
#
# Stress axis : x y z
#
# Youngs Moduli (GPa) = 52.77493 68.29304 64.95685
#
# Poissons Ratio (x) = 0.09654 0.28876
# Poissons Ratio (y) = 0.07460 0.71903
# Poissons Ratio (z) = 0.23460 0.75596
#
# Static dielectric constant tensor:
#      x y z
#    x 1.637790 0.000000 0.000000 
#    y 0.000000 1.611060 0.000000 
#    z 0.000000 0.000000 1.646900 
# 
# From -- ./inp_files/4556.got.cif
#   From: 2010.05.17/outbox.cif.g08.bks.cpg/sg28_3_cif.got.tgz:4556.got - 2010.06.04 01:15:21.
