data_PCOD9339975
_publ_section_title
;
Structure prediction by ZEFSAII (Michael W. Deem and Ramdas Pophale) SiO2 
 PCOD9339975
Probable space group: P M A 2
;
_chemical_formula_sum "Si O2"
_cell_formula_units_Z 32
_cell_length_a 15.000000
_cell_length_b 12.000000
_cell_length_c 9.000000
_cell_angle_alpha 90.000000
_cell_angle_beta 90.000000
_cell_angle_gamma 90.000000
_cell_volume 1620.000000
_symmetry_space_group_name_H-M "P M A 2"
_symmetry_group_IT_number 28
_symmetry_cell_setting 'orthorhombic'
loop_
_space_group_symop_operation_xyz
x,y,z
-x,-y,z
1/2-x,y,z
1/2+x,-y,z
loop_
_atom_site_type_symbol
_atom_site_label
_atom_site_fract_x
_atom_site_fract_y
_atom_site_fract_z
Si Si1 0.848972 0.754018 0.727600
Si Si2 0.403582 0.044382 0.529941
Si Si3 0.140463 0.546572 0.956637
Si Si4 0.966351 0.784843 0.283951
Si Si5 0.647204 0.600375 0.436151
Si Si6 0.649808 0.193504 0.440083
Si Si7 0.643350 0.401379 0.616810
Si Si8 0.963356 0.678902 0.993209
O O1 0.750000 0.746254 0.799630
O O2 0.861433 0.873604 0.650128
O O3 0.848918 0.665988 0.592867
O O4 0.930623 0.724768 0.834601
O O5 0.420940 0.117384 0.380601
O O6 0.500000 0.000000 0.580936
O O7 0.349957 0.933894 0.491458
O O8 0.250000 0.559966 0.978352
O O9 0.119859 0.554766 0.779145
O O10 0.103067 0.427924 0.014409
O O11 0.066001 0.636308 0.012204
O O12 0.920841 0.670478 0.339356
O O13 0.070926 0.791479 0.322222
O O14 0.949946 0.778530 0.109782
O O15 0.750000 0.596930 0.377896
O O16 0.612569 0.478733 0.481202
O O17 0.750000 0.225325 0.391042
O O18 0.622368 0.274314 0.577156
O O19 0.750000 0.411687 0.613710
#
# Coordination Sequence:
#
# PCOD9339975 Si02
#       8
#     4   4   4   4   4   4   4   4
#     4  10  19  36  62  89 117 152 204 258 303 355
#     4   9  20  39  63  87 116 155 204 261 307 355
#     4  10  22  38  56  86 131 165 195 240 303 373
#     4  10  23  38  56  89 122 155 202 246 299 358
#     4   9  18  34  58  88 118 151 194 247 298 348
#     4  10  21  38  63  87 118 157 201 252 307 361
#     4   9  18  33  58  90 116 149 194 244 297 355
#     4  11  23  36  60  89 122 169 200 242 301 364
#
# _framework density 19.753086
#
# number of rings (size 3 to 8) (size 9 to 14) (size 15 to 20)
#    0.000    2.250    1.250    0.750    5.250    4.500 
#    0.000    3.125    0.000    0.000    0.000    0.000 
#    0.000    0.000    0.000    0.000    0.000    0.000 
#
# Total GULP energy -178302.430269 kJ/mol
# GULP energy per Si atom -5571.950946 kJ/mol
# Density = 1.970813 g / cm^3
# Si number density = 19.753086 Si / 1000 Ang^3
#
#
#
# Elastic Constant Matrix: (Units=GPa)
#
#
# Indices 1 2 3 4 5 6 
#
# 1 101.9862 20.3920 18.4816 0.0000 0.0000 0.0000
# 2 20.3920 94.3054 18.5225 0.0000 0.0000 0.0000
# 3 18.4816 18.5225 31.8733 0.0000 0.0000 0.0000
# 4 0.0000 0.0000 0.0000 19.3980 0.0000 0.0000
# 5 0.0000 0.0000 0.0000 0.0000 10.8641 0.0000
# 6 0.0000 0.0000 0.0000 0.0000 0.0000 18.2204
#
#
#
# Elastic Compliance Matrix: (Units=1/GPa)
#
#
# Indices 1 2 3 4 5 6 
#
# 1 0.011092 -0.001281 -0.005687 0.000000 0.000000 0.000000
# 2 -0.001281 0.012118 -0.006299 0.000000 0.000000 0.000000
# 3 -0.005687 -0.006299 0.038332 0.000000 0.000000 0.000000
# 4 0.000000 0.000000 0.000000 0.051552 0.000000 0.000000
# 5 0.000000 0.000000 0.000000 0.000000 0.092047 0.000000
# 6 0.000000 0.000000 0.000000 0.000000 0.000000 0.054884
#
#
# Mechanical properties :
#
#
# Convention : Reuss Voigt Hill
#
# Bulk Modulus (GPa) = 28.56541 38.10635 33.33588
# Shear Modulus (GPa) = 16.76566 21.08109 18.92337
#
# Velocity S-wave (km/s) = 2.91651 3.27039 3.09851
# Velocity P-wave (km/s) = 5.08272 5.79602 5.45105
#
# Compressibility (1/GPa) = 0.03500737
#
# Stress axis : x y z
#
# Youngs Moduli (GPa) = 90.15471 82.52079 26.08764
#
# Poissons Ratio (x) = 0.10575 0.14836
# Poissons Ratio (y) = 0.11553 0.16433
# Poissons Ratio (z) = 0.51270 0.51981
#
# Static dielectric constant tensor:
#      x y z
#    x 1.723130 0.000000 0.000000 
#    y 0.000000 1.712970 0.000000 
#    z 0.000000 0.000000 1.707830 
# 
# From -- ./inp_files/3551.got.cif
#   From: 2010.05.17/outbox.ucp.g08.bks.cvg/sg28_2_cif.got.tgz:3551.got - 2010.06.11 15:23:59.
