data_PCOD9339533
_publ_section_title
;
Structure prediction by ZEFSAII (Michael W. Deem and Ramdas Pophale) SiO2 
 PCOD9339533
Probable space group: P M A 2
;
_chemical_formula_sum "Si O2"
_cell_formula_units_Z 28
_cell_length_a 8.551445
_cell_length_b 9.513611
_cell_length_c 18.631078
_cell_angle_alpha 90.000000
_cell_angle_beta 90.000000
_cell_angle_gamma 90.000000
_cell_volume 1515.733609
_symmetry_space_group_name_H-M "P M A 2"
_symmetry_group_IT_number 28
_symmetry_cell_setting 'orthorhombic'
loop_
_space_group_symop_operation_xyz
x,y,z
-x,-y,z
1/2-x,y,z
1/2+x,-y,z
loop_
_atom_site_type_symbol
_atom_site_label
_atom_site_fract_x
_atom_site_fract_y
_atom_site_fract_z
Si Si1 0.063390 0.657884 0.487770
Si Si2 0.061328 0.160302 0.619746
Si Si3 0.061769 0.342134 0.070497
Si Si4 0.061742 0.159374 0.777323
Si Si5 0.560983 0.840584 0.933917
Si Si6 0.936926 0.156177 0.199936
Si Si7 0.563066 0.843757 0.358446
O O1 0.250000 0.657024 0.484580
O O2 0.000000 0.500000 0.491633
O O3 0.007555 0.745426 0.556923
O O4 0.996658 0.735728 0.417657
O O5 0.250000 0.158497 0.614815
O O6 0.014256 0.216946 0.699319
O O7 0.000000 0.000000 0.613305
O O8 0.250000 0.342071 0.072758
O O9 0.000000 0.500000 0.067469
O O10 0.997419 0.263361 0.140469
O O11 0.009789 0.255604 0.999887
O O12 0.250000 0.157898 0.777191
O O13 0.011604 0.217345 0.855081
O O14 0.000000 0.000000 0.777577
O O15 0.750000 0.846162 0.934995
O O16 0.500000 0.000000 0.941755
O O17 0.750000 0.152983 0.201372
O O18 0.000191 0.192082 0.279167
O O19 0.000000 0.000000 0.182642
O O20 0.750000 0.847485 0.357300
O O21 0.500000 0.000000 0.375904
#
# Coordination Sequence:
#
# PCOD9339533 Si02
#       7
#     4   4   4   4   4   4   4
#     4  12  25  41  58  81 113 149 188 229 277 331
#     4  10  19  34  57  84 113 147 187 231 278 328
#     4  11  23  38  55  79 112 150 190 231 278 331
#     4   8  15  29  51  79 109 140 179 228 277 325
#     4   9  18  33  55  81 109 142 183 230 278 329
#     4  11  22  39  62  88 115 145 183 227 275 326
#     4  11  22  40  64  90 116 145 183 226 273 324
#
# _framework density 18.472902999999999
#
# number of rings (size 3 to 8) (size 9 to 14) (size 15 to 20)
#    0.000    1.714    0.000    6.429    0.000    3.429 
#    0.000    3.571    0.000    1.714    0.000    0.000 
#    0.000    0.000    0.000    0.000    0.000    0.000 
#
# Total GULP energy -156342.339781 kJ/mol
# GULP energy per Si atom -5583.654992 kJ/mol
# Density = 1.843086 g / cm^3
# Si number density = 18.472903 Si / 1000 Ang^3
#
#
#
# Elastic Constant Matrix: (Units=GPa)
#
#
# Indices 1 2 3 4 5 6 
#
# 1 118.4702 46.8382 61.2082 0.0000 0.0000 0.0000
# 2 46.8382 115.4092 119.3690 0.0000 0.0000 0.0000
# 3 61.2082 119.3690 168.7125 0.0000 0.0000 0.0000
# 4 0.0000 0.0000 0.0000 -14.5858 0.0000 0.0000
# 5 0.0000 0.0000 0.0000 0.0000 16.9487 0.0000
# 6 0.0000 0.0000 0.0000 0.0000 0.0000 30.9553
#
#
#
# Elastic Compliance Matrix: (Units=1/GPa)
#
#
# Indices 1 2 3 4 5 6 
#
# 1 0.010432 -0.001190 -0.002942 0.000000 0.000000 0.000000
# 2 -0.001190 0.032444 -0.022523 0.000000 0.000000 0.000000
# 3 -0.002942 -0.022523 0.022930 0.000000 0.000000 0.000000
# 4 0.000000 0.000000 0.000000 -0.068560 0.000000 0.000000
# 5 0.000000 0.000000 0.000000 0.000000 0.059002 0.000000
# 6 0.000000 0.000000 0.000000 0.000000 0.000000 0.032305
#
#
# Mechanical properties :
#
#
# Convention : Reuss Voigt Hill
#
# Bulk Modulus (GPa) = 80.03580 95.26919 87.65249
# Shear Modulus (GPa) = 34.23992 18.34207 26.29100
#
# Velocity S-wave (km/s) = 4.30992 3.15448 3.77665
# Velocity P-wave (km/s) = 8.25757 8.05928 8.15903
#
# Compressibility (1/GPa) = 0.01249441
#
# Stress axis : x y z
#
# Youngs Moduli (GPa) = 95.86116 30.82265 43.61015
#
# Poissons Ratio (x) = 0.03669 0.12832
# Poissons Ratio (y) = 0.11410 0.98223
# Poissons Ratio (z) = 0.28207 0.69422
#
# Static dielectric constant tensor:
#      x y z
#    x 1.619140 0.000000 0.000000 
#    y 0.000000 1.586520 0.000000 
#    z 0.000000 0.000000 1.665340 
# 
# From -- ./inp_files/6835.got.cif
#   From: 2010.05.17/outbox.cif.g08.bks.cpg/sg28_4_cif.got.tgz:6835.got - 2010.06.04 01:15:21.
