data_PCOD9339258
_publ_section_title
;
Structure prediction by ZEFSAII (Michael W. Deem and Ramdas Pophale) SiO2 
 PCOD9339258
Probable space group: P M A 2
;
_chemical_formula_sum "Si O2"
_cell_formula_units_Z 32
_cell_length_a 8.653809
_cell_length_b 9.375856
_cell_length_c 21.537153
_cell_angle_alpha 90.000000
_cell_angle_beta 90.000000
_cell_angle_gamma 90.000000
_cell_volume 1747.457119
_symmetry_space_group_name_H-M "P M A 2"
_symmetry_group_IT_number 28
_symmetry_cell_setting 'orthorhombic'
loop_
_space_group_symop_operation_xyz
x,y,z
-x,-y,z
1/2-x,y,z
1/2+x,-y,z
loop_
_atom_site_type_symbol
_atom_site_label
_atom_site_fract_x
_atom_site_fract_y
_atom_site_fract_z
Si Si1 0.564600 0.840211 0.871230
Si Si2 0.065448 0.659556 0.986183
Si Si3 0.436176 0.158415 0.239855
Si Si4 0.064685 0.337919 0.492728
Si Si5 0.065043 0.339631 0.748520
Si Si6 0.063567 0.340367 0.356794
Si Si7 0.934113 0.337913 0.619459
Si Si8 0.564031 0.839337 0.099837
O O1 0.750000 0.843880 0.877529
O O2 0.494544 0.752419 0.928386
O O3 0.526415 0.757671 0.807434
O O4 0.500000 0.000000 0.870662
O O5 0.250000 0.655488 0.985801
O O6 0.000000 0.500000 0.981827
O O7 0.005844 0.735785 0.048573
O O8 0.250000 0.154229 0.242146
O O9 0.491973 0.253502 0.297116
O O10 0.478172 0.207450 0.170170
O O11 0.500000 0.000000 0.247032
O O12 0.250000 0.342420 0.498606
O O13 0.022694 0.276813 0.424833
O O14 0.000000 0.500000 0.490715
O O15 0.994710 0.270748 0.555175
O O16 0.250000 0.349428 0.742488
O O17 0.000000 0.500000 0.757643
O O18 0.996027 0.277730 0.684429
O O19 0.250000 0.346468 0.354990
O O20 0.000000 0.500000 0.353540
O O21 0.750000 0.342331 0.619253
O O22 0.000000 0.500000 0.619633
O O23 0.750000 0.842360 0.094417
O O24 0.500000 0.000000 0.091099
#
# Coordination Sequence:
#
# PCOD9339258 Si02
#       8
#     4   4   4   4   4   4   4   4
#     4  11  24  41  61  84 111 145 182 219 263 316
#     4  12  25  41  61  85 114 144 178 220 266 315
#     4   9  19  35  54  77 105 139 178 218 261 313
#     4   9  15  25  42  65  97 132 168 212 262 314
#     4  10  20  34  54  80 108 138 174 217 265 314
#     4   9  18  31  48  73 103 135 173 218 266 314
#     4  10  17  26  44  70 101 134 171 214 261 313
#     4  10  20  37  59  82 110 143 181 222 266 319
#
# _framework density 18.312322999999999
#
# number of rings (size 3 to 8) (size 9 to 14) (size 15 to 20)
#    0.000    2.000    0.000    6.000    0.000    5.000 
#    0.000    1.250    0.000    0.750    0.000    1.750 
#    0.000    0.000    0.000    0.000    0.000    0.000 
#
# Total GULP energy -178556.116287 kJ/mol
# GULP energy per Si atom -5579.878634 kJ/mol
# Density = 1.827064 g / cm^3
# Si number density = 18.312323 Si / 1000 Ang^3
#
#
#
# Elastic Constant Matrix: (Units=GPa)
#
#
# Indices 1 2 3 4 5 6 
#
# 1 83.7964 38.2221 77.9677 0.0000 0.0000 0.0000
# 2 38.2221 81.5148 91.8775 0.0000 0.0000 0.0000
# 3 77.9677 91.8775 223.0736 0.0000 0.0000 0.0000
# 4 0.0000 0.0000 0.0000 -61.6185 0.0000 0.0000
# 5 0.0000 0.0000 0.0000 0.0000 48.5531 0.0000
# 6 0.0000 0.0000 0.0000 0.0000 0.0000 25.0635
#
#
#
# Elastic Compliance Matrix: (Units=1/GPa)
#
#
# Indices 1 2 3 4 5 6 
#
# 1 0.017956 -0.002512 -0.005241 0.000000 0.000000 0.000000
# 2 -0.002512 0.023249 -0.008698 0.000000 0.000000 0.000000
# 3 -0.005241 -0.008698 0.009897 0.000000 0.000000 0.000000
# 4 0.000000 0.000000 0.000000 -0.016229 0.000000 0.000000
# 5 0.000000 0.000000 0.000000 0.000000 0.020596 0.000000
# 6 0.000000 0.000000 0.000000 0.000000 0.000000 0.039899
#
#
# Mechanical properties :
#
#
# Convention : Reuss Voigt Hill
#
# Bulk Modulus (GPa) = 54.94400 89.39104 72.16752
# Shear Modulus (GPa) = 37.22002 14.42079 25.82041
#
# Velocity S-wave (km/s) = 4.51323 2.80927 3.75907
# Velocity P-wave (km/s) = 7.56492 7.70995 7.63778
#
# Compressibility (1/GPa) = 0.01820035
#
# Stress axis : x y z
#
# Youngs Moduli (GPa) = 55.69086 43.01310 101.04039
#
# Poissons Ratio (x) = 0.10805 0.52959
# Poissons Ratio (y) = 0.13989 0.87880
# Poissons Ratio (z) = 0.29190 0.37411
#
# Static dielectric constant tensor:
#      x y z
#    x 1.612140 0.000000 0.000000 
#    y 0.000000 1.588240 0.000000 
#    z 0.000000 0.000000 1.683660 
# 
# From -- ./inp_files/7065.got.cif
#   From: 2010.05.17/outbox.cif.g08.bks.cpg/sg28_4_cif.got.tgz:7065.got - 2010.06.04 01:15:21.
