data_PCOD9339871
_publ_section_title
;
Structure prediction by ZEFSAII (Michael W. Deem and Ramdas Pophale) SiO2 
 PCOD9339871
Probable space group: P M A 2
;
_chemical_formula_sum "Si O2"
_cell_formula_units_Z 16
_cell_length_a 11.349353
_cell_length_b 7.072519
_cell_length_c 6.867476
_cell_angle_alpha 90.000000
_cell_angle_beta 90.000000
_cell_angle_gamma 90.000000
_cell_volume 551.242098
_symmetry_space_group_name_H-M "P M A 2"
_symmetry_group_IT_number 28
_symmetry_cell_setting 'orthorhombic'
loop_
_space_group_symop_operation_xyz
x,y,z
-x,-y,z
1/2-x,y,z
1/2+x,-y,z
loop_
_atom_site_type_symbol
_atom_site_label
_atom_site_fract_x
_atom_site_fract_y
_atom_site_fract_z
Si Si1 0.250000 0.970716 0.375000
Si Si2 0.250000 0.529312 0.469768
Si Si3 0.750000 0.475045 0.919774
Si Si4 0.500000 0.500000 0.565515
Si Si5 0.047319 0.249995 0.922374
Si Si6 0.500000 0.000000 0.279232
Si Si7 0.250000 0.975027 0.924983
O O1 0.250000 0.750019 0.422410
O O2 0.385109 0.029583 0.412819
O O3 0.250000 0.027622 0.149826
O O4 0.385106 0.470447 0.431927
O O5 0.250000 0.472357 0.694931
O O6 0.634094 0.580603 0.994546
O O7 0.750000 0.250009 0.922378
O O8 0.515464 0.329114 0.726066
O O9 0.865905 0.919411 0.850209
O O10 0.984531 0.170884 0.118681
#
# Coordination Sequence:
#
# PCOD9339871 Si02
#       7
#     2   2   2   2   4   2   2
#     4  10  23  44  62  96 138 180 224 276 344 425
#     4  10  23  44  62  96 138 180 224 276 344 425
#     4   9  19  40  66  96 133 175 230 283 335 407
#     4  10  22  42  70  98 142 178 232 286 348 416
#     4   9  20  35  64 104 130 168 228 290 338 394
#     4  10  22  42  70  98 142 178 232 286 348 416
#     4   9  19  40  66  96 133 175 230 283 335 407
#
# _framework density 29.025362000000001
#
# number of rings (size 3 to 8) (size 9 to 14) (size 15 to 20)
#    0.000    2.500    0.000    1.500   14.000    0.000 
#    9.000    1.250    0.000    0.000    0.000    0.000 
#    0.000    0.000    0.000    0.000    0.000    0.000 
#
# Total GULP energy -89227.085817 kJ/mol
# GULP energy per Si atom -5576.692864 kJ/mol
# Density = 2.895930 g / cm^3
# Si number density = 29.025362 Si / 1000 Ang^3
#
#
#
# Elastic Constant Matrix: (Units=GPa)
#
#
# Indices 1 2 3 4 5 6 
#
# 1 248.5635 33.1762 31.4471 0.0000 0.0000 0.0000
# 2 33.1762 187.9533 15.6561 0.0000 0.0000 0.0000
# 3 31.4471 15.6561 132.9121 0.0000 0.0000 0.0000
# 4 0.0000 0.0000 0.0000 59.3496 0.0000 0.0000
# 5 0.0000 0.0000 0.0000 0.0000 -55.4006 0.0000
# 6 0.0000 0.0000 0.0000 0.0000 0.0000 41.4941
#
#
#
# Elastic Compliance Matrix: (Units=1/GPa)
#
#
# Indices 1 2 3 4 5 6 
#
# 1 0.004229 -0.000670 -0.000922 0.000000 0.000000 0.000000
# 2 -0.000670 0.005479 -0.000487 0.000000 0.000000 0.000000
# 3 -0.000922 -0.000487 0.007799 0.000000 0.000000 0.000000
# 4 0.000000 0.000000 0.000000 0.016849 0.000000 0.000000
# 5 0.000000 0.000000 0.000000 0.000000 -0.018050 0.000000
# 6 0.000000 0.000000 0.000000 0.000000 0.000000 0.024100
#
#
# Mechanical properties :
#
#
# Convention : Reuss Voigt Hill
#
# Bulk Modulus (GPa) = 74.90203 81.10973 78.00588
# Shear Modulus (GPa) = 102.01285 41.69858 71.85572
#
# Velocity S-wave (km/s) = 5.93485 3.79440 4.98096
# Velocity P-wave (km/s) = 8.53375 6.87035 7.74683
#
# Compressibility (1/GPa) = 0.01335077
#
# Stress axis : x y z
#
# Youngs Moduli (GPa) = 236.45596 182.50681 128.21806
#
# Poissons Ratio (x) = 0.12223 0.11818
# Poissons Ratio (y) = 0.15836 0.06244
# Poissons Ratio (z) = 0.21795 0.08887
#
# Static dielectric constant tensor:
#      x y z
#    x 2.564070 0.000000 0.000000 
#    y 0.000000 2.350240 0.000000 
#    z 0.000000 0.000000 2.224790 
# 
# From -- ./inp_files/2797.got.cif
#   From: 2010.05.17/outbox.cif.g08.bks.cpg/sg28_2_cif.got.tgz:2797.got - 2010.06.04 01:15:21.
