data_PCOD9339492
_publ_section_title
;
Structure prediction by ZEFSAII (Michael W. Deem and Ramdas Pophale) SiO2 
 PCOD9339492
Probable space group: P M A 2
;
_chemical_formula_sum "Si O2"
_cell_formula_units_Z 28
_cell_length_a 8.513408
_cell_length_b 9.506907
_cell_length_c 18.832091
_cell_angle_alpha 90.000000
_cell_angle_beta 90.000000
_cell_angle_gamma 90.000000
_cell_volume 1524.197471
_symmetry_space_group_name_H-M "P M A 2"
_symmetry_group_IT_number 28
_symmetry_cell_setting 'orthorhombic'
loop_
_space_group_symop_operation_xyz
x,y,z
-x,-y,z
1/2-x,y,z
1/2+x,-y,z
loop_
_atom_site_type_symbol
_atom_site_label
_atom_site_fract_x
_atom_site_fract_y
_atom_site_fract_z
Si Si1 0.060781 0.340056 0.484510
Si Si2 0.060084 0.158224 0.774184
Si Si3 0.438254 0.841767 0.197949
Si Si4 0.940147 0.660011 0.639496
Si Si5 0.438530 0.342034 0.908789
Si Si6 0.438511 0.658041 0.063360
Si Si7 0.061053 0.339639 0.328952
O O1 0.250000 0.340168 0.484392
O O2 0.010315 0.282322 0.561465
O O3 0.011310 0.283023 0.407407
O O4 0.000000 0.500000 0.484776
O O5 0.250000 0.157000 0.773516
O O6 0.006150 0.244206 0.704680
O O7 0.009915 0.240400 0.845289
O O8 0.000000 0.000000 0.773414
O O9 0.250000 0.843244 0.198527
O O10 0.490206 0.760230 0.126598
O O11 0.497040 0.755582 0.266018
O O12 0.500000 0.000000 0.198957
O O13 0.750000 0.655510 0.640893
O O14 0.000000 0.500000 0.647067
O O15 0.500000 0.500000 0.895891
O O16 0.250000 0.346149 0.910632
O O17 0.499988 0.296997 0.986068
O O18 0.500000 0.500000 0.076469
O O19 0.250000 0.653708 0.061476
O O20 0.250000 0.342568 0.325977
O O21 0.000000 0.500000 0.321802
#
# Coordination Sequence:
#
# PCOD9339492 Si02
#       7
#     4   4   4   4   4   4   4
#     4   8  15  28  49  76 104 133 168 213 259 303
#     4  10  22  36  51  74 105 140 175 211 253 304
#     4  11  24  39  55  77 106 141 178 216 262 314
#     4   9  17  32  53  77 104 134 172 215 258 304
#     4  10  20  35  56  81 105 132 169 212 257 304
#     4  10  21  37  58  82 105 133 170 211 257 308
#     4  10  19  33  55  81 108 139 176 218 263 311
#
# _framework density 18.370322999999999
#
# number of rings (size 3 to 8) (size 9 to 14) (size 15 to 20)
#    0.000    2.286    0.000    3.429    0.000    6.286 
#    0.000    3.571    0.000    1.714    0.000    0.000 
#    0.000    0.000    0.000    0.000    0.000    0.000 
#
# Total GULP energy -156183.498534 kJ/mol
# GULP energy per Si atom -5577.982091 kJ/mol
# Density = 1.832851 g / cm^3
# Si number density = 18.370323 Si / 1000 Ang^3
#
#
#
# Elastic Constant Matrix: (Units=GPa)
#
#
# Indices 1 2 3 4 5 6 
#
# 1 28.9954 22.0076 39.1706 0.0000 0.0000 0.0000
# 2 22.0076 101.7167 118.8225 0.0000 0.0000 0.0000
# 3 39.1706 118.8225 229.3534 0.0000 0.0000 0.0000
# 4 0.0000 0.0000 0.0000 9.7547 0.0000 0.0000
# 5 0.0000 0.0000 0.0000 0.0000 16.3195 0.0000
# 6 0.0000 0.0000 0.0000 0.0000 0.0000 28.5621
#
#
#
# Elastic Compliance Matrix: (Units=1/GPa)
#
#
# Indices 1 2 3 4 5 6 
#
# 1 0.044980 -0.001920 -0.006687 0.000000 0.000000 0.000000
# 2 -0.001920 0.024984 -0.012616 0.000000 0.000000 0.000000
# 3 -0.006687 -0.012616 0.012038 0.000000 0.000000 0.000000
# 4 0.000000 0.000000 0.000000 0.102515 0.000000 0.000000
# 5 0.000000 0.000000 0.000000 0.000000 0.061276 0.000000
# 6 0.000000 0.000000 0.000000 0.000000 0.000000 0.035011
#
#
# Mechanical properties :
#
#
# Convention : Reuss Voigt Hill
#
# Bulk Modulus (GPa) = 25.28086 80.00744 52.64415
# Shear Modulus (GPa) = 14.86170 22.93157 18.89663
#
# Velocity S-wave (km/s) = 2.84739 3.53695 3.21074
# Velocity P-wave (km/s) = 4.96002 7.76706 6.51648
#
# Compressibility (1/GPa) = 0.03955562
#
# Stress axis : x y z
#
# Youngs Moduli (GPa) = 22.23234 40.02589 83.07026
#
# Poissons Ratio (x) = 0.07685 0.55550
# Poissons Ratio (y) = 0.04269 1.04798
# Poissons Ratio (z) = 0.14867 0.50495
#
# Static dielectric constant tensor:
#      x y z
#    x 1.626260 0.000000 0.000000 
#    y 0.000000 1.574910 0.000000 
#    z 0.000000 0.000000 1.673920 
# 
# From -- ./inp_files/6799.got.cif
#   From: 2010.05.17/outbox.cif.g08.bks.cpg/sg28_4_cif.got.tgz:6799.got - 2010.06.04 01:15:21.
