data_PCOD9339176
_publ_section_title
;
Structure prediction by ZEFSAII (Michael W. Deem and Ramdas Pophale) SiO2 
 PCOD9339176
Probable space group: P C C 2
;
_chemical_formula_sum "Si O2"
_cell_formula_units_Z 32
_cell_length_a 13.372771
_cell_length_b 10.877534
_cell_length_c 9.409783
_cell_angle_alpha 90.000000
_cell_angle_beta 90.000000
_cell_angle_gamma 90.000000
_cell_volume 1368.773112
_symmetry_space_group_name_H-M "P C C 2"
_symmetry_group_IT_number 27
_symmetry_cell_setting 'orthorhombic'
loop_
_space_group_symop_operation_xyz
x,y,z
-x,-y,z
-x,y,1/2+z
x,-y,1/2+z
loop_
_atom_site_type_symbol
_atom_site_label
_atom_site_fract_x
_atom_site_fract_y
_atom_site_fract_z
Si Si1 0.844179 0.736927 0.522480
Si Si2 0.451781 0.291916 0.519563
Si Si3 0.553252 0.867488 0.788912
Si Si4 0.949914 0.135262 0.535145
Si Si5 0.332437 0.645948 0.615382
Si Si6 0.225136 0.141222 0.801015
Si Si7 0.277461 0.533762 0.906203
Si Si8 0.214138 0.136213 0.248116
O O1 0.802105 0.759767 0.680184
O O2 0.820986 0.604300 0.457037
O O3 0.787234 0.829453 0.413653
O O4 0.959788 0.771317 0.515893
O O5 0.426721 0.185406 0.632086
O O6 0.483077 0.225361 0.374651
O O7 0.550289 0.354994 0.584588
O O8 0.366028 0.388876 0.484641
O O9 0.662246 0.858397 0.861763
O O10 0.500000 0.000000 0.786792
O O11 0.863489 0.138894 0.416170
O O12 0.894082 0.164761 0.682168
O O13 0.000000 0.000000 0.538571
O O14 0.280787 0.601761 0.469600
O O15 0.293909 0.777040 0.671051
O O16 0.299129 0.552141 0.740430
O O17 0.226624 0.007500 0.724860
#
# Coordination Sequence:
#
# PCOD9339176 Si02
#       8
#     4   4   4   4   4   4   4   4
#     4  11  24  41  66  99 138 172 229 289 344 406
#     4  12  24  45  67 102 136 188 235 283 342 429
#     4  12  27  41  68 104 153 188 226 281 360 434
#     4  12  23  39  68 104 138 178 228 276 345 425
#     4  11  26  45  70  95 133 178 240 291 344 412
#     4  12  23  40  68 103 144 182 222 282 354 428
#     4  11  26  46  69  97 132 180 240 294 346 407
#     4  11  23  41  64  99 135 178 222 284 342 415
#
# _framework density 23.378599999999999
#
# number of rings (size 3 to 8) (size 9 to 14) (size 15 to 20)
#    0.000    0.500    5.000    3.000    3.500    4.000 
#    0.000    0.625    0.000    3.000    0.000    0.000 
#    0.000    0.000    0.000    0.000    0.000    0.000 
#
# Total GULP energy -179192.753648 kJ/mol
# GULP energy per Si atom -5599.773552 kJ/mol
# Density = 2.332539 g / cm^3
# Si number density = 23.378600 Si / 1000 Ang^3
#
#
#
# Elastic Constant Matrix: (Units=GPa)
#
#
# Indices 1 2 3 4 5 6 
#
# 1 126.2310 23.8489 11.0085 0.0000 0.0000 0.0000
# 2 23.8489 48.7033 5.7776 0.0000 0.0000 0.0000
# 3 11.0085 5.7776 104.6219 0.0000 0.0000 0.0000
# 4 0.0000 0.0000 0.0000 37.3221 0.0000 0.0000
# 5 0.0000 0.0000 0.0000 0.0000 42.0556 0.0000
# 6 0.0000 0.0000 0.0000 0.0000 0.0000 25.0438
#
#
#
# Elastic Compliance Matrix: (Units=1/GPa)
#
#
# Indices 1 2 3 4 5 6 
#
# 1 0.008779 -0.004217 -0.000691 0.000000 0.000000 0.000000
# 2 -0.004217 0.022693 -0.000810 0.000000 0.000000 0.000000
# 3 -0.000691 -0.000810 0.009676 0.000000 0.000000 0.000000
# 4 0.000000 0.000000 0.000000 0.026794 0.000000 0.000000
# 5 0.000000 0.000000 0.000000 0.000000 0.023778 0.000000
# 6 0.000000 0.000000 0.000000 0.000000 0.000000 0.039930
#
#
# Mechanical properties :
#
#
# Convention : Reuss Voigt Hill
#
# Bulk Modulus (GPa) = 33.65475 40.09180 36.87327
# Shear Modulus (GPa) = 32.68212 36.81239 34.74726
#
# Velocity S-wave (km/s) = 3.74297 3.97245 3.85942
# Velocity P-wave (km/s) = 5.75383 6.18277 5.97215
#
# Compressibility (1/GPa) = 0.02971349
#
# Stress axis : x y z
#
# Youngs Moduli (GPa) = 113.90904 44.06555 103.35248
#
# Poissons Ratio (x) = 0.18582 0.07140
# Poissons Ratio (y) = 0.48034 0.08366
# Poissons Ratio (z) = 0.07870 0.03567
#
# Static dielectric constant tensor:
#      x y z
#    x 1.888850 0.000000 0.000000 
#    y 0.000000 1.908780 0.000000 
#    z 0.000000 0.000000 1.889620 
# 
# From -- ./inp_files/1492.got.cif
#   From: 2010.05.17/outbox.cif.g08.bks.cpg/sg27_1_cif.got.tgz:1492.got - 2010.06.04 01:11:05.
