data_PCOD9339139
_publ_section_title
;
Structure prediction by ZEFSAII (Michael W. Deem and Ramdas Pophale) SiO2 
 PCOD9339139
Probable space group: P C C 2
;
_chemical_formula_sum "Si O2"
_cell_formula_units_Z 32
_cell_length_a 8.891396
_cell_length_b 11.688287
_cell_length_c 14.784851
_cell_angle_alpha 90.000000
_cell_angle_beta 90.000000
_cell_angle_gamma 90.000000
_cell_volume 1536.518424
_symmetry_space_group_name_H-M "P C C 2"
_symmetry_group_IT_number 27
_symmetry_cell_setting 'orthorhombic'
loop_
_space_group_symop_operation_xyz
x,y,z
-x,-y,z
-x,y,1/2+z
x,-y,1/2+z
loop_
_atom_site_type_symbol
_atom_site_label
_atom_site_fract_x
_atom_site_fract_y
_atom_site_fract_z
Si Si1 0.820106 0.370295 0.121850
Si Si2 0.825480 0.978822 0.043589
Si Si3 0.823462 0.487076 0.444658
Si Si4 0.822650 0.986660 0.334258
Si Si5 0.331136 0.137800 0.689877
Si Si6 0.346287 0.221284 0.244477
Si Si7 0.843938 0.713348 0.080165
Si Si8 0.333919 0.533442 0.764001
O O1 0.727003 0.260443 0.154992
O O2 0.780453 0.475950 0.189271
O O3 0.992870 0.324988 0.118480
O O4 0.789046 0.414300 0.019482
O O5 0.791826 0.017243 0.941308
O O6 0.824991 0.842546 0.046823
O O7 0.000000 0.000000 0.068584
O O8 0.717630 0.044742 0.113709
O O9 0.808672 0.371158 0.500165
O O10 0.723251 0.477665 0.356715
O O11 0.000000 0.500000 0.418558
O O12 0.745762 0.091708 0.281649
O O13 0.764696 0.870777 0.287585
O O14 0.000000 0.000000 0.322611
O O15 0.505375 0.155280 0.713598
O O16 0.275472 0.288084 0.159803
O O17 0.360168 0.335742 0.302277
O O18 0.500000 0.500000 0.730894
#
# Coordination Sequence:
#
# PCOD9339139 Si02
#       8
#     4   4   4   4   4   4   4   4
#     4  11  24  46  71 100 140 187 236 295 349 419
#     4  11  24  44  74 104 135 187 238 289 359 418
#     4  10  26  43  69 106 137 181 243 294 346 419
#     4  11  26  46  70 105 140 185 243 296 351 425
#     4  12  24  46  68 103 145 185 233 291 355 429
#     4  12  26  45  71 101 144 188 233 286 361 421
#     4  11  23  45  71 100 136 184 239 291 351 415
#     4  12  27  46  70 107 144 191 231 288 366 425
#
# _framework density 20.826301999999998
#
# number of rings (size 3 to 8) (size 9 to 14) (size 15 to 20)
#    0.000    0.750    5.000    1.500    5.250    2.500 
#    4.500    0.000    0.000    0.000    0.000    0.000 
#    0.000    0.000    0.000    0.000    0.000    0.000 
#
# Total GULP energy -178495.518688 kJ/mol
# GULP energy per Si atom -5577.984959 kJ/mol
# Density = 2.077890 g / cm^3
# Si number density = 20.826302 Si / 1000 Ang^3
#
#
#
# Elastic Constant Matrix: (Units=GPa)
#
#
# Indices 1 2 3 4 5 6 
#
# 1 80.4936 29.8545 55.8113 0.0000 0.0000 0.0000
# 2 29.8545 117.4370 14.5142 0.0000 0.0000 0.0000
# 3 55.8113 14.5142 79.7626 0.0000 0.0000 0.0000
# 4 0.0000 0.0000 0.0000 -19.5133 0.0000 0.0000
# 5 0.0000 0.0000 0.0000 0.0000 -861.0616 0.0000
# 6 0.0000 0.0000 0.0000 0.0000 0.0000 41.5579
#
#
#
# Elastic Compliance Matrix: (Units=1/GPa)
#
#
# Indices 1 2 3 4 5 6 
#
# 1 0.026273 -0.004508 -0.017564 0.000000 0.000000 0.000000
# 2 -0.004508 0.009485 0.001429 0.000000 0.000000 0.000000
# 3 -0.017564 0.001429 0.024567 0.000000 0.000000 0.000000
# 4 0.000000 0.000000 0.000000 -0.051247 0.000000 0.000000
# 5 0.000000 0.000000 0.000000 0.000000 -0.001161 0.000000
# 6 0.000000 0.000000 0.000000 0.000000 0.000000 0.024063
#
#
# Mechanical properties :
#
#
# Convention : Reuss Voigt Hill
#
# Bulk Modulus (GPa) = 52.52564 53.11703 52.82133
# Shear Modulus (GPa) = 62.80442 -155.96918 -46.58238
#
# Velocity S-wave (km/s) = 5.49743 -8.66332 -4.73452
# Velocity P-wave (km/s) = 8.09761 8.63195 2.11416
#
# Compressibility (1/GPa) = 0.01903832
#
# Stress axis : x y z
#
# Youngs Moduli (GPa) = 38.06117 105.43245 40.70532
#
# Poissons Ratio (x) = 0.47534 0.71493
# Poissons Ratio (y) = 0.17160 -0.05816
# Poissons Ratio (z) = 0.66849 -0.15063
#
# Static dielectric constant tensor:
#      x y z
#    x 2.385880 0.000000 0.000000 
#    y 0.000000 1.799740 0.000000 
#    z 0.000000 0.000000 1.896690 
# 
# From -- ./inp_files/3460.got.cif
#   From: 2010.05.17/outbox.cif.g08.bks.cpg/sg27_2_cif.got.tgz:3460.got - 2010.06.04 01:11:05.
