data_PCOD9339709
_publ_section_title
;
Structure prediction by ZEFSAII (Michael W. Deem and Ramdas Pophale) SiO2 
 PCOD9339709
Probable space group: P M A 2
;
_chemical_formula_sum "Si O2"
_cell_formula_units_Z 24
_cell_length_a 8.685711
_cell_length_b 15.634164
_cell_length_c 9.608557
_cell_angle_alpha 90.000000
_cell_angle_beta 90.000000
_cell_angle_gamma 90.000000
_cell_volume 1304.782758
_symmetry_space_group_name_H-M "P M A 2"
_symmetry_group_IT_number 28
_symmetry_cell_setting 'orthorhombic'
loop_
_space_group_symop_operation_xyz
x,y,z
-x,-y,z
1/2-x,y,z
1/2+x,-y,z
loop_
_atom_site_type_symbol
_atom_site_label
_atom_site_fract_x
_atom_site_fract_y
_atom_site_fract_z
Si Si1 0.935345 0.252884 0.451050
Si Si2 0.934291 0.906519 0.953780
Si Si3 0.933769 0.592927 0.271091
Si Si4 0.564785 0.248219 0.774140
Si Si5 0.935230 0.092686 0.261510
Si Si6 0.564950 0.593722 0.947264
O O1 0.750000 0.259114 0.445906
O O2 0.981320 0.250353 0.612222
O O3 0.979070 0.166388 0.369711
O O4 0.003730 0.333540 0.370322
O O5 0.750000 0.909131 0.956201
O O6 0.993830 0.833847 0.850600
O O7 0.000000 0.000000 0.915867
O O8 0.996438 0.887369 0.109195
O O9 0.750000 0.589925 0.278481
O O10 0.000000 0.500000 0.308336
O O11 0.976748 0.610354 0.109495
O O12 0.750000 0.243970 0.782660
O O13 0.505805 0.332905 0.851824
O O14 0.750000 0.088390 0.251097
O O15 0.000000 0.000000 0.302848
O O16 0.500000 0.500000 0.911300
O O17 0.750000 0.593769 0.936001
#
# Coordination Sequence:
#
# PCOD9339709 Si02
#       6
#     4   4   4   4   4   4
#     4  10  23  39  56  81 115 151 187 226 277 333
#     4  11  22  38  60  86 113 146 188 233 279 332
#     4  10  21  37  60  85 111 143 185 232 279 330
#     4  11  23  39  57  82 116 153 188 229 279 334
#     4  10  20  37  60  85 112 145 185 232 279 329
#     4  10  21  38  60  87 113 146 189 234 281 332
#
# _framework density 18.393865999999999
#
# number of rings (size 3 to 8) (size 9 to 14) (size 15 to 20)
#    0.000    1.667    0.000    5.500    0.000    8.667 
#    0.000    1.667    0.000    0.000    0.000    0.000 
#    0.000    0.000    0.000    0.000    0.000    0.000 
#
# Total GULP energy -134158.411693 kJ/mol
# GULP energy per Si atom -5589.933821 kJ/mol
# Density = 1.835200 g / cm^3
# Si number density = 18.393866 Si / 1000 Ang^3
#
#
#
# Elastic Constant Matrix: (Units=GPa)
#
#
# Indices 1 2 3 4 5 6 
#
# 1 78.6835 69.2198 64.2350 0.0000 0.0000 0.0000
# 2 69.2198 189.2668 149.4204 0.0000 0.0000 0.0000
# 3 64.2350 149.4204 148.8626 0.0000 0.0000 0.0000
# 4 0.0000 0.0000 0.0000 -25.1011 0.0000 0.0000
# 5 0.0000 0.0000 0.0000 0.0000 30.6310 0.0000
# 6 0.0000 0.0000 0.0000 0.0000 0.0000 39.3975
#
#
#
# Elastic Compliance Matrix: (Units=1/GPa)
#
#
# Indices 1 2 3 4 5 6 
#
# 1 0.019844 -0.002396 -0.006158 0.000000 0.000000 0.000000
# 2 -0.002396 0.025743 -0.024806 0.000000 0.000000 0.000000
# 3 -0.006158 -0.024806 0.034273 0.000000 0.000000 0.000000
# 4 0.000000 0.000000 0.000000 -0.039839 0.000000 0.000000
# 5 0.000000 0.000000 0.000000 0.000000 0.032647 0.000000
# 6 0.000000 0.000000 0.000000 0.000000 0.000000 0.025382
#
#
# Mechanical properties :
#
#
# Convention : Reuss Voigt Hill
#
# Bulk Modulus (GPa) = 76.09477 109.17372 92.63424
# Shear Modulus (GPa) = 29.55945 17.91465 23.73705
#
# Velocity S-wave (km/s) = 4.01312 3.12420 3.59623
# Velocity P-wave (km/s) = 7.93303 8.51448 8.22889
#
# Compressibility (1/GPa) = 0.01314151
#
# Stress axis : x y z
#
# Youngs Moduli (GPa) = 50.39282 38.84500 29.17721
#
# Poissons Ratio (x) = 0.09308 0.17966
# Poissons Ratio (y) = 0.12076 0.72376
# Poissons Ratio (z) = 0.31030 0.96358
#
# Static dielectric constant tensor:
#      x y z
#    x 1.618140 0.000000 0.000000 
#    y 0.000000 1.602020 0.000000 
#    z 0.000000 0.000000 1.613140 
# 
# From -- ./inp_files/2460.got.cif
#   From: 2010.05.17/outbox.cif.g08.bks.cpg/sg28_2_cif.got.tgz:2460.got - 2010.06.04 01:15:21.
