data_PCOD9339081
_publ_section_title
;
Structure prediction by ZEFSAII (Michael W. Deem and Ramdas Pophale) SiO2 
 PCOD9339081
Probable space group: P C C 2
;
_chemical_formula_sum "Si O2"
_cell_formula_units_Z 32
_cell_length_a 9.150315
_cell_length_b 12.831048
_cell_length_c 13.883796
_cell_angle_alpha 90.000000
_cell_angle_beta 90.000000
_cell_angle_gamma 90.000000
_cell_volume 1630.070539
_symmetry_space_group_name_H-M "P C C 2"
_symmetry_group_IT_number 27
_symmetry_cell_setting 'orthorhombic'
loop_
_space_group_symop_operation_xyz
x,y,z
-x,-y,z
-x,y,1/2+z
x,-y,1/2+z
loop_
_atom_site_type_symbol
_atom_site_label
_atom_site_fract_x
_atom_site_fract_y
_atom_site_fract_z
Si Si1 0.971699 0.743955 0.120900
Si Si2 0.660042 0.043884 0.633887
Si Si3 0.188921 0.137413 0.752169
Si Si4 0.875058 0.913390 0.971604
Si Si5 0.654676 0.286387 0.665247
Si Si6 0.369217 0.650286 0.265967
Si Si7 0.153216 0.450768 0.617421
Si Si8 0.363193 0.422118 0.985095
O O1 0.828611 0.691422 0.169786
O O2 0.045687 0.821742 0.196828
O O3 0.094276 0.662888 0.087479
O O4 0.920055 0.809919 0.029692
O O5 0.734899 0.046620 0.529646
O O6 0.649729 0.161660 0.673105
O O7 0.500000 0.000000 0.626795
O O8 0.751915 0.965700 0.700424
O O9 0.155806 0.112168 0.862025
O O10 0.302284 0.234268 0.748878
O O11 0.000000 0.000000 0.979596
O O12 0.540233 0.341627 0.736673
O O13 0.609744 0.326611 0.558772
O O14 0.278223 0.571472 0.197033
O O15 0.346075 0.617115 0.376340
O O16 0.224793 0.516069 0.530564
O O17 0.000000 0.500000 0.653314
O O18 0.500000 0.500000 0.989099
#
# Coordination Sequence:
#
# PCOD9339081 Si02
#       8
#     4   4   4   4   4   4   4   4
#     4  10  23  45  69  97 136 181 223 285 344 408
#     4  11  23  44  68  97 139 187 225 277 341 402
#     4  11  24  45  64 103 137 179 231 278 335 415
#     4  11  24  41  69  98 137 174 228 284 339 402
#     4  11  23  44  69  97 137 177 223 285 340 399
#     4  11  25  46  68 101 136 174 232 280 342 414
#     4  11  24  45  71  96 137 176 223 282 345 408
#     4  12  26  45  70  98 137 178 225 286 345 414
#
# _framework density 19.631053000000001
#
# number of rings (size 3 to 8) (size 9 to 14) (size 15 to 20)
#    0.000    1.000    5.000    1.500    5.250    1.000 
#    6.750    0.000    0.000    0.000    0.000    0.000 
#    0.000    0.000    0.000    0.000    0.000    0.000 
#
# Total GULP energy -178690.531558 kJ/mol
# GULP energy per Si atom -5584.079111 kJ/mol
# Density = 1.958637 g / cm^3
# Si number density = 19.631053 Si / 1000 Ang^3
#
#
#
# Elastic Constant Matrix: (Units=GPa)
#
#
# Indices 1 2 3 4 5 6 
#
# 1 108.9158 46.7811 43.5049 0.0000 0.0000 0.0000
# 2 46.7811 95.5220 48.0680 0.0000 0.0000 0.0000
# 3 43.5049 48.0680 139.6036 0.0000 0.0000 0.0000
# 4 0.0000 0.0000 0.0000 26.7223 0.0000 0.0000
# 5 0.0000 0.0000 0.0000 0.0000 2.6482 0.0000
# 6 0.0000 0.0000 0.0000 0.0000 0.0000 49.7714
#
#
#
# Elastic Compliance Matrix: (Units=1/GPa)
#
#
# Indices 1 2 3 4 5 6 
#
# 1 0.012114 -0.004878 -0.002095 0.000000 0.000000 0.000000
# 2 -0.004878 0.014627 -0.003516 0.000000 0.000000 0.000000
# 3 -0.002095 -0.003516 0.009027 0.000000 0.000000 0.000000
# 4 0.000000 0.000000 0.000000 0.037422 0.000000 0.000000
# 5 0.000000 0.000000 0.000000 0.000000 0.377610 0.000000
# 6 0.000000 0.000000 0.000000 0.000000 0.000000 0.020092
#
#
# Mechanical properties :
#
#
# Convention : Reuss Voigt Hill
#
# Bulk Modulus (GPa) = 67.62139 68.97215 68.29677
# Shear Modulus (GPa) = 10.06441 29.54087 19.80264
#
# Velocity S-wave (km/s) = 2.26670 3.88339 3.17951
# Velocity P-wave (km/s) = 6.43207 7.43761 6.95304
#
# Compressibility (1/GPa) = 0.01478822
#
# Stress axis : x y z
#
# Youngs Moduli (GPa) = 82.55184 68.36566 110.78093
#
# Poissons Ratio (x) = 0.33350 0.23213
# Poissons Ratio (y) = 0.40270 0.38953
# Poissons Ratio (z) = 0.17298 0.24039
#
# Static dielectric constant tensor:
#      x y z
#    x 1.705820 0.000000 0.000000 
#    y 0.000000 1.767160 0.000000 
#    z 0.000000 0.000000 1.632080 
# 
# From -- ./inp_files/2450.got.cif
#   From: 2010.05.17/outbox.cif.g08.bks.cpg/sg27_2_cif.got.tgz:2450.got - 2010.06.04 01:11:05.
