data_PCOD9339806
_publ_section_title
;
Structure prediction by ZEFSAII (Michael W. Deem and Ramdas Pophale) SiO2 
 PCOD9339806
Probable space group: P M A 2
;
_chemical_formula_sum "Si O2"
_cell_formula_units_Z 32
_cell_length_a 7.921500
_cell_length_b 24.822616
_cell_length_c 8.003150
_cell_angle_alpha 90.000000
_cell_angle_beta 90.000000
_cell_angle_gamma 90.000000
_cell_volume 1573.678213
_symmetry_space_group_name_H-M "P M A 2"
_symmetry_group_IT_number 28
_symmetry_cell_setting 'orthorhombic'
loop_
_space_group_symop_operation_xyz
x,y,z
-x,-y,z
1/2-x,y,z
1/2+x,-y,z
loop_
_atom_site_type_symbol
_atom_site_label
_atom_site_fract_x
_atom_site_fract_y
_atom_site_fract_z
Si Si1 0.047010 0.941741 0.025730
Si Si2 0.957510 0.633290 0.218544
Si Si3 0.953493 0.173153 0.536411
Si Si4 0.549608 0.755919 0.218543
Si Si5 0.953392 0.561811 0.530168
Si Si6 0.453492 0.826848 0.900677
Si Si7 0.953392 0.561811 0.906920
Si Si8 0.047010 0.941741 0.411360
O O1 0.250000 0.939357 0.029369
O O2 0.985685 0.939873 0.218545
O O3 0.985947 0.888009 0.934596
O O4 0.000000 0.000000 0.953933
O O5 0.750000 0.633024 0.218544
O O6 0.016960 0.694898 0.218544
O O7 0.013126 0.601406 0.384489
O O8 0.013126 0.601406 0.052599
O O9 0.750000 0.171051 0.540450
O O10 0.013866 0.191793 0.718544
O O11 0.014051 0.111991 0.502494
O O12 0.999209 0.211152 0.383063
O O13 0.750000 0.752130 0.218539
O O14 0.499203 0.788848 0.054025
O O15 0.750000 0.565136 0.533549
O O16 0.015345 0.574259 0.718544
O O17 0.000000 0.500000 0.492328
O O18 0.250000 0.828951 0.896633
O O19 0.750000 0.565136 0.903539
O O20 0.000000 0.500000 0.944761
O O21 0.250000 0.939358 0.407721
O O22 0.000000 0.000000 0.483158
#
# Coordination Sequence:
#
# PCOD9339806 Si02
#       8
#     4   4   4   4   4   4   4   4
#     4   9  17  31  52  78 107 137 171 215 269 328
#     4   9  19  34  52  75 103 140 177 211 260 315
#     4  10  21  39  60  79 106 146 185 222 273 333
#     4  11  23  38  57  81 110 142 186 237 274 313
#     4   9  17  31  52  77 106 137 169 208 255 308
#     4  10  21  39  60  79 106 146 185 222 273 333
#     4   9  17  31  52  77 106 137 169 208 255 308
#     4   9  17  31  52  78 107 137 171 215 269 328
#
# _framework density 20.334524999999999
#
# number of rings (size 3 to 8) (size 9 to 14) (size 15 to 20)
#    0.000    2.500    1.250    0.750    0.000    3.000 
#    0.000    5.000    0.000    3.000    0.000    0.000 
#    0.000    0.000    0.000    0.000    0.000    0.000 
#
# Total GULP energy -178583.748232 kJ/mol
# GULP energy per Si atom -5580.742132 kJ/mol
# Density = 2.028824 g / cm^3
# Si number density = 20.334525 Si / 1000 Ang^3
#
#
#
# Elastic Constant Matrix: (Units=GPa)
#
#
# Indices 1 2 3 4 5 6 
#
# 1 16.0878 8.5461 13.2816 0.0000 0.0000 0.0000
# 2 8.5461 181.0349 129.6128 0.0000 0.0000 0.0000
# 3 13.2816 129.6128 183.1857 0.0000 0.0000 0.0000
# 4 0.0000 0.0000 0.0000 -7.9545 0.0000 0.0000
# 5 0.0000 0.0000 0.0000 0.0000 0.3363 0.0000
# 6 0.0000 0.0000 0.0000 0.0000 0.0000 25.8253
#
#
#
# Elastic Compliance Matrix: (Units=1/GPa)
#
#
# Indices 1 2 3 4 5 6 
#
# 1 0.066152 0.000630 -0.005242 0.000000 0.000000 0.000000
# 2 0.000630 0.011201 -0.007971 0.000000 0.000000 0.000000
# 3 -0.005242 -0.007971 0.011479 0.000000 0.000000 0.000000
# 4 0.000000 0.000000 0.000000 -0.125714 0.000000 0.000000
# 5 0.000000 0.000000 0.000000 0.000000 2.973546 0.000000
# 6 0.000000 0.000000 0.000000 0.000000 0.000000 0.038722
#
#
# Mechanical properties :
#
#
# Convention : Reuss Voigt Hill
#
# Bulk Modulus (GPa) = 15.70699 75.90994 45.80846
# Shear Modulus (GPa) = 1.65466 18.89928 10.27697
#
# Velocity S-wave (km/s) = 0.90304 3.05194 2.25054
# Velocity P-wave (km/s) = 2.97126 7.05909 5.41568
#
# Compressibility (1/GPa) = 0.06366593
#
# Stress axis : x y z
#
# Youngs Moduli (GPa) = 15.11677 89.27966 87.11751
#
# Poissons Ratio (x) = -0.05629 0.45670
# Poissons Ratio (y) = -0.00953 0.69440
# Poissons Ratio (z) = 0.07925 0.71163
#
# Static dielectric constant tensor:
#      x y z
#    x 1.731600 0.000000 0.000000 
#    y 0.000000 1.701510 0.000000 
#    z 0.000000 0.000000 1.681590 
# 
# From -- ./inp_files/2746.got.cif
#   From: 2010.05.17/outbox.cif.g08.bks.cpg/sg28_2_cif.got.tgz:2746.got - 2010.06.04 01:15:21.
