data_PCOD9339423
_publ_section_title
;
Structure prediction by ZEFSAII (Michael W. Deem and Ramdas Pophale) SiO2 
 PCOD9339423
Probable space group: P M A 2
;
_chemical_formula_sum "Si O2"
_cell_formula_units_Z 32
_cell_length_a 8.500619
_cell_length_b 9.773725
_cell_length_c 21.426958
_cell_angle_alpha 90.000000
_cell_angle_beta 90.000000
_cell_angle_gamma 90.000000
_cell_volume 1780.209790
_symmetry_space_group_name_H-M "P M A 2"
_symmetry_group_IT_number 28
_symmetry_cell_setting 'orthorhombic'
loop_
_space_group_symop_operation_xyz
x,y,z
-x,-y,z
1/2-x,y,z
1/2+x,-y,z
loop_
_atom_site_type_symbol
_atom_site_label
_atom_site_fract_x
_atom_site_fract_y
_atom_site_fract_z
Si Si1 0.938768 0.154812 0.460260
Si Si2 0.939556 0.344383 0.712079
Si Si3 0.561554 0.845788 0.958150
Si Si4 0.560157 0.651935 0.208755
Si Si5 0.560014 0.846506 0.098013
Si Si6 0.561210 0.344471 0.848257
Si Si7 0.440411 0.656005 0.575126
Si Si8 0.061019 0.346416 0.350947
O O1 0.750000 0.151863 0.460749
O O2 0.993276 0.243312 0.520293
O O3 0.995593 0.237238 0.399540
O O4 0.000000 0.000000 0.461531
O O5 0.750000 0.343514 0.711997
O O6 0.989898 0.287659 0.779622
O O7 0.990396 0.290717 0.644128
O O8 0.000000 0.500000 0.712400
O O9 0.750000 0.847646 0.956272
O O10 0.499661 0.747295 0.904472
O O11 0.500000 0.000000 0.949136
O O12 0.511820 0.800743 0.028211
O O13 0.500000 0.500000 0.196189
O O14 0.750000 0.651623 0.207841
O O15 0.503194 0.752515 0.154604
O O16 0.512170 0.687914 0.279650
O O17 0.750000 0.847265 0.099268
O O18 0.500000 0.000000 0.106332
O O19 0.500000 0.500000 0.853856
O O20 0.750000 0.347402 0.849720
O O21 0.500000 0.500000 0.566651
O O22 0.250000 0.650555 0.573811
O O23 0.250000 0.347946 0.354097
O O24 0.000000 0.500000 0.364953
#
# Coordination Sequence:
#
# PCOD9339423 Si02
#       8
#     4   4   4   4   4   4   4   4
#     4  11  23  37  53  75 105 138 172 212 256 301
#     4   8  15  29  49  73 100 129 164 206 250 298
#     4  10  20  35  53  73 101 136 174 213 254 304
#     4   9  19  35  54  78 105 132 165 206 250 296
#     4   9  19  35  53  74 100 132 170 209 250 299
#     4  10  19  32  52  77 105 135 169 211 256 302
#     4   9  18  33  54  77 100 130 168 208 251 301
#     4  10  20  36  57  79 105 136 171 209 250 301
#
# _framework density 17.975408999999999
#
# number of rings (size 3 to 8) (size 9 to 14) (size 15 to 20)
#    0.000    2.500    0.000    1.875    0.000    5.000 
#    0.000    3.125    0.000    1.500    0.000    0.000 
#    0.000    0.000    0.000    0.000    0.000    0.000 
#
# Total GULP energy -178384.267982 kJ/mol
# GULP energy per Si atom -5574.508374 kJ/mol
# Density = 1.793450 g / cm^3
# Si number density = 17.975409 Si / 1000 Ang^3
#
#
#
# Elastic Constant Matrix: (Units=GPa)
#
#
# Indices 1 2 3 4 5 6 
#
# 1 26.7750 23.9439 36.3480 0.0000 0.0000 0.0000
# 2 23.9439 100.1468 116.8242 0.0000 0.0000 0.0000
# 3 36.3480 116.8242 205.9403 0.0000 0.0000 0.0000
# 4 0.0000 0.0000 0.0000 -28.9475 0.0000 0.0000
# 5 0.0000 0.0000 0.0000 0.0000 24.2293 0.0000
# 6 0.0000 0.0000 0.0000 0.0000 0.0000 30.2605
#
#
#
# Elastic Compliance Matrix: (Units=1/GPa)
#
#
# Indices 1 2 3 4 5 6 
#
# 1 0.049917 -0.004899 -0.006031 0.000000 0.000000 0.000000
# 2 -0.004899 0.030001 -0.016154 0.000000 0.000000 0.000000
# 3 -0.006031 -0.016154 0.015084 0.000000 0.000000 0.000000
# 4 0.000000 0.000000 0.000000 -0.034545 0.000000 0.000000
# 5 0.000000 0.000000 0.000000 0.000000 0.041272 0.000000
# 6 0.000000 0.000000 0.000000 0.000000 0.000000 0.033046
#
#
# Mechanical properties :
#
#
# Convention : Reuss Voigt Hill
#
# Bulk Modulus (GPa) = 24.48990 76.34381 50.41685
# Shear Modulus (GPa) = 24.68485 15.49152 20.08818
#
# Velocity S-wave (km/s) = 3.70977 2.93886 3.34658
# Velocity P-wave (km/s) = 5.65717 7.35386 6.56060
#
# Compressibility (1/GPa) = 0.04083317
#
# Stress axis : x y z
#
# Youngs Moduli (GPa) = 20.03339 33.33276 66.29615
#
# Poissons Ratio (x) = 0.16330 0.39984
# Poissons Ratio (y) = 0.09815 1.07093
# Poissons Ratio (z) = 0.12082 0.53845
#
# Static dielectric constant tensor:
#      x y z
#    x 1.615070 0.000000 0.000000 
#    y 0.000000 1.561200 0.000000 
#    z 0.000000 0.000000 1.663500 
# 
# From -- ./inp_files/7058.got.cif
#   From: 2010.05.17/outbox.cif.g08.bks.cpg/sg28_4_cif.got.tgz:7058.got - 2010.06.04 01:15:21.
