data_PCOD9339720
_publ_section_title
;
Structure prediction by ZEFSAII (Michael W. Deem and Ramdas Pophale) SiO2 
 PCOD9339720
Probable space group: P M A 2
;
_chemical_formula_sum "Si O2"
_cell_formula_units_Z 32
_cell_length_a 8.708755
_cell_length_b 15.775108
_cell_length_c 12.072708
_cell_angle_alpha 90.000000
_cell_angle_beta 90.000000
_cell_angle_gamma 90.000000
_cell_volume 1658.567346
_symmetry_space_group_name_H-M "P M A 2"
_symmetry_group_IT_number 28
_symmetry_cell_setting 'orthorhombic'
loop_
_space_group_symop_operation_xyz
x,y,z
-x,-y,z
1/2-x,y,z
1/2+x,-y,z
loop_
_atom_site_type_symbol
_atom_site_label
_atom_site_fract_x
_atom_site_fract_y
_atom_site_fract_z
Si Si1 0.432660 0.852604 0.519880
Si Si2 0.932440 0.910235 0.291256
Si Si3 0.934804 0.753463 0.909961
Si Si4 0.566468 0.591495 0.287512
Si Si5 0.066218 0.908865 0.768931
Si Si6 0.933343 0.248567 0.156584
Si Si7 0.934468 0.590972 0.764952
Si Si8 0.434789 0.336038 0.527730
O O1 0.250000 0.859622 0.500916
O O2 0.520732 0.896577 0.419262
O O3 0.469735 0.891910 0.639435
O O4 0.482275 0.754350 0.522314
O O5 0.750000 0.909686 0.280320
O O6 0.002812 0.832087 0.223615
O O7 0.000000 0.000000 0.253079
O O8 0.750000 0.755360 0.916462
O O9 0.981342 0.667669 0.845250
O O10 0.992792 0.833717 0.840136
O O11 0.005627 0.754761 0.031655
O O12 0.500000 0.500000 0.257873
O O13 0.750000 0.592175 0.274047
O O14 0.494677 0.666523 0.215274
O O15 0.531417 0.612174 0.416346
O O16 0.250000 0.907437 0.781636
O O17 0.000000 0.000000 0.801532
O O18 0.750000 0.247410 0.159026
O O19 0.750000 0.586444 0.766753
O O20 0.981140 0.615444 0.639487
O O21 0.000000 0.500000 0.796730
O O22 0.250000 0.321509 0.531983
#
# Coordination Sequence:
#
# PCOD9339720 Si02
#       8
#     4   4   4   4   4   4   4   4
#     4  11  22  37  63  97 131 169 209 254 314 377
#     4  12  25  43  67  96 130 167 210 259 315 381
#     4  11  24  44  67  91 124 167 214 264 317 374
#     4  11  23  40  65  96 130 170 213 260 316 379
#     4  11  24  41  64  96 129 167 210 258 313 375
#     4  12  26  45  67  93 126 165 214 268 320 379
#     4  10  22  39  63  94 127 166 208 255 312 370
#     4  10  20  37  62  93 129 169 206 254 315 375
#
# _framework density 19.293759999999999
#
# number of rings (size 3 to 8) (size 9 to 14) (size 15 to 20)
#    0.000    1.000    2.500    4.500    0.000    5.500 
#    0.000    3.750    0.000    0.000    0.000    0.000 
#    0.000    0.000    0.000    0.000    0.000    0.000 
#
# Total GULP energy -179063.185650 kJ/mol
# GULP energy per Si atom -5595.724552 kJ/mol
# Density = 1.924985 g / cm^3
# Si number density = 19.293760 Si / 1000 Ang^3
#
#
#
# Elastic Constant Matrix: (Units=GPa)
#
#
# Indices 1 2 3 4 5 6 
#
# 1 97.9241 73.8788 71.0410 0.0000 0.0000 0.0000
# 2 73.8788 199.5783 80.2050 0.0000 0.0000 0.0000
# 3 71.0410 80.2050 138.0712 0.0000 0.0000 0.0000
# 4 0.0000 0.0000 0.0000 -3.7306 0.0000 0.0000
# 5 0.0000 0.0000 0.0000 0.0000 25.9996 0.0000
# 6 0.0000 0.0000 0.0000 0.0000 0.0000 35.0802
#
#
#
# Elastic Compliance Matrix: (Units=1/GPa)
#
#
# Indices 1 2 3 4 5 6 
#
# 1 0.018376 -0.003917 -0.007179 0.000000 0.000000 0.000000
# 2 -0.003917 0.007371 -0.002267 0.000000 0.000000 0.000000
# 3 -0.007179 -0.002267 0.012253 0.000000 0.000000 0.000000
# 4 0.000000 0.000000 0.000000 -0.268055 0.000000 0.000000
# 5 0.000000 0.000000 0.000000 0.000000 0.038462 0.000000
# 6 0.000000 0.000000 0.000000 0.000000 0.000000 0.028506
#
#
# Mechanical properties :
#
#
# Convention : Reuss Voigt Hill
#
# Bulk Modulus (GPa) = 88.69695 98.42481 93.56088
# Shear Modulus (GPa) = -37.70657 25.49976 -6.10340
#
# Velocity S-wave (km/s) = -4.42559 3.63941 -1.78053
# Velocity P-wave (km/s) = 4.46735 8.29367 6.66116
#
# Compressibility (1/GPa) = 0.01127434
#
# Stress axis : x y z
#
# Youngs Moduli (GPa) = 54.42020 135.65866 81.61108
#
# Poissons Ratio (x) = 0.53138 0.58591
# Poissons Ratio (y) = 0.21316 0.18498
# Poissons Ratio (z) = 0.39070 0.30749
#
# Static dielectric constant tensor:
#      x y z
#    x 1.646580 0.000000 0.000000 
#    y 0.000000 1.629090 0.000000 
#    z 0.000000 0.000000 1.657050 
# 
# From -- ./inp_files/5014.got.cif
#   From: 2010.05.17/outbox.cif.g08.bks.cpg/sg28_3_cif.got.tgz:5014.got - 2010.06.04 01:15:21.
