data_PCOD9339978
_publ_section_title
;
Structure prediction by ZEFSAII (Michael W. Deem and Ramdas Pophale) SiO2 
 PCOD9339978
Probable space group: P C A 21
;
_chemical_formula_sum "Si O2"
_cell_formula_units_Z 28
_cell_length_a 12.443214
_cell_length_b 16.692962
_cell_length_c 5.341923
_cell_angle_alpha 90.000000
_cell_angle_beta 90.000000
_cell_angle_gamma 90.000000
_cell_volume 1109.592720
_symmetry_space_group_name_H-M "P C A 21"
_symmetry_group_IT_number 29
_symmetry_cell_setting 'orthorhombic'
loop_
_space_group_symop_operation_xyz
x,y,z
-x,-y,1/2+z
1/2-x,y,1/2+z
1/2+x,-y,z
loop_
_atom_site_type_symbol
_atom_site_label
_atom_site_fract_x
_atom_site_fract_y
_atom_site_fract_z
Si Si1 0.636863 0.155988 0.304520
Si Si2 0.567241 0.988383 0.423156
Si Si3 0.316610 0.348037 0.818278
Si Si4 0.871329 0.406630 0.443941
Si Si5 0.620929 0.221958 0.802631
Si Si6 0.126390 0.526760 0.442228
Si Si7 0.681276 0.819205 0.435733
O O1 0.646481 0.062945 0.369012
O O2 0.574817 0.198490 0.532824
O O3 0.753908 0.194843 0.273701
O O4 0.580117 0.171923 0.040241
O O5 0.520452 0.001060 0.701794
O O6 0.623256 0.903218 0.397902
O O7 0.277903 0.346301 0.530381
O O8 0.367734 0.433918 0.871831
O O9 0.379063 0.265568 0.880093
O O10 0.875694 0.315053 0.364074
O O11 0.919968 0.420065 0.717417
O O12 0.749372 0.439640 0.472979
O O13 0.919684 0.457039 0.215918
O O14 0.726756 0.816990 0.718715
#
# Coordination Sequence:
#
# PCOD9339978 Si02
#       7
#     4   4   4   4   4   4   4
#     4  10  20  33  54  73 109 143 185 230 288 334
#     4  12  26  43  61  86 118 153 199 246 300 360
#     4  10  16  29  44  75 107 147 182 222 275 339
#     4  10  16  23  41  68 114 144 172 212 284 342
#     4  10  19  32  50  83 110 144 188 234 279 349
#     4  10  14  22  38  64 106 153 160 206 275 338
#     4  10  23  38  64  87 116 152 196 248 293 348
#
# _framework density 25.234484999999999
#
# number of rings (size 3 to 8) (size 9 to 14) (size 15 to 20)
#    0.000    1.714    2.857    6.000    4.000    0.000 
#    0.000    0.000    0.000    0.000    0.000    0.000 
#    0.000   38.857    0.000    0.000    0.000    0.000 
#
# Total GULP energy -156623.001064 kJ/mol
# GULP energy per Si atom -5593.678609 kJ/mol
# Density = 2.517705 g / cm^3
# Si number density = 25.234485 Si / 1000 Ang^3
#
#
#
# Elastic Constant Matrix: (Units=GPa)
#
#
# Indices 1 2 3 4 5 6 
#
# 1 48.3969 18.6425 -1.6154 0.0000 0.0000 0.0000
# 2 18.6425 134.4156 -31.1530 0.0000 0.0000 0.0000
# 3 -1.6154 -31.1530 158.6980 0.0000 0.0000 0.0000
# 4 0.0000 0.0000 0.0000 49.2482 0.0000 0.0000
# 5 0.0000 0.0000 0.0000 0.0000 4.9973 0.0000
# 6 0.0000 0.0000 0.0000 0.0000 0.0000 -44.3427
#
#
#
# Elastic Compliance Matrix: (Units=1/GPa)
#
#
# Indices 1 2 3 4 5 6 
#
# 1 0.021852 -0.003121 -0.000390 0.000000 0.000000 0.000000
# 2 -0.003121 0.008240 0.001586 0.000000 0.000000 0.000000
# 3 -0.000390 0.001586 0.006609 0.000000 0.000000 0.000000
# 4 0.000000 0.000000 0.000000 0.020305 0.000000 0.000000
# 5 0.000000 0.000000 0.000000 0.000000 0.200109 0.000000
# 6 0.000000 0.000000 0.000000 0.000000 0.000000 -0.022552
#
#
# Mechanical properties :
#
#
# Convention : Reuss Voigt Hill
#
# Bulk Modulus (GPa) = 30.44223 34.80652 32.62437
# Shear Modulus (GPa) = 20.05103 25.68965 22.87034
#
# Velocity S-wave (km/s) = 2.82190 3.19413 3.01377
# Velocity P-wave (km/s) = 4.76523 5.23703 5.00669
#
# Compressibility (1/GPa) = 0.03284910
#
# Stress axis : x y z
#
# Youngs Moduli (GPa) = 45.76302 121.35886 151.31799
#
# Poissons Ratio (x) = 0.37878 0.05905
# Poissons Ratio (y) = 0.14283 -0.23996
# Poissons Ratio (z) = 0.01786 -0.19245
#
# Static dielectric constant tensor:
#      x y z
#    x 2.122410 0.000000 0.000000 
#    y 0.000000 1.950840 0.000000 
#    z 0.000000 0.000000 2.046690 
# 
# From -- ./inp_files/227.got.cif
#   From: 2010.05.17/outbox.cif.g08.bks.cpg/sg29_1_cif.got.tgz:227.got - 2010.06.04 01:19:37.
