data_PCOD9339484
_publ_section_title
;
Structure prediction by ZEFSAII (Michael W. Deem and Ramdas Pophale) SiO2 
 PCOD9339484
Probable space group: P M A 2
;
_chemical_formula_sum "Si O2"
_cell_formula_units_Z 32
_cell_length_a 9.435166
_cell_length_b 17.105063
_cell_length_c 10.753672
_cell_angle_alpha 90.000000
_cell_angle_beta 90.000000
_cell_angle_gamma 90.000000
_cell_volume 1735.525541
_symmetry_space_group_name_H-M "P M A 2"
_symmetry_group_IT_number 28
_symmetry_cell_setting 'orthorhombic'
loop_
_space_group_symop_operation_xyz
x,y,z
-x,-y,z
1/2-x,y,z
1/2+x,-y,z
loop_
_atom_site_type_symbol
_atom_site_label
_atom_site_fract_x
_atom_site_fract_y
_atom_site_fract_z
Si Si1 0.919043 0.724285 0.327120
Si Si2 0.081656 0.920163 0.703049
Si Si3 0.087928 0.573631 0.409571
Si Si4 0.412402 0.576231 0.707896
Si Si5 0.416988 0.869361 0.421665
Si Si6 0.919855 0.253692 0.794919
Si Si7 0.911826 0.241141 0.081957
Si Si8 0.092166 0.934809 0.154625
O O1 0.750000 0.721769 0.331681
O O2 0.995434 0.647991 0.376854
O O3 0.982045 0.794936 0.409454
O O4 0.977297 0.734445 0.186589
O O5 0.250000 0.927787 0.733140
O O6 0.068202 0.911774 0.552837
O O7 0.031363 0.834045 0.753869
O O8 0.000000 0.000000 0.741234
O O9 0.250000 0.577543 0.363462
O O10 0.094910 0.568592 0.558951
O O11 0.000000 0.500000 0.360937
O O12 0.500000 0.500000 0.753317
O O13 0.250000 0.572878 0.756427
O O14 0.470819 0.664271 0.734285
O O15 0.250000 0.845608 0.409330
O O16 0.451309 0.918069 0.297393
O O17 0.750000 0.251222 0.769597
O O18 0.943024 0.264775 0.941825
O O19 0.750000 0.265787 0.115322
O O20 0.911224 0.147063 0.085652
O O21 0.250000 0.965389 0.160215
O O22 0.000000 0.000000 0.091835
#
# Coordination Sequence:
#
# PCOD9339484 Si02
#       8
#     4   4   4   4   4   4   4   4
#     4  11  21  33  52  78 104 132 172 219 267 314
#     4  10  20  34  53  79 110 143 180 220 266 323
#     4  10  19  33  54  81 112 139 165 203 255 316
#     4   9  18  34  58  85 109 136 172 214 260 312
#     4   9  18  33  51  72 102 138 172 209 261 323
#     4   9  18  35  57  76 101 144 187 217 257 317
#     4   9  19  36  53  69  96 138 182 216 254 310
#     4   9  17  28  45  68  93 126 167 212 259 305
#
# _framework density 18.438219
#
# number of rings (size 3 to 8) (size 9 to 14) (size 15 to 20)
#    0.000    2.500    0.000    3.375    0.000    5.500 
#    0.000    2.500    0.000    1.500    0.000    0.000 
#    0.000    0.000    0.000    0.000    0.000    0.000 
#
# Total GULP energy -178192.951161 kJ/mol
# GULP energy per Si atom -5568.529724 kJ/mol
# Density = 1.839625 g / cm^3
# Si number density = 18.438219 Si / 1000 Ang^3
#
#
#
# Elastic Constant Matrix: (Units=GPa)
#
#
# Indices 1 2 3 4 5 6 
#
# 1 88.7730 72.7382 10.3726 0.0000 0.0000 0.0000
# 2 72.7382 124.6018 8.9974 0.0000 0.0000 0.0000
# 3 10.3726 8.9974 16.8207 0.0000 0.0000 0.0000
# 4 0.0000 0.0000 0.0000 -4.0261 0.0000 0.0000
# 5 0.0000 0.0000 0.0000 0.0000 13.0989 0.0000
# 6 0.0000 0.0000 0.0000 0.0000 0.0000 34.6924
#
#
#
# Elastic Compliance Matrix: (Units=1/GPa)
#
#
# Indices 1 2 3 4 5 6 
#
# 1 0.022376 -0.012551 -0.007085 0.000000 0.000000 0.000000
# 2 -0.012551 0.015388 -0.000491 0.000000 0.000000 0.000000
# 3 -0.007085 -0.000491 0.064082 0.000000 0.000000 0.000000
# 4 0.000000 0.000000 0.000000 -0.248378 0.000000 0.000000
# 5 0.000000 0.000000 0.000000 0.000000 0.076343 0.000000
# 6 0.000000 0.000000 0.000000 0.000000 0.000000 0.028825
#
#
# Mechanical properties :
#
#
# Convention : Reuss Voigt Hill
#
# Bulk Modulus (GPa) = 16.23592 46.04576 31.14084
# Shear Modulus (GPa) = 257.45656 17.95884 137.70770
#
# Velocity S-wave (km/s) = 11.82942 3.12428 8.65148
# Velocity P-wave (km/s) = 13.97873 6.16783 10.80386
#
# Compressibility (1/GPa) = 0.06159185
#
# Stress axis : x y z
#
# Youngs Moduli (GPa) = 44.68982 64.98619 15.60495
#
# Poissons Ratio (x) = 0.81564 0.11056
# Poissons Ratio (y) = 0.56090 0.00767
# Poissons Ratio (z) = 0.31663 0.03193
#
# Static dielectric constant tensor:
#      x y z
#    x 1.636140 0.000000 0.000000 
#    y 0.000000 1.637130 0.000000 
#    z 0.000000 0.000000 1.641480 
# 
# From -- ./inp_files/5203.got.cif
#   From: 2010.05.17/outbox.cif.g08.bks.cpg/sg28_3_cif.got.tgz:5203.got - 2010.06.04 01:15:21.
