data_PCOD9339285
_publ_section_title
;
Structure prediction by ZEFSAII (Michael W. Deem and Ramdas Pophale) SiO2 
 PCOD9339285
Probable space group: P M A 2
;
_chemical_formula_sum "Si O2"
_cell_formula_units_Z 24
_cell_length_a 7.891050
_cell_length_b 17.038568
_cell_length_c 9.614393
_cell_angle_alpha 90.000000
_cell_angle_beta 90.000000
_cell_angle_gamma 90.000000
_cell_volume 1292.676214
_symmetry_space_group_name_H-M "P M A 2"
_symmetry_group_IT_number 28
_symmetry_cell_setting 'orthorhombic'
loop_
_space_group_symop_operation_xyz
x,y,z
-x,-y,z
1/2-x,y,z
1/2+x,-y,z
loop_
_atom_site_type_symbol
_atom_site_label
_atom_site_fract_x
_atom_site_fract_y
_atom_site_fract_z
Si Si1 0.945193 0.188383 0.916280
Si Si2 0.045759 0.413228 0.020475
Si Si3 0.545326 0.740280 0.187429
Si Si4 0.048274 0.087425 0.677836
Si Si5 0.056649 0.336810 0.751788
Si Si6 0.458199 0.238637 0.503176
O O1 0.750000 0.211014 0.898051
O O2 0.977486 0.109648 0.830249
O O3 0.055951 0.255438 0.840280
O O4 0.988590 0.193158 0.078345
O O5 0.250000 0.407289 0.013788
O O6 0.987383 0.342813 0.120966
O O7 0.000000 0.500000 0.067574
O O8 0.978696 0.396767 0.863247
O O9 0.750000 0.739783 0.189522
O O10 0.486317 0.752388 0.344669
O O11 0.250000 0.092512 0.684887
O O12 0.988830 0.156138 0.572880
O O13 0.000000 0.000000 0.635441
O O14 0.250000 0.361877 0.724993
O O15 0.981993 0.309195 0.604749
O O16 0.250000 0.240223 0.505704
#
# Coordination Sequence:
#
# PCOD9339285 Si02
#       6
#     4   4   4   4   4   4
#     4  10  18  29  47  71  95 123 156 192 230 276
#     4   9  17  28  45  67  94 125 161 201 242 284
#     4   9  17  32  51  70  93 128 164 196 237 290
#     4  10  19  33  52  74  97 124 158 199 241 285
#     4   8  15  30  49  68  88 119 159 196 233 282
#     4   8  15  30  53  72  90 121 162 198 235 285
#
# _framework density 18.566133000000001
#
# number of rings (size 3 to 8) (size 9 to 14) (size 15 to 20)
#    0.000    3.000    0.000    4.000    0.000    2.667 
#    0.000    5.833    0.000    2.000    0.000    0.000 
#    0.000    0.000    0.000    0.000    0.000    0.000 
#
# Total GULP energy -133609.478760 kJ/mol
# GULP energy per Si atom -5567.061615 kJ/mol
# Density = 1.852388 g / cm^3
# Si number density = 18.566133 Si / 1000 Ang^3
#
#
#
# Elastic Constant Matrix: (Units=GPa)
#
#
# Indices 1 2 3 4 5 6 
#
# 1 37.1258 6.5090 13.0125 0.0000 0.0000 0.0000
# 2 6.5090 81.3094 48.9215 0.0000 0.0000 0.0000
# 3 13.0125 48.9215 166.1691 0.0000 0.0000 0.0000
# 4 0.0000 0.0000 0.0000 18.4328 0.0000 0.0000
# 5 0.0000 0.0000 0.0000 0.0000 3.2170 0.0000
# 6 0.0000 0.0000 0.0000 0.0000 0.0000 20.8694
#
#
#
# Elastic Compliance Matrix: (Units=1/GPa)
#
#
# Indices 1 2 3 4 5 6 
#
# 1 0.027778 -0.001112 -0.001848 0.000000 0.000000 0.000000
# 2 -0.001112 0.014991 -0.004326 0.000000 0.000000 0.000000
# 3 -0.001848 -0.004326 0.007436 0.000000 0.000000 0.000000
# 4 0.000000 0.000000 0.000000 0.054251 0.000000 0.000000
# 5 0.000000 0.000000 0.000000 0.000000 0.310850 0.000000
# 6 0.000000 0.000000 0.000000 0.000000 0.000000 0.047917
#
#
# Mechanical properties :
#
#
# Convention : Reuss Voigt Hill
#
# Bulk Modulus (GPa) = 28.06388 46.83224 37.44806
# Shear Modulus (GPa) = 10.21089 22.91458 16.56273
#
# Velocity S-wave (km/s) = 2.34770 3.51695 2.99003
# Velocity P-wave (km/s) = 4.74314 6.46307 5.66871
#
# Compressibility (1/GPa) = 0.03563299
#
# Stress axis : x y z
#
# Youngs Moduli (GPa) = 35.99957 66.70790 134.47413
#
# Poissons Ratio (x) = 0.07417 0.24850
# Poissons Ratio (y) = 0.04003 0.58178
# Poissons Ratio (z) = 0.06652 0.28860
#
# Static dielectric constant tensor:
#      x y z
#    x 1.674300 0.000000 0.000000 
#    y 0.000000 1.648230 0.000000 
#    z 0.000000 0.000000 1.671770 
# 
# From -- ./inp_files/2547.got.cif
#   From: 2010.05.17/outbox.cif.g08.bks.cpg/sg28_2_cif.got.tgz:2547.got - 2010.06.04 01:15:21.
