data_PCOD9339365
_publ_section_title
;
Structure prediction by ZEFSAII (Michael W. Deem and Ramdas Pophale) SiO2 
 PCOD9339365
Probable space group: P M A 2
;
_chemical_formula_sum "Si O2"
_cell_formula_units_Z 28
_cell_length_a 8.787946
_cell_length_b 13.330656
_cell_length_c 14.766725
_cell_angle_alpha 90.000000
_cell_angle_beta 90.000000
_cell_angle_gamma 90.000000
_cell_volume 1729.908323
_symmetry_space_group_name_H-M "P M A 2"
_symmetry_group_IT_number 28
_symmetry_cell_setting 'orthorhombic'
loop_
_space_group_symop_operation_xyz
x,y,z
-x,-y,z
1/2-x,y,z
1/2+x,-y,z
loop_
_atom_site_type_symbol
_atom_site_label
_atom_site_fract_x
_atom_site_fract_y
_atom_site_fract_z
Si Si1 0.068326 0.611343 0.080160
Si Si2 0.431168 0.386406 0.268048
Si Si3 0.919165 0.408254 0.567578
Si Si4 0.429764 0.277167 0.709055
Si Si5 0.078699 0.758291 0.414308
Si Si6 0.065777 0.889988 0.574847
Si Si7 0.068072 0.613341 0.876252
O O1 0.250000 0.608530 0.093970
O O2 0.000000 0.500000 0.075603
O O3 0.989493 0.652787 0.170108
O O4 0.038338 0.651249 0.979165
O O5 0.500000 0.500000 0.282726
O O6 0.250000 0.397313 0.268951
O O7 0.483414 0.302436 0.340193
O O8 0.750000 0.431350 0.601284
O O9 0.906977 0.320645 0.496055
O O10 0.000000 0.500000 0.519520
O O11 0.027875 0.373396 0.647664
O O12 0.250000 0.262172 0.714611
O O13 0.505040 0.185123 0.653338
O O14 0.499499 0.307731 0.805375
O O15 0.250000 0.779691 0.379479
O O16 0.017892 0.852273 0.473265
O O17 0.250000 0.888468 0.576639
O O18 0.000000 0.000000 0.590605
O O19 0.250000 0.605525 0.864172
O O20 0.000000 0.500000 0.865374
#
# Coordination Sequence:
#
# PCOD9339365 Si02
#       7
#     4   4   4   4   4   4   4
#     4   9  17  29  45  64  92 129 166 201 236 275
#     4  11  20  29  45  68  98 132 165 200 235 277
#     4  10  19  30  43  62  91 125 158 193 231 276
#     4  11  21  32  48  69  94 125 159 195 235 283
#     4   9  19  33  48  67  92 122 156 192 232 279
#     4  10  21  38  57  75  96 121 153 197 243 290
#     4  10  19  31  47  69  98 132 167 202 238 280
#
# _framework density 16.185828999999998
#
# number of rings (size 3 to 8) (size 9 to 14) (size 15 to 20)
#    0.000    2.000    0.000    6.857    0.000    6.286 
#    0.000    0.000    0.000    0.000    0.000    1.000 
#    0.000    4.571    0.000    0.000    0.000    0.000 
#
# Total GULP energy -155880.359846 kJ/mol
# GULP energy per Si atom -5567.155709 kJ/mol
# Density = 1.614899 g / cm^3
# Si number density = 16.185829 Si / 1000 Ang^3
#
#
#
# Elastic Constant Matrix: (Units=GPa)
#
#
# Indices 1 2 3 4 5 6 
#
# 1 107.4758 35.7300 62.8927 0.0000 0.0000 0.0000
# 2 35.7300 66.2758 33.3562 0.0000 0.0000 0.0000
# 3 62.8927 33.3562 125.2239 0.0000 0.0000 0.0000
# 4 0.0000 0.0000 0.0000 17.5224 0.0000 0.0000
# 5 0.0000 0.0000 0.0000 0.0000 24.3608 0.0000
# 6 0.0000 0.0000 0.0000 0.0000 0.0000 19.5809
#
#
#
# Elastic Compliance Matrix: (Units=1/GPa)
#
#
# Indices 1 2 3 4 5 6 
#
# 1 0.014365 -0.004750 -0.005949 0.000000 0.000000 0.000000
# 2 -0.004750 0.018995 -0.002674 0.000000 0.000000 0.000000
# 3 -0.005949 -0.002674 0.011686 0.000000 0.000000 0.000000
# 4 0.000000 0.000000 0.000000 0.057070 0.000000 0.000000
# 5 0.000000 0.000000 0.000000 0.000000 0.041050 0.000000
# 6 0.000000 0.000000 0.000000 0.000000 0.000000 0.051070
#
#
# Mechanical properties :
#
#
# Convention : Reuss Voigt Hill
#
# Bulk Modulus (GPa) = 54.64766 62.54815 58.59791
# Shear Modulus (GPa) = 22.01843 23.42594 22.72218
#
# Velocity S-wave (km/s) = 3.69230 3.80848 3.75084
# Velocity P-wave (km/s) = 7.21203 7.62017 7.41891
#
# Compressibility (1/GPa) = 0.01829905
#
# Stress axis : x y z
#
# Youngs Moduli (GPa) = 69.61333 52.64506 85.57192
#
# Poissons Ratio (x) = 0.25007 0.50911
# Poissons Ratio (y) = 0.33067 0.22883
# Poissons Ratio (z) = 0.41416 0.14078
#
# Static dielectric constant tensor:
#      x y z
#    x 1.561760 0.000000 0.000000 
#    y 0.000000 1.600870 0.000000 
#    z 0.000000 0.000000 1.588480 
# 
# From -- ./inp_files/6359.got.cif
#   From: 2010.05.17/outbox.cif.g08.bks.cpg/sg28_4_cif.got.tgz:6359.got - 2010.06.04 01:15:21.
