data_PCOD9339329
_publ_section_title
;
Structure prediction by ZEFSAII (Michael W. Deem and Ramdas Pophale) SiO2 
 PCOD9339329
Probable space group: P M A 2
;
_chemical_formula_sum "Si O2"
_cell_formula_units_Z 32
_cell_length_a 9.535182
_cell_length_b 16.455286
_cell_length_c 9.650707
_cell_angle_alpha 90.000000
_cell_angle_beta 90.000000
_cell_angle_gamma 90.000000
_cell_volume 1514.235949
_symmetry_space_group_name_H-M "P M A 2"
_symmetry_group_IT_number 28
_symmetry_cell_setting 'orthorhombic'
loop_
_space_group_symop_operation_xyz
x,y,z
-x,-y,z
1/2-x,y,z
1/2+x,-y,z
loop_
_atom_site_type_symbol
_atom_site_label
_atom_site_fract_x
_atom_site_fract_y
_atom_site_fract_z
Si Si1 0.913912 0.916630 0.560720
Si Si2 0.896925 0.312207 0.337395
Si Si3 0.901865 0.574975 0.225722
Si Si4 0.090551 0.341961 0.928150
Si Si5 0.914461 0.917740 0.226775
Si Si6 0.908155 0.233893 0.610241
Si Si7 0.418961 0.578126 0.700040
Si Si8 0.909432 0.214099 0.057718
O O1 0.750000 0.925463 0.597841
O O2 0.918682 0.902500 0.393196
O O3 0.984946 0.839257 0.637162
O O4 0.000000 0.000000 0.587643
O O5 0.750000 0.356636 0.367830
O O6 0.902326 0.238417 0.442671
O O7 0.891254 0.278921 0.182251
O O8 0.029760 0.369323 0.342757
O O9 0.750000 0.546815 0.267460
O O10 0.892697 0.625734 0.084237
O O11 0.000000 0.500000 0.198999
O O12 0.250000 0.330634 0.872808
O O13 0.996177 0.260288 0.937895
O O14 0.999947 0.407770 0.845204
O O15 0.750000 0.923232 0.189805
O O16 0.993314 0.852794 0.130376
O O17 0.000000 0.000000 0.205288
O O18 0.750000 0.216896 0.662167
O O19 0.939032 0.329470 0.640744
O O20 0.500000 0.500000 0.634891
O O21 0.250000 0.564337 0.709871
O O22 0.750000 0.188787 0.018919
#
# Coordination Sequence:
#
# PCOD9339329 Si02
#       8
#     4   4   4   4   4   4   4   4
#     4  10  20  33  55  85 119 157 196 237 282 339
#     4   9  18  32  50  73 104 139 173 214 267 328
#     4  10  20  32  49  73 101 133 170 217 270 326
#     4  10  21  37  57  79 105 137 181 234 283 336
#     4  10  19  30  48  79 117 153 189 227 274 333
#     4  10  21  38  58  82 115 151 191 239 291 344
#     4  11  24  41  61  83 110 147 195 248 297 348
#     4  10  18  31  54  80 110 145 180 222 276 336
#
# _framework density 21.132770000000001
#
# number of rings (size 3 to 8) (size 9 to 14) (size 15 to 20)
#    0.000    2.000    1.250    2.625    0.000    6.000 
#    0.000    1.250    0.000    0.750    0.000    1.750 
#    0.000    0.000    0.000    0.000    0.000    0.000 
#
# Total GULP energy -178216.745379 kJ/mol
# GULP energy per Si atom -5569.273293 kJ/mol
# Density = 2.108467 g / cm^3
# Si number density = 21.132770 Si / 1000 Ang^3
#
#
#
# Elastic Constant Matrix: (Units=GPa)
#
#
# Indices 1 2 3 4 5 6 
#
# 1 221.1491 103.9610 17.1565 0.0000 0.0000 0.0000
# 2 103.9610 120.0455 11.0802 0.0000 0.0000 0.0000
# 3 17.1565 11.0802 20.4730 0.0000 0.0000 0.0000
# 4 0.0000 0.0000 0.0000 34.1729 0.0000 0.0000
# 5 0.0000 0.0000 0.0000 0.0000 8.9287 0.0000
# 6 0.0000 0.0000 0.0000 0.0000 0.0000 63.1199
#
#
#
# Elastic Compliance Matrix: (Units=1/GPa)
#
#
# Indices 1 2 3 4 5 6 
#
# 1 0.007802 -0.006476 -0.003033 0.000000 0.000000 0.000000
# 2 -0.006476 0.014144 -0.002228 0.000000 0.000000 0.000000
# 3 -0.003033 -0.002228 0.052592 0.000000 0.000000 0.000000
# 4 0.000000 0.000000 0.000000 0.029263 0.000000 0.000000
# 5 0.000000 0.000000 0.000000 0.000000 0.111998 0.000000
# 6 0.000000 0.000000 0.000000 0.000000 0.000000 0.015843
#
#
# Mechanical properties :
#
#
# Convention : Reuss Voigt Hill
#
# Bulk Modulus (GPa) = 19.58322 69.56256 44.57289
# Shear Modulus (GPa) = 18.37306 36.54229 27.45767
#
# Velocity S-wave (km/s) = 2.95178 4.16285 3.60848
# Velocity P-wave (km/s) = 4.57211 7.48960 6.20477
#
# Compressibility (1/GPa) = 0.05106413
#
# Stress axis : x y z
#
# Youngs Moduli (GPa) = 128.17824 70.69912 19.01431
#
# Poissons Ratio (x) = 0.45788 0.05767
# Poissons Ratio (y) = 0.83013 0.04236
# Poissons Ratio (z) = 0.38873 0.15751
#
# Static dielectric constant tensor:
#      x y z
#    x 1.798920 0.000000 0.000000 
#    y 0.000000 1.780500 0.000000 
#    z 0.000000 0.000000 1.820200 
# 
# From -- ./inp_files/5189.got.cif
#   From: 2010.05.17/outbox.cif.g08.bks.cpg/sg28_3_cif.got.tgz:5189.got - 2010.06.04 01:15:21.
