data_PCOD9339625
_publ_section_title
;
Structure prediction by ZEFSAII (Michael W. Deem and Ramdas Pophale) SiO2 
 PCOD9339625
Probable space group: P M A 2
;
_chemical_formula_sum "Si O2"
_cell_formula_units_Z 32
_cell_length_a 15.347376
_cell_length_b 10.888463
_cell_length_c 10.643515
_cell_angle_alpha 90.000000
_cell_angle_beta 90.000000
_cell_angle_gamma 90.000000
_cell_volume 1778.630721
_symmetry_space_group_name_H-M "P M A 2"
_symmetry_group_IT_number 28
_symmetry_cell_setting 'orthorhombic'
loop_
_space_group_symop_operation_xyz
x,y,z
-x,-y,z
1/2-x,y,z
1/2+x,-y,z
loop_
_atom_site_type_symbol
_atom_site_label
_atom_site_fract_x
_atom_site_fract_y
_atom_site_fract_z
Si Si1 0.600411 0.981122 0.832500
Si Si2 0.020587 0.640304 0.629232
Si Si3 0.854325 0.265160 0.120280
Si Si4 0.038640 0.637052 0.347308
Si Si5 0.151207 0.191967 0.608151
Si Si6 0.146495 0.018221 0.103133
Si Si7 0.349990 0.737663 0.838854
Si Si8 0.930472 0.887997 0.355628
O O1 0.644279 0.895412 0.729588
O O2 0.500000 0.000000 0.795373
O O3 0.645448 0.114042 0.840455
O O4 0.604018 0.931277 0.975259
O O5 0.928123 0.711277 0.620894
O O6 0.000000 0.500000 0.657675
O O7 0.067806 0.645576 0.493028
O O8 0.082774 0.694824 0.734647
O O9 0.750000 0.265817 0.129583
O O10 0.893905 0.339468 0.235460
O O11 0.883405 0.122558 0.125827
O O12 0.876014 0.307444 0.978661
O O13 0.000000 0.500000 0.333322
O O14 0.973642 0.753679 0.339772
O O15 0.250000 0.241894 0.599739
O O16 0.128360 0.117590 0.480791
O O17 0.250000 0.017706 0.083254
O O18 0.122501 0.088239 0.228963
O O19 0.250000 0.700586 0.814184
O O20 0.000000 0.000000 0.369658
#
# Coordination Sequence:
#
# PCOD9339625 Si02
#       8
#     4   4   4   4   4   4   4   4
#     4  11  20  35  58  87 120 152 187 238 299 354
#     4  10  23  41  59  82 113 158 202 240 288 352
#     4   9  19  36  57  84 115 148 188 238 292 343
#     4  10  22  39  57  83 115 153 197 237 291 348
#     4  11  23  38  57  85 120 151 189 248 303 346
#     4  10  20  34  55  88 119 148 190 240 295 352
#     4  10  21  37  59  88 119 151 193 243 291 348
#     4  11  21  36  59  86 114 151 201 241 292 350
#
# _framework density 17.991368999999999
#
# number of rings (size 3 to 8) (size 9 to 14) (size 15 to 20)
#    0.000    1.750    2.500    3.000    3.500    1.500 
#    0.000    5.625    0.000    1.500    0.000    0.000 
#    0.000    0.000    0.000    0.000    0.000    0.000 
#
# Total GULP energy -178444.415465 kJ/mol
# GULP energy per Si atom -5576.387983 kJ/mol
# Density = 1.795042 g / cm^3
# Si number density = 17.991369 Si / 1000 Ang^3
#
#
#
# Elastic Constant Matrix: (Units=GPa)
#
#
# Indices 1 2 3 4 5 6 
#
# 1 82.5630 18.4507 51.6304 0.0000 0.0000 0.0000
# 2 18.4507 70.0154 53.0440 0.0000 0.0000 0.0000
# 3 51.6304 53.0440 151.7243 0.0000 0.0000 0.0000
# 4 0.0000 0.0000 0.0000 15.4810 0.0000 0.0000
# 5 0.0000 0.0000 0.0000 0.0000 -3.5669 0.0000
# 6 0.0000 0.0000 0.0000 0.0000 0.0000 6.5574
#
#
#
# Elastic Compliance Matrix: (Units=1/GPa)
#
#
# Indices 1 2 3 4 5 6 
#
# 1 0.015387 -0.000120 -0.005194 0.000000 0.000000 0.000000
# 2 -0.000120 0.019429 -0.006752 0.000000 0.000000 0.000000
# 3 -0.005194 -0.006752 0.010719 0.000000 0.000000 0.000000
# 4 0.000000 0.000000 0.000000 0.064595 0.000000 0.000000
# 5 0.000000 0.000000 0.000000 0.000000 -0.280357 0.000000
# 6 0.000000 0.000000 0.000000 0.000000 0.000000 0.152499
#
#
# Mechanical properties :
#
#
# Convention : Reuss Voigt Hill
#
# Bulk Modulus (GPa) = 46.72099 61.17253 53.94676
# Shear Modulus (GPa) = 369.29492 15.77282 192.53387
#
# Velocity S-wave (km/s) = 14.34252 2.96410 10.35601
# Velocity P-wave (km/s) = 17.32923 6.76679 13.15469
#
# Compressibility (1/GPa) = 0.02140366
#
# Stress axis : x y z
#
# Youngs Moduli (GPa) = 64.99051 51.46841 93.29268
#
# Poissons Ratio (x) = 0.00616 0.48458
# Poissons Ratio (y) = 0.00778 0.62991
# Poissons Ratio (z) = 0.33757 0.34751
#
# Static dielectric constant tensor:
#      x y z
#    x 1.627950 0.000000 0.000000 
#    y 0.000000 1.610870 0.000000 
#    z 0.000000 0.000000 1.630190 
# 
# From -- ./inp_files/3540.got.cif
#   From: 2010.05.17/outbox.cif.g08.bks.cpg/sg28_2_cif.got.tgz:3540.got - 2010.06.04 01:15:21.
