data_PCOD9339082
_publ_section_title
;
Structure prediction by ZEFSAII (Michael W. Deem and Ramdas Pophale) SiO2 
 PCOD9339082
Probable space group: P C C 2
;
_chemical_formula_sum "Si O2"
_cell_formula_units_Z 32
_cell_length_a 18.398277
_cell_length_b 5.328877
_cell_length_c 13.824427
_cell_angle_alpha 90.000000
_cell_angle_beta 90.000000
_cell_angle_gamma 90.000000
_cell_volume 1355.376617
_symmetry_space_group_name_H-M "P C C 2"
_symmetry_group_IT_number 27
_symmetry_cell_setting 'orthorhombic'
loop_
_space_group_symop_operation_xyz
x,y,z
-x,-y,z
-x,y,1/2+z
x,-y,1/2+z
loop_
_atom_site_type_symbol
_atom_site_label
_atom_site_fract_x
_atom_site_fract_y
_atom_site_fract_z
Si Si1 0.421912 0.058721 0.655510
Si Si2 0.190898 0.395976 0.086406
Si Si3 0.578638 0.441646 0.526934
Si Si4 0.273354 0.479597 0.420036
Si Si5 0.916372 0.022673 0.009166
Si Si6 0.162920 0.892484 0.345106
Si Si7 0.277177 0.870505 0.731415
Si Si8 0.076511 0.361309 0.701610
O O1 0.420538 0.835621 0.574559
O O2 0.352145 0.018530 0.723026
O O3 0.500000 0.000000 0.704391
O O4 0.416686 0.335523 0.608223
O O5 0.127300 0.234047 0.034335
O O6 0.261318 0.255173 0.128179
O O7 0.147923 0.474634 0.182232
O O8 0.227901 0.602104 0.016613
O O9 0.500000 0.500000 0.480430
O O10 0.645286 0.468196 0.454262
O O11 0.226596 0.727225 0.393727
O O12 0.277463 0.305704 0.326062
O O13 0.919874 0.181370 0.107568
O O14 0.869918 0.104458 0.915245
O O15 0.000000 0.000000 0.981035
O O16 0.091247 0.755230 0.305837
O O17 0.204236 0.973188 0.248595
O O18 0.000000 0.500000 0.698499
#
# Coordination Sequence:
#
# PCOD9339082 Si02
#       8
#     4   4   4   4   4   4   4   4
#     4  10  24  46  74 108 144 195 240 298 364 433
#     4  11  23  43  68  98 137 180 234 291 359 427
#     4  10  23  46  74 105 148 193 241 295 366 434
#     4  11  25  43  68 105 141 188 240 294 363 431
#     4  11  24  45  66  96 134 183 229 292 361 428
#     4  11  27  43  67 106 140 177 243 299 359 432
#     4  12  24  42  73 102 142 188 236 302 353 444
#     4  12  24  44  72  96 135 184 231 293 364 436
#
# _framework density 23.609672
#
# number of rings (size 3 to 8) (size 9 to 14) (size 15 to 20)
#    0.000    1.000    5.000    0.750    5.250    1.500 
#    6.750    0.000    0.000    0.000    0.000    0.000 
#    0.000    0.000    0.000    0.000    0.000    0.000 
#
# Total GULP energy -178458.661071 kJ/mol
# GULP energy per Si atom -5576.833158 kJ/mol
# Density = 2.355594 g / cm^3
# Si number density = 23.609672 Si / 1000 Ang^3
#
#
#
# Elastic Constant Matrix: (Units=GPa)
#
#
# Indices 1 2 3 4 5 6 
#
# 1 174.2490 24.7442 63.7421 0.0000 0.0000 0.0000
# 2 24.7442 46.1627 5.0638 0.0000 0.0000 0.0000
# 3 63.7421 5.0638 67.7625 0.0000 0.0000 0.0000
# 4 0.0000 0.0000 0.0000 34.6098 0.0000 0.0000
# 5 0.0000 0.0000 0.0000 0.0000 67.3396 0.0000
# 6 0.0000 0.0000 0.0000 0.0000 0.0000 30.8813
#
#
#
# Elastic Compliance Matrix: (Units=1/GPa)
#
#
# Indices 1 2 3 4 5 6 
#
# 1 0.009472 -0.004134 -0.008602 0.000000 0.000000 0.000000
# 2 -0.004134 0.023646 0.002122 0.000000 0.000000 0.000000
# 3 -0.008602 0.002122 0.022690 0.000000 0.000000 0.000000
# 4 0.000000 0.000000 0.000000 0.028894 0.000000 0.000000
# 5 0.000000 0.000000 0.000000 0.000000 0.014850 0.000000
# 6 0.000000 0.000000 0.000000 0.000000 0.000000 0.032382
#
#
# Mechanical properties :
#
#
# Convention : Reuss Voigt Hill
#
# Bulk Modulus (GPa) = 28.91798 52.80827 40.86312
# Shear Modulus (GPa) = 30.36034 39.54106 34.95070
#
# Velocity S-wave (km/s) = 3.58987 4.09685 3.85171
# Velocity P-wave (km/s) = 5.42751 6.69288 6.09313
#
# Compressibility (1/GPa) = 0.03458057
#
# Stress axis : x y z
#
# Youngs Moduli (GPa) = 105.56882 42.29108 44.07205
#
# Poissons Ratio (x) = 0.17483 0.37909
# Poissons Ratio (y) = 0.43641 -0.09350
# Poissons Ratio (z) = 0.90806 -0.08973
#
# Static dielectric constant tensor:
#      x y z
#    x 1.880130 0.000000 0.000000 
#    y 0.000000 2.158330 0.000000 
#    z 0.000000 0.000000 2.015190 
# 
# From -- ./inp_files/3774.got.cif
#   From: 2010.05.17/outbox.cif.g08.bks.cpg/sg27_2_cif.got.tgz:3774.got - 2010.06.04 01:11:05.
