data_PCOD9339195
_publ_section_title
;
Structure prediction by ZEFSAII (Michael W. Deem and Ramdas Pophale) SiO2 
 PCOD9339195
Probable space group: P C C 2
;
_chemical_formula_sum "Si O2"
_cell_formula_units_Z 22
_cell_length_a 15.959745
_cell_length_b 5.077772
_cell_length_c 11.109618
_cell_angle_alpha 90.000000
_cell_angle_beta 90.000000
_cell_angle_gamma 90.000000
_cell_volume 900.322846
_symmetry_space_group_name_H-M "P C C 2"
_symmetry_group_IT_number 27
_symmetry_cell_setting 'orthorhombic'
loop_
_space_group_symop_operation_xyz
x,y,z
-x,-y,z
-x,y,1/2+z
x,-y,1/2+z
loop_
_atom_site_type_symbol
_atom_site_label
_atom_site_fract_x
_atom_site_fract_y
_atom_site_fract_z
Si Si1 0.857594 0.821264 0.478530
Si Si2 0.116806 0.854494 0.236385
Si Si3 0.681632 0.903082 0.406497
Si Si4 0.000000 0.500000 0.374434
Si Si5 0.708089 0.593119 0.765016
Si Si6 0.555139 0.760027 0.596999
O O1 0.887361 0.963383 0.600825
O O2 0.758029 0.791490 0.487948
O O3 0.921540 0.581141 0.457728
O O4 0.862673 0.960637 0.348685
O O5 0.032889 0.719442 0.283033
O O6 0.194799 0.645719 0.230846
O O7 0.690810 0.713158 0.290984
O O8 0.594297 0.853508 0.470773
O O9 0.695086 0.211165 0.379973
O O10 0.635111 0.693406 0.678436
O O11 0.500000 0.500000 0.583735
O O12 0.500000 0.000000 0.647442
#
# Coordination Sequence:
#
# PCOD9339195 Si02
#       6
#     4   4   4   2   4   4
#     4  11  25  46  72 106 147 198 249 312 376 453
#     4  11  25  46  72 106 147 198 249 312 376 453
#     4  11  24  46  71 103 145 195 239 304 376 443
#     4  12  24  44  72 112 140 192 258 306 376 452
#     4  11  24  46  71 103 145 195 239 304 376 443
#     4  12  26  44  72 109 141 185 249 310 366 452
#
# _framework density 24.435676999999998
#
# number of rings (size 3 to 8) (size 9 to 14) (size 15 to 20)
#    0.000    0.727    3.636    3.273    0.000    8.727 
#    3.273    0.000    0.000    0.000    0.000    0.000 
#    0.000    0.000    0.000    0.000    0.000    0.000 
#
# Total GULP energy -122899.311152 kJ/mol
# GULP energy per Si atom -5586.332325 kJ/mol
# Density = 2.438006 g / cm^3
# Si number density = 24.435677 Si / 1000 Ang^3
#
#
#
# Elastic Constant Matrix: (Units=GPa)
#
#
# Indices 1 2 3 4 5 6 
#
# 1 126.3918 15.8298 16.1165 0.0000 0.0000 0.0000
# 2 15.8298 69.1616 10.3162 0.0000 0.0000 0.0000
# 3 16.1165 10.3162 107.8854 0.0000 0.0000 0.0000
# 4 0.0000 0.0000 0.0000 20.8721 0.0000 0.0000
# 5 0.0000 0.0000 0.0000 0.0000 23.8861 0.0000
# 6 0.0000 0.0000 0.0000 0.0000 0.0000 42.1813
#
#
#
# Elastic Compliance Matrix: (Units=1/GPa)
#
#
# Indices 1 2 3 4 5 6 
#
# 1 0.008265 -0.001732 -0.001069 0.000000 0.000000 0.000000
# 2 -0.001732 0.015031 -0.001179 0.000000 0.000000 0.000000
# 3 -0.001069 -0.001179 0.009541 0.000000 0.000000 0.000000
# 4 0.000000 0.000000 0.000000 0.047911 0.000000 0.000000
# 5 0.000000 0.000000 0.000000 0.000000 0.041865 0.000000
# 6 0.000000 0.000000 0.000000 0.000000 0.000000 0.023707
#
#
# Mechanical properties :
#
#
# Convention : Reuss Voigt Hill
#
# Bulk Modulus (GPa) = 40.19600 43.10710 41.65155
# Shear Modulus (GPa) = 30.75530 34.79966 32.77748
#
# Velocity S-wave (km/s) = 3.55156 3.77786 3.66646
# Velocity P-wave (km/s) = 5.77092 6.05880 5.91661
#
# Compressibility (1/GPa) = 0.02487810
#
# Stress axis : x y z
#
# Youngs Moduli (GPa) = 120.98943 66.52844 104.80549
#
# Poissons Ratio (x) = 0.11525 0.11204
# Poissons Ratio (y) = 0.20959 0.12352
# Poissons Ratio (z) = 0.12934 0.07841
#
# Static dielectric constant tensor:
#      x y z
#    x 1.970580 0.000000 0.000000 
#    y 0.000000 1.964480 0.000000 
#    z 0.000000 0.000000 1.994710 
# 
# From -- ./inp_files/1995.got.cif
#   From: 2010.05.17/outbox.cif.g08.bks.cpg/sg27_1_cif.got.tgz:1995.got - 2010.06.04 01:11:05.
