data_PCOD9339853
_publ_section_title
;
Structure prediction by ZEFSAII (Michael W. Deem and Ramdas Pophale) SiO2 
 PCOD9339853
Probable space group: P M A 2
;
_chemical_formula_sum "Si O2"
_cell_formula_units_Z 20
_cell_length_a 29.792742
_cell_length_b 5.121569
_cell_length_c 4.844938
_cell_angle_alpha 90.000000
_cell_angle_beta 90.000000
_cell_angle_gamma 90.000000
_cell_volume 739.267693
_symmetry_space_group_name_H-M "P M A 2"
_symmetry_group_IT_number 28
_symmetry_cell_setting 'orthorhombic'
loop_
_space_group_symop_operation_xyz
x,y,z
-x,-y,z
1/2-x,y,z
1/2+x,-y,z
loop_
_atom_site_type_symbol
_atom_site_label
_atom_site_fract_x
_atom_site_fract_y
_atom_site_fract_z
Si Si1 0.901683 0.496228 0.016840
Si Si2 0.250000 0.544201 0.973328
Si Si3 0.598313 0.003762 0.421789
Si Si4 0.328473 0.249915 0.719407
Si Si5 0.500000 0.500000 0.024653
Si Si6 0.000000 0.000000 0.413854
Si Si7 0.750000 0.044503 0.465575
O O1 0.896436 0.249995 0.219317
O O2 0.951567 0.497276 0.883624
O O3 0.896778 0.749993 0.219322
O O4 0.865115 0.523908 0.776715
O O5 0.292497 0.351770 0.945352
O O6 0.250000 0.749842 0.719445
O O7 0.250000 0.749851 0.219449
O O8 0.548425 0.002720 0.554946
O O9 0.634866 0.976122 0.661994
O O10 0.292494 0.147946 0.493541
O O11 0.499710 0.250000 0.219255
#
# Coordination Sequence:
#
# PCOD9339853 Si02
#       7
#     4   2   4   4   2   2   2
#     4  10  22  40  67  99 143 189 248 307 381 461
#     4  11  28  49  74 106 151 194 255 327 398 460
#     4  10  22  40  67  99 143 189 248 307 381 461
#     4  11  26  40  72 104 140 196 252 321 382 472
#     4   8  16  36  60  92 136 188 234 304 368 448
#     4   8  16  36  60  92 136 188 234 304 368 448
#     4  11  28  49  74 106 151 194 255 327 398 460
#
# _framework density 27.053799000000001
#
# number of rings (size 3 to 8) (size 9 to 14) (size 15 to 20)
#    0.000    2.000    0.000    1.200   11.200    1.600 
#    0.000   12.000    0.000    0.000    0.000    0.000 
#    0.000    0.000    0.000    0.000    0.000    0.000 
#
# Total GULP energy -111546.541566 kJ/mol
# GULP energy per Si atom -5577.327078 kJ/mol
# Density = 2.699222 g / cm^3
# Si number density = 27.053799 Si / 1000 Ang^3
#
#
#
# Elastic Constant Matrix: (Units=GPa)
#
#
# Indices 1 2 3 4 5 6 
#
# 1 297.8999 49.5203 54.2219 0.0000 0.0000 0.0000
# 2 49.5203 244.8549 87.6120 0.0000 0.0000 0.0000
# 3 54.2219 87.6120 151.4847 0.0000 0.0000 0.0000
# 4 0.0000 0.0000 0.0000 79.6511 0.0000 0.0000
# 5 0.0000 0.0000 0.0000 0.0000 -45.1765 0.0000
# 6 0.0000 0.0000 0.0000 0.0000 0.0000 45.1949
#
#
#
# Elastic Compliance Matrix: (Units=1/GPa)
#
#
# Indices 1 2 3 4 5 6 
#
# 1 0.003613 -0.000338 -0.001098 0.000000 0.000000 0.000000
# 2 -0.000338 0.005181 -0.002876 0.000000 0.000000 0.000000
# 3 -0.001098 -0.002876 0.008657 0.000000 0.000000 0.000000
# 4 0.000000 0.000000 0.000000 0.012555 0.000000 0.000000
# 5 0.000000 0.000000 0.000000 0.000000 -0.022135 0.000000
# 6 0.000000 0.000000 0.000000 0.000000 0.000000 0.022126
#
#
# Mechanical properties :
#
#
# Convention : Reuss Voigt Hill
#
# Bulk Modulus (GPa) = 113.26431 119.66088 116.46259
# Shear Modulus (GPa) = 120.29926 49.45958 84.87942
#
# Velocity S-wave (km/s) = 6.67557 4.28038 5.60735
# Velocity P-wave (km/s) = 10.06851 8.29190 9.22308
#
# Compressibility (1/GPa) = 0.00882891
#
# Stress axis : x y z
#
# Youngs Moduli (GPa) = 276.79346 192.99975 115.50763
#
# Poissons Ratio (x) = 0.06521 0.12680
# Poissons Ratio (y) = 0.09352 0.33217
# Poissons Ratio (z) = 0.30385 0.55501
#
# Static dielectric constant tensor:
#      x y z
#    x 2.130230 0.000000 0.000000 
#    y 0.000000 2.097050 0.000000 
#    z 0.000000 0.000000 1.425170 
# 
# From -- ./inp_files/1708.got.cif
#   From: 2010.05.17/outbox.cif.g08.bks.cpg/sg28_1_cif.got.tgz:1708.got - 2010.06.04 01:15:21.
