data_PCOD9339528
_publ_section_title
;
Structure prediction by ZEFSAII (Michael W. Deem and Ramdas Pophale) SiO2 
 PCOD9339528
Probable space group: P M A 2
;
_chemical_formula_sum "Si O2"
_cell_formula_units_Z 32
_cell_length_a 8.777940
_cell_length_b 14.807272
_cell_length_c 12.631343
_cell_angle_alpha 90.000000
_cell_angle_beta 90.000000
_cell_angle_gamma 90.000000
_cell_volume 1641.788429
_symmetry_space_group_name_H-M "P M A 2"
_symmetry_group_IT_number 28
_symmetry_cell_setting 'orthorhombic'
loop_
_space_group_symop_operation_xyz
x,y,z
-x,-y,z
1/2-x,y,z
1/2+x,-y,z
loop_
_atom_site_type_symbol
_atom_site_label
_atom_site_fract_x
_atom_site_fract_y
_atom_site_fract_z
Si Si1 0.574604 0.865640 0.662920
Si Si2 0.428403 0.593147 0.807550
Si Si3 0.933640 0.600718 0.169521
Si Si4 0.068582 0.906478 0.437294
Si Si5 0.431591 0.905257 0.892518
Si Si6 0.066108 0.284689 0.375587
Si Si7 0.932091 0.726220 0.971137
Si Si8 0.576235 0.654327 0.606057
O O1 0.750000 0.898524 0.663200
O O2 0.486842 0.900472 0.559621
O O3 0.495664 0.889143 0.773396
O O4 0.578653 0.757832 0.646450
O O5 0.500000 0.500000 0.847043
O O6 0.250000 0.597366 0.828446
O O7 0.514738 0.673057 0.867048
O O8 0.464047 0.602261 0.683277
O O9 0.750000 0.593327 0.169381
O O10 0.978844 0.655744 0.274948
O O11 0.000000 0.500000 0.164856
O O12 0.977084 0.662895 0.069485
O O13 0.250000 0.908670 0.432754
O O14 0.007008 0.814829 0.382577
O O15 0.000000 0.000000 0.393159
O O16 0.250000 0.907655 0.889118
O O17 0.489281 0.823239 0.965119
O O18 0.500000 0.000000 0.929712
O O19 0.250000 0.272590 0.375306
O O20 0.029542 0.338368 0.483865
O O21 0.750000 0.737414 0.971035
O O22 0.750000 0.619053 0.615113
#
# Coordination Sequence:
#
# PCOD9339528 Si02
#       8
#     4   4   4   4   4   4   4   4
#     4  10  19  34  56  83 121 164 203 248 296 353
#     4  12  24  37  57  85 120 159 201 246 302 366
#     4  10  23  43  69  94 119 154 200 255 308 366
#     4  11  21  34  55  86 123 164 208 250 297 357
#     4  12  24  38  59  88 122 162 205 249 300 361
#     4   9  20  40  62  88 121 157 199 250 307 359
#     4  11  23  42  64  89 122 157 200 253 309 362
#     4   9  18  34  57  83 120 159 194 241 299 358
#
# _framework density 19.490939000000001
#
# number of rings (size 3 to 8) (size 9 to 14) (size 15 to 20)
#    0.000    1.500    1.250    5.625    0.000    5.000 
#    0.000    1.875    0.000    0.000    0.000    0.000 
#    0.000    0.000    0.000    0.000    0.000    0.000 
#
# Total GULP energy -178839.410174 kJ/mol
# GULP energy per Si atom -5588.731568 kJ/mol
# Density = 1.944658 g / cm^3
# Si number density = 19.490939 Si / 1000 Ang^3
#
#
#
# Elastic Constant Matrix: (Units=GPa)
#
#
# Indices 1 2 3 4 5 6 
#
# 1 95.7646 46.4155 37.6228 0.0000 0.0000 0.0000
# 2 46.4155 138.4044 61.4509 0.0000 0.0000 0.0000
# 3 37.6228 61.4509 107.0584 0.0000 0.0000 0.0000
# 4 0.0000 0.0000 0.0000 15.6590 0.0000 0.0000
# 5 0.0000 0.0000 0.0000 0.0000 24.3372 0.0000
# 6 0.0000 0.0000 0.0000 0.0000 0.0000 31.3598
#
#
#
# Elastic Compliance Matrix: (Units=1/GPa)
#
#
# Indices 1 2 3 4 5 6 
#
# 1 0.013060 -0.003143 -0.002785 0.000000 0.000000 0.000000
# 2 -0.003143 0.010453 -0.004895 0.000000 0.000000 0.000000
# 3 -0.002785 -0.004895 0.013129 0.000000 0.000000 0.000000
# 4 0.000000 0.000000 0.000000 0.063861 0.000000 0.000000
# 5 0.000000 0.000000 0.000000 0.000000 0.041089 0.000000
# 6 0.000000 0.000000 0.000000 0.000000 0.000000 0.031888
#
#
# Mechanical properties :
#
#
# Convention : Reuss Voigt Hill
#
# Bulk Modulus (GPa) = 66.69098 70.24509 68.46803
# Shear Modulus (GPa) = 24.98421 27.32041 26.15231
#
# Velocity S-wave (km/s) = 3.58416 3.74799 3.66699
# Velocity P-wave (km/s) = 7.17070 7.40594 7.28927
#
# Compressibility (1/GPa) = 0.01499453
#
# Stress axis : x y z
#
# Youngs Moduli (GPa) = 76.56968 95.66860 76.16478
#
# Poissons Ratio (x) = 0.30069 0.21215
# Poissons Ratio (y) = 0.24066 0.37285
# Poissons Ratio (z) = 0.21328 0.46832
#
# Static dielectric constant tensor:
#      x y z
#    x 1.647480 0.000000 0.000000 
#    y 0.000000 1.689400 0.000000 
#    z 0.000000 0.000000 1.681920 
# 
# From -- ./inp_files/4978.got.cif
#   From: 2010.05.17/outbox.cif.g08.bks.cpg/sg28_3_cif.got.tgz:4978.got - 2010.06.04 01:15:21.
