data_PCOD9339524
_publ_section_title
;
Structure prediction by ZEFSAII (Michael W. Deem and Ramdas Pophale) SiO2 
 PCOD9339524
Probable space group: P M A 2
;
_chemical_formula_sum "Si O2"
_cell_formula_units_Z 28
_cell_length_a 8.523272
_cell_length_b 9.600142
_cell_length_c 18.668796
_cell_angle_alpha 90.000000
_cell_angle_beta 90.000000
_cell_angle_gamma 90.000000
_cell_volume 1527.567167
_symmetry_space_group_name_H-M "P M A 2"
_symmetry_group_IT_number 28
_symmetry_cell_setting 'orthorhombic'
loop_
_space_group_symop_operation_xyz
x,y,z
-x,-y,z
1/2-x,y,z
1/2+x,-y,z
loop_
_atom_site_type_symbol
_atom_site_label
_atom_site_fract_x
_atom_site_fract_y
_atom_site_fract_z
Si Si1 0.938917 0.341157 0.160520
Si Si2 0.438437 0.654646 0.903381
Si Si3 0.939855 0.341714 0.474090
Si Si4 0.061069 0.658191 0.317678
Si Si5 0.560155 0.156397 0.608351
Si Si6 0.936686 0.843430 0.030138
Si Si7 0.560823 0.346323 0.739325
O O1 0.750000 0.344054 0.156782
O O2 0.987797 0.285502 0.239826
O O3 0.000000 0.500000 0.153174
O O4 0.003800 0.245526 0.097782
O O5 0.500000 0.500000 0.921681
O O6 0.250000 0.653821 0.906693
O O7 0.487873 0.684385 0.821171
O O8 0.503512 0.765807 0.958935
O O9 0.750000 0.346615 0.475494
O O10 0.989217 0.284679 0.395320
O O11 0.992780 0.245516 0.539421
O O12 0.000000 0.500000 0.481953
O O13 0.250000 0.657819 0.317524
O O14 0.000000 0.500000 0.317975
O O15 0.750000 0.154983 0.608097
O O16 0.507766 0.234982 0.680693
O O17 0.500000 0.000000 0.605489
O O18 0.750000 0.845452 0.030134
O O19 0.000000 0.000000 0.033373
O O20 0.500000 0.500000 0.720485
O O21 0.750000 0.349947 0.738361
#
# Coordination Sequence:
#
# PCOD9339524 Si02
#       7
#     4   4   4   4   4   4   4
#     4  10  19  34  56  81 108 139 176 217 262 311
#     4  10  20  37  59  83 109 137 173 215 260 310
#     4   9  17  31  52  77 104 134 172 216 259 304
#     4   8  15  28  49  76 104 133 168 213 259 303
#     4  10  21  35  50  73 106 141 176 213 255 305
#     4  12  25  40  56  77 106 140 177 216 263 315
#     4   9  19  35  56  81 106 134 171 214 257 304
#
# _framework density 18.329799999999999
#
# number of rings (size 3 to 8) (size 9 to 14) (size 15 to 20)
#    0.000    2.286    0.000    3.000    0.000    2.857 
#    0.000    2.143    0.000    1.714    0.000    0.000 
#    0.000    0.000    0.000    0.000    0.000    0.000 
#
# Total GULP energy -156182.266292 kJ/mol
# GULP energy per Si atom -5577.938082 kJ/mol
# Density = 1.828808 g / cm^3
# Si number density = 18.329800 Si / 1000 Ang^3
#
#
#
# Elastic Constant Matrix: (Units=GPa)
#
#
# Indices 1 2 3 4 5 6 
#
# 1 45.0441 30.6264 38.0113 0.0000 0.0000 0.0000
# 2 30.6264 125.9427 111.5359 0.0000 0.0000 0.0000
# 3 38.0113 111.5359 165.0437 0.0000 0.0000 0.0000
# 4 0.0000 0.0000 0.0000 -5.3675 0.0000 0.0000
# 5 0.0000 0.0000 0.0000 0.0000 9.4019 0.0000
# 6 0.0000 0.0000 0.0000 0.0000 0.0000 31.8233
#
#
#
# Elastic Compliance Matrix: (Units=1/GPa)
#
#
# Indices 1 2 3 4 5 6 
#
# 1 0.027927 -0.002727 -0.004589 0.000000 0.000000 0.000000
# 2 -0.002727 0.020042 -0.012916 0.000000 0.000000 0.000000
# 3 -0.004589 -0.012916 0.015845 0.000000 0.000000 0.000000
# 4 0.000000 0.000000 0.000000 -0.186307 0.000000 0.000000
# 5 0.000000 0.000000 0.000000 0.000000 0.106361 0.000000
# 6 0.000000 0.000000 0.000000 0.000000 0.000000 0.031424
#
#
# Mechanical properties :
#
#
# Convention : Reuss Voigt Hill
#
# Bulk Modulus (GPa) = 42.82827 77.37532 60.10179
# Shear Modulus (GPa) = 78.69187 17.56201 48.12694
#
# Velocity S-wave (km/s) = 6.55929 3.09870 5.12963
# Velocity P-wave (km/s) = 8.98787 7.42341 8.24284
#
# Compressibility (1/GPa) = 0.02334907
#
# Stress axis : x y z
#
# Youngs Moduli (GPa) = 35.80739 49.89515 63.11330
#
# Poissons Ratio (x) = 0.13609 0.28961
# Poissons Ratio (y) = 0.09766 0.81518
# Poissons Ratio (z) = 0.16431 0.64445
#
# Static dielectric constant tensor:
#      x y z
#    x 1.616630 0.000000 0.000000 
#    y 0.000000 1.569250 0.000000 
#    z 0.000000 0.000000 1.677240 
# 
# From -- ./inp_files/6772.got.cif
#   From: 2010.05.17/outbox.cif.g08.bks.cpg/sg28_4_cif.got.tgz:6772.got - 2010.06.04 01:15:21.
