data_PCOD9339767
_publ_section_title
;
Structure prediction by ZEFSAII (Michael W. Deem and Ramdas Pophale) SiO2 
 PCOD9339767
Probable space group: P M A 2
;
_chemical_formula_sum "Si O2"
_cell_formula_units_Z 32
_cell_length_a 17.137205
_cell_length_b 8.714186
_cell_length_c 10.913192
_cell_angle_alpha 90.000000
_cell_angle_beta 90.000000
_cell_angle_gamma 90.000000
_cell_volume 1629.741083
_symmetry_space_group_name_H-M "P M A 2"
_symmetry_group_IT_number 28
_symmetry_cell_setting 'orthorhombic'
loop_
_space_group_symop_operation_xyz
x,y,z
-x,-y,z
1/2-x,y,z
1/2+x,-y,z
loop_
_atom_site_type_symbol
_atom_site_label
_atom_site_fract_x
_atom_site_fract_y
_atom_site_fract_z
Si Si1 0.339669 0.928269 0.185240
Si Si2 0.913339 0.441741 0.930598
Si Si3 0.344719 0.570051 0.456298
Si Si4 0.344183 0.923041 0.449449
Si Si5 0.585309 0.074124 0.932376
Si Si6 0.157293 0.389927 0.704463
Si Si7 0.159482 0.554107 0.187648
Si Si8 0.411670 0.063797 0.688846
O O1 0.250000 0.976545 0.179617
O O2 0.373398 0.978623 0.316288
O O3 0.341183 0.741329 0.189310
O O4 0.378935 0.979503 0.060453
O O5 0.914711 0.257564 0.931355
O O6 0.858268 0.504268 0.822714
O O7 0.000000 0.500000 0.906454
O O8 0.885981 0.495180 0.066066
O O9 0.250000 0.572720 0.448273
O O10 0.370454 0.746958 0.469805
O O11 0.363861 0.475910 0.577671
O O12 0.371028 0.507866 0.322811
O O13 0.250000 0.920999 0.442778
O O14 0.370126 0.023999 0.562341
O O15 0.625658 0.019795 0.807078
O O16 0.500000 0.000000 0.927655
O O17 0.250000 0.349252 0.699531
O O18 0.101322 0.242687 0.713883
O O19 0.250000 0.506699 0.175633
O O20 0.500000 0.000000 0.677316
#
# Coordination Sequence:
#
# PCOD9339767 Si02
#       8
#     4   4   4   4   4   4   4   4
#     4   8  16  31  55  82 106 138 185 232 276 331
#     4  11  21  36  57  82 114 148 186 236 289 344
#     4   8  16  33  58  83 107 137 182 234 282 334
#     4   9  17  34  58  82 108 144 187 231 280 341
#     4  10  21  37  55  78 111 149 187 227 281 342
#     4  11  23  39  59  86 116 152 198 247 293 346
#     4   8  15  32  56  81 107 139 181 230 280 339
#     4  11  23  38  53  78 115 153 192 237 291 345
#
# _framework density 19.635020000000001
#
# number of rings (size 3 to 8) (size 9 to 14) (size 15 to 20)
#    0.000    2.500    0.000    4.500    0.000    2.000 
#    0.000    6.875    0.000    3.000    0.000    0.000 
#    0.000    0.000    0.000    0.000    0.000    0.000 
#
# Total GULP energy -178381.970577 kJ/mol
# GULP energy per Si atom -5574.436581 kJ/mol
# Density = 1.959033 g / cm^3
# Si number density = 19.635020 Si / 1000 Ang^3
#
#
#
# Elastic Constant Matrix: (Units=GPa)
#
#
# Indices 1 2 3 4 5 6 
#
# 1 27.7740 4.5825 18.7921 0.0000 0.0000 0.0000
# 2 4.5825 47.9315 29.1351 0.0000 0.0000 0.0000
# 3 18.7921 29.1351 169.3653 0.0000 0.0000 0.0000
# 4 0.0000 0.0000 0.0000 0.7874 0.0000 0.0000
# 5 0.0000 0.0000 0.0000 0.0000 -119.5790 0.0000
# 6 0.0000 0.0000 0.0000 0.0000 0.0000 17.5128
#
#
#
# Elastic Compliance Matrix: (Units=1/GPa)
#
#
# Indices 1 2 3 4 5 6 
#
# 1 0.038992 -0.001226 -0.004115 0.000000 0.000000 0.000000
# 2 -0.001226 0.023338 -0.003879 0.000000 0.000000 0.000000
# 3 -0.004115 -0.003879 0.007028 0.000000 0.000000 0.000000
# 4 0.000000 0.000000 0.000000 1.269950 0.000000 0.000000
# 5 0.000000 0.000000 0.000000 0.000000 -0.008363 0.000000
# 6 0.000000 0.000000 0.000000 0.000000 0.000000 0.057101
#
#
# Mechanical properties :
#
#
# Convention : Reuss Voigt Hill
#
# Bulk Modulus (GPa) = 19.63971 38.89892 29.26931
# Shear Modulus (GPa) = 3.51257 -7.41835 -1.95289
#
# Velocity S-wave (km/s) = 1.33896 -1.94585 -0.99838
# Velocity P-wave (km/s) = 3.52342 3.84780 3.68918
#
# Compressibility (1/GPa) = 0.05091726
#
# Stress axis : x y z
#
# Youngs Moduli (GPa) = 25.64645 42.84856 142.28275
#
# Poissons Ratio (x) = 0.05254 0.58555
# Poissons Ratio (y) = 0.03145 0.55187
# Poissons Ratio (z) = 0.10555 0.16620
#
# Static dielectric constant tensor:
#      x y z
#    x 1.754000 0.000000 0.000000 
#    y 0.000000 1.698720 0.000000 
#    z 0.000000 0.000000 1.726160 
# 
# From -- ./inp_files/5637.got.cif
#   From: 2010.05.17/outbox.cif.g08.bks.cpg/sg28_3_cif.got.tgz:5637.got - 2010.06.04 01:15:21.
