data_PCOD9339072
_publ_section_title
;
Structure prediction by ZEFSAII (Michael W. Deem and Ramdas Pophale) SiO2 
 PCOD9339072
Probable space group: P C C 2
;
_chemical_formula_sum "Si O2"
_cell_formula_units_Z 24
_cell_length_a 5.859445
_cell_length_b 13.330724
_cell_length_c 14.966365
_cell_angle_alpha 90.000000
_cell_angle_beta 90.000000
_cell_angle_gamma 90.000000
_cell_volume 1169.032410
_symmetry_space_group_name_H-M "P C C 2"
_symmetry_group_IT_number 27
_symmetry_cell_setting 'orthorhombic'
loop_
_space_group_symop_operation_xyz
x,y,z
-x,-y,z
-x,y,1/2+z
x,-y,1/2+z
loop_
_atom_site_type_symbol
_atom_site_label
_atom_site_fract_x
_atom_site_fract_y
_atom_site_fract_z
Si Si1 0.500000 0.145967 0.900180
Si Si2 0.825752 0.092087 0.550379
Si Si3 0.247433 0.555203 0.150180
Si Si4 0.790279 0.248731 0.248830
Si Si5 0.825752 0.907913 0.249980
Si Si6 0.790279 0.248731 0.051530
O O1 0.350493 0.212222 0.832627
O O2 0.657769 0.086216 0.832079
O O3 0.342231 0.086216 0.968281
O O4 0.649507 0.212222 0.967733
O O5 0.726082 0.086422 0.650180
O O6 0.961212 0.197949 0.542972
O O7 0.000000 0.000000 0.543384
O O8 0.500000 0.500000 0.150180
O O9 0.229824 0.632400 0.234156
O O10 0.229824 0.632400 0.066204
O O11 0.000000 0.500000 0.150180
O O12 0.708955 0.209664 0.150180
O O13 0.038788 0.197949 0.257388
O O14 0.000000 0.000000 0.256976
#
# Coordination Sequence:
#
# PCOD9339072 Si02
#       6
#     4   4   4   4   4   4
#     4  12  22  39  71 100 142 176 245 292 357 418
#     4  10  23  43  66  99 144 191 232 284 360 442
#     4  10  24  46  79  97 137 193 244 298 380 443
#     4   9  23  40  67  98 136 182 227 292 357 434
#     4  10  23  43  66  99 144 191 232 284 360 442
#     4   9  23  40  67  98 136 182 227 292 357 434
#
# _framework density 20.529799000000001
#
# number of rings (size 3 to 8) (size 9 to 14) (size 15 to 20)
#    1.000    1.000    0.000    2.000    4.667    5.333 
#    0.000    5.833    0.000    3.000    0.000    0.000 
#    0.000    0.000    0.000    0.000    0.000    0.000 
#
# Total GULP energy -133697.760021 kJ/mol
# GULP energy per Si atom -5570.740001 kJ/mol
# Density = 2.048307 g / cm^3
# Si number density = 20.529799 Si / 1000 Ang^3
#
#
#
# Elastic Constant Matrix: (Units=GPa)
#
#
# Indices 1 2 3 4 5 6 
#
# 1 124.9335 74.6987 89.8990 0.0000 0.0000 0.0000
# 2 74.6987 100.2724 45.0057 0.0000 0.0000 0.0000
# 3 89.8990 45.0057 211.5092 0.0000 0.0000 0.0000
# 4 0.0000 0.0000 0.0000 16.0314 0.0000 0.0000
# 5 0.0000 0.0000 0.0000 0.0000 55.2994 0.0000
# 6 0.0000 0.0000 0.0000 0.0000 0.0000 33.3971
#
#
#
# Elastic Compliance Matrix: (Units=1/GPa)
#
#
# Indices 1 2 3 4 5 6 
#
# 1 0.018984 -0.011632 -0.005594 0.000000 0.000000 0.000000
# 2 -0.011632 0.018153 0.001081 0.000000 0.000000 0.000000
# 3 -0.005594 0.001081 0.006875 0.000000 0.000000 0.000000
# 4 0.000000 0.000000 0.000000 0.062377 0.000000 0.000000
# 5 0.000000 0.000000 0.000000 0.000000 0.018083 0.000000
# 6 0.000000 0.000000 0.000000 0.000000 0.000000 0.029943
#
#
# Mechanical properties :
#
#
# Convention : Reuss Voigt Hill
#
# Bulk Modulus (GPa) = 85.29759 95.10242 90.20001
# Shear Modulus (GPa) = 26.23126 36.08637 31.15882
#
# Velocity S-wave (km/s) = 3.57839 4.19711 3.90004
# Velocity P-wave (km/s) = 7.66235 8.36136 8.01947
#
# Compressibility (1/GPa) = 0.01172366
#
# Stress axis : x y z
#
# Youngs Moduli (GPa) = 52.67552 55.08851 145.44478
#
# Poissons Ratio (x) = 0.64077 0.81361
# Poissons Ratio (y) = 0.61270 -0.15727
# Poissons Ratio (z) = 0.29466 -0.05957
#
# Static dielectric constant tensor:
#      x y z
#    x 1.791310 0.000000 0.000000 
#    y 0.000000 1.757160 0.000000 
#    z 0.000000 0.000000 1.703700 
# 
# From -- ./inp_files/3078.got.cif
#   From: 2010.05.17/outbox.cif.g08.bks.cpg/sg27_2_cif.got.tgz:3078.got - 2010.06.04 01:11:05.
