data_PCOD9339744
_publ_section_title
;
Structure prediction by ZEFSAII (Michael W. Deem and Ramdas Pophale) SiO2 
 PCOD9339744
Probable space group: P M A 2
;
_chemical_formula_sum "Si O2"
_cell_formula_units_Z 22
_cell_length_a 14.740871
_cell_length_b 5.189361
_cell_length_c 11.971342
_cell_angle_alpha 90.000000
_cell_angle_beta 90.000000
_cell_angle_gamma 90.000000
_cell_volume 915.756199
_symmetry_space_group_name_H-M "P M A 2"
_symmetry_group_IT_number 28
_symmetry_cell_setting 'orthorhombic'
loop_
_space_group_symop_operation_xyz
x,y,z
-x,-y,z
1/2-x,y,z
1/2+x,-y,z
loop_
_atom_site_type_symbol
_atom_site_label
_atom_site_fract_x
_atom_site_fract_y
_atom_site_fract_z
Si Si1 0.859768 0.573301 0.770740
Si Si2 0.558966 0.262759 0.982287
Si Si3 0.152745 0.165747 0.419968
Si Si4 0.355845 0.911546 0.652078
Si Si5 0.400110 0.873061 0.207912
Si Si6 0.500000 0.500000 0.355243
O O1 0.750000 0.593354 0.780756
O O2 0.896238 0.420591 0.879981
O O3 0.893192 0.854604 0.729369
O O4 0.889734 0.372471 0.676026
O O5 0.500000 0.500000 0.034241
O O6 0.500000 0.000000 0.954816
O O7 0.627983 0.175599 0.080671
O O8 0.250000 0.305006 0.437783
O O9 0.144981 0.966974 0.521311
O O10 0.057293 0.306727 0.427653
O O11 0.153528 0.043601 0.296202
O O12 0.250000 0.902719 0.685601
O O13 0.422028 0.616353 0.276258
O O14 0.500000 0.000000 0.196451
#
# Coordination Sequence:
#
# PCOD9339744 Si02
#       6
#     4   4   4   4   4   2
#     4  10  21  40  62  87 123 166 210 264 321 382
#     4  11  22  40  63  91 126 168 211 264 332 385
#     4  10  22  39  63  94 127 173 221 272 339 407
#     4   9  20  39  61  87 125 166 207 264 329 382
#     4   9  20  38  60  83 124 165 205 264 330 385
#     4  10  20  40  60  92 124 166 212 266 336 388
#
# _framework density 24.023862000000001
#
# number of rings (size 3 to 8) (size 9 to 14) (size 15 to 20)
#    0.000    2.182    0.909    1.091    2.545    1.455 
#    4.909    0.000    0.000    0.000    0.000    0.000 
#    0.000    0.000    0.000    0.000    0.000    0.000 
#
# Total GULP energy -122530.452632 kJ/mol
# GULP energy per Si atom -5569.566029 kJ/mol
# Density = 2.396918 g / cm^3
# Si number density = 24.023862 Si / 1000 Ang^3
#
#
#
# Elastic Constant Matrix: (Units=GPa)
#
#
# Indices 1 2 3 4 5 6 
#
# 1 70.8472 13.8764 15.2603 0.0000 0.0000 0.0000
# 2 13.8764 92.1348 0.4828 0.0000 0.0000 0.0000
# 3 15.2603 0.4828 91.4012 0.0000 0.0000 0.0000
# 4 0.0000 0.0000 0.0000 29.2767 0.0000 0.0000
# 5 0.0000 0.0000 0.0000 0.0000 25.9233 0.0000
# 6 0.0000 0.0000 0.0000 0.0000 0.0000 14.6673
#
#
#
# Elastic Compliance Matrix: (Units=1/GPa)
#
#
# Indices 1 2 3 4 5 6 
#
# 1 0.015098 -0.002261 -0.002509 0.000000 0.000000 0.000000
# 2 -0.002261 0.011192 0.000318 0.000000 0.000000 0.000000
# 3 -0.002509 0.000318 0.011358 0.000000 0.000000 0.000000
# 4 0.000000 0.000000 0.000000 0.034157 0.000000 0.000000
# 5 0.000000 0.000000 0.000000 0.000000 0.038575 0.000000
# 6 0.000000 0.000000 0.000000 0.000000 0.000000 0.068179
#
#
# Mechanical properties :
#
#
# Convention : Reuss Voigt Hill
#
# Bulk Modulus (GPa) = 34.78744 34.84692 34.81718
# Shear Modulus (GPa) = 25.37500 28.95771 27.16636
#
# Velocity S-wave (km/s) = 3.25351 3.47561 3.36640
# Velocity P-wave (km/s) = 5.35029 5.53563 5.44375
#
# Compressibility (1/GPa) = 0.02874600
#
# Stress axis : x y z
#
# Youngs Moduli (GPa) = 66.23362 89.34564 88.04396
#
# Poissons Ratio (x) = 0.20199 0.22089
# Poissons Ratio (y) = 0.14974 -0.02803
# Poissons Ratio (z) = 0.16617 -0.02844
#
# Static dielectric constant tensor:
#      x y z
#    x 1.936240 0.000000 0.000000 
#    y 0.000000 2.037540 0.000000 
#    z 0.000000 0.000000 1.962320 
# 
# From -- ./inp_files/5462.got.cif
#   From: 2010.05.17/outbox.cif.g08.bks.cpg/sg28_3_cif.got.tgz:5462.got - 2010.06.04 01:15:21.
