data_PCOD9339833
_publ_section_title
;
Structure prediction by ZEFSAII (Michael W. Deem and Ramdas Pophale) SiO2 
 PCOD9339833
Probable space group: P M A 2
;
_chemical_formula_sum "Si O2"
_cell_formula_units_Z 20
_cell_length_a 23.139922
_cell_length_b 6.022021
_cell_length_c 6.900707
_cell_angle_alpha 90.000000
_cell_angle_beta 90.000000
_cell_angle_gamma 90.000000
_cell_volume 961.607284
_symmetry_space_group_name_H-M "P M A 2"
_symmetry_group_IT_number 28
_symmetry_cell_setting 'orthorhombic'
loop_
_space_group_symop_operation_xyz
x,y,z
-x,-y,z
1/2-x,y,z
1/2+x,-y,z
loop_
_atom_site_type_symbol
_atom_site_label
_atom_site_fract_x
_atom_site_fract_y
_atom_site_fract_z
Si Si1 0.183450 0.092395 0.014030
Si Si2 0.388381 0.054772 0.639045
Si Si3 0.112330 0.381035 0.309557
Si Si4 0.000000 0.500000 0.097726
Si Si5 0.500000 0.000000 0.891811
Si Si6 0.314518 0.773627 0.346413
O O1 0.250000 0.171143 0.030272
O O2 0.136459 0.223653 0.140547
O O3 0.181733 0.854047 0.123116
O O4 0.161764 0.097179 0.795566
O O5 0.443183 0.976091 0.759922
O O6 0.361470 0.890424 0.481069
O O7 0.406278 0.262107 0.506601
O O8 0.058489 0.514368 0.223751
O O9 0.169316 0.519921 0.358403
O O10 0.995657 0.751598 0.997289
O O11 0.250000 0.827317 0.413387
#
# Coordination Sequence:
#
# PCOD9339833 Si02
#       6
#     4   4   4   2   2   4
#     4  10  21  44  68  98 139 182 230 290 354 423
#     4  11  25  42  69 102 139 184 238 295 354 423
#     4  11  25  42  69 100 139 187 236 296 356 421
#     4  12  28  48  74 102 146 192 244 300 360 426
#     4  12  28  48  74 104 144 192 246 296 360 428
#     4  10  23  42  68 101 140 183 233 291 358 426
#
# _framework density 20.798511000000001
#
# number of rings (size 3 to 8) (size 9 to 14) (size 15 to 20)
#    0.000    1.200    2.000    2.400    8.400    4.000 
#    0.000    0.000    0.000    0.000    0.000    0.000 
#    0.000    0.000    0.000    0.000    0.000    0.000 
#
# Total GULP energy -111362.237438 kJ/mol
# GULP energy per Si atom -5568.111872 kJ/mol
# Density = 2.075117 g / cm^3
# Si number density = 20.798511 Si / 1000 Ang^3
#
#
#
# Elastic Constant Matrix: (Units=GPa)
#
#
# Indices 1 2 3 4 5 6 
#
# 1 115.0259 11.1357 28.5634 0.0000 0.0000 0.0000
# 2 11.1357 64.2808 28.4896 0.0000 0.0000 0.0000
# 3 28.5634 28.4896 104.4573 0.0000 0.0000 0.0000
# 4 0.0000 0.0000 0.0000 7.1702 0.0000 0.0000
# 5 0.0000 0.0000 0.0000 0.0000 37.6106 0.0000
# 6 0.0000 0.0000 0.0000 0.0000 0.0000 28.8592
#
#
#
# Elastic Compliance Matrix: (Units=1/GPa)
#
#
# Indices 1 2 3 4 5 6 
#
# 1 0.009344 -0.000553 -0.002404 0.000000 0.000000 0.000000
# 2 -0.000553 0.017729 -0.004684 0.000000 0.000000 0.000000
# 3 -0.002404 -0.004684 0.011508 0.000000 0.000000 0.000000
# 4 0.000000 0.000000 0.000000 0.139467 0.000000 0.000000
# 5 0.000000 0.000000 0.000000 0.000000 0.026588 0.000000
# 6 0.000000 0.000000 0.000000 0.000000 0.000000 0.034651
#
#
# Mechanical properties :
#
#
# Convention : Reuss Voigt Hill
#
# Bulk Modulus (GPa) = 42.92182 46.68236 44.80209
# Shear Modulus (GPa) = 19.05951 29.09968 24.07960
#
# Velocity S-wave (km/s) = 3.03047 3.74454 3.40627
# Velocity P-wave (km/s) = 5.73819 6.41789 6.08753
#
# Compressibility (1/GPa) = 0.02329817
#
# Stress axis : x y z
#
# Youngs Moduli (GPa) = 107.01728 56.40617 86.89420
#
# Poissons Ratio (x) = 0.03120 0.20892
# Poissons Ratio (y) = 0.05920 0.40701
# Poissons Ratio (z) = 0.25730 0.26421
#
# Static dielectric constant tensor:
#      x y z
#    x 1.722930 0.000000 0.000000 
#    y 0.000000 1.861680 0.000000 
#    z 0.000000 0.000000 1.722180 
# 
# From -- ./inp_files/1696.got.cif
#   From: 2010.05.17/outbox.cif.g08.bks.cpg/sg28_1_cif.got.tgz:1696.got - 2010.06.04 01:15:21.
