data_PCOD9339439
_publ_section_title
;
Structure prediction by ZEFSAII (Michael W. Deem and Ramdas Pophale) SiO2 
 PCOD9339439
Probable space group: P M A 2
;
_chemical_formula_sum "Si O2"
_cell_formula_units_Z 32
_cell_length_a 9.055137
_cell_length_b 16.816419
_cell_length_c 11.378064
_cell_angle_alpha 90.000000
_cell_angle_beta 90.000000
_cell_angle_gamma 90.000000
_cell_volume 1732.594444
_symmetry_space_group_name_H-M "P M A 2"
_symmetry_group_IT_number 28
_symmetry_cell_setting 'orthorhombic'
loop_
_space_group_symop_operation_xyz
x,y,z
-x,-y,z
1/2-x,y,z
1/2+x,-y,z
loop_
_atom_site_type_symbol
_atom_site_label
_atom_site_fract_x
_atom_site_fract_y
_atom_site_fract_z
Si Si1 0.571721 0.917319 0.093000
Si Si2 0.082485 0.617552 0.794271
Si Si3 0.078815 0.075512 0.822481
Si Si4 0.427377 0.586766 0.071305
Si Si5 0.587651 0.203786 0.696489
Si Si6 0.922472 0.272574 0.445792
Si Si7 0.428046 0.257272 0.197431
Si Si8 0.576530 0.578282 0.565813
O O1 0.750000 0.924956 0.101585
O O2 0.533190 0.829871 0.143474
O O3 0.500000 0.000000 0.140889
O O4 0.525041 0.913566 0.956148
O O5 0.250000 0.588066 0.766606
O O6 0.084315 0.710817 0.760701
O O7 0.963354 0.583259 0.704175
O O8 0.052101 0.601009 0.930563
O O9 0.250000 0.060117 0.828694
O O10 0.041205 0.152226 0.748851
O O11 0.000000 0.000000 0.767854
O O12 0.500000 0.500000 0.100673
O O13 0.250000 0.584348 0.093677
O O14 0.498589 0.664153 0.136410
O O15 0.750000 0.168504 0.722277
O O16 0.573080 0.212833 0.556460
O O17 0.750000 0.285260 0.416728
O O18 0.013431 0.252396 0.330430
O O19 0.995562 0.350167 0.501702
O O20 0.250000 0.266116 0.191423
O O21 0.500000 0.500000 0.517822
O O22 0.750000 0.579953 0.547640
#
# Coordination Sequence:
#
# PCOD9339439 Si02
#       8
#     4   4   4   4   4   4   4   4
#     4   9  20  37  59  88 118 147 183 229 279 335
#     4   9  19  35  55  81 112 145 182 226 279 337
#     4  10  19  32  53  82 114 144 175 215 267 327
#     4  11  23  38  57  83 116 155 195 236 285 339
#     4   9  18  34  55  79 108 140 176 221 272 329
#     4  10  22  40  58  78 106 142 186 230 275 330
#     4  11  23  40  60  84 114 149 193 241 287 336
#     4  11  21  34  55  81 109 142 181 228 280 331
#
# _framework density 18.469411000000001
#
# number of rings (size 3 to 8) (size 9 to 14) (size 15 to 20)
#    0.000    2.000    0.000    4.500    0.000    6.500 
#    0.000    3.125    0.000    1.500    0.000    0.000 
#    0.000    0.000    0.000    0.000    0.000    0.000 
#
# Total GULP energy -178369.311369 kJ/mol
# GULP energy per Si atom -5574.040980 kJ/mol
# Density = 1.842737 g / cm^3
# Si number density = 18.469411 Si / 1000 Ang^3
#
#
#
# Elastic Constant Matrix: (Units=GPa)
#
#
# Indices 1 2 3 4 5 6 
#
# 1 65.8790 49.2446 24.0895 0.0000 0.0000 0.0000
# 2 49.2446 112.0772 38.7768 0.0000 0.0000 0.0000
# 3 24.0895 38.7768 56.6255 0.0000 0.0000 0.0000
# 4 0.0000 0.0000 0.0000 6.0753 0.0000 0.0000
# 5 0.0000 0.0000 0.0000 0.0000 27.8357 0.0000
# 6 0.0000 0.0000 0.0000 0.0000 0.0000 35.4659
#
#
#
# Elastic Compliance Matrix: (Units=1/GPa)
#
#
# Indices 1 2 3 4 5 6 
#
# 1 0.023207 -0.008886 -0.003787 0.000000 0.000000 0.000000
# 2 -0.008886 0.015095 -0.006557 0.000000 0.000000 0.000000
# 3 -0.003787 -0.006557 0.023761 0.000000 0.000000 0.000000
# 4 0.000000 0.000000 0.000000 0.164600 0.000000 0.000000
# 5 0.000000 0.000000 0.000000 0.000000 0.035925 0.000000
# 6 0.000000 0.000000 0.000000 0.000000 0.000000 0.028196
#
#
# Mechanical properties :
#
#
# Convention : Reuss Voigt Hill
#
# Bulk Modulus (GPa) = 42.36851 50.97819 46.67335
# Shear Modulus (GPa) = 14.83184 22.04010 18.43597
#
# Velocity S-wave (km/s) = 2.83689 3.45821 3.16284
# Velocity P-wave (km/s) = 5.80691 6.60356 6.21800
#
# Compressibility (1/GPa) = 0.02360243
#
# Stress axis : x y z
#
# Youngs Moduli (GPa) = 43.09100 66.24509 42.08543
#
# Poissons Ratio (x) = 0.58867 0.15939
# Poissons Ratio (y) = 0.38292 0.27595
# Poissons Ratio (z) = 0.16320 0.43436
#
# Static dielectric constant tensor:
#      x y z
#    x 1.624670 0.000000 0.000000 
#    y 0.000000 1.663040 0.000000 
#    z 0.000000 0.000000 1.640860 
# 
# From -- ./inp_files/5027.got.cif
#   From: 2010.05.17/outbox.cif.g08.bks.cpg/sg28_3_cif.got.tgz:5027.got - 2010.06.04 01:15:21.
