data_PCOD9339797
_publ_section_title
;
Structure prediction by ZEFSAII (Michael W. Deem and Ramdas Pophale) SiO2 
 PCOD9339797
Probable space group: P M A 2
;
_chemical_formula_sum "Si O2"
_cell_formula_units_Z 30
_cell_length_a 15.622936
_cell_length_b 11.008702
_cell_length_c 8.384991
_cell_angle_alpha 90.000000
_cell_angle_beta 90.000000
_cell_angle_gamma 90.000000
_cell_volume 1442.119901
_symmetry_space_group_name_H-M "P M A 2"
_symmetry_group_IT_number 28
_symmetry_cell_setting 'orthorhombic'
loop_
_space_group_symop_operation_xyz
x,y,z
-x,-y,z
1/2-x,y,z
1/2+x,-y,z
loop_
_atom_site_type_symbol
_atom_site_label
_atom_site_fract_x
_atom_site_fract_y
_atom_site_fract_z
Si Si1 0.848033 0.033446 0.029500
Si Si2 0.849525 0.519538 0.860102
Si Si3 0.846512 0.586830 0.500887
Si Si4 0.154901 0.694824 0.459514
Si Si5 0.088284 0.229372 0.962860
Si Si6 0.088561 0.741093 0.819862
Si Si7 0.520841 0.754218 0.320600
Si Si8 0.000000 0.000000 0.281696
O O1 0.750000 0.040709 0.086274
O O2 0.920295 0.035916 0.167425
O O3 0.866099 0.147509 0.912288
O O4 0.861665 0.898479 0.951789
O O5 0.750000 0.484586 0.856290
O O6 0.873431 0.565389 0.683324
O O7 0.861449 0.642842 0.958641
O O8 0.898360 0.394117 0.897561
O O9 0.750000 0.640887 0.495251
O O10 0.840121 0.449984 0.439397
O O11 0.917259 0.661030 0.407090
O O12 0.250000 0.745436 0.430987
O O13 0.125110 0.726659 0.640576
O O14 0.078504 0.729100 0.344157
O O15 0.012229 0.231819 0.833484
O O16 0.044759 0.233649 0.136434
O O17 0.532314 0.889520 0.387860
#
# Coordination Sequence:
#
# PCOD9339797 Si02
#       8
#     4   4   4   4   4   4   4   2
#     4  11  21  41  66  88 124 167 206 258 318 378
#     4  10  21  38  61  96 127 160 212 266 315 378
#     4   9  20  39  63  89 126 167 205 254 320 379
#     4  10  22  40  62  91 123 163 209 258 316 382
#     4  11  23  39  61  94 128 165 210 262 323 377
#     4  11  20  41  65  91 124 163 212 262 321 377
#     4  11  22  41  60  84 127 166 205 253 314 369
#     4  10  24  44  56  92 124 166 212 256 312 378
#
# _framework density 20.802710000000001
#
# number of rings (size 3 to 8) (size 9 to 14) (size 15 to 20)
#    0.000    1.600    2.667    4.000    0.000    7.467 
#    4.800    1.333    0.000    0.000    0.000    0.000 
#    0.000    0.000    0.000    0.000    0.000    0.000 
#
# Total GULP energy -167287.499269 kJ/mol
# GULP energy per Si atom -5576.249976 kJ/mol
# Density = 2.075536 g / cm^3
# Si number density = 20.802710 Si / 1000 Ang^3
#
#
#
# Elastic Constant Matrix: (Units=GPa)
#
#
# Indices 1 2 3 4 5 6 
#
# 1 114.1043 45.2430 37.2911 0.0000 0.0000 0.0000
# 2 45.2430 123.8481 31.2832 0.0000 0.0000 0.0000
# 3 37.2911 31.2832 19.9538 0.0000 0.0000 0.0000
# 4 0.0000 0.0000 0.0000 32.0491 0.0000 0.0000
# 5 0.0000 0.0000 0.0000 0.0000 -3.4521 0.0000
# 6 0.0000 0.0000 0.0000 0.0000 0.0000 0.5171
#
#
#
# Elastic Compliance Matrix: (Units=1/GPa)
#
#
# Indices 1 2 3 4 5 6 
#
# 1 0.023767 0.004201 -0.051004 0.000000 0.000000 0.000000
# 2 0.004201 0.014111 -0.029974 0.000000 0.000000 0.000000
# 3 -0.051004 -0.029974 0.192427 0.000000 0.000000 0.000000
# 4 0.000000 0.000000 0.000000 0.031202 0.000000 0.000000
# 5 0.000000 0.000000 0.000000 0.000000 -0.289680 0.000000
# 6 0.000000 0.000000 0.000000 0.000000 0.000000 1.933760
#
#
# Mechanical properties :
#
#
# Convention : Reuss Voigt Hill
#
# Bulk Modulus (GPa) = 13.02890 53.94899 33.48894
# Shear Modulus (GPa) = 2.39840 15.42875 8.91357
#
# Velocity S-wave (km/s) = 1.07491 2.72632 2.07222
# Velocity P-wave (km/s) = 2.79593 5.99169 4.67534
#
# Compressibility (1/GPa) = 0.07675245
#
# Stress axis : x y z
#
# Youngs Moduli (GPa) = 42.07504 70.86692 5.19676
#
# Poissons Ratio (x) = -0.29770 0.26505
# Poissons Ratio (y) = -0.17675 0.15577
# Poissons Ratio (z) = 2.14598 2.12414
#
# Static dielectric constant tensor:
#      x y z
#    x 1.763720 0.000000 0.000000 
#    y 0.000000 1.793410 0.000000 
#    z 0.000000 0.000000 1.751860 
# 
# From -- ./inp_files/3494.got.cif
#   From: 2010.05.17/outbox.cif.g08.bks.cpg/sg28_2_cif.got.tgz:3494.got - 2010.06.04 01:15:21.
