data_PCOD9339230
_publ_section_title
;
Structure prediction by ZEFSAII (Michael W. Deem and Ramdas Pophale) SiO2 
 PCOD9339230
Probable space group: P C C 2
;
_chemical_formula_sum "Si O2"
_cell_formula_units_Z 24
_cell_length_a 9.000000
_cell_length_b 15.000000
_cell_length_c 9.000000
_cell_angle_alpha 90.000000
_cell_angle_beta 90.000000
_cell_angle_gamma 90.000000
_cell_volume 1215.000000
_symmetry_space_group_name_H-M "P C C 2"
_symmetry_group_IT_number 27
_symmetry_cell_setting 'orthorhombic'
loop_
_space_group_symop_operation_xyz
x,y,z
-x,-y,z
-x,y,1/2+z
x,-y,1/2+z
loop_
_atom_site_type_symbol
_atom_site_label
_atom_site_fract_x
_atom_site_fract_y
_atom_site_fract_z
Si Si1 0.633270 0.734123 0.423780
Si Si2 0.331775 0.465795 0.494370
Si Si3 0.838820 0.910947 0.931015
Si Si4 0.689492 0.744594 0.773512
Si Si5 0.148131 0.436930 0.775039
Si Si6 0.829584 0.101740 0.793838
O O1 0.693245 0.631692 0.419920
O O2 0.644276 0.757027 0.600119
O O3 0.465519 0.722778 0.359699
O O4 0.727607 0.812228 0.339457
O O5 0.500000 0.500000 0.476626
O O6 0.285013 0.460077 0.665349
O O7 0.208206 0.531927 0.432276
O O8 0.743257 0.833251 0.856166
O O9 0.005197 0.892336 0.866522
O O10 0.781259 0.006888 0.868398
O O11 0.837740 0.907408 0.112645
O O12 0.827444 0.671661 0.776076
O O13 0.000000 0.500000 0.744319
#
# Coordination Sequence:
#
# PCOD9339230 Si02
#       6
#     4   4   4   4   4   4
#     4  11  24  41  65  98 130 182 225 286 340 418
#     4  11  23  43  67  93 135 181 230 282 348 416
#     4  11  23  43  69 101 137 180 221 285 341 417
#     4  11  24  43  64  99 135 176 234 283 351 411
#     4  11  25  42  65  98 134 177 232 288 344 415
#     4  11  23  43  70  99 139 177 228 276 349 414
#
# _framework density 19.753086
#
# number of rings (size 3 to 8) (size 9 to 14) (size 15 to 20)
#    0.000    1.000    1.667    6.000    4.667    2.000 
#    0.000    3.333    0.000    0.000    0.000    0.000 
#    0.000    0.000    0.000    0.000    0.000    0.000 
#
# Total GULP energy -133669.219689 kJ/mol
# GULP energy per Si atom -5569.550820 kJ/mol
# Density = 1.970813 g / cm^3
# Si number density = 19.753086 Si / 1000 Ang^3
#
#
#
# Elastic Constant Matrix: (Units=GPa)
#
#
# Indices 1 2 3 4 5 6 
#
# 1 73.5354 23.6478 9.0670 0.0000 0.0000 0.0000
# 2 23.6478 95.7973 36.6840 0.0000 0.0000 0.0000
# 3 9.0670 36.6840 136.8130 0.0000 0.0000 0.0000
# 4 0.0000 0.0000 0.0000 38.5164 0.0000 0.0000
# 5 0.0000 0.0000 0.0000 0.0000 39.1077 0.0000
# 6 0.0000 0.0000 0.0000 0.0000 0.0000 48.0275
#
#
#
# Elastic Compliance Matrix: (Units=1/GPa)
#
#
# Indices 1 2 3 4 5 6 
#
# 1 0.014772 -0.003646 -0.000001 0.000000 0.000000 0.000000
# 2 -0.003646 0.012533 -0.003119 0.000000 0.000000 0.000000
# 3 -0.000001 -0.003119 0.008146 0.000000 0.000000 0.000000
# 4 0.000000 0.000000 0.000000 0.025963 0.000000 0.000000
# 5 0.000000 0.000000 0.000000 0.000000 0.025570 0.000000
# 6 0.000000 0.000000 0.000000 0.000000 0.000000 0.020821
#
#
# Mechanical properties :
#
#
# Convention : Reuss Voigt Hill
#
# Bulk Modulus (GPa) = 45.62478 49.43812 47.53145
# Shear Modulus (GPa) = 38.86720 40.91344 39.89032
#
# Velocity S-wave (km/s) = 4.44063 4.55603 4.49870
# Velocity P-wave (km/s) = 7.03136 7.26353 7.14839
#
# Compressibility (1/GPa) = 0.02191791
#
# Stress axis : x y z
#
# Youngs Moduli (GPa) = 67.69786 79.78925 122.76546
#
# Poissons Ratio (x) = 0.29090 0.00017
# Poissons Ratio (y) = 0.24682 0.38289
# Poissons Ratio (z) = 0.00009 0.24885
#
# Static dielectric constant tensor:
#      x y z
#    x 1.694950 0.000000 0.000000 
#    y 0.000000 1.761810 0.000000 
#    z 0.000000 0.000000 1.689180 
# 
# From -- ./inp_files/1151.got.cif
#   From: 2010.05.17/outbox.ucp.g08.bks.cvg/sg27_1_cif.got.tgz:1151.got - 2010.06.11 15:23:43.
