data_PCOD9339735
_publ_section_title
;
Structure prediction by ZEFSAII (Michael W. Deem and Ramdas Pophale) SiO2 
 PCOD9339735
Probable space group: P M A 2
;
_chemical_formula_sum "Si O2"
_cell_formula_units_Z 32
_cell_length_a 17.766548
_cell_length_b 15.865500
_cell_length_c 5.367176
_cell_angle_alpha 90.000000
_cell_angle_beta 90.000000
_cell_angle_gamma 90.000000
_cell_volume 1512.873633
_symmetry_space_group_name_H-M "P M A 2"
_symmetry_group_IT_number 28
_symmetry_cell_setting 'orthorhombic'
loop_
_space_group_symop_operation_xyz
x,y,z
-x,-y,z
1/2-x,y,z
1/2+x,-y,z
loop_
_atom_site_type_symbol
_atom_site_label
_atom_site_fract_x
_atom_site_fract_y
_atom_site_fract_z
Si Si1 0.071425 0.041054 0.509520
Si Si2 0.668454 0.846336 0.219371
Si Si3 0.117000 0.788100 0.095415
Si Si4 0.159357 0.503087 0.558511
Si Si5 0.840916 0.406799 0.063464
Si Si6 0.336984 0.304920 0.604240
Si Si7 0.455760 0.190286 0.855469
Si Si8 0.837256 0.114790 0.608785
O O1 0.148917 0.078260 0.402273
O O2 0.034689 0.124669 0.631165
O O3 0.106363 0.963188 0.662250
O O4 0.000000 0.000000 0.363145
O O5 0.750000 0.853542 0.104432
O O6 0.663138 0.757109 0.364186
O O7 0.602651 0.857530 0.027737
O O8 0.158572 0.828357 0.856658
O O9 0.029605 0.791425 0.012277
O O10 0.139532 0.690374 0.105105
O O11 0.135513 0.835860 0.355806
O O12 0.250000 0.514713 0.557634
O O13 0.129961 0.542238 0.302673
O O14 0.148123 0.402814 0.558918
O O15 0.131169 0.551790 0.804720
O O16 0.750000 0.413903 0.058300
O O17 0.250000 0.298174 0.705841
O O18 0.405619 0.269624 0.768543
O O19 0.750000 0.091013 0.569551
#
# Coordination Sequence:
#
# PCOD9339735 Si02
#       8
#     4   4   4   4   4   4   4   4
#     4  11  23  43  62  94 131 174 217 274 332 404
#     4  10  22  39  65  93 127 170 223 278 330 393
#     4  12  26  45  69  99 138 182 224 277 342 405
#     4   9  19  36  65  97 128 168 219 275 328 385
#     4  10  20  38  64  95 129 170 221 276 326 385
#     4   9  20  39  64  97 130 172 227 276 331 402
#     4  11  24  40  67  93 137 179 215 274 342 410
#     4  12  26  45  71 100 132 177 232 283 330 395
#
# _framework density 21.151797999999999
#
# number of rings (size 3 to 8) (size 9 to 14) (size 15 to 20)
#    0.000    1.500    1.250    3.375    5.250    3.000 
#    0.000    0.625    0.000    0.000    0.000    0.000 
#    0.000    0.000    0.000    0.000    0.000    0.000 
#
# Total GULP energy -178324.788832 kJ/mol
# GULP energy per Si atom -5572.649651 kJ/mol
# Density = 2.110366 g / cm^3
# Si number density = 21.151798 Si / 1000 Ang^3
#
#
#
# Elastic Constant Matrix: (Units=GPa)
#
#
# Indices 1 2 3 4 5 6 
#
# 1 60.2431 -6.8017 5.1921 0.0000 0.0000 0.0000
# 2 -6.8017 86.3615 18.6116 0.0000 0.0000 0.0000
# 3 5.1921 18.6116 70.8544 0.0000 0.0000 0.0000
# 4 0.0000 0.0000 0.0000 -73.2557 0.0000 0.0000
# 5 0.0000 0.0000 0.0000 0.0000 21.1757 0.0000
# 6 0.0000 0.0000 0.0000 0.0000 0.0000 38.0646
#
#
#
# Elastic Compliance Matrix: (Units=1/GPa)
#
#
# Indices 1 2 3 4 5 6 
#
# 1 0.016936 0.001697 -0.001687 0.000000 0.000000 0.000000
# 2 0.001697 0.012444 -0.003393 0.000000 0.000000 0.000000
# 3 -0.001687 -0.003393 0.015128 0.000000 0.000000 0.000000
# 4 0.000000 0.000000 0.000000 -0.013651 0.000000 0.000000
# 5 0.000000 0.000000 0.000000 0.000000 0.047224 0.000000
# 6 0.000000 0.000000 0.000000 0.000000 0.000000 0.026271
#
#
# Mechanical properties :
#
#
# Convention : Reuss Voigt Hill
#
# Bulk Modulus (GPa) = 26.49448 27.94031 27.21740
# Shear Modulus (GPa) = 40.42047 10.56074 25.49060
#
# Velocity S-wave (km/s) = 4.37621 2.23689 3.47526
# Velocity P-wave (km/s) = 6.17155 4.46202 5.38506
#
# Compressibility (1/GPa) = 0.03774371
#
# Stress axis : x y z
#
# Youngs Moduli (GPa) = 59.04419 80.35890 66.10099
#
# Poissons Ratio (x) = -0.13641 0.11151
# Poissons Ratio (y) = -0.10022 0.22429
# Poissons Ratio (z) = 0.09960 0.27267
#
# Static dielectric constant tensor:
#      x y z
#    x 1.763730 0.000000 0.000000 
#    y 0.000000 1.764190 0.000000 
#    z 0.000000 0.000000 1.963590 
# 
# From -- ./inp_files/1226.got.cif
#   From: 2010.05.17/outbox.cif.g08.bks.cpg/sg28_1_cif.got.tgz:1226.got - 2010.06.04 01:15:21.
