data_PCOD9339464
_publ_section_title
;
Structure prediction by ZEFSAII (Michael W. Deem and Ramdas Pophale) SiO2 
 PCOD9339464
Probable space group: P M A 2
;
_chemical_formula_sum "Si O2"
_cell_formula_units_Z 28
_cell_length_a 8.719852
_cell_length_b 14.824968
_cell_length_c 13.063187
_cell_angle_alpha 90.000000
_cell_angle_beta 90.000000
_cell_angle_gamma 90.000000
_cell_volume 1688.698129
_symmetry_space_group_name_H-M "P M A 2"
_symmetry_group_IT_number 28
_symmetry_cell_setting 'orthorhombic'
loop_
_space_group_symop_operation_xyz
x,y,z
-x,-y,z
1/2-x,y,z
1/2+x,-y,z
loop_
_atom_site_type_symbol
_atom_site_label
_atom_site_fract_x
_atom_site_fract_y
_atom_site_fract_z
Si Si1 0.934592 0.401509 0.652980
Si Si2 0.065768 0.599284 0.418278
Si Si3 0.564056 0.288135 0.847186
Si Si4 0.434118 0.399288 0.038594
Si Si5 0.566185 0.096237 0.163751
Si Si6 0.933768 0.718604 0.238496
Si Si7 0.434095 0.904743 0.923817
O O1 0.750000 0.406818 0.655283
O O2 0.979150 0.379760 0.536040
O O3 0.983179 0.330049 0.738565
O O4 0.000000 0.500000 0.678608
O O5 0.250000 0.596841 0.411731
O O6 0.000000 0.500000 0.394230
O O7 0.999861 0.670315 0.338435
O O8 0.750000 0.290771 0.853476
O O9 0.515404 0.184632 0.864101
O O10 0.498539 0.348716 0.938870
O O11 0.500000 0.500000 0.045193
O O12 0.250000 0.403357 0.032983
O O13 0.477428 0.341461 0.139099
O O14 0.750000 0.095581 0.169999
O O15 0.499380 0.181485 0.223017
O O16 0.500000 0.000000 0.198321
O O17 0.521933 0.106642 0.043512
O O18 0.750000 0.721628 0.243313
O O19 0.250000 0.909560 0.919828
O O20 0.500000 0.000000 0.887269
#
# Coordination Sequence:
#
# PCOD9339464 Si02
#       7
#     4   4   4   4   4   4   4
#     4   9  19  34  53  75 101 133 173 215 256 304
#     4  10  20  35  54  76 101 135 176 219 262 307
#     4  10  19  34  53  75 103 135 170 209 256 307
#     4  11  23  34  47  71 104 137 168 204 252 307
#     4  10  19  33  53  77 105 138 172 212 258 308
#     4  11  22  35  52  76 104 137 174 215 258 308
#     4   9  18  31  50  74 102 135 168 206 250 301
#
# _framework density 16.580819999999999
#
# number of rings (size 3 to 8) (size 9 to 14) (size 15 to 20)
#    0.000    2.000    1.429    2.571    0.000    6.286 
#    0.000    0.000    0.000    0.857    0.000    2.000 
#    0.000    0.000    0.000    0.000    0.000    0.000 
#
# Total GULP energy -156302.104372 kJ/mol
# GULP energy per Si atom -5582.218013 kJ/mol
# Density = 1.654308 g / cm^3
# Si number density = 16.580820 Si / 1000 Ang^3
#
#
#
# Elastic Constant Matrix: (Units=GPa)
#
#
# Indices 1 2 3 4 5 6 
#
# 1 31.0402 44.2980 33.1570 0.0000 0.0000 0.0000
# 2 44.2980 185.8044 96.6865 0.0000 0.0000 0.0000
# 3 33.1570 96.6865 101.7336 0.0000 0.0000 0.0000
# 4 0.0000 0.0000 0.0000 21.8448 0.0000 0.0000
# 5 0.0000 0.0000 0.0000 0.0000 9.2259 0.0000
# 6 0.0000 0.0000 0.0000 0.0000 0.0000 31.7960
#
#
#
# Elastic Compliance Matrix: (Units=1/GPa)
#
#
# Indices 1 2 3 4 5 6 
#
# 1 0.054075 -0.007362 -0.010627 0.000000 0.000000 0.000000
# 2 -0.007362 0.011650 -0.008673 0.000000 0.000000 0.000000
# 3 -0.010627 -0.008673 0.021536 0.000000 0.000000 0.000000
# 4 0.000000 0.000000 0.000000 0.045777 0.000000 0.000000
# 5 0.000000 0.000000 0.000000 0.000000 0.108390 0.000000
# 6 0.000000 0.000000 0.000000 0.000000 0.000000 0.031450
#
#
# Mechanical properties :
#
#
# Convention : Reuss Voigt Hill
#
# Bulk Modulus (GPa) = 29.46672 74.09568 51.78120
# Shear Modulus (GPa) = 14.81413 22.20246 18.50829
#
# Velocity S-wave (km/s) = 2.99231 3.66327 3.34465
# Velocity P-wave (km/s) = 5.45423 7.91690 6.79801
#
# Compressibility (1/GPa) = 0.03393659
#
# Stress axis : x y z
#
# Youngs Moduli (GPa) = 18.49291 85.83496 46.43426
#
# Poissons Ratio (x) = 0.63192 0.49347
# Poissons Ratio (y) = 0.13614 0.40272
# Poissons Ratio (z) = 0.19653 0.74443
#
# Static dielectric constant tensor:
#      x y z
#    x 1.557410 0.000000 0.000000 
#    y 0.000000 1.539080 0.000000 
#    z 0.000000 0.000000 1.548860 
# 
# From -- ./inp_files/4806.got.cif
#   From: 2010.05.17/outbox.cif.g08.bks.cpg/sg28_3_cif.got.tgz:4806.got - 2010.06.04 01:15:21.
