data_PCOD9339917
_publ_section_title
;
Structure prediction by ZEFSAII (Michael W. Deem and Ramdas Pophale) SiO2 
 PCOD9339917
Probable space group: P M A 2
;
_chemical_formula_sum "Si O2"
_cell_formula_units_Z 28
_cell_length_a 21.159016
_cell_length_b 10.706480
_cell_length_c 5.009777
_cell_angle_alpha 90.000000
_cell_angle_beta 90.000000
_cell_angle_gamma 90.000000
_cell_volume 1134.907776
_symmetry_space_group_name_H-M "P M A 2"
_symmetry_group_IT_number 28
_symmetry_cell_setting 'orthorhombic'
loop_
_space_group_symop_operation_xyz
x,y,z
-x,-y,z
1/2-x,y,z
1/2+x,-y,z
loop_
_atom_site_type_symbol
_atom_site_label
_atom_site_fract_x
_atom_site_fract_y
_atom_site_fract_z
Si Si1 0.574166 0.000663 0.832930
Si Si2 0.632043 0.387377 0.360443
Si Si3 0.862734 0.653107 0.169365
Si Si4 0.046009 0.618344 0.867835
Si Si5 0.183057 0.085508 0.218817
Si Si6 0.682160 0.147280 0.608589
Si Si7 0.929856 0.741027 0.640347
O O1 0.614702 0.124199 0.755352
O O2 0.422416 0.110221 0.611785
O O3 0.500000 0.000000 0.909337
O O4 0.620401 0.945310 0.056251
O O5 0.661313 0.514457 0.235237
O O6 0.597568 0.413844 0.641794
O O7 0.674831 0.267692 0.420059
O O8 0.579929 0.350404 0.142207
O O9 0.923909 0.670099 0.360522
O O10 0.821414 0.767473 0.283567
O O11 0.881431 0.684182 0.863871
O O12 0.001183 0.278340 0.759174
O O13 0.000000 0.500000 0.906990
O O14 0.250000 0.073715 0.063136
O O15 0.186941 0.981232 0.444838
O O16 0.750000 0.164245 0.755651
#
# Coordination Sequence:
#
# PCOD9339917 Si02
#       7
#     4   4   4   4   4   4   4
#     4  11  24  43  69 107 137 180 240 309 361 429
#     4  12  25  40  69 103 141 184 245 292 363 434
#     4  11  21  42  64  98 129 182 240 288 340 418
#     4  12  22  41  66 102 145 193 225 297 373 439
#     4  10  24  46  70  94 140 193 239 290 361 439
#     4  11  26  47  69  99 145 197 240 298 373 450
#     4  11  22  38  65  95 140 180 232 287 357 423
#
# _framework density 24.671607999999999
#
# number of rings (size 3 to 8) (size 9 to 14) (size 15 to 20)
#    0.000    0.857    4.286    2.571    4.000    1.143 
#    0.000    0.000    0.000    3.429    0.000    0.000 
#    0.000    0.000    0.000    0.000    0.000    0.000 
#
# Total GULP energy -156268.581774 kJ/mol
# GULP energy per Si atom -5581.020778 kJ/mol
# Density = 2.461545 g / cm^3
# Si number density = 24.671608 Si / 1000 Ang^3
#
#
#
# Elastic Constant Matrix: (Units=GPa)
#
#
# Indices 1 2 3 4 5 6 
#
# 1 168.5955 50.7901 22.9322 0.0000 0.0000 0.0000
# 2 50.7901 135.3484 10.2549 0.0000 0.0000 0.0000
# 3 22.9322 10.2549 74.5785 0.0000 0.0000 0.0000
# 4 0.0000 0.0000 0.0000 37.8103 0.0000 0.0000
# 5 0.0000 0.0000 0.0000 0.0000 2.2324 0.0000
# 6 0.0000 0.0000 0.0000 0.0000 0.0000 14.2791
#
#
#
# Elastic Compliance Matrix: (Units=1/GPa)
#
#
# Indices 1 2 3 4 5 6 
#
# 1 0.006916 -0.002460 -0.001788 0.000000 0.000000 0.000000
# 2 -0.002460 0.008341 -0.000391 0.000000 0.000000 0.000000
# 3 -0.001788 -0.000391 0.014012 0.000000 0.000000 0.000000
# 4 0.000000 0.000000 0.000000 0.026448 0.000000 0.000000
# 5 0.000000 0.000000 0.000000 0.000000 0.447945 0.000000
# 6 0.000000 0.000000 0.000000 0.000000 0.000000 0.070033
#
#
# Mechanical properties :
#
#
# Convention : Reuss Voigt Hill
#
# Bulk Modulus (GPa) = 50.02053 60.71965 55.37009
# Shear Modulus (GPa) = 8.47982 30.50071 19.49026
#
# Velocity S-wave (km/s) = 1.85595 3.51987 2.81372
# Velocity P-wave (km/s) = 4.99112 6.41747 5.74870
#
# Compressibility (1/GPa) = 0.01999179
#
# Stress axis : x y z
#
# Youngs Moduli (GPa) = 144.60143 119.89099 71.36595
#
# Poissons Ratio (x) = 0.29488 0.12762
# Poissons Ratio (y) = 0.35566 0.02788
# Poissons Ratio (z) = 0.25859 0.04683
#
# Static dielectric constant tensor:
#      x y z
#    x 2.034430 0.000000 0.000000 
#    y 0.000000 2.092090 0.000000 
#    z 0.000000 0.000000 1.932770 
# 
# From -- ./inp_files/1396.got.cif
#   From: 2010.05.17/outbox.cif.g08.bks.cpg/sg28_1_cif.got.tgz:1396.got - 2010.06.04 01:15:21.
