data_PCOD9339798
_publ_section_title
;
Structure prediction by ZEFSAII (Michael W. Deem and Ramdas Pophale) SiO2 
 PCOD9339798
Probable space group: P M A 2
;
_chemical_formula_sum "Si O2"
_cell_formula_units_Z 32
_cell_length_a 15.674656
_cell_length_b 8.940760
_cell_length_c 12.120919
_cell_angle_alpha 90.000000
_cell_angle_beta 90.000000
_cell_angle_gamma 90.000000
_cell_volume 1698.666041
_symmetry_space_group_name_H-M "P M A 2"
_symmetry_group_IT_number 28
_symmetry_cell_setting 'orthorhombic'
loop_
_space_group_symop_operation_xyz
x,y,z
-x,-y,z
1/2-x,y,z
1/2+x,-y,z
loop_
_atom_site_type_symbol
_atom_site_label
_atom_site_fract_x
_atom_site_fract_y
_atom_site_fract_z
Si Si1 0.152820 0.678010 0.413390
Si Si2 0.000000 0.178295 0.551002
Si Si3 1.000000 0.680040 0.791686
Si Si4 0.847180 0.678012 0.413391
Si Si5 0.652984 0.321565 0.955796
Si Si6 0.152984 0.321565 0.955796
Si Si7 0.897349 0.825013 0.186204
Si Si8 0.897350 0.174988 0.186204
O O1 0.250000 0.709446 0.448630
O O2 0.138873 0.499999 0.418410
O O3 0.140722 0.733801 0.288180
O O4 0.082956 0.759618 0.487699
O O5 0.082956 0.240381 0.487700
O O6 1.000000 0.238372 0.675373
O O7 0.000000 0.000000 0.547291
O O8 0.083061 0.719081 0.864411
O O9 0.000000 0.500000 0.774254
O O10 0.916939 0.719081 0.864411
O O11 0.750000 0.709446 0.448632
O O12 0.859277 0.733804 0.288181
O O13 0.750000 0.292468 0.919610
O O14 0.644247 0.500000 0.975979
O O15 0.634692 0.237375 0.069766
O O16 0.250000 0.292469 0.919609
O O17 0.134694 0.237375 0.069766
O O18 0.999999 0.810268 0.189767
O O19 0.875888 0.000001 0.197617
#
# Coordination Sequence:
#
# PCOD9339798 Si02
#       8
#     4   4   4   4   4   4   4   4
#     4  11  24  42  66  93 122 161 208 254 302 362
#     4  12  26  43  64  91 124 161 203 255 311 368
#     4  10  22  41  62  85 118 159 205 257 299 348
#     4  11  24  42  66  93 122 161 208 254 302 362
#     4  10  21  38  62  90 119 157 204 249 297 356
#     4  10  21  38  62  90 119 157 204 249 297 356
#     4  11  22  36  59  92 128 163 198 244 306 367
#     4  11  22  36  59  92 128 163 198 244 306 367
#
# _framework density 18.838311000000001
#
# number of rings (size 3 to 8) (size 9 to 14) (size 15 to 20)
#    0.000    1.250    2.500    3.375    0.000    8.500 
#    0.000    2.500    0.000    0.000    0.000    0.000 
#    0.000    0.000    0.000    0.000    0.000    0.000 
#
# Total GULP energy -178971.546967 kJ/mol
# GULP energy per Si atom -5592.860843 kJ/mol
# Density = 1.879543 g / cm^3
# Si number density = 18.838311 Si / 1000 Ang^3
#
#
#
# Elastic Constant Matrix: (Units=GPa)
#
#
# Indices 1 2 3 4 5 6 
#
# 1 157.4165 88.1063 87.1444 0.0000 0.0000 0.0000
# 2 88.1063 91.8930 73.4685 0.0000 0.0000 0.0000
# 3 87.1444 73.4685 145.7019 0.0000 0.0000 0.0000
# 4 0.0000 0.0000 0.0000 113.0718 0.0000 0.0000
# 5 0.0000 0.0000 0.0000 0.0000 -5.3059 0.0000
# 6 0.0000 0.0000 0.0000 0.0000 0.0000 11.4123
#
#
#
# Elastic Compliance Matrix: (Units=1/GPa)
#
#
# Indices 1 2 3 4 5 6 
#
# 1 0.014341 -0.011547 -0.002754 0.000000 0.000000 0.000000
# 2 -0.011547 0.027531 -0.006976 0.000000 0.000000 0.000000
# 3 -0.002754 -0.006976 0.012028 0.000000 0.000000 0.000000
# 4 0.000000 0.000000 0.000000 0.008844 0.000000 0.000000
# 5 0.000000 0.000000 0.000000 0.000000 -0.188469 0.000000
# 6 0.000000 0.000000 0.000000 0.000000 0.000000 0.087625
#
#
# Mechanical properties :
#
#
# Convention : Reuss Voigt Hill
#
# Bulk Modulus (GPa) = 88.14775 99.16111 93.65443
# Shear Modulus (GPa) = 607.13502 33.58845 320.36174
#
# Velocity S-wave (km/s) = 17.97184 4.22712 13.05480
# Velocity P-wave (km/s) = 21.85275 8.75083 16.64512
#
# Compressibility (1/GPa) = 0.01134459
#
# Stress axis : x y z
#
# Youngs Moduli (GPa) = 69.73255 36.32300 83.13871
#
# Poissons Ratio (x) = 0.41944 0.22900
# Poissons Ratio (y) = 0.80523 0.57994
# Poissons Ratio (z) = 0.19207 0.25337
#
# Static dielectric constant tensor:
#      x y z
#    x 1.661330 0.000000 0.000000 
#    y 0.000000 1.627740 0.000000 
#    z 0.000000 0.000000 1.601120 
# 
# From -- ./inp_files/5571.got.cif
#   From: 2010.05.17/outbox.cif.g08.bks.cpg/sg28_3_cif.got.tgz:5571.got - 2010.06.04 01:15:21.
