data_PCOD9339880
_publ_section_title
;
Structure prediction by ZEFSAII (Michael W. Deem and Ramdas Pophale) SiO2 
 PCOD9339880
Probable space group: P M A 2
;
_chemical_formula_sum "Si O2"
_cell_formula_units_Z 18
_cell_length_a 25.573313
_cell_length_b 5.153370
_cell_length_c 5.260391
_cell_angle_alpha 90.000000
_cell_angle_beta 90.000000
_cell_angle_gamma 90.000000
_cell_volume 693.260323
_symmetry_space_group_name_H-M "P M A 2"
_symmetry_group_IT_number 28
_symmetry_cell_setting 'orthorhombic'
loop_
_space_group_symop_operation_xyz
x,y,z
-x,-y,z
1/2-x,y,z
1/2+x,-y,z
loop_
_atom_site_type_symbol
_atom_site_label
_atom_site_fract_x
_atom_site_fract_y
_atom_site_fract_z
Si Si1 0.394741 0.302421 0.319780
Si Si2 0.551528 0.094076 0.696017
Si Si3 0.153842 0.663637 0.700935
Si Si4 0.307669 0.147337 0.957600
Si Si5 0.000000 0.500000 0.303857
O O1 0.362428 0.549359 0.426366
O O2 0.448385 0.379901 0.177464
O O3 0.416719 0.139471 0.561070
O O4 0.354622 0.133318 0.159252
O O5 0.596985 0.264208 0.819827
O O6 0.525417 0.276702 0.480724
O O7 0.500000 0.000000 0.844422
O O8 0.183453 0.428619 0.834362
O O9 0.186229 0.923997 0.745635
O O10 0.250000 0.128760 0.072973
#
# Coordination Sequence:
#
# PCOD9339880 Si02
#       5
#     4   4   4   4   2
#     4  10  22  45  72  99 144 183 229 295 364 416
#     4   9  18  41  72 101 137 177 220 283 357 423
#     4  11  24  47  68 100 138 178 236 291 350 418
#     4  12  28  45  67 101 139 185 245 291 343 428
#     4   8  18  36  72 100 136 178 218 284 352 436
#
# _framework density 25.964271
#
# number of rings (size 3 to 8) (size 9 to 14) (size 15 to 20)
#    0.000    1.778    2.222    0.667    6.222    1.778 
#    4.000    0.000    0.000    0.000    0.000    0.000 
#    0.000    0.000    0.000    0.000    0.000    0.000 
#
# Total GULP energy -100573.762342 kJ/mol
# GULP energy per Si atom -5587.431241 kJ/mol
# Density = 2.590517 g / cm^3
# Si number density = 25.964271 Si / 1000 Ang^3
#
#
#
# Elastic Constant Matrix: (Units=GPa)
#
#
# Indices 1 2 3 4 5 6 
#
# 1 179.6478 50.3999 44.9847 0.0000 0.0000 0.0000
# 2 50.3999 153.7892 29.8439 0.0000 0.0000 0.0000
# 3 44.9847 29.8439 53.4083 0.0000 0.0000 0.0000
# 4 0.0000 0.0000 0.0000 -48.0102 0.0000 0.0000
# 5 0.0000 0.0000 0.0000 0.0000 35.9938 0.0000
# 6 0.0000 0.0000 0.0000 0.0000 0.0000 29.3409
#
#
#
# Elastic Compliance Matrix: (Units=1/GPa)
#
#
# Indices 1 2 3 4 5 6 
#
# 1 0.007294 -0.001344 -0.005392 0.000000 0.000000 0.000000
# 2 -0.001344 0.007541 -0.003082 0.000000 0.000000 0.000000
# 3 -0.005392 -0.003082 0.024988 0.000000 0.000000 0.000000
# 4 0.000000 0.000000 0.000000 -0.020829 0.000000 0.000000
# 5 0.000000 0.000000 0.000000 0.000000 0.027783 0.000000
# 6 0.000000 0.000000 0.000000 0.000000 0.000000 0.034082
#
#
# Mechanical properties :
#
#
# Convention : Reuss Voigt Hill
#
# Bulk Modulus (GPa) = 49.53918 70.81135 60.17526
# Shear Modulus (GPa) = 46.63180 20.90603 33.76892
#
# Velocity S-wave (km/s) = 4.24252 2.84066 3.61028
# Velocity P-wave (km/s) = 6.56657 6.17178 6.37223
#
# Compressibility (1/GPa) = 0.02018604
#
# Stress axis : x y z
#
# Youngs Moduli (GPa) = 137.10351 132.61064 40.01973
#
# Poissons Ratio (x) = 0.17821 0.21580
# Poissons Ratio (y) = 0.18425 0.12333
# Poissons Ratio (z) = 0.73932 0.40868
#
# Static dielectric constant tensor:
#      x y z
#    x 2.023010 0.000000 0.000000 
#    y 0.000000 2.096400 0.000000 
#    z 0.000000 0.000000 2.099430 
# 
# From -- ./inp_files/1663.got.cif
#   From: 2010.05.17/outbox.cif.g08.bks.cpg/sg28_1_cif.got.tgz:1663.got - 2010.06.04 01:15:21.
