data_PCOD9339648
_publ_section_title
;
Structure prediction by ZEFSAII (Michael W. Deem and Ramdas Pophale) SiO2 
 PCOD9339648
Probable space group: P M A 2
;
_chemical_formula_sum "Si O2"
_cell_formula_units_Z 24
_cell_length_a 8.656972
_cell_length_b 9.465636
_cell_length_c 15.933141
_cell_angle_alpha 90.000000
_cell_angle_beta 90.000000
_cell_angle_gamma 90.000000
_cell_volume 1305.621256
_symmetry_space_group_name_H-M "P M A 2"
_symmetry_group_IT_number 28
_symmetry_cell_setting 'orthorhombic'
loop_
_space_group_symop_operation_xyz
x,y,z
-x,-y,z
1/2-x,y,z
1/2+x,-y,z
loop_
_atom_site_type_symbol
_atom_site_label
_atom_site_fract_x
_atom_site_fract_y
_atom_site_fract_z
Si Si1 0.064450 0.341439 0.535490
Si Si2 0.436514 0.341915 0.213764
Si Si3 0.564665 0.157478 0.874519
Si Si4 0.564665 0.342522 0.713837
Si Si5 0.935550 0.841439 0.052866
Si Si6 0.936514 0.841915 0.374592
O O1 0.250000 0.349065 0.538202
O O2 0.017034 0.240102 0.459331
O O3 0.000000 0.500000 0.522568
O O4 0.002293 0.289159 0.625319
O O5 0.500000 0.500000 0.216979
O O6 0.250000 0.348304 0.215042
O O7 0.482966 0.259898 0.129025
O O8 0.486763 0.250000 0.294178
O O9 0.750000 0.152979 0.880304
O O10 0.520442 0.250000 0.794178
O O11 0.500000 0.000000 0.863684
O O12 0.497708 0.210841 0.963037
O O13 0.500000 0.500000 0.724673
O O14 0.750000 0.347021 0.708051
O O15 0.750000 0.849065 0.050153
O O16 0.000000 0.000000 0.065788
O O17 0.750000 0.848304 0.373315
O O18 0.000000 0.000000 0.371377
#
# Coordination Sequence:
#
# PCOD9339648 Si02
#       6
#     4   4   4   4   4   4
#     4  10  20  35  56  80 107 140 178 220 265 314
#     4  10  22  38  56  81 110 141 178 218 263 315
#     4  10  21  36  55  79 107 141 179 219 266 317
#     4  10  21  36  55  79 107 141 179 219 266 317
#     4  10  20  35  56  80 107 140 178 220 265 314
#     4  10  22  38  56  81 110 141 178 218 263 315
#
# _framework density 18.382054
#
# number of rings (size 3 to 8) (size 9 to 14) (size 15 to 20)
#    0.000    2.000    0.000    5.000    0.000    7.333 
#    0.000    6.667    0.000    0.000    0.000    0.000 
#    0.000    0.000    0.000    0.000    0.000    0.000 
#
# Total GULP energy -134041.460124 kJ/mol
# GULP energy per Si atom -5585.060838 kJ/mol
# Density = 1.834022 g / cm^3
# Si number density = 18.382054 Si / 1000 Ang^3
#
#
#
# Elastic Constant Matrix: (Units=GPa)
#
#
# Indices 1 2 3 4 5 6 
#
# 1 40.8508 32.5427 52.9540 0.0000 0.0000 0.0000
# 2 32.5427 116.3855 121.3622 0.0000 0.0000 0.0000
# 3 52.9540 121.3622 227.0522 0.0000 0.0000 0.0000
# 4 0.0000 0.0000 0.0000 40.3688 0.0000 0.0000
# 5 0.0000 0.0000 0.0000 0.0000 -6.9784 0.0000
# 6 0.0000 0.0000 0.0000 0.0000 0.0000 25.1492
#
#
#
# Elastic Compliance Matrix: (Units=1/GPa)
#
#
# Indices 1 2 3 4 5 6 
#
# 1 0.035521 -0.002922 -0.006722 0.000000 0.000000 0.000000
# 2 -0.002922 0.019652 -0.009823 0.000000 0.000000 0.000000
# 3 -0.006722 -0.009823 0.011222 0.000000 0.000000 0.000000
# 4 0.000000 0.000000 0.000000 0.024772 0.000000 0.000000
# 5 0.000000 0.000000 0.000000 0.000000 -0.143298 0.000000
# 6 0.000000 0.000000 0.000000 0.000000 0.000000 0.039763
#
#
# Mechanical properties :
#
#
# Convention : Reuss Voigt Hill
#
# Bulk Modulus (GPa) = 36.41526 88.66736 62.54131
# Shear Modulus (GPa) = 139.97694 23.53655 81.75674
#
# Velocity S-wave (km/s) = 8.73579 3.58216 6.67630
# Velocity P-wave (km/s) = 11.02748 8.09010 9.67096
#
# Compressibility (1/GPa) = 0.02746101
#
# Stress axis : x y z
#
# Youngs Moduli (GPa) = 28.15198 50.88573 89.10745
#
# Poissons Ratio (x) = 0.14871 0.59902
# Poissons Ratio (y) = 0.08227 0.87527
# Poissons Ratio (z) = 0.18925 0.49983
#
# Static dielectric constant tensor:
#      x y z
#    x 1.623580 0.000000 0.000000 
#    y 0.000000 1.591050 0.000000 
#    z 0.000000 0.000000 1.641180 
# 
# From -- ./inp_files/6055.got.cif
#   From: 2010.05.17/outbox.cif.g08.bks.cpg/sg28_4_cif.got.tgz:6055.got - 2010.06.04 01:15:21.
