data_PCOD9339754
_publ_section_title
;
Structure prediction by ZEFSAII (Michael W. Deem and Ramdas Pophale) SiO2 
 PCOD9339754
Probable space group: P M A 2
;
_chemical_formula_sum "Si O2"
_cell_formula_units_Z 20
_cell_length_a 10.122944
_cell_length_b 10.795737
_cell_length_c 9.527215
_cell_angle_alpha 90.000000
_cell_angle_beta 90.000000
_cell_angle_gamma 90.000000
_cell_volume 1041.178272
_symmetry_space_group_name_H-M "P M A 2"
_symmetry_group_IT_number 28
_symmetry_cell_setting 'orthorhombic'
loop_
_space_group_symop_operation_xyz
x,y,z
-x,-y,z
1/2-x,y,z
1/2+x,-y,z
loop_
_atom_site_type_symbol
_atom_site_label
_atom_site_fract_x
_atom_site_fract_y
_atom_site_fract_z
Si Si1 0.250000 0.704186 0.621521
Si Si2 0.533852 0.750095 0.048538
Si Si3 0.250000 0.672328 0.130976
Si Si4 0.500000 0.000000 0.217564
Si Si5 0.522055 0.642377 0.764800
Si Si6 0.750000 0.581656 0.548086
Si Si7 0.750000 0.117094 0.363741
Si Si8 0.250000 0.390465 0.223740
O O1 0.383887 0.698678 0.712004
O O2 0.250000 0.568827 0.545132
O O3 0.250000 0.821847 0.517625
O O4 0.383158 0.702433 0.048215
O O5 0.621753 0.669406 0.153335
O O6 0.536564 0.886676 0.114264
O O7 0.580353 0.725174 0.890135
O O8 0.250000 0.763954 0.262465
O O9 0.250000 0.533719 0.184702
O O10 0.621329 0.039901 0.317125
O O11 0.500000 0.500000 0.816586
O O12 0.622531 0.626696 0.635064
O O13 0.750000 0.628518 0.389922
#
# Coordination Sequence:
#
# PCOD9339754 Si02
#       8
#     2   4   2   2   4   2   2   2
#     4  10  21  39  64  88 131 165 200 250 323 388
#     4  11  23  40  64  89 128 166 214 261 304 369
#     4  10  21  34  63  94 119 155 213 254 323 369
#     4  10  24  42  64  86 126 168 222 258 302 352
#     4  10  21  38  61  93 131 165 200 254 325 385
#     4  10  23  35  59  97 137 159 194 249 328 386
#     4  10  21  41  61  90 121 168 206 267 305 366
#     4  12  22  35  63  97 126 161 205 264 319 375
#
# _framework density 19.209005999999999
#
# number of rings (size 3 to 8) (size 9 to 14) (size 15 to 20)
#    0.000    1.600    1.000    3.600    5.600    3.200 
#    0.000    1.000    0.000    0.000    0.000    0.000 
#    0.000    0.000    0.000    0.000    0.000    0.000 
#
# Total GULP energy -111693.314818 kJ/mol
# GULP energy per Si atom -5584.665741 kJ/mol
# Density = 1.916529 g / cm^3
# Si number density = 19.209006 Si / 1000 Ang^3
#
#
#
# Elastic Constant Matrix: (Units=GPa)
#
#
# Indices 1 2 3 4 5 6 
#
# 1 103.9208 71.7233 49.0129 0.0000 0.0000 0.0000
# 2 71.7233 112.2111 64.3400 0.0000 0.0000 0.0000
# 3 49.0129 64.3400 138.6960 0.0000 0.0000 0.0000
# 4 0.0000 0.0000 0.0000 23.4983 0.0000 0.0000
# 5 0.0000 0.0000 0.0000 0.0000 8.2007 0.0000
# 6 0.0000 0.0000 0.0000 0.0000 0.0000 30.2066
#
#
#
# Elastic Compliance Matrix: (Units=1/GPa)
#
#
# Indices 1 2 3 4 5 6 
#
# 1 0.017402 -0.010350 -0.001348 0.000000 0.000000 0.000000
# 2 -0.010350 0.018297 -0.004830 0.000000 0.000000 0.000000
# 3 -0.001348 -0.004830 0.009927 0.000000 0.000000 0.000000
# 4 0.000000 0.000000 0.000000 0.042556 0.000000 0.000000
# 5 0.000000 0.000000 0.000000 0.000000 0.121940 0.000000
# 6 0.000000 0.000000 0.000000 0.000000 0.000000 0.033105
#
#
# Mechanical properties :
#
#
# Convention : Reuss Voigt Hill
#
# Bulk Modulus (GPa) = 79.56094 80.55336 80.05715
# Shear Modulus (GPa) = 17.82696 23.69791 20.76243
#
# Velocity S-wave (km/s) = 3.04970 3.51620 3.29122
# Velocity P-wave (km/s) = 7.34230 7.64926 7.49735
#
# Compressibility (1/GPa) = 0.01256898
#
# Stress axis : x y z
#
# Youngs Moduli (GPa) = 57.46542 54.65441 100.73317
#
# Poissons Ratio (x) = 0.56566 0.13582
# Poissons Ratio (y) = 0.59476 0.48657
# Poissons Ratio (z) = 0.07748 0.26400
#
# Static dielectric constant tensor:
#      x y z
#    x 1.698360 0.000000 0.000000 
#    y 0.000000 1.649530 0.000000 
#    z 0.000000 0.000000 1.667110 
# 
# From -- ./inp_files/2958.got.cif
#   From: 2010.05.17/outbox.cif.g08.bks.cpg/sg28_2_cif.got.tgz:2958.got - 2010.06.04 01:15:21.
