data_PCOD9339845
_publ_section_title
;
Structure prediction by ZEFSAII (Michael W. Deem and Ramdas Pophale) SiO2 
 PCOD9339845
Probable space group: P M A 2
;
_chemical_formula_sum "Si O2"
_cell_formula_units_Z 24
_cell_length_a 21.211348
_cell_length_b 10.485175
_cell_length_c 5.208885
_cell_angle_alpha 90.000000
_cell_angle_beta 90.000000
_cell_angle_gamma 90.000000
_cell_volume 1158.480484
_symmetry_space_group_name_H-M "P M A 2"
_symmetry_group_IT_number 28
_symmetry_cell_setting 'orthorhombic'
loop_
_space_group_symop_operation_xyz
x,y,z
-x,-y,z
1/2-x,y,z
1/2+x,-y,z
loop_
_atom_site_type_symbol
_atom_site_label
_atom_site_fract_x
_atom_site_fract_y
_atom_site_fract_z
Si Si1 0.820428 0.119202 0.488370
Si Si2 0.569180 0.241161 0.227778
Si Si3 0.820428 0.880798 0.861829
Si Si4 0.069180 0.241161 0.122421
Si Si5 0.119746 0.356118 0.636570
Si Si6 0.619746 0.356118 0.713629
O O1 0.750000 0.111489 0.379853
O O2 0.876100 0.137977 0.282815
O O3 0.827518 0.249341 0.654571
O O4 0.831260 1.000000 0.675099
O O5 0.569289 0.324187 0.488849
O O6 0.500000 0.187861 0.175099
O O7 0.591191 0.327527 0.990772
O O8 0.750000 0.888510 0.970345
O O9 0.876100 0.862022 0.067383
O O10 0.827518 0.750659 0.695627
O O11 0.069289 0.324188 0.861351
O O12 0.091191 0.327527 0.359427
O O13 0.141627 0.500000 0.675099
#
# Coordination Sequence:
#
# PCOD9339845 Si02
#       6
#     4   4   4   4   4   4
#     4   9  22  43  66  92 130 177 220 266 329 399
#     4  10  22  40  65  96 128 170 217 276 328 388
#     4   9  22  43  66  92 130 177 220 266 329 399
#     4  10  22  40  65  96 128 170 217 276 328 388
#     4  10  22  39  64  97 127 169 217 273 328 388
#     4  10  22  39  64  97 127 169 217 273 328 388
#
# _framework density 20.716792999999999
#
# number of rings (size 3 to 8) (size 9 to 14) (size 15 to 20)
#    2.000    0.333    0.000    2.000    0.000    7.333 
#    0.000   10.000    0.000    0.000    0.000    0.000 
#    0.000    0.000    0.000    0.000    0.000    0.000 
#
# Total GULP energy -133674.464066 kJ/mol
# GULP energy per Si atom -5569.769336 kJ/mol
# Density = 2.066964 g / cm^3
# Si number density = 20.716793 Si / 1000 Ang^3
#
#
#
# Elastic Constant Matrix: (Units=GPa)
#
#
# Indices 1 2 3 4 5 6 
#
# 1 122.6212 74.0055 32.5615 0.0000 0.0000 0.0000
# 2 74.0055 154.7709 43.6494 0.0000 0.0000 0.0000
# 3 32.5615 43.6494 105.6671 0.0000 0.0000 0.0000
# 4 0.0000 0.0000 0.0000 16.8919 0.0000 0.0000
# 5 0.0000 0.0000 0.0000 0.0000 17.2216 0.0000
# 6 0.0000 0.0000 0.0000 0.0000 0.0000 -0.9102
#
#
#
# Elastic Compliance Matrix: (Units=1/GPa)
#
#
# Indices 1 2 3 4 5 6 
#
# 1 0.011659 -0.005163 -0.001460 0.000000 0.000000 0.000000
# 2 -0.005163 0.009600 -0.002374 0.000000 0.000000 0.000000
# 3 -0.001460 -0.002374 0.010894 0.000000 0.000000 0.000000
# 4 0.000000 0.000000 0.000000 0.059200 0.000000 0.000000
# 5 0.000000 0.000000 0.000000 0.000000 0.058067 0.000000
# 6 0.000000 0.000000 0.000000 0.000000 0.000000 -1.098627
#
#
# Mechanical properties :
#
#
# Convention : Reuss Voigt Hill
#
# Bulk Modulus (GPa) = 70.63129 75.94356 73.28742
# Shear Modulus (GPa) = -5.39669 22.16350 8.38340
#
# Velocity S-wave (km/s) = -1.61575 3.27438 2.01382
# Velocity P-wave (km/s) = 5.53958 7.14374 6.39218
#
# Compressibility (1/GPa) = 0.01415803
#
# Stress axis : x y z
#
# Youngs Moduli (GPa) = 85.77076 104.17068 91.79026
#
# Poissons Ratio (x) = 0.53785 0.13401
# Poissons Ratio (y) = 0.44285 0.21795
# Poissons Ratio (z) = 0.12522 0.24734
#
# Static dielectric constant tensor:
#      x y z
#    x 1.736630 0.000000 0.000000 
#    y 0.000000 1.723820 0.000000 
#    z 0.000000 0.000000 1.755550 
# 
# From -- ./inp_files/1137.got.cif
#   From: 2010.05.17/outbox.cif.g08.bks.cpg/sg28_1_cif.got.tgz:1137.got - 2010.06.04 01:15:21.
