data_PCOD9339328
_publ_section_title
;
Structure prediction by ZEFSAII (Michael W. Deem and Ramdas Pophale) SiO2 
 PCOD9339328
Probable space group: P M A 2
;
_chemical_formula_sum "Si O2"
_cell_formula_units_Z 24
_cell_length_a 8.583400
_cell_length_b 9.196476
_cell_length_c 16.025464
_cell_angle_alpha 90.000000
_cell_angle_beta 90.000000
_cell_angle_gamma 90.000000
_cell_volume 1265.002566
_symmetry_space_group_name_H-M "P M A 2"
_symmetry_group_IT_number 28
_symmetry_cell_setting 'orthorhombic'
loop_
_space_group_symop_operation_xyz
x,y,z
-x,-y,z
1/2-x,y,z
1/2+x,-y,z
loop_
_atom_site_type_symbol
_atom_site_label
_atom_site_fract_x
_atom_site_fract_y
_atom_site_fract_z
Si Si1 0.063628 0.834775 0.046310
Si Si2 0.062262 0.836370 0.365531
Si Si3 0.563532 0.663441 0.205737
Si Si4 0.437459 0.835258 0.697161
Si Si5 0.063832 0.165714 0.871482
Si Si6 0.562327 0.337231 0.531644
O O1 0.250000 0.839353 0.045740
O O2 0.001654 0.741657 0.123262
O O3 0.000000 0.000000 0.054461
O O4 0.002599 0.772463 0.957841
O O5 0.250000 0.837236 0.360884
O O6 0.013918 0.754695 0.450560
O O7 0.995246 0.751481 0.286224
O O8 0.000000 0.000000 0.366030
O O9 0.500000 0.500000 0.210181
O O10 0.750000 0.662902 0.203642
O O11 0.250000 0.840495 0.701886
O O12 0.503108 0.771563 0.784044
O O13 0.486511 0.742361 0.616945
O O14 0.500000 0.000000 0.687837
O O15 0.250000 0.164527 0.873392
O O16 0.000000 0.000000 0.870480
O O17 0.500000 0.500000 0.527146
O O18 0.750000 0.341524 0.531731
#
# Coordination Sequence:
#
# PCOD9339328 Si02
#       6
#     4   4   4   4   4   4
#     4  11  21  37  60  87 117 153 194 241 288 340
#     4  11  23  41  63  90 117 150 192 238 286 339
#     4  12  25  42  61  86 118 154 191 235 287 345
#     4  10  19  34  55  83 113 148 191 238 286 339
#     4  10  18  31  53  83 114 149 190 238 288 338
#     4  10  23  39  58  83 116 152 191 234 285 341
#
# _framework density 18.972294000000002
#
# number of rings (size 3 to 8) (size 9 to 14) (size 15 to 20)
#    0.000    1.333    0.000    9.000    0.000    4.000 
#    0.000    0.833    0.000    2.000    0.000    0.000 
#    0.000    0.000    0.000    0.000    0.000    0.000 
#
# Total GULP energy -134163.182394 kJ/mol
# GULP energy per Si atom -5590.132600 kJ/mol
# Density = 1.892911 g / cm^3
# Si number density = 18.972294 Si / 1000 Ang^3
#
#
#
# Elastic Constant Matrix: (Units=GPa)
#
#
# Indices 1 2 3 4 5 6 
#
# 1 146.2803 49.4042 80.8391 0.0000 0.0000 0.0000
# 2 49.4042 128.3510 104.0956 0.0000 0.0000 0.0000
# 3 80.8391 104.0956 238.4250 0.0000 0.0000 0.0000
# 4 0.0000 0.0000 0.0000 -31.9143 0.0000 0.0000
# 5 0.0000 0.0000 0.0000 0.0000 21.5229 0.0000
# 6 0.0000 0.0000 0.0000 0.0000 0.0000 31.4474
#
#
#
# Elastic Compliance Matrix: (Units=1/GPa)
#
#
# Indices 1 2 3 4 5 6 
#
# 1 0.008586 -0.001461 -0.002273 0.000000 0.000000 0.000000
# 2 -0.001461 0.012311 -0.004879 0.000000 0.000000 0.000000
# 3 -0.002273 -0.004879 0.007095 0.000000 0.000000 0.000000
# 4 0.000000 0.000000 0.000000 -0.031334 0.000000 0.000000
# 5 0.000000 0.000000 0.000000 0.000000 0.046462 0.000000
# 6 0.000000 0.000000 0.000000 0.000000 0.000000 0.031799
#
#
# Mechanical properties :
#
#
# Convention : Reuss Voigt Hill
#
# Bulk Modulus (GPa) = 92.89887 109.08157 100.99022
# Shear Modulus (GPa) = 52.22734 22.79237 37.50986
#
# Velocity S-wave (km/s) = 5.25243 3.46981 4.45127
# Velocity P-wave (km/s) = 9.26584 8.58329 8.93109
#
# Compressibility (1/GPa) = 0.01076439
#
# Stress axis : x y z
#
# Youngs Moduli (GPa) = 116.46988 81.22830 140.93936
#
# Poissons Ratio (x) = 0.11870 0.32037
# Poissons Ratio (y) = 0.17020 0.68771
# Poissons Ratio (z) = 0.26475 0.39635
#
# Static dielectric constant tensor:
#      x y z
#    x 1.636260 0.000000 0.000000 
#    y 0.000000 1.770480 0.000000 
#    z 0.000000 0.000000 1.679350 
# 
# From -- ./inp_files/6112.got.cif
#   From: 2010.05.17/outbox.cif.g08.bks.cpg/sg28_4_cif.got.tgz:6112.got - 2010.06.04 01:15:21.
