data_PCOD9339813
_publ_section_title
;
Structure prediction by ZEFSAII (Michael W. Deem and Ramdas Pophale) SiO2 
 PCOD9339813
Probable space group: P M A 2
;
_chemical_formula_sum "Si O2"
_cell_formula_units_Z 28
_cell_length_a 19.432308
_cell_length_b 5.306494
_cell_length_c 13.341239
_cell_angle_alpha 90.000000
_cell_angle_beta 90.000000
_cell_angle_gamma 90.000000
_cell_volume 1375.714223
_symmetry_space_group_name_H-M "P M A 2"
_symmetry_group_IT_number 28
_symmetry_cell_setting 'orthorhombic'
loop_
_space_group_symop_operation_xyz
x,y,z
-x,-y,z
1/2-x,y,z
1/2+x,-y,z
loop_
_atom_site_type_symbol
_atom_site_label
_atom_site_fract_x
_atom_site_fract_y
_atom_site_fract_z
Si Si1 0.922398 0.478665 0.024330
Si Si2 0.172448 0.225844 0.875117
Si Si3 0.565970 0.168833 0.824065
Si Si4 0.168435 0.021930 0.568513
Si Si5 0.634566 0.489151 0.684701
Si Si6 0.333288 0.609616 0.218506
Si Si7 0.166903 0.108518 0.338999
O O1 0.871136 0.405224 0.112546
O O2 0.000000 0.500000 0.066803
O O3 0.880965 0.697364 0.963094
O O4 0.935122 0.284318 0.934270
O O5 0.250000 0.178669 0.911459
O O6 0.175350 0.436433 0.787329
O O7 0.136791 0.988991 0.821731
O O8 0.567753 0.375418 0.737641
O O9 0.500000 0.000000 0.810193
O O10 0.250000 0.082434 0.576329
O O11 0.130348 0.250353 0.625116
O O12 0.146224 0.046376 0.452724
O O13 0.160014 0.740388 0.613951
O O14 0.250000 0.600064 0.206118
O O15 0.354345 0.373402 0.289266
O O16 0.352257 0.872836 0.270041
O O17 0.250000 0.117195 0.341503
#
# Coordination Sequence:
#
# PCOD9339813 Si02
#       7
#     4   4   4   4   4   4   4
#     4  11  24  40  64  93 126 174 218 259 322 392
#     4  11  23  40  63  97 133 164 211 270 314 371
#     4  11  24  43  64  90 132 177 219 258 320 389
#     4  11  20  36  61  95 132 167 209 264 324 381
#     4  11  23  36  62  95 130 168 214 258 314 377
#     4  10  21  39  62  94 126 162 211 266 323 376
#     4   9  20  37  61  92 128 162 204 264 326 379
#
# _framework density 20.353064
#
# number of rings (size 3 to 8) (size 9 to 14) (size 15 to 20)
#    0.000    1.429    2.857    2.571    2.000    5.714 
#    0.000    0.000    0.000    3.429    0.000    0.000 
#    0.000    0.000    0.000    0.000    0.000    0.000 
#
# Total GULP energy -156087.921154 kJ/mol
# GULP energy per Si atom -5574.568613 kJ/mol
# Density = 2.030674 g / cm^3
# Si number density = 20.353064 Si / 1000 Ang^3
#
#
#
# Elastic Constant Matrix: (Units=GPa)
#
#
# Indices 1 2 3 4 5 6 
#
# 1 77.4685 14.7301 1.7167 0.0000 0.0000 0.0000
# 2 14.7301 65.6211 -14.0809 0.0000 0.0000 0.0000
# 3 1.7167 -14.0809 62.1516 0.0000 0.0000 0.0000
# 4 0.0000 0.0000 0.0000 -17.6342 0.0000 0.0000
# 5 0.0000 0.0000 0.0000 0.0000 5.5782 0.0000
# 6 0.0000 0.0000 0.0000 0.0000 0.0000 22.5618
#
#
#
# Elastic Compliance Matrix: (Units=1/GPa)
#
#
# Indices 1 2 3 4 5 6 
#
# 1 0.013558 -0.003283 -0.001118 0.000000 0.000000 0.000000
# 2 -0.003283 0.016813 0.003900 0.000000 0.000000 0.000000
# 3 -0.001118 0.003900 0.017004 0.000000 0.000000 0.000000
# 4 0.000000 0.000000 0.000000 -0.056708 0.000000 0.000000
# 5 0.000000 0.000000 0.000000 0.000000 0.179270 0.000000
# 6 0.000000 0.000000 0.000000 0.000000 0.000000 0.044323
#
#
# Mechanical properties :
#
#
# Convention : Reuss Voigt Hill
#
# Bulk Modulus (GPa) = 21.56528 23.33033 22.44781
# Shear Modulus (GPa) = 21.67127 15.62615 18.64871
#
# Velocity S-wave (km/s) = 3.26662 2.77384 3.03026
# Velocity P-wave (km/s) = 4.98461 4.66333 4.82664
#
# Compressibility (1/GPa) = 0.04637082
#
# Stress axis : x y z
#
# Youngs Moduli (GPa) = 73.75970 59.47842 58.80930
#
# Poissons Ratio (x) = 0.19528 0.06577
# Poissons Ratio (y) = 0.24217 -0.22934
# Poissons Ratio (z) = 0.08249 -0.23195
#
# Static dielectric constant tensor:
#      x y z
#    x 1.751500 0.000000 0.000000 
#    y 0.000000 1.791020 0.000000 
#    z 0.000000 0.000000 1.744720 
# 
# From -- ./inp_files/5804.got.cif
#   From: 2010.05.17/outbox.cif.g08.bks.cpg/sg28_3_cif.got.tgz:5804.got - 2010.06.04 01:15:21.
