data_PCOD9339126
_publ_section_title
;
Structure prediction by ZEFSAII (Michael W. Deem and Ramdas Pophale) SiO2 
 PCOD9339126
Probable space group: P C C 2
;
_chemical_formula_sum "Si O2"
_cell_formula_units_Z 26
_cell_length_a 22.534622
_cell_length_b 4.990463
_cell_length_c 8.891054
_cell_angle_alpha 90.000000
_cell_angle_beta 90.000000
_cell_angle_gamma 90.000000
_cell_volume 999.871905
_symmetry_space_group_name_H-M "P C C 2"
_symmetry_group_IT_number 27
_symmetry_cell_setting 'orthorhombic'
loop_
_space_group_symop_operation_xyz
x,y,z
-x,-y,z
-x,y,1/2+z
x,-y,1/2+z
loop_
_atom_site_type_symbol
_atom_site_label
_atom_site_fract_x
_atom_site_fract_y
_atom_site_fract_z
Si Si1 0.500000 0.000000 0.528210
Si Si2 0.086552 0.094190 0.085943
Si Si3 0.000000 0.000000 0.356348
Si Si4 0.236721 0.769523 0.372443
Si Si5 0.841501 0.726320 0.352086
Si Si6 0.605065 0.703088 0.397709
Si Si7 0.500000 0.500000 0.740204
Si Si8 0.313507 0.431302 0.141625
O O1 0.440312 0.063100 0.437607
O O2 0.508982 0.249503 0.635344
O O3 0.052294 0.995647 0.233830
O O4 0.132300 0.273734 0.182006
O O5 0.117786 0.860372 0.985171
O O6 0.033335 0.199135 0.976938
O O7 0.179520 0.573216 0.386409
O O8 0.273110 0.639210 0.235089
O O9 0.275576 0.737033 0.522210
O O10 0.214191 0.069584 0.348899
O O11 0.558703 0.480706 0.339191
O O12 0.651352 0.746555 0.263404
O O13 0.640168 0.599427 0.541628
#
# Coordination Sequence:
#
# PCOD9339126 Si02
#       8
#     2   4   2   4   4   4   2   4
#     4  12  26  50  78 106 142 182 236 286 344 450
#     4   9  18  34  66  96 137 188 231 295 349 424
#     4   8  16  34  60 100 142 180 238 288 358 414
#     4  11  24  46  68 105 137 182 240 297 349 429
#     4  11  22  41  69  96 135 182 240 287 356 416
#     4  11  24  51  75 108 141 188 231 288 366 431
#     4  12  26  50  74 108 140 182 234 288 340 452
#     4  10  24  48  74 104 144 184 230 300 363 427
#
# _framework density 26.003330999999999
#
# number of rings (size 3 to 8) (size 9 to 14) (size 15 to 20)
#    0.000    1.538    1.538    2.769    0.000    0.000 
#   11.077    0.000    0.000   64.615    0.000    0.000 
#    0.000    0.000    0.000    0.000    0.000    0.000 
#
# Total GULP energy -145317.540733 kJ/mol
# GULP energy per Si atom -5589.136182 kJ/mol
# Density = 2.594415 g / cm^3
# Si number density = 26.003331 Si / 1000 Ang^3
#
#
#
# Elastic Constant Matrix: (Units=GPa)
#
#
# Indices 1 2 3 4 5 6 
#
# 1 111.9346 12.3411 67.5424 0.0000 0.0000 0.0000
# 2 12.3411 77.5778 36.2427 0.0000 0.0000 0.0000
# 3 67.5424 36.2427 194.7373 0.0000 0.0000 0.0000
# 4 0.0000 0.0000 0.0000 9.4208 0.0000 0.0000
# 5 0.0000 0.0000 0.0000 0.0000 83.2073 0.0000
# 6 0.0000 0.0000 0.0000 0.0000 0.0000 9.7206
#
#
#
# Elastic Compliance Matrix: (Units=1/GPa)
#
#
# Indices 1 2 3 4 5 6 
#
# 1 0.011298 0.000037 -0.003926 0.000000 0.000000 0.000000
# 2 0.000037 0.014118 -0.002640 0.000000 0.000000 0.000000
# 3 -0.003926 -0.002640 0.006988 0.000000 0.000000 0.000000
# 4 0.000000 0.000000 0.000000 0.106148 0.000000 0.000000
# 5 0.000000 0.000000 0.000000 0.000000 0.012018 0.000000
# 6 0.000000 0.000000 0.000000 0.000000 0.000000 0.102874
#
#
# Mechanical properties :
#
#
# Convention : Reuss Voigt Hill
#
# Bulk Modulus (GPa) = 51.69007 68.50025 60.09516
# Shear Modulus (GPa) = 18.31821 38.34462 28.33141
#
# Velocity S-wave (km/s) = 2.65704 3.84422 3.30438
# Velocity P-wave (km/s) = 5.41614 6.79000 6.14161
#
# Compressibility (1/GPa) = 0.01934608
#
# Stress axis : x y z
#
# Youngs Moduli (GPa) = 88.50754 70.83205 143.10193
#
# Poissons Ratio (x) = -0.00259 0.56175
# Poissons Ratio (y) = -0.00324 0.37782
# Poissons Ratio (z) = 0.34744 0.18701
#
# Static dielectric constant tensor:
#      x y z
#    x 2.169170 0.000000 0.000000 
#    y 0.000000 2.106110 0.000000 
#    z 0.000000 0.000000 2.006150 
# 
# From -- ./inp_files/1745.got.cif
#   From: 2010.05.17/outbox.cif.g08.bks.cpg/sg27_1_cif.got.tgz:1745.got - 2010.06.04 01:11:05.
