data_PCOD9339849
_publ_section_title
;
Structure prediction by ZEFSAII (Michael W. Deem and Ramdas Pophale) SiO2 
 PCOD9339849
Probable space group: P M A 2
;
_chemical_formula_sum "Si O2"
_cell_formula_units_Z 24
_cell_length_a 9.703953
_cell_length_b 11.382431
_cell_length_c 10.029828
_cell_angle_alpha 90.000000
_cell_angle_beta 90.000000
_cell_angle_gamma 90.000000
_cell_volume 1107.840394
_symmetry_space_group_name_H-M "P M A 2"
_symmetry_group_IT_number 28
_symmetry_cell_setting 'orthorhombic'
loop_
_space_group_symop_operation_xyz
x,y,z
-x,-y,z
1/2-x,y,z
1/2+x,-y,z
loop_
_atom_site_type_symbol
_atom_site_label
_atom_site_fract_x
_atom_site_fract_y
_atom_site_fract_z
Si Si1 0.902646 0.643991 0.414160
Si Si2 0.914542 0.389972 0.158202
Si Si3 0.603183 0.911959 0.366434
Si Si4 0.405389 0.181959 0.073273
Si Si5 0.910160 0.611318 0.723319
Si Si6 0.089940 0.113844 0.775806
O O1 0.750000 0.610794 0.357648
O O2 0.900631 0.784379 0.428474
O O3 0.910975 0.597134 0.562663
O O4 0.026119 0.620437 0.310869
O O5 0.750000 0.397844 0.152605
O O6 0.000000 0.500000 0.103358
O O7 0.974935 0.277805 0.081450
O O8 0.750000 0.968462 0.380705
O O9 0.580158 0.891025 0.209123
O O10 0.500000 0.000000 0.429232
O O11 0.250000 0.236360 0.081397
O O12 0.409435 0.111464 0.937339
O O13 0.750000 0.603075 0.769341
O O14 0.954450 0.748619 0.747908
O O15 0.000000 0.500000 0.775275
O O16 0.250000 0.103860 0.729184
O O17 0.000000 0.000000 0.733067
#
# Coordination Sequence:
#
# PCOD9339849 Si02
#       6
#     4   4   4   4   4   4
#     4   9  19  36  54  76 110 148 187 233 285 338
#     4  11  21  33  53  81 111 144 184 230 284 345
#     4   9  17  29  48  74 105 140 176 221 274 329
#     4   9  19  36  54  76 110 148 186 230 280 335
#     4  10  22  40  61  85 115 153 197 245 294 345
#     4  10  22  40  62  88 119 155 196 243 293 346
#
# _framework density 21.663771000000001
#
# number of rings (size 3 to 8) (size 9 to 14) (size 15 to 20)
#    0.000    2.333    0.000    3.500    0.000    7.333 
#    0.000    1.667    0.000    0.000    0.000    0.000 
#    0.000    0.000    0.000    0.000    0.000    0.000 
#
# Total GULP energy -133742.063357 kJ/mol
# GULP energy per Si atom -5572.585973 kJ/mol
# Density = 2.161446 g / cm^3
# Si number density = 21.663771 Si / 1000 Ang^3
#
#
#
# Elastic Constant Matrix: (Units=GPa)
#
#
# Indices 1 2 3 4 5 6 
#
# 1 162.6099 101.0908 12.3759 0.0000 0.0000 0.0000
# 2 101.0908 127.4053 5.0258 0.0000 0.0000 0.0000
# 3 12.3759 5.0258 69.6906 0.0000 0.0000 0.0000
# 4 0.0000 0.0000 0.0000 2.8163 0.0000 0.0000
# 5 0.0000 0.0000 0.0000 0.0000 9.6423 0.0000
# 6 0.0000 0.0000 0.0000 0.0000 0.0000 40.6465
#
#
#
# Elastic Compliance Matrix: (Units=1/GPa)
#
#
# Indices 1 2 3 4 5 6 
#
# 1 0.012287 -0.009691 -0.001483 0.000000 0.000000 0.000000
# 2 -0.009691 0.015514 0.000602 0.000000 0.000000 0.000000
# 3 -0.001483 0.000602 0.014569 0.000000 0.000000 0.000000
# 4 0.000000 0.000000 0.000000 0.355070 0.000000 0.000000
# 5 0.000000 0.000000 0.000000 0.000000 0.103710 0.000000
# 6 0.000000 0.000000 0.000000 0.000000 0.000000 0.024602
#
#
# Mechanical properties :
#
#
# Convention : Reuss Voigt Hill
#
# Bulk Modulus (GPa) = 47.10985 66.29899 56.70442
# Shear Modulus (GPa) = 9.02573 26.70190 17.86382
#
# Velocity S-wave (km/s) = 2.04336 3.51459 2.87469
# Velocity P-wave (km/s) = 5.23070 6.86585 6.10328
#
# Compressibility (1/GPa) = 0.02122698
#
# Stress axis : x y z
#
# Youngs Moduli (GPa) = 81.38598 64.45591 68.63841
#
# Poissons Ratio (x) = 0.62463 0.10180
# Poissons Ratio (y) = 0.78870 -0.04133
# Poissons Ratio (z) = 0.12071 -0.03881
#
# Static dielectric constant tensor:
#      x y z
#    x 1.794400 0.000000 0.000000 
#    y 0.000000 1.830650 0.000000 
#    z 0.000000 0.000000 1.819100 
# 
# From -- ./inp_files/4693.got.cif
#   From: 2010.05.17/outbox.cif.g08.bks.cpg/sg28_3_cif.got.tgz:4693.got - 2010.06.04 01:15:21.
