data_PCOD9339697
_publ_section_title
;
Structure prediction by ZEFSAII (Michael W. Deem and Ramdas Pophale) SiO2 
 PCOD9339697
Probable space group: P M A 2
;
_chemical_formula_sum "Si O2"
_cell_formula_units_Z 32
_cell_length_a 30.765392
_cell_length_b 6.688656
_cell_length_c 8.555518
_cell_angle_alpha 90.000000
_cell_angle_beta 90.000000
_cell_angle_gamma 90.000000
_cell_volume 1760.546998
_symmetry_space_group_name_H-M "P M A 2"
_symmetry_group_IT_number 28
_symmetry_cell_setting 'orthorhombic'
loop_
_space_group_symop_operation_xyz
x,y,z
-x,-y,z
1/2-x,y,z
1/2+x,-y,z
loop_
_atom_site_type_symbol
_atom_site_label
_atom_site_fract_x
_atom_site_fract_y
_atom_site_fract_z
Si Si1 0.797534 0.516278 0.112210
Si Si2 0.623662 0.262558 0.972938
Si Si3 0.399190 0.309447 0.388309
Si Si4 0.167392 0.081344 0.163453
Si Si5 0.701779 0.247703 0.398936
Si Si6 0.544400 0.077002 0.459196
Si Si7 0.456016 0.617210 0.182974
Si Si8 0.119497 0.662559 0.606031
O O1 0.750000 0.446450 0.054254
O O2 0.802008 0.752330 0.088334
O O3 0.799032 0.449668 0.294581
O O4 0.839075 0.410819 0.037501
O O5 0.623401 0.297976 0.788826
O O6 0.576511 0.311736 0.046673
O O7 0.639145 0.046867 0.039995
O O8 0.362855 0.211812 0.278220
O O9 0.427051 0.464740 0.285681
O O10 0.383501 0.435783 0.539190
O O11 0.428430 0.122446 0.432929
O O12 0.193168 0.925119 0.271406
O O13 0.750000 0.226403 0.468414
O O14 0.661646 0.248184 0.517223
O O15 0.533761 0.195534 0.297719
O O16 0.575445 0.226328 0.552927
O O17 0.500000 0.000000 0.535403
O O18 0.500000 0.500000 0.136457
#
# Coordination Sequence:
#
# PCOD9339697 Si02
#       8
#     4   4   4   4   4   4   4   4
#     4  10  20  37  63  88 112 154 206 251 297 355
#     4  11  24  39  57  88 131 158 190 248 311 363
#     4  11  19  38  65  83 110 156 204 248 291 352
#     4  11  18  38  65  85 110 153 207 250 291 352
#     4  10  20  36  60  88 117 153 204 254 293 351
#     4  11  21  39  64  87 111 152 209 253 288 353
#     4  11  21  37  61  88 112 152 206 251 295 352
#     4  11  24  39  57  89 128 161 189 244 315 363
#
# _framework density 18.176168000000001
#
# number of rings (size 3 to 8) (size 9 to 14) (size 15 to 20)
#    0.000    1.250    6.250    1.875    0.000    2.000 
#    2.250    0.625    0.000    0.000    0.000    0.000 
#    0.000    0.000    0.000    0.000    0.000    0.000 
#
# Total GULP energy -178363.387496 kJ/mol
# GULP energy per Si atom -5573.855859 kJ/mol
# Density = 1.813480 g / cm^3
# Si number density = 18.176168 Si / 1000 Ang^3
#
#
#
# Elastic Constant Matrix: (Units=GPa)
#
#
# Indices 1 2 3 4 5 6 
#
# 1 130.1914 26.4302 44.3321 0.0000 0.0000 0.0000
# 2 26.4302 102.4242 27.0508 0.0000 0.0000 0.0000
# 3 44.3321 27.0508 92.5031 0.0000 0.0000 0.0000
# 4 0.0000 0.0000 0.0000 15.2458 0.0000 0.0000
# 5 0.0000 0.0000 0.0000 0.0000 -3.5462 0.0000
# 6 0.0000 0.0000 0.0000 0.0000 0.0000 18.5837
#
#
#
# Elastic Compliance Matrix: (Units=1/GPa)
#
#
# Indices 1 2 3 4 5 6 
#
# 1 0.009343 -0.001331 -0.004089 0.000000 0.000000 0.000000
# 2 -0.001331 0.010770 -0.002512 0.000000 0.000000 0.000000
# 3 -0.004089 -0.002512 0.013504 0.000000 0.000000 0.000000
# 4 0.000000 0.000000 0.000000 0.065592 0.000000 0.000000
# 5 0.000000 0.000000 0.000000 0.000000 -0.281993 0.000000
# 6 0.000000 0.000000 0.000000 0.000000 0.000000 0.053811
#
#
# Mechanical properties :
#
#
# Convention : Reuss Voigt Hill
#
# Bulk Modulus (GPa) = 56.32120 57.86052 57.09086
# Shear Modulus (GPa) = -46.64539 21.21037 -12.71751
#
# Velocity S-wave (km/s) = -5.07136 3.41975 -2.64802
# Velocity P-wave (km/s) = 1.79944 6.89167 4.70410
#
# Compressibility (1/GPa) = 0.01775530
#
# Stress axis : x y z
#
# Youngs Moduli (GPa) = 107.02663 92.84919 74.05024
#
# Poissons Ratio (x) = 0.12360 0.30276
# Poissons Ratio (y) = 0.14248 0.18598
# Poissons Ratio (z) = 0.43758 0.23319
#
# Static dielectric constant tensor:
#      x y z
#    x 1.683610 0.000000 0.000000 
#    y 0.000000 1.657640 0.000000 
#    z 0.000000 0.000000 1.608790 
# 
# From -- ./inp_files/4372.got.cif
#   From: 2010.05.17/outbox.cif.g08.bks.cpg/sg28_3_cif.got.tgz:4372.got - 2010.06.04 01:15:21.
