data_PCOD9339561
_publ_section_title
;
Structure prediction by ZEFSAII (Michael W. Deem and Ramdas Pophale) SiO2 
 PCOD9339561
Probable space group: P M A 2
;
_chemical_formula_sum "Si O2"
_cell_formula_units_Z 32
_cell_length_a 14.840485
_cell_length_b 11.760444
_cell_length_c 8.176201
_cell_angle_alpha 90.000000
_cell_angle_beta 90.000000
_cell_angle_gamma 90.000000
_cell_volume 1426.998025
_symmetry_space_group_name_H-M "P M A 2"
_symmetry_group_IT_number 28
_symmetry_cell_setting 'orthorhombic'
loop_
_space_group_symop_operation_xyz
x,y,z
-x,-y,z
1/2-x,y,z
1/2+x,-y,z
loop_
_atom_site_type_symbol
_atom_site_label
_atom_site_fract_x
_atom_site_fract_y
_atom_site_fract_z
Si Si1 0.851731 0.422204 0.587790
Si Si2 0.851260 0.854833 0.621235
Si Si3 0.594509 0.060313 0.428041
Si Si4 0.140327 0.364050 0.406112
Si Si5 0.358634 0.792068 0.737081
Si Si6 0.980139 0.628421 0.082647
Si Si7 0.652154 0.275429 0.253388
Si Si8 0.987693 0.872505 0.925383
O O1 0.750000 0.452180 0.640370
O O2 0.894452 0.536541 0.525720
O O3 0.888787 0.339405 0.725055
O O4 0.844543 0.340823 0.428361
O O5 0.750000 0.832622 0.687281
O O6 0.880397 0.750107 0.506253
O O7 0.922037 0.884763 0.765130
O O8 0.845481 0.958234 0.493612
O O9 0.595829 0.142587 0.585676
O O10 0.628680 0.144004 0.288085
O O11 0.500000 0.000000 0.393525
O O12 0.250000 0.372342 0.385562
O O13 0.090794 0.379398 0.233757
O O14 0.250000 0.800842 0.729525
O O15 0.407549 0.845487 0.888935
O O16 0.000000 0.500000 0.011295
O O17 0.075895 0.661909 0.157032
O O18 0.953227 0.749899 0.996464
O O19 0.750000 0.285220 0.175584
O O20 0.000000 0.000000 0.001394
#
# Coordination Sequence:
#
# PCOD9339561 Si02
#       8
#     4   4   4   4   4   4   4   4
#     4   8  16  33  62  95 119 149 203 264 323 384
#     4  11  22  39  66  96 126 163 210 268 340 403
#     4  11  18  34  65 100 128 156 204 271 326 385
#     4  10  22  41  66  97 129 163 210 274 344 404
#     4  10  19  36  64  92 121 163 213 268 324 385
#     4  12  27  43  65  93 129 179 226 273 331 392
#     4  10  21  39  65  95 126 165 217 272 328 397
#     4  12  27  44  60  91 132 176 219 268 325 398
#
# _framework density 22.424696000000001
#
# number of rings (size 3 to 8) (size 9 to 14) (size 15 to 20)
#    0.000    1.500    3.750    2.625    1.750    3.500 
#    0.000    0.000    0.000    0.000    0.000    0.000 
#    0.000    0.000    0.000    0.000    0.000    0.000 
#
# Total GULP energy -178192.575480 kJ/mol
# GULP energy per Si atom -5568.517984 kJ/mol
# Density = 2.237366 g / cm^3
# Si number density = 22.424696 Si / 1000 Ang^3
#
#
#
# Elastic Constant Matrix: (Units=GPa)
#
#
# Indices 1 2 3 4 5 6 
#
# 1 96.5918 12.4968 13.1805 0.0000 0.0000 0.0000
# 2 12.4968 183.9134 32.2137 0.0000 0.0000 0.0000
# 3 13.1805 32.2137 32.9976 0.0000 0.0000 0.0000
# 4 0.0000 0.0000 0.0000 37.6613 0.0000 0.0000
# 5 0.0000 0.0000 0.0000 0.0000 -4.4690 0.0000
# 6 0.0000 0.0000 0.0000 0.0000 0.0000 25.0395
#
#
#
# Elastic Compliance Matrix: (Units=1/GPa)
#
#
# Indices 1 2 3 4 5 6 
#
# 1 0.010950 0.000027 -0.004400 0.000000 0.000000 0.000000
# 2 0.000027 0.006559 -0.006414 0.000000 0.000000 0.000000
# 3 -0.004400 -0.006414 0.038324 0.000000 0.000000 0.000000
# 4 0.000000 0.000000 0.000000 0.026552 0.000000 0.000000
# 5 0.000000 0.000000 0.000000 0.000000 -0.223765 0.000000
# 6 0.000000 0.000000 0.000000 0.000000 0.000000 0.039937
#
#
# Mechanical properties :
#
#
# Convention : Reuss Voigt Hill
#
# Bulk Modulus (GPa) = 29.18943 47.69832 38.44388
# Shear Modulus (GPa) = -73.04690 28.68714 -22.17988
#
# Velocity S-wave (km/s) = -5.71358 3.58056 -3.14838
# Velocity P-wave (km/s) = 5.52103 6.19762 1.99107
#
# Compressibility (1/GPa) = 0.03425898
#
# Stress axis : x y z
#
# Youngs Moduli (GPa) = 91.32609 152.46348 26.09330
#
# Poissons Ratio (x) = -0.00406 0.11480
# Poissons Ratio (y) = -0.00243 0.16736
# Poissons Ratio (z) = 0.40181 0.97786
#
# Static dielectric constant tensor:
#      x y z
#    x 1.970770 0.000000 0.000000 
#    y 0.000000 1.946320 0.000000 
#    z 0.000000 0.000000 1.881390 
# 
# From -- ./inp_files/3570.got.cif
#   From: 2010.05.17/outbox.cif.g08.bks.cpg/sg28_2_cif.got.tgz:3570.got - 2010.06.04 01:15:21.
