data_PCOD9339922
_publ_section_title
;
Structure prediction by ZEFSAII (Michael W. Deem and Ramdas Pophale) SiO2 
 PCOD9339922
Probable space group: P M A 2
;
_chemical_formula_sum "Si O2"
_cell_formula_units_Z 20
_cell_length_a 17.575218
_cell_length_b 9.063390
_cell_length_c 5.160246
_cell_angle_alpha 90.000000
_cell_angle_beta 90.000000
_cell_angle_gamma 90.000000
_cell_volume 821.981030
_symmetry_space_group_name_H-M "P M A 2"
_symmetry_group_IT_number 28
_symmetry_cell_setting 'orthorhombic'
loop_
_space_group_symop_operation_xyz
x,y,z
-x,-y,z
1/2-x,y,z
1/2+x,-y,z
loop_
_atom_site_type_symbol
_atom_site_label
_atom_site_fract_x
_atom_site_fract_y
_atom_site_fract_z
Si Si1 0.160721 0.166526 0.949320
Si Si2 0.884507 0.166260 0.912597
Si Si3 0.338154 0.647085 0.413747
Si Si4 0.437798 0.397570 0.623880
Si Si5 0.976398 0.846099 0.268624
O O1 0.250000 0.193058 0.970942
O O2 0.118300 0.296888 0.793463
O O3 0.113228 0.157749 0.215671
O O4 0.145129 0.998955 0.853843
O O5 0.849693 0.246669 0.166544
O O6 0.973093 0.159588 0.006167
O O7 0.860373 0.262956 0.670793
O O8 0.250000 0.605029 0.423638
O O9 0.387744 0.498687 0.432418
O O10 0.500000 0.500000 0.771913
O O11 0.489440 0.290965 0.449449
O O12 0.000000 0.000000 0.395701
#
# Coordination Sequence:
#
# PCOD9339922 Si02
#       5
#     4   4   4   4   4
#     4  11  26  46  75 111 152 201 262 327 390 466
#     4  11  26  51  79 112 153 206 260 315 390 471
#     4  12  26  47  77 114 157 200 252 322 397 462
#     4  12  26  45  74 107 156 205 260 322 393 466
#     4  10  25  46  76 107 148 205 260 316 377 475
#
# _framework density 24.331461999999998
#
# number of rings (size 3 to 8) (size 9 to 14) (size 15 to 20)
#    0.000    0.800    2.000    3.600    8.400    3.200 
#    0.000    0.000    0.000    0.000    0.000    0.000 
#    0.000    0.000    0.000    0.000    0.000    0.000 
#
# Total GULP energy -111911.986805 kJ/mol
# GULP energy per Si atom -5595.599340 kJ/mol
# Density = 2.427608 g / cm^3
# Si number density = 24.331462 Si / 1000 Ang^3
#
#
#
# Elastic Constant Matrix: (Units=GPa)
#
#
# Indices 1 2 3 4 5 6 
#
# 1 209.6269 70.3956 38.0735 0.0000 0.0000 0.0000
# 2 70.3956 170.1528 50.9806 0.0000 0.0000 0.0000
# 3 38.0735 50.9806 103.8368 0.0000 0.0000 0.0000
# 4 0.0000 0.0000 0.0000 35.4016 0.0000 0.0000
# 5 0.0000 0.0000 0.0000 0.0000 -43.5965 0.0000
# 6 0.0000 0.0000 0.0000 0.0000 0.0000 14.9548
#
#
#
# Elastic Compliance Matrix: (Units=1/GPa)
#
#
# Indices 1 2 3 4 5 6 
#
# 1 0.005642 -0.002010 -0.001082 0.000000 0.000000 0.000000
# 2 -0.002010 0.007607 -0.002998 0.000000 0.000000 0.000000
# 3 -0.001082 -0.002998 0.011499 0.000000 0.000000 0.000000
# 4 0.000000 0.000000 0.000000 0.028247 0.000000 0.000000
# 5 0.000000 0.000000 0.000000 0.000000 -0.022938 0.000000
# 6 0.000000 0.000000 0.000000 0.000000 0.000000 0.066868
#
#
# Mechanical properties :
#
#
# Convention : Reuss Voigt Hill
#
# Bulk Modulus (GPa) = 79.56381 89.16845 84.36613
# Shear Modulus (GPa) = 44.13296 22.96311 33.54803
#
# Velocity S-wave (km/s) = 4.26352 3.07540 3.71724
# Velocity P-wave (km/s) = 7.55035 7.02408 7.29197
#
# Compressibility (1/GPa) = 0.01256853
#
# Stress axis : x y z
#
# Youngs Moduli (GPa) = 177.24659 131.46109 86.96450
#
# Poissons Ratio (x) = 0.26424 0.09408
# Poissons Ratio (y) = 0.35627 0.26069
# Poissons Ratio (z) = 0.19175 0.39408
#
# Static dielectric constant tensor:
#      x y z
#    x 2.054840 0.000000 0.000000 
#    y 0.000000 2.086950 0.000000 
#    z 0.000000 0.000000 1.929150 
# 
# From -- ./inp_files/1040.got.cif
#   From: 2010.05.17/outbox.cif.g08.bks.cpg/sg28_1_cif.got.tgz:1040.got - 2010.06.04 01:15:21.
