data_PCOD9339224
_publ_section_title
;
Structure prediction by ZEFSAII (Michael W. Deem and Ramdas Pophale) SiO2 
 PCOD9339224
Probable space group: P C C 2
;
_chemical_formula_sum "Si O2"
_cell_formula_units_Z 12
_cell_length_a 9.112046
_cell_length_b 4.864440
_cell_length_c 9.131654
_cell_angle_alpha 90.000000
_cell_angle_beta 90.000000
_cell_angle_gamma 90.000000
_cell_volume 404.760573
_symmetry_space_group_name_H-M "P C C 2"
_symmetry_group_IT_number 27
_symmetry_cell_setting 'orthorhombic'
loop_
_space_group_symop_operation_xyz
x,y,z
-x,-y,z
-x,y,1/2+z
x,-y,1/2+z
loop_
_atom_site_type_symbol
_atom_site_label
_atom_site_fract_x
_atom_site_fract_y
_atom_site_fract_z
Si Si1 0.398778 0.254997 0.696300
Si Si2 0.159702 0.884930 0.631939
Si Si3 0.829543 0.565897 0.399348
O O1 0.500000 0.500000 0.632998
O O2 0.303778 0.401125 0.820979
O O3 0.500000 0.000000 0.746333
O O4 0.284933 0.102431 0.586231
O O5 0.172025 0.591320 0.555859
O O6 0.178418 0.850902 0.806294
O O7 0.000000 0.000000 0.596124
O O8 0.000000 0.500000 0.353534
#
# Coordination Sequence:
#
# PCOD9339224 Si02
#       3
#     4   4   4
#     4  12  28  55  83 130 179 229 285 372 449 532
#     4  12  29  54  91 130 174 237 304 369 440 532
#     4  12  28  54  87 127 173 232 301 369 435 522
#
# _framework density 29.647155999999999
#
# number of rings (size 3 to 8) (size 9 to 14) (size 15 to 20)
#    0.000    0.000    6.667    1.000    4.667    1.333 
#    6.000    0.000    0.000    0.000    0.000    0.000 
#    0.000    0.000    0.000    0.000    0.000    0.000 
#
# Total GULP energy -67104.388223 kJ/mol
# GULP energy per Si atom -5592.032352 kJ/mol
# Density = 2.957968 g / cm^3
# Si number density = 29.647156 Si / 1000 Ang^3
#
#
#
# Elastic Constant Matrix: (Units=GPa)
#
#
# Indices 1 2 3 4 5 6 
#
# 1 185.6782 49.6301 23.9553 0.0000 0.0000 0.0000
# 2 49.6301 198.5596 12.2484 0.0000 0.0000 0.0000
# 3 23.9553 12.2484 160.5831 0.0000 0.0000 0.0000
# 4 0.0000 0.0000 0.0000 -35.9385 0.0000 0.0000
# 5 0.0000 0.0000 0.0000 0.0000-3608.4341 0.0000
# 6 0.0000 0.0000 0.0000 0.0000 0.0000 71.1682
#
#
#
# Elastic Compliance Matrix: (Units=1/GPa)
#
#
# Indices 1 2 3 4 5 6 
#
# 1 0.005864 -0.001418 -0.000767 0.000000 0.000000 0.000000
# 2 -0.001418 0.005403 -0.000201 0.000000 0.000000 0.000000
# 3 -0.000767 -0.000201 0.006357 0.000000 0.000000 0.000000
# 4 0.000000 0.000000 0.000000 -0.027825 0.000000 0.000000
# 5 0.000000 0.000000 0.000000 0.000000 -0.000277 0.000000
# 6 0.000000 0.000000 0.000000 0.000000 0.000000 0.014051
#
#
# Mechanical properties :
#
#
# Convention : Reuss Voigt Hill
#
# Bulk Modulus (GPa) = 77.80325 79.60982 78.70654
# Shear Modulus (GPa) = 395.95422 -684.04174 -144.04376
#
# Velocity S-wave (km/s) = 11.56916 -15.20620 -6.97793
# Velocity P-wave (km/s) = 14.30946 16.77480 6.19004
#
# Compressibility (1/GPa) = 0.01285293
#
# Stress axis : x y z
#
# Youngs Moduli (GPa) = 170.54173 185.07692 157.30813
#
# Poissons Ratio (x) = 0.26250 0.12058
# Poissons Ratio (y) = 0.24189 0.03155
# Poissons Ratio (z) = 0.13073 0.03711
#
# Static dielectric constant tensor:
#      x y z
#    x 4.920440 0.000000 0.000000 
#    y 0.000000 2.360550 0.000000 
#    z 0.000000 0.000000 2.455760 
# 
# From -- ./inp_files/1772.got.cif
#   From: 2010.05.17/outbox.cif.g08.bks.cpg/sg27_1_cif.got.tgz:1772.got - 2010.06.04 01:11:05.
