data_PCOD9339093
_publ_section_title
;
Structure prediction by ZEFSAII (Michael W. Deem and Ramdas Pophale) SiO2 
 PCOD9339093
Probable space group: P C C 2
;
_chemical_formula_sum "Si O2"
_cell_formula_units_Z 14
_cell_length_a 10.255018
_cell_length_b 6.056710
_cell_length_c 8.714050
_cell_angle_alpha 90.000000
_cell_angle_beta 90.000000
_cell_angle_gamma 90.000000
_cell_volume 541.244199
_symmetry_space_group_name_H-M "P C C 2"
_symmetry_group_IT_number 27
_symmetry_cell_setting 'orthorhombic'
loop_
_space_group_symop_operation_xyz
x,y,z
-x,-y,z
-x,y,1/2+z
x,-y,1/2+z
loop_
_atom_site_type_symbol
_atom_site_label
_atom_site_fract_x
_atom_site_fract_y
_atom_site_fract_z
Si Si1 0.000000 0.500000 0.009400
Si Si2 0.893571 0.185716 0.268573
Si Si3 0.648233 0.755280 0.627938
Si Si4 0.603077 0.334788 0.798357
O O1 0.060283 0.686290 0.116648
O O2 0.101282 0.367760 0.902446
O O3 0.751344 0.096853 0.221072
O O4 0.000000 0.000000 0.304540
O O5 0.664026 0.779463 0.446272
O O6 0.681824 0.505192 0.690907
O O7 0.499567 0.781700 0.685037
O O8 0.500000 0.500000 0.885637
#
# Coordination Sequence:
#
# PCOD9339093 Si02
#       4
#     2   4   4   4
#     4  10  24  40  60  88 126 174 222 268 334 368
#     4  11  22  39  62  95 129 174 225 267 328 401
#     4   9  15  27  52  86 126 154 202 265 316 392
#     4   8  13  26  48  88 124 160 202 245 338 390
#
# _framework density 25.866325
#
# number of rings (size 3 to 8) (size 9 to 14) (size 15 to 20)
#    1.714    0.571    2.857    2.571    0.000    0.000 
#    0.000    0.000    0.000    0.000    0.000  136.000 
#    0.000    0.000    0.000    0.000    0.000    0.000 
#
# Total GULP energy -78060.304101 kJ/mol
# GULP energy per Si atom -5575.736007 kJ/mol
# Density = 2.580745 g / cm^3
# Si number density = 25.866325 Si / 1000 Ang^3
#
#
#
# Elastic Constant Matrix: (Units=GPa)
#
#
# Indices 1 2 3 4 5 6 
#
# 1 64.8106 5.3716 24.5452 0.0000 0.0000 0.0000
# 2 5.3716 77.2074 52.7767 0.0000 0.0000 0.0000
# 3 24.5452 52.7767 191.8456 0.0000 0.0000 0.0000
# 4 0.0000 0.0000 0.0000 40.9579 0.0000 0.0000
# 5 0.0000 0.0000 0.0000 0.0000 31.0853 0.0000
# 6 0.0000 0.0000 0.0000 0.0000 0.0000 20.0620
#
#
#
# Elastic Compliance Matrix: (Units=1/GPa)
#
#
# Indices 1 2 3 4 5 6 
#
# 1 0.016223 0.000357 -0.002174 0.000000 0.000000 0.000000
# 2 0.000357 0.015960 -0.004436 0.000000 0.000000 0.000000
# 3 -0.002174 -0.004436 0.006711 0.000000 0.000000 0.000000
# 4 0.000000 0.000000 0.000000 0.024415 0.000000 0.000000
# 5 0.000000 0.000000 0.000000 0.000000 0.032170 0.000000
# 6 0.000000 0.000000 0.000000 0.000000 0.000000 0.049846
#
#
# Mechanical properties :
#
#
# Convention : Reuss Voigt Hill
#
# Bulk Modulus (GPa) = 37.89548 55.47229 46.68389
# Shear Modulus (GPa) = 30.00728 35.16572 32.58650
#
# Velocity S-wave (km/s) = 3.40971 3.69116 3.55322
# Velocity P-wave (km/s) = 5.49398 6.29750 5.90941
#
# Compressibility (1/GPa) = 0.02638837
#
# Stress axis : x y z
#
# Youngs Moduli (GPa) = 61.63986 62.65765 149.00749
#
# Poissons Ratio (x) = -0.02239 0.32393
# Poissons Ratio (y) = -0.02203 0.66103
# Poissons Ratio (z) = 0.13400 0.27796
#
# Static dielectric constant tensor:
#      x y z
#    x 2.144420 0.000000 0.000000 
#    y 0.000000 2.169180 0.000000 
#    z 0.000000 0.000000 1.909720 
# 
# From -- ./inp_files/1298.got.cif
#   From: 2010.05.17/outbox.cif.g08.bks.cpg/sg27_1_cif.got.tgz:1298.got - 2010.06.04 01:11:05.
