data_PCOD9339036
_publ_section_title
;
Structure prediction by ZEFSAII (Michael W. Deem and Ramdas Pophale) SiO2 
 PCOD9339036
Probable space group: P C C 2
;
_chemical_formula_sum "Si O2"
_cell_formula_units_Z 16
_cell_length_a 8.166464
_cell_length_b 7.844304
_cell_length_c 11.291580
_cell_angle_alpha 90.000000
_cell_angle_beta 90.000000
_cell_angle_gamma 90.000000
_cell_volume 723.341169
_symmetry_space_group_name_H-M "P C C 2"
_symmetry_group_IT_number 27
_symmetry_cell_setting 'orthorhombic'
loop_
_space_group_symop_operation_xyz
x,y,z
-x,-y,z
-x,y,1/2+z
x,-y,1/2+z
loop_
_atom_site_type_symbol
_atom_site_label
_atom_site_fract_x
_atom_site_fract_y
_atom_site_fract_z
Si Si1 0.765630 0.311601 0.511440
Si Si2 0.963954 0.183385 0.833769
Si Si3 0.500000 0.500000 0.844844
Si Si4 0.000000 0.500000 0.665972
Si Si5 0.379221 0.160873 0.238884
O O1 0.637948 0.407109 0.425960
O O2 0.844763 0.465939 0.585349
O O3 0.690948 0.176422 0.605028
O O4 0.918590 0.218986 0.445249
O O5 0.011777 0.335588 0.747273
O O6 0.766974 0.171110 0.837172
O O7 0.000000 0.000000 0.779621
O O8 0.541974 0.343847 0.759594
O O9 0.500000 0.000000 0.253954
#
# Coordination Sequence:
#
# PCOD9339036 Si02
#       5
#     4   4   2   2   4
#     4  11  23  41  71 100 134 185 228 280 347 409
#     4  11  24  43  68  97 134 179 229 281 339 411
#     4  12  24  44  68  98 140 180 226 286 342 402
#     4  10  22  44  66  98 136 174 228 280 336 412
#     4  11  26  45  68 101 139 178 228 287 344 408
#
# _framework density 22.119575999999999
#
# number of rings (size 3 to 8) (size 9 to 14) (size 15 to 20)
#    0.000    1.000    0.000    7.500    0.000    9.000 
#    0.000    5.000    0.000    0.000    0.000    0.000 
#    0.000    0.000    0.000    0.000    0.000    0.000 
#
# Total GULP energy -89230.053363 kJ/mol
# GULP energy per Si atom -5576.878335 kJ/mol
# Density = 2.206923 g / cm^3
# Si number density = 22.119576 Si / 1000 Ang^3
#
#
#
# Elastic Constant Matrix: (Units=GPa)
#
#
# Indices 1 2 3 4 5 6 
#
# 1 129.1476 70.8078 68.4020 0.0000 0.0000 0.0000
# 2 70.8078 166.3652 32.3446 0.0000 0.0000 0.0000
# 3 68.4020 32.3446 96.2368 0.0000 0.0000 0.0000
# 4 0.0000 0.0000 0.0000 -10.7733 0.0000 0.0000
# 5 0.0000 0.0000 0.0000 0.0000 181.1840 0.0000
# 6 0.0000 0.0000 0.0000 0.0000 0.0000 47.7791
#
#
#
# Elastic Compliance Matrix: (Units=1/GPa)
#
#
# Indices 1 2 3 4 5 6 
#
# 1 0.015192 -0.004672 -0.009228 0.000000 0.000000 0.000000
# 2 -0.004672 0.007868 0.000676 0.000000 0.000000 0.000000
# 3 -0.009228 0.000676 0.016723 0.000000 0.000000 0.000000
# 4 0.000000 0.000000 0.000000 -0.092822 0.000000 0.000000
# 5 0.000000 0.000000 0.000000 0.000000 0.005519 0.000000
# 6 0.000000 0.000000 0.000000 0.000000 0.000000 0.020930
#
#
# Mechanical properties :
#
#
# Convention : Reuss Voigt Hill
#
# Bulk Modulus (GPa) = 74.98721 81.65095 78.31908
# Shear Modulus (GPa) = 1162.49555 58.31764 610.40659
#
# Velocity S-wave (km/s) = 22.94976 5.14023 16.62999
# Velocity P-wave (km/s) = 27.13355 8.49840 20.10538
#
# Compressibility (1/GPa) = 0.01333561
#
# Stress axis : x y z
#
# Youngs Moduli (GPa) = 65.82435 127.09995 59.79956
#
# Poissons Ratio (x) = 0.59380 0.55182
# Poissons Ratio (y) = 0.30752 -0.04044
# Poissons Ratio (z) = 0.60741 -0.08596
#
# Static dielectric constant tensor:
#      x y z
#    x 1.777970 0.000000 0.000000 
#    y 0.000000 2.442320 0.000000 
#    z 0.000000 0.000000 1.871450 
# 
# From -- ./inp_files/1821.got.cif
#   From: 2010.05.17/outbox.cif.g08.bks.cpg/sg27_1_cif.got.tgz:1821.got - 2010.06.04 01:11:05.
