data_PCOD9339476
_publ_section_title
;
Structure prediction by ZEFSAII (Michael W. Deem and Ramdas Pophale) SiO2 
 PCOD9339476
Probable space group: P M A 2
;
_chemical_formula_sum "Si O2"
_cell_formula_units_Z 32
_cell_length_a 8.861778
_cell_length_b 14.956034
_cell_length_c 12.435404
_cell_angle_alpha 90.000000
_cell_angle_beta 90.000000
_cell_angle_gamma 90.000000
_cell_volume 1648.151800
_symmetry_space_group_name_H-M "P M A 2"
_symmetry_group_IT_number 28
_symmetry_cell_setting 'orthorhombic'
loop_
_space_group_symop_operation_xyz
x,y,z
-x,-y,z
1/2-x,y,z
1/2+x,-y,z
loop_
_atom_site_type_symbol
_atom_site_label
_atom_site_fract_x
_atom_site_fract_y
_atom_site_fract_z
Si Si1 0.071027 0.150454 0.324020
Si Si2 0.071567 0.665177 0.394254
Si Si3 0.072528 0.092066 0.566369
Si Si4 0.426992 0.714812 0.031694
Si Si5 0.429795 0.598984 0.817527
Si Si6 0.068211 0.292925 0.618902
Si Si7 0.072963 0.413834 0.193062
Si Si8 0.070799 0.910653 0.101424
O O1 0.250000 0.171376 0.312875
O O2 0.053696 0.097971 0.436544
O O3 0.973911 0.239207 0.343810
O O4 0.009512 0.104272 0.216988
O O5 0.250000 0.656704 0.405994
O O6 0.990350 0.662419 0.508917
O O7 0.006703 0.596967 0.307713
O O8 0.250000 0.087941 0.587997
O O9 0.018053 0.187940 0.613174
O O10 0.000000 0.000000 0.605654
O O11 0.250000 0.701427 0.061921
O O12 0.454315 0.661184 0.922186
O O13 0.531655 0.671552 0.122010
O O14 0.453105 0.821077 0.031462
O O15 0.500000 0.500000 0.829369
O O16 0.250000 0.589906 0.801803
O O17 0.502451 0.652082 0.717971
O O18 0.250000 0.293814 0.620074
O O19 0.250000 0.424021 0.204842
O O20 0.000000 0.500000 0.136885
O O21 0.250000 0.921419 0.117938
O O22 0.000000 0.000000 0.052514
#
# Coordination Sequence:
#
# PCOD9339476 Si02
#       8
#     4   4   4   4   4   4   4   4
#     4  10  19  33  53  83 121 164 209 251 298 359
#     4  11  21  36  58  87 124 163 201 247 306 364
#     4   9  19  33  53  83 121 160 202 246 294 352
#     4  10  23  43  64  89 123 159 203 255 307 365
#     4  11  24  44  69  94 118 153 203 257 313 372
#     4  10  22  41  62  89 123 159 204 255 306 364
#     4  12  24  38  60  89 123 161 202 247 305 371
#     4  11  22  36  57  86 123 165 208 255 304 362
#
# _framework density 19.415686999999998
#
# number of rings (size 3 to 8) (size 9 to 14) (size 15 to 20)
#    0.000    1.500    1.250    5.250    0.000    7.000 
#    0.000    3.125    0.000    3.000    0.000    0.000 
#    0.000    0.000    0.000    0.000    0.000    0.000 
#
# Total GULP energy -178739.275838 kJ/mol
# GULP energy per Si atom -5585.602370 kJ/mol
# Density = 1.937150 g / cm^3
# Si number density = 19.415687 Si / 1000 Ang^3
#
#
#
# Elastic Constant Matrix: (Units=GPa)
#
#
# Indices 1 2 3 4 5 6 
#
# 1 102.9990 63.8753 53.5418 0.0000 0.0000 0.0000
# 2 63.8753 128.0688 46.0767 0.0000 0.0000 0.0000
# 3 53.5418 46.0767 75.6713 0.0000 0.0000 0.0000
# 4 0.0000 0.0000 0.0000 15.4660 0.0000 0.0000
# 5 0.0000 0.0000 0.0000 0.0000 40.5243 0.0000
# 6 0.0000 0.0000 0.0000 0.0000 0.0000 33.3742
#
#
#
# Elastic Compliance Matrix: (Units=1/GPa)
#
#
# Indices 1 2 3 4 5 6 
#
# 1 0.018071 -0.005651 -0.009346 0.000000 0.000000 0.000000
# 2 -0.005651 0.011766 -0.003166 0.000000 0.000000 0.000000
# 3 -0.009346 -0.003166 0.021755 0.000000 0.000000 0.000000
# 4 0.000000 0.000000 0.000000 0.064658 0.000000 0.000000
# 5 0.000000 0.000000 0.000000 0.000000 0.024677 0.000000
# 6 0.000000 0.000000 0.000000 0.000000 0.000000 0.029963
#
#
# Mechanical properties :
#
#
# Convention : Reuss Voigt Hill
#
# Bulk Modulus (GPa) = 65.49823 70.41408 67.95615
# Shear Modulus (GPa) = 23.55108 27.42259 25.48684
#
# Velocity S-wave (km/s) = 3.48658 3.76226 3.62704
# Velocity P-wave (km/s) = 7.07222 7.43089 7.25377
#
# Compressibility (1/GPa) = 0.01526759
#
# Stress axis : x y z
#
# Youngs Moduli (GPa) = 55.33604 84.99240 45.96544
#
# Poissons Ratio (x) = 0.48028 0.42958
# Poissons Ratio (y) = 0.31270 0.14552
# Poissons Ratio (z) = 0.51716 0.26908
#
# Static dielectric constant tensor:
#      x y z
#    x 1.646910 0.000000 0.000000 
#    y 0.000000 1.641170 0.000000 
#    z 0.000000 0.000000 1.673520 
# 
# From -- ./inp_files/5048.got.cif
#   From: 2010.05.17/outbox.cif.g08.bks.cpg/sg28_3_cif.got.tgz:5048.got - 2010.06.04 01:15:21.
