data_PCOD9339080
_publ_section_title
;
Structure prediction by ZEFSAII (Michael W. Deem and Ramdas Pophale) SiO2 
 PCOD9339080
Probable space group: P C C 2
;
_chemical_formula_sum "Si O2"
_cell_formula_units_Z 26
_cell_length_a 8.041690
_cell_length_b 11.042609
_cell_length_c 13.590491
_cell_angle_alpha 90.000000
_cell_angle_beta 90.000000
_cell_angle_gamma 90.000000
_cell_volume 1206.852431
_symmetry_space_group_name_H-M "P C C 2"
_symmetry_group_IT_number 27
_symmetry_cell_setting 'orthorhombic'
loop_
_space_group_symop_operation_xyz
x,y,z
-x,-y,z
-x,y,1/2+z
x,-y,1/2+z
loop_
_atom_site_type_symbol
_atom_site_label
_atom_site_fract_x
_atom_site_fract_y
_atom_site_fract_z
Si Si1 0.638446 0.900920 0.979740
Si Si2 0.000000 0.500000 0.566687
Si Si3 0.835538 0.071228 0.304475
Si Si4 0.346535 0.141100 0.208764
Si Si5 0.776839 0.531695 0.381799
Si Si6 0.017121 0.696993 0.737080
Si Si7 0.449948 0.685029 0.342849
O O1 0.806761 0.934157 0.921951
O O2 0.599189 0.773614 0.930149
O O3 0.500000 0.000000 0.954718
O O4 0.637155 0.886626 0.094898
O O5 0.155765 0.501015 0.490498
O O6 0.987468 0.615270 0.640028
O O7 0.872636 0.207099 0.266459
O O8 0.688686 0.989029 0.259544
O O9 0.000000 0.000000 0.277511
O O10 0.180245 0.221335 0.219859
O O11 0.490676 0.226223 0.254614
O O12 0.920692 0.607624 0.324917
O O13 0.616080 0.617935 0.380409
O O14 0.695810 0.414353 0.327432
#
# Coordination Sequence:
#
# PCOD9339080 Si02
#       7
#     4   2   4   4   4   4   4
#     4  12  25  39  70 100 131 176 223 282 346 408
#     4  12  24  40  68 106 130 180 226 272 350 400
#     4  10  24  46  66  95 139 176 224 284 338 407
#     4  10  23  45  66  99 132 182 229 274 349 408
#     4  10  24  44  68  95 136 177 228 279 335 402
#     4  10  24  42  67  98 135 178 225 286 335 403
#     4  10  23  46  66  94 137 177 224 284 331 404
#
# _framework density 21.543645000000001
#
# number of rings (size 3 to 8) (size 9 to 14) (size 15 to 20)
#    0.000    1.538    1.538    1.385    8.615    4.308 
#    0.000    3.077    0.000    0.000    0.000    0.000 
#    0.000    0.000    0.000    0.000    0.000    0.000 
#
# Total GULP energy -145033.243320 kJ/mol
# GULP energy per Si atom -5578.201666 kJ/mol
# Density = 2.149461 g / cm^3
# Si number density = 21.543645 Si / 1000 Ang^3
#
#
#
# Elastic Constant Matrix: (Units=GPa)
#
#
# Indices 1 2 3 4 5 6 
#
# 1 87.0646 53.4107 32.1326 0.0000 0.0000 0.0000
# 2 53.4107 141.2039 48.8176 0.0000 0.0000 0.0000
# 3 32.1326 48.8176 151.9845 0.0000 0.0000 0.0000
# 4 0.0000 0.0000 0.0000 37.8198 0.0000 0.0000
# 5 0.0000 0.0000 0.0000 0.0000 26.5642 0.0000
# 6 0.0000 0.0000 0.0000 0.0000 0.0000 63.4731
#
#
#
# Elastic Compliance Matrix: (Units=1/GPa)
#
#
# Indices 1 2 3 4 5 6 
#
# 1 0.015272 -0.005243 -0.001545 0.000000 0.000000 0.000000
# 2 -0.005243 0.009766 -0.002029 0.000000 0.000000 0.000000
# 3 -0.001545 -0.002029 0.007558 0.000000 0.000000 0.000000
# 4 0.000000 0.000000 0.000000 0.026441 0.000000 0.000000
# 5 0.000000 0.000000 0.000000 0.000000 0.037645 0.000000
# 6 0.000000 0.000000 0.000000 0.000000 0.000000 0.015755
#
#
# Mechanical properties :
#
#
# Convention : Reuss Voigt Hill
#
# Bulk Modulus (GPa) = 66.82671 72.10830 69.46750
# Shear Modulus (GPa) = 37.02150 41.96424 39.49287
#
# Velocity S-wave (km/s) = 4.14991 4.41826 4.28618
# Velocity P-wave (km/s) = 7.35179 7.71825 7.53725
#
# Compressibility (1/GPa) = 0.01496408
#
# Stress axis : x y z
#
# Youngs Moduli (GPa) = 65.47936 102.39309 132.31335
#
# Poissons Ratio (x) = 0.53680 0.20441
# Poissons Ratio (y) = 0.34328 0.26841
# Poissons Ratio (z) = 0.10116 0.20771
#
# Static dielectric constant tensor:
#      x y z
#    x 1.864240 0.000000 0.000000 
#    y 0.000000 1.803670 0.000000 
#    z 0.000000 0.000000 1.746980 
# 
# From -- ./inp_files/2362.got.cif
#   From: 2010.05.17/outbox.cif.g08.bks.cpg/sg27_2_cif.got.tgz:2362.got - 2010.06.04 01:11:05.
