data_PCOD9339731
_publ_section_title
;
Structure prediction by ZEFSAII (Michael W. Deem and Ramdas Pophale) SiO2 
 PCOD9339731
Probable space group: P M A 2
;
_chemical_formula_sum "Si O2"
_cell_formula_units_Z 24
_cell_length_a 18.385709
_cell_length_b 10.860377
_cell_length_c 5.191215
_cell_angle_alpha 90.000000
_cell_angle_beta 90.000000
_cell_angle_gamma 90.000000
_cell_volume 1036.559651
_symmetry_space_group_name_H-M "P M A 2"
_symmetry_group_IT_number 28
_symmetry_cell_setting 'orthorhombic'
loop_
_space_group_symop_operation_xyz
x,y,z
-x,-y,z
1/2-x,y,z
1/2+x,-y,z
loop_
_atom_site_type_symbol
_atom_site_label
_atom_site_fract_x
_atom_site_fract_y
_atom_site_fract_z
Si Si1 0.949515 0.825580 0.233580
Si Si2 0.425123 0.715210 0.025466
Si Si3 0.332192 0.746491 0.528678
Si Si4 0.829661 0.962079 0.465662
Si Si5 0.534641 0.617288 0.642899
Si Si6 0.832991 0.726071 0.846791
O O1 0.905482 0.944063 0.318786
O O2 0.974311 0.741296 0.474459
O O3 0.883458 0.753301 0.091801
O O4 0.021492 0.834134 0.061522
O O5 0.366795 0.713609 0.800149
O O6 0.487303 0.627204 0.904988
O O7 0.381029 0.701164 0.289563
O O8 0.250000 0.701608 0.497857
O O9 0.329484 0.895809 0.540090
O O10 0.750000 0.941446 0.330876
O O11 0.832442 0.854846 0.683482
O O12 0.500000 0.500000 0.504333
O O13 0.620661 0.620877 0.699637
O O14 0.750000 0.692884 0.900116
#
# Coordination Sequence:
#
# PCOD9339731 Si02
#       6
#     4   4   4   4   4   4
#     4  10  20  38  62  94 130 166 212 276 323 390
#     4  11  23  44  62  96 126 164 222 264 323 383
#     4  11  24  43  65  89 133 180 217 261 317 388
#     4   9  20  37  60  92 129 176 216 257 322 386
#     4  10  22  43  69  90 130 173 217 274 343 387
#     4   9  19  37  62  95 129 163 217 274 326 388
#
# _framework density 23.153517000000001
#
# number of rings (size 3 to 8) (size 9 to 14) (size 15 to 20)
#    0.000    2.000    1.667    1.000    2.333    4.000 
#    6.000    1.667    0.000    0.000    0.000    0.000 
#    0.000    0.000    0.000    0.000    0.000    0.000 
#
# Total GULP energy -133655.671412 kJ/mol
# GULP energy per Si atom -5568.986309 kJ/mol
# Density = 2.310082 g / cm^3
# Si number density = 23.153517 Si / 1000 Ang^3
#
#
#
# Elastic Constant Matrix: (Units=GPa)
#
#
# Indices 1 2 3 4 5 6 
#
# 1 177.0143 13.7223 59.8804 0.0000 0.0000 0.0000
# 2 13.7223 53.7790 5.3315 0.0000 0.0000 0.0000
# 3 59.8804 5.3315 98.6889 0.0000 0.0000 0.0000
# 4 0.0000 0.0000 0.0000 13.3118 0.0000 0.0000
# 5 0.0000 0.0000 0.0000 0.0000 41.1859 0.0000
# 6 0.0000 0.0000 0.0000 0.0000 0.0000 24.8171
#
#
#
# Elastic Compliance Matrix: (Units=1/GPa)
#
#
# Indices 1 2 3 4 5 6 
#
# 1 0.007214 -0.001414 -0.004301 0.000000 0.000000 0.000000
# 2 -0.001414 0.018972 -0.000167 0.000000 0.000000 0.000000
# 3 -0.004301 -0.000167 0.012751 0.000000 0.000000 0.000000
# 4 0.000000 0.000000 0.000000 0.075121 0.000000 0.000000
# 5 0.000000 0.000000 0.000000 0.000000 0.024280 0.000000
# 6 0.000000 0.000000 0.000000 0.000000 0.000000 0.040295
#
#
# Mechanical properties :
#
#
# Convention : Reuss Voigt Hill
#
# Bulk Modulus (GPa) = 36.80035 54.15008 45.47521
# Shear Modulus (GPa) = 25.06840 32.56616 28.81728
#
# Velocity S-wave (km/s) = 3.29402 3.75444 3.53174
# Velocity P-wave (km/s) = 5.51325 6.49867 6.02614
#
# Compressibility (1/GPa) = 0.02717366
#
# Stress axis : x y z
#
# Youngs Moduli (GPa) = 138.62511 52.70920 78.42354
#
# Poissons Ratio (x) = 0.07455 0.33727
# Poissons Ratio (y) = 0.19606 0.01308
# Poissons Ratio (z) = 0.59617 0.00879
#
# Static dielectric constant tensor:
#      x y z
#    x 1.899040 0.000000 0.000000 
#    y 0.000000 1.974920 0.000000 
#    z 0.000000 0.000000 1.974690 
# 
# From -- ./inp_files/1134.got.cif
#   From: 2010.05.17/outbox.cif.g08.bks.cpg/sg28_1_cif.got.tgz:1134.got - 2010.06.04 01:15:21.
