data_PCOD9339140
_publ_section_title
;
Structure prediction by ZEFSAII (Michael W. Deem and Ramdas Pophale) SiO2 
 PCOD9339140
Probable space group: P C C 2
;
_chemical_formula_sum "Si O2"
_cell_formula_units_Z 22
_cell_length_a 6.504121
_cell_length_b 11.436662
_cell_length_c 15.005820
_cell_angle_alpha 90.000000
_cell_angle_beta 90.000000
_cell_angle_gamma 90.000000
_cell_volume 1116.214425
_symmetry_space_group_name_H-M "P C C 2"
_symmetry_group_IT_number 27
_symmetry_cell_setting 'orthorhombic'
loop_
_space_group_symop_operation_xyz
x,y,z
-x,-y,z
-x,y,1/2+z
x,-y,1/2+z
loop_
_atom_site_type_symbol
_atom_site_label
_atom_site_fract_x
_atom_site_fract_y
_atom_site_fract_z
Si Si1 0.500000 0.000000 0.335201
Si Si2 0.802383 0.192969 0.893227
Si Si3 0.461024 0.376817 0.852314
Si Si4 0.816123 0.817082 0.764001
Si Si5 0.213814 0.535026 0.519871
Si Si6 0.095264 0.298942 0.580316
O O1 0.638075 0.912127 0.393541
O O2 0.342811 0.923273 0.276669
O O3 0.671595 0.305976 0.862716
O O4 0.981294 0.163702 0.823419
O O5 0.891918 0.225171 0.989535
O O6 0.500000 0.500000 0.805478
O O7 0.298507 0.295724 0.804173
O O8 0.366300 0.410138 0.949150
O O9 0.866586 0.783535 0.663259
O O10 0.748266 0.588476 0.569921
O O11 0.000000 0.500000 0.467859
O O12 0.125302 0.634686 0.585182
#
# Coordination Sequence:
#
# PCOD9339140 Si02
#       6
#     2   4   4   4   4   4
#     4  10  26  44  66  92 122 172 232 284 310 388
#     4  11  22  43  66  90 131 171 214 276 328 379
#     4  11  20  36  65  95 132 176 206 259 323 400
#     4  11  23  44  64  95 132 171 224 268 333 374
#     4   8  17  37  55  96 135 160 207 249 319 394
#     4   9  20  39  66  92 131 178 199 265 322 392
#
# _framework density 19.709475999999999
#
# number of rings (size 3 to 8) (size 9 to 14) (size 15 to 20)
#    1.091    0.727    3.636    0.545    0.000    3.636 
#    9.818    3.636    0.000    0.000    0.000    0.000 
#    0.000    0.000    0.000    0.000    0.000    0.000 
#
# Total GULP energy -122545.621772 kJ/mol
# GULP energy per Si atom -5570.255535 kJ/mol
# Density = 1.966462 g / cm^3
# Si number density = 19.709476 Si / 1000 Ang^3
#
#
#
# Elastic Constant Matrix: (Units=GPa)
#
#
# Indices 1 2 3 4 5 6 
#
# 1 88.4649 38.2599 25.5935 0.0000 0.0000 0.0000
# 2 38.2599 121.9616 36.6343 0.0000 0.0000 0.0000
# 3 25.5935 36.6343 92.1002 0.0000 0.0000 0.0000
# 4 0.0000 0.0000 0.0000 10.0231 0.0000 0.0000
# 5 0.0000 0.0000 0.0000 0.0000 9.2281 0.0000
# 6 0.0000 0.0000 0.0000 0.0000 0.0000 30.5227
#
#
#
# Elastic Compliance Matrix: (Units=1/GPa)
#
#
# Indices 1 2 3 4 5 6 
#
# 1 0.013512 -0.003533 -0.002349 0.000000 0.000000 0.000000
# 2 -0.003533 0.010236 -0.003090 0.000000 0.000000 0.000000
# 3 -0.002349 -0.003090 0.012740 0.000000 0.000000 0.000000
# 4 0.000000 0.000000 0.000000 0.099769 0.000000 0.000000
# 5 0.000000 0.000000 0.000000 0.000000 0.108365 0.000000
# 6 0.000000 0.000000 0.000000 0.000000 0.000000 0.032762
#
#
# Mechanical properties :
#
#
# Convention : Reuss Voigt Hill
#
# Bulk Modulus (GPa) = 53.92922 55.94466 54.93694
# Shear Modulus (GPa) = 16.58327 23.42405 20.00366
#
# Velocity S-wave (km/s) = 2.90381 3.45115 3.18925
# Velocity P-wave (km/s) = 6.21806 6.65784 6.44171
#
# Compressibility (1/GPa) = 0.01854282
#
# Stress axis : x y z
#
# Youngs Moduli (GPa) = 74.01061 97.69777 78.49561
#
# Poissons Ratio (x) = 0.34516 0.18442
# Poissons Ratio (y) = 0.26147 0.24252
# Poissons Ratio (z) = 0.17388 0.30185
#
# Static dielectric constant tensor:
#      x y z
#    x 1.772120 0.000000 0.000000 
#    y 0.000000 1.733620 0.000000 
#    z 0.000000 0.000000 1.658460 
# 
# From -- ./inp_files/3011.got.cif
#   From: 2010.05.17/outbox.cif.g08.bks.cpg/sg27_2_cif.got.tgz:3011.got - 2010.06.04 01:11:05.
