data_PCOD9339459
_publ_section_title
;
Structure prediction by ZEFSAII (Michael W. Deem and Ramdas Pophale) SiO2 
 PCOD9339459
Probable space group: P M A 2
;
_chemical_formula_sum "Si O2"
_cell_formula_units_Z 24
_cell_length_a 8.936475
_cell_length_b 16.089431
_cell_length_c 9.415494
_cell_angle_alpha 90.000000
_cell_angle_beta 90.000000
_cell_angle_gamma 90.000000
_cell_volume 1353.786071
_symmetry_space_group_name_H-M "P M A 2"
_symmetry_group_IT_number 28
_symmetry_cell_setting 'orthorhombic'
loop_
_space_group_symop_operation_xyz
x,y,z
-x,-y,z
1/2-x,y,z
1/2+x,-y,z
loop_
_atom_site_type_symbol
_atom_site_label
_atom_site_fract_x
_atom_site_fract_y
_atom_site_fract_z
Si Si1 0.929015 0.759813 0.229400
Si Si2 0.423976 0.585947 0.225274
Si Si3 0.429942 0.913239 0.063244
Si Si4 0.572224 0.754518 0.565101
Si Si5 0.421498 0.584304 0.571382
Si Si6 0.930728 0.914742 0.749449
O O1 0.750000 0.765211 0.208082
O O2 0.960782 0.766113 0.398165
O O3 0.989181 0.669423 0.181438
O O4 0.012671 0.834569 0.151516
O O5 0.500000 0.500000 0.176767
O O6 0.250000 0.589557 0.183864
O O7 0.429144 0.584413 0.398363
O O8 0.250000 0.918185 0.060722
O O9 0.500000 0.000000 0.119353
O O10 0.496164 0.904252 0.904389
O O11 0.750000 0.743262 0.577069
O O12 0.496104 0.670136 0.617790
O O13 0.530601 0.835864 0.653136
O O14 0.500000 0.500000 0.620475
O O15 0.250000 0.582840 0.613652
O O16 0.750000 0.921366 0.761188
O O17 0.000000 0.000000 0.689640
#
# Coordination Sequence:
#
# PCOD9339459 Si02
#       6
#     4   4   4   4   4   4
#     4  10  19  33  52  77 106 135 167 209 254 297
#     4   9  16  27  44  70 101 135 170 206 247 295
#     4  11  22  37  55  75  99 132 171 209 250 303
#     4   9  19  33  51  76 105 133 166 207 252 296
#     4   9  16  26  44  69 100 134 168 204 245 292
#     4  10  20  36  55  75  99 131 168 207 250 301
#
# _framework density 17.728059999999999
#
# number of rings (size 3 to 8) (size 9 to 14) (size 15 to 20)
#    0.000    2.333    0.000    4.500    0.000    6.667 
#    0.000    1.667    0.000    1.000    0.000    2.333 
#    0.000    0.000    0.000    0.000    0.000    0.000 
#
# Total GULP energy -133870.304629 kJ/mol
# GULP energy per Si atom -5577.929360 kJ/mol
# Density = 1.768771 g / cm^3
# Si number density = 17.728060 Si / 1000 Ang^3
#
#
#
# Elastic Constant Matrix: (Units=GPa)
#
#
# Indices 1 2 3 4 5 6 
#
# 1 105.5932 99.9815 37.4689 0.0000 0.0000 0.0000
# 2 99.9815 220.4849 55.4034 0.0000 0.0000 0.0000
# 3 37.4689 55.4034 21.0892 0.0000 0.0000 0.0000
# 4 0.0000 0.0000 0.0000 -26.6620 0.0000 0.0000
# 5 0.0000 0.0000 0.0000 0.0000 52.1451 0.0000
# 6 0.0000 0.0000 0.0000 0.0000 0.0000 41.6830
#
#
#
# Elastic Compliance Matrix: (Units=1/GPa)
#
#
# Indices 1 2 3 4 5 6 
#
# 1 0.025647 -0.000529 -0.044176 0.000000 0.000000 0.000000
# 2 -0.000529 0.013356 -0.034146 0.000000 0.000000 0.000000
# 3 -0.044176 -0.034146 0.215611 0.000000 0.000000 0.000000
# 4 0.000000 0.000000 0.000000 -0.037507 0.000000 0.000000
# 5 0.000000 0.000000 0.000000 0.000000 0.019177 0.000000
# 6 0.000000 0.000000 0.000000 0.000000 0.000000 0.023991
#
#
# Mechanical properties :
#
#
# Convention : Reuss Voigt Hill
#
# Bulk Modulus (GPa) = 10.31886 81.43054 45.87470
# Shear Modulus (GPa) = 11.10412 23.72077 17.41245
#
# Velocity S-wave (km/s) = 2.50543 3.66188 3.13740
# Velocity P-wave (km/s) = 3.76867 7.99450 6.24960
#
# Compressibility (1/GPa) = 0.09690996
#
# Stress axis : x y z
#
# Youngs Moduli (GPa) = 38.99053 74.87360 4.63798
#
# Poissons Ratio (x) = 0.03964 0.20489
# Poissons Ratio (y) = 0.02064 0.15837
# Poissons Ratio (z) = 1.72246 2.55667
#
# Static dielectric constant tensor:
#      x y z
#    x 1.590360 0.000000 0.000000 
#    y 0.000000 1.609990 0.000000 
#    z 0.000000 0.000000 1.596310 
# 
# From -- ./inp_files/2472.got.cif
#   From: 2010.05.17/outbox.cif.g08.bks.cpg/sg28_2_cif.got.tgz:2472.got - 2010.06.04 01:15:21.
