data_PCOD9339134
_publ_section_title
;
Structure prediction by ZEFSAII (Michael W. Deem and Ramdas Pophale) SiO2 
 PCOD9339134
Probable space group: P C C 2
;
_chemical_formula_sum "Si O2"
_cell_formula_units_Z 32
_cell_length_a 12.223133
_cell_length_b 8.654691
_cell_length_c 13.511354
_cell_angle_alpha 90.000000
_cell_angle_beta 90.000000
_cell_angle_gamma 90.000000
_cell_volume 1429.331539
_symmetry_space_group_name_H-M "P C C 2"
_symmetry_group_IT_number 27
_symmetry_cell_setting 'orthorhombic'
loop_
_space_group_symop_operation_xyz
x,y,z
-x,-y,z
-x,y,1/2+z
x,-y,1/2+z
loop_
_atom_site_type_symbol
_atom_site_label
_atom_site_fract_x
_atom_site_fract_y
_atom_site_fract_z
Si Si1 0.030749 0.671885 0.576080
Si Si2 0.871618 0.639960 0.289347
Si Si3 0.682979 0.936657 0.902927
Si Si4 0.602692 0.399830 0.969412
Si Si5 0.629252 0.770285 0.274010
Si Si6 0.901079 0.883844 0.459002
Si Si7 0.482517 0.166719 0.078366
Si Si8 0.795056 0.368455 0.414186
O O1 0.062270 0.661359 0.689728
O O2 0.133091 0.703999 0.503054
O O3 0.000000 0.500000 0.543902
O O4 0.933698 0.793517 0.558698
O O5 0.751029 0.703743 0.264954
O O6 0.909681 0.751337 0.376676
O O7 0.862218 0.467856 0.333985
O O8 0.733169 0.775434 0.863773
O O9 0.635976 0.055660 0.820828
O O10 0.783758 0.034110 0.951483
O O11 0.595781 0.875342 0.984554
O O12 0.500000 0.500000 0.002149
O O13 0.577497 0.333095 0.860655
O O14 0.710113 0.505541 0.961513
O O15 0.592170 0.251272 0.040531
O O16 0.574393 0.746375 0.168340
O O17 0.000000 0.000000 0.440275
O O18 0.500000 0.000000 0.124258
#
# Coordination Sequence:
#
# PCOD9339134 Si02
#       8
#     4   4   4   4   4   4   4   4
#     4  12  25  42  72  98 137 178 230 281 341 412
#     4  10  25  46  65 101 134 173 229 281 337 409
#     4  11  23  46  69  98 140 179 224 286 340 404
#     4  11  24  44  71  96 136 181 220 278 343 404
#     4  10  25  46  65 101 134 173 229 281 337 409
#     4  11  24  44  71  96 136 181 220 278 343 404
#     4  12  25  42  72  98 137 178 230 281 341 412
#     4  11  23  46  69  98 140 179 224 286 340 404
#
# _framework density 22.388088
#
# number of rings (size 3 to 8) (size 9 to 14) (size 15 to 20)
#    0.000    1.000    5.000    0.750    3.500    1.000 
#    9.000    0.000    0.000    0.000    0.000    0.000 
#    0.000    0.000    0.000    0.000    0.000    0.000 
#
# Total GULP energy -178714.066031 kJ/mol
# GULP energy per Si atom -5584.814563 kJ/mol
# Density = 2.233713 g / cm^3
# Si number density = 22.388088 Si / 1000 Ang^3
#
#
#
# Elastic Constant Matrix: (Units=GPa)
#
#
# Indices 1 2 3 4 5 6 
#
# 1 66.5521 23.7779 33.4865 0.0000 0.0000 0.0000
# 2 23.7779 112.0124 25.6643 0.0000 0.0000 0.0000
# 3 33.4865 25.6643 101.5182 0.0000 0.0000 0.0000
# 4 0.0000 0.0000 0.0000 2.5064 0.0000 0.0000
# 5 0.0000 0.0000 0.0000 0.0000 31.6259 0.0000
# 6 0.0000 0.0000 0.0000 0.0000 0.0000 44.7215
#
#
#
# Elastic Compliance Matrix: (Units=1/GPa)
#
#
# Indices 1 2 3 4 5 6 
#
# 1 0.018767 -0.002723 -0.005502 0.000000 0.000000 0.000000
# 2 -0.002723 0.009872 -0.001597 0.000000 0.000000 0.000000
# 3 -0.005502 -0.001597 0.012069 0.000000 0.000000 0.000000
# 4 0.000000 0.000000 0.000000 0.398985 0.000000 0.000000
# 5 0.000000 0.000000 0.000000 0.000000 0.031620 0.000000
# 6 0.000000 0.000000 0.000000 0.000000 0.000000 0.022361
#
#
# Mechanical properties :
#
#
# Convention : Reuss Voigt Hill
#
# Bulk Modulus (GPa) = 47.47715 49.54891 48.51303
# Shear Modulus (GPa) = 9.60911 28.91436 19.26173
#
# Velocity S-wave (km/s) = 2.07398 3.59765 2.93637
# Velocity P-wave (km/s) = 5.19496 6.27991 5.76303
#
# Compressibility (1/GPa) = 0.02106277
#
# Stress axis : x y z
#
# Youngs Moduli (GPa) = 53.28442 101.30020 82.85587
#
# Poissons Ratio (x) = 0.27587 0.45588
# Poissons Ratio (y) = 0.14511 0.13235
# Poissons Ratio (z) = 0.29317 0.16181
#
# Static dielectric constant tensor:
#      x y z
#    x 1.896660 0.000000 0.000000 
#    y 0.000000 1.904390 0.000000 
#    z 0.000000 0.000000 1.778830 
# 
# From -- ./inp_files/2773.got.cif
#   From: 2010.05.17/outbox.cif.g08.bks.cpg/sg27_2_cif.got.tgz:2773.got - 2010.06.04 01:11:05.
