data_PCOD9339386
_publ_section_title
;
Structure prediction by ZEFSAII (Michael W. Deem and Ramdas Pophale) SiO2 
 PCOD9339386
Probable space group: P M A 2
;
_chemical_formula_sum "Si O2"
_cell_formula_units_Z 24
_cell_length_a 8.655738
_cell_length_b 9.246182
_cell_length_c 16.547886
_cell_angle_alpha 90.000000
_cell_angle_beta 90.000000
_cell_angle_gamma 90.000000
_cell_volume 1324.369164
_symmetry_space_group_name_H-M "P M A 2"
_symmetry_group_IT_number 28
_symmetry_cell_setting 'orthorhombic'
loop_
_space_group_symop_operation_xyz
x,y,z
-x,-y,z
1/2-x,y,z
1/2+x,-y,z
loop_
_atom_site_type_symbol
_atom_site_label
_atom_site_fract_x
_atom_site_fract_y
_atom_site_fract_z
Si Si1 0.063559 0.337454 0.573600
Si Si2 0.436657 0.160768 0.730371
Si Si3 0.935211 0.662776 0.889250
Si Si4 0.065165 0.664357 0.231963
Si Si5 0.064743 0.664196 0.055836
Si Si6 0.934899 0.664081 0.396225
O O1 0.250000 0.345473 0.575768
O O2 0.010539 0.242853 0.649234
O O3 0.021228 0.275932 0.484663
O O4 0.000000 0.500000 0.580744
O O5 0.250000 0.157586 0.729266
O O6 0.483897 0.247256 0.810818
O O7 0.500000 0.000000 0.732209
O O8 0.750000 0.655731 0.892364
O O9 0.000000 0.500000 0.882110
O O10 0.996097 0.728726 0.973745
O O11 0.250000 0.657267 0.237350
O O12 0.023722 0.728982 0.143922
O O13 0.000000 0.500000 0.230573
O O14 0.000503 0.733423 0.314201
O O15 0.250000 0.659206 0.049699
O O16 0.000000 0.500000 0.057149
O O17 0.750000 0.659082 0.390126
O O18 0.000000 0.500000 0.397924
#
# Coordination Sequence:
#
# PCOD9339386 Si02
#       6
#     4   4   4   4   4   4
#     4   9  18  32  49  71  97 124 157 194 232 277
#     4  10  22  37  51  70  95 123 157 195 236 283
#     4  10  19  31  49  72  96 123 157 195 233 277
#     4   9  15  22  34  56  88 121 151 183 221 267
#     4   9  16  25  39  61  90 123 154 187 228 272
#     4   9  15  23  38  60  88 120 150 184 225 268
#
# _framework density 18.121834
#
# number of rings (size 3 to 8) (size 9 to 14) (size 15 to 20)
#    0.000    2.667    0.000    4.500    0.000    4.667 
#    0.000    0.000    0.000    0.000    0.000    1.167 
#    0.000    2.667    0.000    0.000    0.000    0.000 
#
# Total GULP energy -133644.461919 kJ/mol
# GULP energy per Si atom -5568.519247 kJ/mol
# Density = 1.808059 g / cm^3
# Si number density = 18.121834 Si / 1000 Ang^3
#
#
#
# Elastic Constant Matrix: (Units=GPa)
#
#
# Indices 1 2 3 4 5 6 
#
# 1 42.8046 11.0799 51.6050 0.0000 0.0000 0.0000
# 2 11.0799 38.5591 56.4042 0.0000 0.0000 0.0000
# 3 51.6050 56.4042 247.8803 0.0000 0.0000 0.0000
# 4 0.0000 0.0000 0.0000 -2.1806 0.0000 0.0000
# 5 0.0000 0.0000 0.0000 0.0000 28.0993 0.0000
# 6 0.0000 0.0000 0.0000 0.0000 0.0000 15.8639
#
#
#
# Elastic Compliance Matrix: (Units=1/GPa)
#
#
# Indices 1 2 3 4 5 6 
#
# 1 0.031207 0.000804 -0.006680 0.000000 0.000000 0.000000
# 2 0.000804 0.038894 -0.009018 0.000000 0.000000 0.000000
# 3 -0.006680 -0.009018 0.007477 0.000000 0.000000 0.000000
# 4 0.000000 0.000000 0.000000 -0.458590 0.000000 0.000000
# 5 0.000000 0.000000 0.000000 0.000000 0.035588 0.000000
# 6 0.000000 0.000000 0.000000 0.000000 0.000000 0.063036
#
#
# Mechanical properties :
#
#
# Convention : Reuss Voigt Hill
#
# Bulk Modulus (GPa) = 20.92450 63.04694 41.98572
# Shear Modulus (GPa) = -21.12639 22.36685 0.62023
#
# Velocity S-wave (km/s) = -3.41808 3.51700 0.58566
# Velocity P-wave (km/s) = 2.00152 7.16648 4.86582
#
# Compressibility (1/GPa) = 0.04779086
#
# Stress axis : x y z
#
# Youngs Moduli (GPa) = 32.04410 25.71085 133.74818
#
# Poissons Ratio (x) = -0.02067 0.89340
# Poissons Ratio (y) = -0.02576 1.20608
# Poissons Ratio (z) = 0.21405 0.23185
#
# Static dielectric constant tensor:
#      x y z
#    x 1.611880 0.000000 0.000000 
#    y 0.000000 1.549570 0.000000 
#    z 0.000000 0.000000 1.721630 
# 
# From -- ./inp_files/6685.got.cif
#   From: 2010.05.17/outbox.cif.g08.bks.cpg/sg28_4_cif.got.tgz:6685.got - 2010.06.04 01:15:21.
