data_PCOD9339174
_publ_section_title
;
Structure prediction by ZEFSAII (Michael W. Deem and Ramdas Pophale) SiO2 
 PCOD9339174
Probable space group: P C C 2
;
_chemical_formula_sum "Si O2"
_cell_formula_units_Z 20
_cell_length_a 17.332182
_cell_length_b 5.047701
_cell_length_c 8.631117
_cell_angle_alpha 90.000000
_cell_angle_beta 90.000000
_cell_angle_gamma 90.000000
_cell_volume 755.116337
_symmetry_space_group_name_H-M "P C C 2"
_symmetry_group_IT_number 27
_symmetry_cell_setting 'orthorhombic'
loop_
_space_group_symop_operation_xyz
x,y,z
-x,-y,z
-x,y,1/2+z
x,-y,1/2+z
loop_
_atom_site_type_symbol
_atom_site_label
_atom_site_fract_x
_atom_site_fract_y
_atom_site_fract_z
Si Si1 0.052844 0.751604 0.826880
Si Si2 0.500000 0.500000 0.264614
Si Si3 0.850331 0.131100 0.099734
Si Si4 0.739118 0.135578 0.350509
Si Si5 0.638575 0.781532 0.121284
Si Si6 0.500000 0.000000 0.977904
O O1 0.104587 0.895592 0.692915
O O2 0.000000 0.500000 0.781694
O O3 0.000000 0.000000 0.874152
O O4 0.097745 0.688388 0.987320
O O5 0.579318 0.558288 0.175315
O O6 0.508853 0.250349 0.372321
O O7 0.796182 0.275517 0.227202
O O8 0.793978 0.002322 0.974898
O O9 0.683909 0.298638 0.465054
O O10 0.692209 0.912953 0.252835
O O11 0.577982 0.010998 0.074442
#
# Coordination Sequence:
#
# PCOD9339174 Si02
#       6
#     4   2   4   4   4   2
#     4  11  24  44  80 116 161 207 259 323 392 461
#     4  12  26  46  78 112 154 198 276 338 406 472
#     4   9  21  44  78 119 163 208 268 320 389 493
#     4   9  20  44  83 107 167 208 270 319 416 474
#     4  11  22  45  78 112 155 214 266 342 406 473
#     4  12  26  46  74 114 152 198 274 340 398 474
#
# _framework density 26.485984999999999
#
# number of rings (size 3 to 8) (size 9 to 14) (size 15 to 20)
#    0.000    1.600    2.000    1.800    0.000    3.200 
#    0.000    3.000   66.000    0.000    0.000    0.000 
#    0.000    0.000    0.000    0.000    0.000    0.000 
#
# Total GULP energy -111916.001734 kJ/mol
# GULP energy per Si atom -5595.800087 kJ/mol
# Density = 2.642570 g / cm^3
# Si number density = 26.485985 Si / 1000 Ang^3
#
#
#
# Elastic Constant Matrix: (Units=GPa)
#
#
# Indices 1 2 3 4 5 6 
#
# 1 135.8377 34.4791 91.2199 0.0000 0.0000 0.0000
# 2 34.4791 114.4492 50.3619 0.0000 0.0000 0.0000
# 3 91.2199 50.3619 193.6789 0.0000 0.0000 0.0000
# 4 0.0000 0.0000 0.0000 -30.1694 0.0000 0.0000
# 5 0.0000 0.0000 0.0000 0.0000 89.7522 0.0000
# 6 0.0000 0.0000 0.0000 0.0000 0.0000 27.4451
#
#
#
# Elastic Compliance Matrix: (Units=1/GPa)
#
#
# Indices 1 2 3 4 5 6 
#
# 1 0.010901 -0.001157 -0.004833 0.000000 0.000000 0.000000
# 2 -0.001157 0.009989 -0.002052 0.000000 0.000000 0.000000
# 3 -0.004833 -0.002052 0.007973 0.000000 0.000000 0.000000
# 4 0.000000 0.000000 0.000000 -0.033146 0.000000 0.000000
# 5 0.000000 0.000000 0.000000 0.000000 0.011142 0.000000
# 6 0.000000 0.000000 0.000000 0.000000 0.000000 0.036436
#
#
# Mechanical properties :
#
#
# Convention : Reuss Voigt Hill
#
# Bulk Modulus (GPa) = 78.26143 88.45416 83.35780
# Shear Modulus (GPa) = 78.56524 35.26592 56.91558
#
# Velocity S-wave (km/s) = 5.45228 3.65292 4.64065
# Velocity P-wave (km/s) = 8.32159 7.15967 7.76240
#
# Compressibility (1/GPa) = 0.01277769
#
# Stress axis : x y z
#
# Youngs Moduli (GPa) = 91.73235 100.10722 125.41784
#
# Poissons Ratio (x) = 0.11585 0.60620
# Poissons Ratio (y) = 0.10616 0.25741
# Poissons Ratio (z) = 0.44338 0.20546
#
# Static dielectric constant tensor:
#      x y z
#    x 2.307620 0.000000 0.000000 
#    y 0.000000 2.013040 0.000000 
#    z 0.000000 0.000000 2.112140 
# 
# From -- ./inp_files/1666.got.cif
#   From: 2010.05.17/outbox.cif.g08.bks.cpg/sg27_1_cif.got.tgz:1666.got - 2010.06.04 01:11:05.
