data_PCOD9339722
_publ_section_title
;
Structure prediction by ZEFSAII (Michael W. Deem and Ramdas Pophale) SiO2 
 PCOD9339722
Probable space group: P M A 2
;
_chemical_formula_sum "Si O2"
_cell_formula_units_Z 32
_cell_length_a 8.815141
_cell_length_b 15.713594
_cell_length_c 12.004163
_cell_angle_alpha 90.000000
_cell_angle_beta 90.000000
_cell_angle_gamma 90.000000
_cell_volume 1662.787209
_symmetry_space_group_name_H-M "P M A 2"
_symmetry_group_IT_number 28
_symmetry_cell_setting 'orthorhombic'
loop_
_space_group_symop_operation_xyz
x,y,z
-x,-y,z
1/2-x,y,z
1/2+x,-y,z
loop_
_atom_site_type_symbol
_atom_site_label
_atom_site_fract_x
_atom_site_fract_y
_atom_site_fract_z
Si Si1 0.569485 0.089953 0.718800
Si Si2 0.429784 0.147108 0.953439
Si Si3 0.930317 0.409299 0.191697
Si Si4 0.570227 0.648426 0.962213
Si Si5 0.569005 0.089582 0.185666
Si Si6 0.067653 0.410078 0.715210
Si Si7 0.070444 0.248120 0.316118
Si Si8 0.930210 0.757681 0.581080
O O1 0.750000 0.084222 0.725794
O O2 0.500997 0.112586 0.839836
O O3 0.519112 0.164633 0.635857
O O4 0.500000 0.000000 0.682445
O O5 0.250000 0.128617 0.956030
O O6 0.448532 0.249456 0.958219
O O7 0.509755 0.107146 0.060638
O O8 0.750000 0.410632 0.202344
O O9 0.000000 0.500000 0.224193
O O10 0.000452 0.333291 0.264198
O O11 0.977379 0.390025 0.064065
O O12 0.750000 0.631337 0.979692
O O13 0.523999 0.610605 0.842922
O O14 0.750000 0.086526 0.187060
O O15 0.508647 0.167046 0.260197
O O16 0.500000 0.000000 0.224231
O O17 0.250000 0.414928 0.711778
O O18 0.021449 0.330754 0.638529
O O19 0.000000 0.500000 0.680095
O O20 0.250000 0.245557 0.290120
O O21 0.050714 0.246387 0.448827
O O22 0.750000 0.769124 0.605541
#
# Coordination Sequence:
#
# PCOD9339722 Si02
#       8
#     4   4   4   4   4   4   4   4
#     4  12  25  41  65  95 129 166 210 258 313 376
#     4  11  21  39  66  94 130 167 205 254 314 378
#     4  12  25  41  64  93 130 167 212 261 313 380
#     4  10  20  37  64  92 127 165 204 252 315 377
#     4  12  25  42  65  95 129 165 208 257 314 380
#     4  10  21  39  62  92 125 161 200 249 305 366
#     4  11  24  44  68  92 123 165 213 266 320 376
#     4  10  23  45  67  89 123 166 212 261 316 371
#
# _framework density 19.244795
#
# number of rings (size 3 to 8) (size 9 to 14) (size 15 to 20)
#    0.000    1.000    2.500    4.875    0.000    4.500 
#    0.000    1.250    0.000    0.000    0.000    0.000 
#    0.000    0.000    0.000    0.000    0.000    0.000 
#
# Total GULP energy -179092.221514 kJ/mol
# GULP energy per Si atom -5596.631922 kJ/mol
# Density = 1.920099 g / cm^3
# Si number density = 19.244795 Si / 1000 Ang^3
#
#
#
# Elastic Constant Matrix: (Units=GPa)
#
#
# Indices 1 2 3 4 5 6 
#
# 1 146.1228 92.9856 67.5064 0.0000 0.0000 0.0000
# 2 92.9856 185.0239 63.8114 0.0000 0.0000 0.0000
# 3 67.5064 63.8114 79.3945 0.0000 0.0000 0.0000
# 4 0.0000 0.0000 0.0000 -8.8635 0.0000 0.0000
# 5 0.0000 0.0000 0.0000 0.0000 -1.3477 0.0000
# 6 0.0000 0.0000 0.0000 0.0000 0.0000 37.4364
#
#
#
# Elastic Compliance Matrix: (Units=1/GPa)
#
#
# Indices 1 2 3 4 5 6 
#
# 1 0.012902 -0.003736 -0.007967 0.000000 0.000000 0.000000
# 2 -0.003736 0.008559 -0.003703 0.000000 0.000000 0.000000
# 3 -0.007967 -0.003703 0.022345 0.000000 0.000000 0.000000
# 4 0.000000 0.000000 0.000000 -0.112823 0.000000 0.000000
# 5 0.000000 0.000000 0.000000 0.000000 -0.742031 0.000000
# 6 0.000000 0.000000 0.000000 0.000000 0.000000 0.026712
#
#
# Mechanical properties :
#
#
# Convention : Reuss Voigt Hill
#
# Bulk Modulus (GPa) = 76.95434 95.46089 86.20762
# Shear Modulus (GPa) = -6.67385 17.86091 5.59353
#
# Velocity S-wave (km/s) = -1.86424 3.04976 1.70670
# Velocity P-wave (km/s) = 5.95315 7.88115 6.98400
#
# Compressibility (1/GPa) = 0.01299472
#
# Stress axis : x y z
#
# Youngs Moduli (GPa) = 77.50883 116.83159 44.75221
#
# Poissons Ratio (x) = 0.43651 0.35654
# Poissons Ratio (y) = 0.28959 0.16570
# Poissons Ratio (z) = 0.61751 0.43258
#
# Static dielectric constant tensor:
#      x y z
#    x 1.638850 0.000000 0.000000 
#    y 0.000000 1.657360 0.000000 
#    z 0.000000 0.000000 1.643500 
# 
# From -- ./inp_files/5090.got.cif
#   From: 2010.05.17/outbox.cif.g08.bks.cpg/sg28_3_cif.got.tgz:5090.got - 2010.06.04 01:15:21.
