data_PCOD9339887
_publ_section_title
;
Structure prediction by ZEFSAII (Michael W. Deem and Ramdas Pophale) SiO2 
 PCOD9339887
Probable space group: P M A 2
;
_chemical_formula_sum "Si O2"
_cell_formula_units_Z 22
_cell_length_a 15.094112
_cell_length_b 5.208590
_cell_length_c 12.405896
_cell_angle_alpha 90.000000
_cell_angle_beta 90.000000
_cell_angle_gamma 90.000000
_cell_volume 975.339644
_symmetry_space_group_name_H-M "P M A 2"
_symmetry_group_IT_number 28
_symmetry_cell_setting 'orthorhombic'
loop_
_space_group_symop_operation_xyz
x,y,z
-x,-y,z
1/2-x,y,z
1/2+x,-y,z
loop_
_atom_site_type_symbol
_atom_site_label
_atom_site_fract_x
_atom_site_fract_y
_atom_site_fract_z
Si Si1 0.093170 0.883620 0.381370
Si Si2 0.848277 0.337189 0.050250
Si Si3 0.250000 0.257697 0.683344
Si Si4 0.250000 0.763582 0.545548
Si Si5 0.907538 0.610253 0.842490
Si Si6 0.648225 0.608459 0.261354
Si Si7 0.000000 0.000000 0.003677
O O1 0.163109 0.829848 0.475861
O O2 0.128030 0.109693 0.303455
O O3 0.090565 0.616078 0.316293
O O4 0.000000 0.000000 0.421319
O O5 0.750000 0.224498 0.066314
O O6 0.856256 0.574342 0.132610
O O7 0.861131 0.413153 0.925620
O O8 0.932515 0.162948 0.073825
O O9 0.250000 0.966662 0.642840
O O10 0.162671 0.305562 0.754815
O O11 0.250000 0.471038 0.588094
O O12 0.940165 0.830563 0.923781
O O13 0.000000 0.500000 0.796241
O O14 0.750000 0.546838 0.292165
#
# Coordination Sequence:
#
# PCOD9339887 Si02
#       7
#     4   4   2   2   4   4   2
#     4  12  26  47  75 102 141 182 235 292 358 417
#     4  10  23  40  68 105 148 188 232 274 346 420
#     4  12  28  46  80  95 137 182 234 296 368 413
#     4  12  28  50  72 103 135 174 240 308 354 419
#     4  10  24  43  67 104 143 179 236 283 347 422
#     4  11  23  44  73 106 146 189 229 280 344 427
#     4  10  24  40  66  98 160 182 234 292 330 430
#
# _framework density 22.556244
#
# number of rings (size 3 to 8) (size 9 to 14) (size 15 to 20)
#    0.000    1.091    2.727    1.636   10.182    4.364 
#    0.000    0.000    0.000    0.000    0.000    0.000 
#    0.000    0.000    0.000    0.000    0.000    0.000 
#
# Total GULP energy -123060.510407 kJ/mol
# GULP energy per Si atom -5593.659564 kJ/mol
# Density = 2.250490 g / cm^3
# Si number density = 22.556244 Si / 1000 Ang^3
#
#
#
# Elastic Constant Matrix: (Units=GPa)
#
#
# Indices 1 2 3 4 5 6 
#
# 1 140.6684 13.2071 31.7658 0.0000 0.0000 0.0000
# 2 13.2071 72.9875 -8.3809 0.0000 0.0000 0.0000
# 3 31.7658 -8.3809 48.5392 0.0000 0.0000 0.0000
# 4 0.0000 0.0000 0.0000 32.7574 0.0000 0.0000
# 5 0.0000 0.0000 0.0000 0.0000 2.7124 0.0000
# 6 0.0000 0.0000 0.0000 0.0000 0.0000 29.9585
#
#
#
# Elastic Compliance Matrix: (Units=1/GPa)
#
#
# Indices 1 2 3 4 5 6 
#
# 1 0.008696 -0.002272 -0.006083 0.000000 0.000000 0.000000
# 2 -0.002272 0.014572 0.004003 0.000000 0.000000 0.000000
# 3 -0.006083 0.004003 0.025274 0.000000 0.000000 0.000000
# 4 0.000000 0.000000 0.000000 0.030527 0.000000 0.000000
# 5 0.000000 0.000000 0.000000 0.000000 0.368672 0.000000
# 6 0.000000 0.000000 0.000000 0.000000 0.000000 0.033380
#
#
# Mechanical properties :
#
#
# Convention : Reuss Voigt Hill
#
# Bulk Modulus (GPa) = 25.10224 37.26434 31.18329
# Shear Modulus (GPa) = 9.93829 28.12587 19.03208
#
# Velocity S-wave (km/s) = 2.10133 3.53501 2.90791
# Velocity P-wave (km/s) = 4.12799 5.76352 5.01291
#
# Compressibility (1/GPa) = 0.03983708
#
# Stress axis : x y z
#
# Youngs Moduli (GPa) = 114.99602 68.62598 39.56614
#
# Poissons Ratio (x) = 0.15592 0.24069
# Poissons Ratio (y) = 0.26128 -0.15838
# Poissons Ratio (z) = 0.69955 -0.27470
#
# Static dielectric constant tensor:
#      x y z
#    x 1.852810 0.000000 0.000000 
#    y 0.000000 1.857940 0.000000 
#    z 0.000000 0.000000 1.803720 
# 
# From -- ./inp_files/5486.got.cif
#   From: 2010.05.17/outbox.cif.g08.bks.cpg/sg28_3_cif.got.tgz:5486.got - 2010.06.04 01:15:21.
