data_PCOD9339504
_publ_section_title
;
Structure prediction by ZEFSAII (Michael W. Deem and Ramdas Pophale) SiO2 
 PCOD9339504
Probable space group: P M A 2
;
_chemical_formula_sum "Si O2"
_cell_formula_units_Z 32
_cell_length_a 14.028981
_cell_length_b 11.723417
_cell_length_c 9.683430
_cell_angle_alpha 90.000000
_cell_angle_beta 90.000000
_cell_angle_gamma 90.000000
_cell_volume 1592.610437
_symmetry_space_group_name_H-M "P M A 2"
_symmetry_group_IT_number 28
_symmetry_cell_setting 'orthorhombic'
loop_
_space_group_symop_operation_xyz
x,y,z
-x,-y,z
1/2-x,y,z
1/2+x,-y,z
loop_
_atom_site_type_symbol
_atom_site_label
_atom_site_fract_x
_atom_site_fract_y
_atom_site_fract_z
Si Si1 0.888458 0.982021 0.013030
Si Si2 0.070994 0.211529 0.796596
Si Si3 0.858815 0.405312 0.133717
Si Si4 0.861514 0.662654 0.034960
Si Si5 0.997759 0.747367 0.263076
Si Si6 0.637800 0.828977 0.487281
Si Si7 0.855052 0.224105 0.883445
Si Si8 0.856036 0.044909 0.307703
O O1 0.851654 0.968706 0.168411
O O2 0.882163 0.886364 0.895415
O O3 0.000000 0.000000 0.028970
O O4 0.849492 0.101726 0.957760
O O5 0.106833 0.189250 0.643858
O O6 0.955178 0.216072 0.801005
O O7 0.109569 0.323292 0.875245
O O8 0.750000 0.397302 0.182909
O O9 0.876676 0.533890 0.086055
O O10 0.931827 0.359183 0.246588
O O11 0.866881 0.320537 0.001594
O O12 0.750000 0.691337 0.054506
O O13 0.932902 0.740940 0.125022
O O14 0.065933 0.857749 0.280603
O O15 0.925357 0.748962 0.389501
O O16 0.750000 0.806956 0.470294
O O17 0.621336 0.958644 0.432287
O O18 0.750000 0.243390 0.815815
O O19 0.750000 0.094440 0.328667
#
# Coordination Sequence:
#
# PCOD9339504 Si02
#       8
#     4   4   4   4   4   4   4   4
#     4  10  19  33  57  89 122 161 212 267 322 383
#     4  11  23  41  62  92 130 173 216 262 328 394
#     4  10  21  39  66  99 127 157 211 277 335 386
#     4  11  23  39  67  97 126 165 221 278 330 389
#     4  12  21  39  63  93 125 168 219 275 324 382
#     4  11  26  42  58  87 134 181 220 263 319 393
#     4  10  20  36  63  95 126 161 208 274 331 382
#     4  11  22  37  59  91 129 173 215 267 328 389
#
# _framework density 20.092798999999999
#
# number of rings (size 3 to 8) (size 9 to 14) (size 15 to 20)
#    0.000    1.250    2.500    4.500    0.000    6.000 
#    0.000    2.500    5.500    0.750    0.000    0.000 
#    0.000    0.000    0.000    0.000    0.000    0.000 
#
# Total GULP energy -178642.966771 kJ/mol
# GULP energy per Si atom -5582.592712 kJ/mol
# Density = 2.004707 g / cm^3
# Si number density = 20.092799 Si / 1000 Ang^3
#
#
#
# Elastic Constant Matrix: (Units=GPa)
#
#
# Indices 1 2 3 4 5 6 
#
# 1 175.7130 64.0128 62.9251 0.0000 0.0000 0.0000
# 2 64.0128 87.6681 40.9017 0.0000 0.0000 0.0000
# 3 62.9251 40.9017 127.4490 0.0000 0.0000 0.0000
# 4 0.0000 0.0000 0.0000 14.0427 0.0000 0.0000
# 5 0.0000 0.0000 0.0000 0.0000 16.4380 0.0000
# 6 0.0000 0.0000 0.0000 0.0000 0.0000 14.6813
#
#
#
# Elastic Compliance Matrix: (Units=1/GPa)
#
#
# Indices 1 2 3 4 5 6 
#
# 1 0.008411 -0.004945 -0.002566 0.000000 0.000000 0.000000
# 2 -0.004945 0.016322 -0.002797 0.000000 0.000000 0.000000
# 3 -0.002566 -0.002797 0.010011 0.000000 0.000000 0.000000
# 4 0.000000 0.000000 0.000000 0.071212 0.000000 0.000000
# 5 0.000000 0.000000 0.000000 0.000000 0.060835 0.000000
# 6 0.000000 0.000000 0.000000 0.000000 0.000000 0.068114
#
#
# Mechanical properties :
#
#
# Convention : Reuss Voigt Hill
#
# Bulk Modulus (GPa) = 70.77597 80.72327 75.74962
# Shear Modulus (GPa) = 19.21387 23.89843 21.55615
#
# Velocity S-wave (km/s) = 3.09569 3.45251 3.27896
# Velocity P-wave (km/s) = 6.93389 7.49370 7.21922
#
# Compressibility (1/GPa) = 0.01412909
#
# Stress axis : x y z
#
# Youngs Moduli (GPa) = 118.88688 61.26739 99.89195
#
# Poissons Ratio (x) = 0.30294 0.25633
# Poissons Ratio (y) = 0.58784 0.27938
# Poissons Ratio (z) = 0.30507 0.17136
#
# Static dielectric constant tensor:
#      x y z
#    x 1.779510 0.000000 0.000000 
#    y 0.000000 1.752560 0.000000 
#    z 0.000000 0.000000 1.687630 
# 
# From -- ./inp_files/3564.got.cif
#   From: 2010.05.17/outbox.cif.g08.bks.cpg/sg28_2_cif.got.tgz:3564.got - 2010.06.04 01:15:21.
