data_PCOD9339050
_publ_section_title
;
Structure prediction by ZEFSAII (Michael W. Deem and Ramdas Pophale) SiO2 
 PCOD9339050
Probable space group: P C C 2
;
_chemical_formula_sum "Si O2"
_cell_formula_units_Z 32
_cell_length_a 10.312061
_cell_length_b 7.922082
_cell_length_c 16.852224
_cell_angle_alpha 90.000000
_cell_angle_beta 90.000000
_cell_angle_gamma 90.000000
_cell_volume 1376.708614
_symmetry_space_group_name_H-M "P C C 2"
_symmetry_group_IT_number 27
_symmetry_cell_setting 'orthorhombic'
loop_
_space_group_symop_operation_xyz
x,y,z
-x,-y,z
-x,y,1/2+z
x,-y,1/2+z
loop_
_atom_site_type_symbol
_atom_site_label
_atom_site_fract_x
_atom_site_fract_y
_atom_site_fract_z
Si Si1 0.049601 0.238884 0.287750
Si Si2 0.438590 0.818057 0.579387
Si Si3 0.779639 0.902084 0.756123
Si Si4 0.716062 0.189055 0.415766
Si Si5 0.263314 0.601025 0.694603
Si Si6 0.717491 0.273718 0.099079
Si Si7 0.180196 0.829239 0.937172
Si Si8 0.646462 0.545232 0.369049
O O1 0.123153 0.368767 0.233158
O O2 0.068352 0.249169 0.382370
O O3 0.899955 0.224594 0.269900
O O4 0.142236 0.076609 0.266357
O O5 0.373099 0.828847 0.492963
O O6 0.339791 0.746813 0.645768
O O7 0.567956 0.706260 0.573906
O O8 0.500000 0.000000 0.597612
O O9 0.675689 0.867470 0.825818
O O10 0.726857 0.860401 0.670422
O O11 0.733770 0.391234 0.404632
O O12 0.817237 0.033182 0.429815
O O13 0.245743 0.452868 0.632836
O O14 0.344159 0.550619 0.773333
O O15 0.810173 0.215330 0.028691
O O16 0.304502 0.727598 0.899938
O O17 0.500000 0.500000 0.391621
#
# Coordination Sequence:
#
# PCOD9339050 Si02
#       8
#     4   4   4   4   4   4   4   4
#     4   9  22  46  69  99 131 182 232 295 344 424
#     4  12  24  40  65 103 143 177 231 287 351 428
#     4  10  22  45  73  96 135 181 238 287 353 411
#     4  11  23  44  68  96 133 189 224 282 353 420
#     4  11  24  42  65 101 140 180 232 287 354 423
#     4  12  22  41  66 103 139 180 225 293 346 419
#     4  10  23  42  66 101 136 172 241 283 346 412
#     4  11  22  39  64  97 135 183 226 280 345 418
#
# _framework density 23.243842000000001
#
# number of rings (size 3 to 8) (size 9 to 14) (size 15 to 20)
#    0.000    1.250    2.500    3.375    0.000    0.500 
#    2.250    1.875    2.750    0.000    0.000    0.000 
#    0.000    0.000    0.000    0.000    0.000    0.000 
#
# Total GULP energy -178450.493168 kJ/mol
# GULP energy per Si atom -5576.577911 kJ/mol
# Density = 2.319094 g / cm^3
# Si number density = 23.243842 Si / 1000 Ang^3
#
#
#
# Elastic Constant Matrix: (Units=GPa)
#
#
# Indices 1 2 3 4 5 6 
#
# 1 77.1577 16.5031 34.7863 0.0000 0.0000 0.0000
# 2 16.5031 113.5027 37.9530 0.0000 0.0000 0.0000
# 3 34.7863 37.9530 161.4867 0.0000 0.0000 0.0000
# 4 0.0000 0.0000 0.0000 30.8599 0.0000 0.0000
# 5 0.0000 0.0000 0.0000 0.0000 24.0069 0.0000
# 6 0.0000 0.0000 0.0000 0.0000 0.0000 29.7176
#
#
#
# Elastic Compliance Matrix: (Units=1/GPa)
#
#
# Indices 1 2 3 4 5 6 
#
# 1 0.014493 -0.001154 -0.002851 0.000000 0.000000 0.000000
# 2 -0.001154 0.009654 -0.002020 0.000000 0.000000 0.000000
# 3 -0.002851 -0.002020 0.007281 0.000000 0.000000 0.000000
# 4 0.000000 0.000000 0.000000 0.032405 0.000000 0.000000
# 5 0.000000 0.000000 0.000000 0.000000 0.041655 0.000000
# 6 0.000000 0.000000 0.000000 0.000000 0.000000 0.033650
#
#
# Mechanical properties :
#
#
# Convention : Reuss Voigt Hill
#
# Bulk Modulus (GPa) = 51.60563 58.95911 55.28237
# Shear Modulus (GPa) = 31.71666 34.44385 33.08026
#
# Velocity S-wave (km/s) = 3.69795 3.85365 3.77660
# Velocity P-wave (km/s) = 6.36264 6.72469 6.54616
#
# Compressibility (1/GPa) = 0.01937773
#
# Stress axis : x y z
#
# Youngs Moduli (GPa) = 69.00119 103.58746 137.33754
#
# Poissons Ratio (x) = 0.11954 0.39150
# Poissons Ratio (y) = 0.07963 0.27746
# Poissons Ratio (z) = 0.19670 0.20927
#
# Static dielectric constant tensor:
#      x y z
#    x 1.881760 0.000000 0.000000 
#    y 0.000000 2.027490 0.000000 
#    z 0.000000 0.000000 1.869990 
# 
# From -- ./inp_files/3662.got.cif
#   From: 2010.05.17/outbox.cif.g08.bks.cpg/sg27_2_cif.got.tgz:3662.got - 2010.06.04 01:11:05.
