data_PCOD9339979
_publ_section_title
;
Structure prediction by ZEFSAII (Michael W. Deem and Ramdas Pophale) SiO2 
 PCOD9339979
Probable space group: P C A 21
;
_chemical_formula_sum "Si O2"
_cell_formula_units_Z 28
_cell_length_a 5.520926
_cell_length_b 13.454521
_cell_length_c 13.935457
_cell_angle_alpha 90.000000
_cell_angle_beta 90.000000
_cell_angle_gamma 90.000000
_cell_volume 1035.145462
_symmetry_space_group_name_H-M "P C A 21"
_symmetry_group_IT_number 29
_symmetry_cell_setting 'orthorhombic'
loop_
_space_group_symop_operation_xyz
x,y,z
-x,-y,1/2+z
1/2-x,y,1/2+z
1/2+x,-y,z
loop_
_atom_site_type_symbol
_atom_site_label
_atom_site_fract_x
_atom_site_fract_y
_atom_site_fract_z
Si Si1 0.809259 0.538117 0.233320
Si Si2 0.488772 0.106496 0.594608
Si Si3 0.463037 0.732355 0.438416
Si Si4 0.473763 0.058087 0.368792
Si Si5 0.963699 0.731837 0.322987
Si Si6 0.514260 0.130765 0.109173
Si Si7 0.794431 0.465426 0.518211
O O1 0.534751 0.527402 0.274527
O O2 0.914226 0.648542 0.244283
O O3 0.760271 0.504212 0.124721
O O4 0.480359 0.098335 0.478651
O O5 0.718714 0.160289 0.639733
O O6 0.255122 0.164957 0.627806
O O7 0.491270 0.989260 0.620500
O O8 0.727689 0.719209 0.392294
O O9 0.464364 0.836696 0.495188
O O10 0.401356 0.645103 0.513540
O O11 0.232820 0.722394 0.367863
O O12 0.461432 0.151698 0.298087
O O13 0.725360 0.001287 0.353580
O O14 0.520501 0.470966 0.475146
#
# Coordination Sequence:
#
# PCOD9339979 Si02
#       7
#     4   4   4   4   4   4   4
#     4  10  23  44  62  80 118 162 208 256 310 371
#     4  10  14  25  41  61 110 157 166 207 276 333
#     4  12  21  34  55  89 123 149 204 254 300 353
#     4  12  18  30  48  78 128 164 192 230 287 364
#     4  12  23  34  58  93 126 160 201 254 305 351
#     4  10  16  25  41  69 105 152 174 212 274 331
#     4  10  23  42  61  80 114 156 207 251 308 367
#
# _framework density 27.049340000000001
#
# number of rings (size 3 to 8) (size 9 to 14) (size 15 to 20)
#    0.000    1.143    5.714    2.571    0.000    3.429 
#    0.000    0.000    0.000    0.000    0.000    0.000 
#  102.857    0.000    0.000    0.000    0.000    0.000 
#
# Total GULP energy -156412.842022 kJ/mol
# GULP energy per Si atom -5586.172929 kJ/mol
# Density = 2.698777 g / cm^3
# Si number density = 27.049340 Si / 1000 Ang^3
#
#
#
# Elastic Constant Matrix: (Units=GPa)
#
#
# Indices 1 2 3 4 5 6 
#
# 1 338.9393 48.2010 35.1342 0.0000 0.0000 0.0000
# 2 48.2010 103.0814 2.6308 0.0000 0.0000 0.0000
# 3 35.1342 2.6308 68.9337 0.0000 0.0000 0.0000
# 4 0.0000 0.0000 0.0000 40.4286 0.0000 0.0000
# 5 0.0000 0.0000 0.0000 0.0000 24.9221 0.0000
# 6 0.0000 0.0000 0.0000 0.0000 0.0000 50.1319
#
#
#
# Elastic Compliance Matrix: (Units=1/GPa)
#
#
# Indices 1 2 3 4 5 6 
#
# 1 0.003337 -0.001518 -0.001643 0.000000 0.000000 0.000000
# 2 -0.001518 0.010401 0.000377 0.000000 0.000000 0.000000
# 3 -0.001643 0.000377 0.015330 0.000000 0.000000 0.000000
# 4 0.000000 0.000000 0.000000 0.024735 0.000000 0.000000
# 5 0.000000 0.000000 0.000000 0.000000 0.040125 0.000000
# 6 0.000000 0.000000 0.000000 0.000000 0.000000 0.019947
#
#
# Mechanical properties :
#
#
# Convention : Reuss Voigt Hill
#
# Bulk Modulus (GPa) = 42.55425 75.87627 59.21526
# Shear Modulus (GPa) = 39.28469 51.42908 45.35688
#
# Velocity S-wave (km/s) = 3.81509 4.36513 4.09934
# Velocity P-wave (km/s) = 5.93066 7.31558 6.65922
#
# Compressibility (1/GPa) = 0.02349942
#
# Stress axis : x y z
#
# Youngs Moduli (GPa) = 299.70904 96.14099 65.23356
#
# Poissons Ratio (x) = 0.14597 0.10716
# Poissons Ratio (y) = 0.45504 -0.02458
# Poissons Ratio (z) = 0.49231 -0.03623
#
# Static dielectric constant tensor:
#      x y z
#    x 2.160260 0.000000 0.000000 
#    y 0.000000 2.081160 0.000000 
#    z 0.000000 0.000000 2.330040 
# 
# From -- ./inp_files/4079.got.cif
#   From: 2010.05.17/outbox.cif.g08.bks.cpg/sg29_3_cif.got.tgz:4079.got - 2010.06.04 01:19:37.
