data_PCOD9339384
_publ_section_title
;
Structure prediction by ZEFSAII (Michael W. Deem and Ramdas Pophale) SiO2 
 PCOD9339384
Probable space group: P M A 2
;
_chemical_formula_sum "Si O2"
_cell_formula_units_Z 32
_cell_length_a 22.776033
_cell_length_b 7.555312
_cell_length_c 7.524125
_cell_angle_alpha 90.000000
_cell_angle_beta 90.000000
_cell_angle_gamma 90.000000
_cell_volume 1294.751697
_symmetry_space_group_name_H-M "P M A 2"
_symmetry_group_IT_number 28
_symmetry_cell_setting 'orthorhombic'
loop_
_space_group_symop_operation_xyz
x,y,z
-x,-y,z
1/2-x,y,z
1/2+x,-y,z
loop_
_atom_site_type_symbol
_atom_site_label
_atom_site_fract_x
_atom_site_fract_y
_atom_site_fract_z
Si Si1 0.187739 0.166628 0.351100
Si Si2 0.314251 0.721492 0.844685
Si Si3 0.813228 0.224939 0.440908
Si Si4 0.437699 0.288376 0.457048
Si Si5 0.437878 0.706594 0.454833
Si Si6 0.064534 0.189069 0.859868
Si Si7 0.187960 0.134937 0.935868
Si Si8 0.438213 0.780716 0.871651
O O1 0.250000 0.262711 0.390147
O O2 0.125106 0.255423 0.372164
O O3 0.190094 0.110135 0.146619
O O4 0.187453 0.987053 0.464296
O O5 0.250000 0.663395 0.915978
O O6 0.314712 0.681742 0.633498
O O7 0.378710 0.677290 0.923707
O O8 0.314764 0.936665 0.858608
O O9 0.750000 0.269447 0.354596
O O10 0.876894 0.256183 0.355047
O O11 0.440222 0.497517 0.484336
O O12 0.500145 0.236028 0.368494
O O13 0.438049 0.193179 0.646806
O O14 0.435431 0.784917 0.654719
O O15 0.004098 0.282812 0.919406
O O16 0.063943 0.986507 0.928815
O O17 0.130538 0.250644 0.898582
O O18 0.250000 0.216146 0.875702
#
# Coordination Sequence:
#
# PCOD9339384 Si02
#       8
#     4   4   4   4   4   4   4   4
#     4  10  20  32  48  71  96 123 159 200 238 280
#     4   8  13  24  44  65  87 115 145 182 228 274
#     4   9  17  31  51  73  94 120 158 199 238 283
#     4  10  19  31  49  71  97 128 163 196 232 282
#     4   9  18  31  48  71  99 128 157 196 240 276
#     4   9  16  28  48  69  91 120 153 193 235 280
#     4   9  17  29  45  67  95 121 148 191 241 281
#     4   8  14  26  45  69  93 115 149 193 234 272
#
# _framework density 24.715164000000001
#
# number of rings (size 3 to 8) (size 9 to 14) (size 15 to 20)
#    0.000    3.000    0.000    2.250    0.000    3.500 
#    0.000    5.000    0.000   10.500    0.000    8.750 
#    0.000    0.000    0.000    0.000    0.000    0.000 
#
# Total GULP energy -178162.820608 kJ/mol
# GULP energy per Si atom -5567.588144 kJ/mol
# Density = 2.465891 g / cm^3
# Si number density = 24.715164 Si / 1000 Ang^3
#
#
#
# Elastic Constant Matrix: (Units=GPa)
#
#
# Indices 1 2 3 4 5 6 
#
# 1 328.8691 14.0976 4.0292 0.0000 0.0000 0.0000
# 2 14.0976 55.8467 -14.2954 0.0000 0.0000 0.0000
# 3 4.0292 -14.2954 45.9460 0.0000 0.0000 0.0000
# 4 0.0000 0.0000 0.0000 170.4568 0.0000 0.0000
# 5 0.0000 0.0000 0.0000 0.0000 -3.6856 0.0000
# 6 0.0000 0.0000 0.0000 0.0000 0.0000 7.7202
#
#
#
# Elastic Compliance Matrix: (Units=1/GPa)
#
#
# Indices 1 2 3 4 5 6 
#
# 1 0.003087 -0.000922 -0.000558 0.000000 0.000000 0.000000
# 2 -0.000922 0.019731 0.006220 0.000000 0.000000 0.000000
# 3 -0.000558 0.006220 0.023749 0.000000 0.000000 0.000000
# 4 0.000000 0.000000 0.000000 0.005867 0.000000 0.000000
# 5 0.000000 0.000000 0.000000 0.000000 -0.271323 0.000000
# 6 0.000000 0.000000 0.000000 0.000000 0.000000 0.129530
#
#
# Mechanical properties :
#
#
# Convention : Reuss Voigt Hill
#
# Bulk Modulus (GPa) = 17.84202 48.70274 33.27238
# Shear Modulus (GPa) = -62.37711 63.35363 0.48826
#
# Velocity S-wave (km/s) = -5.02923 5.06845 0.44495
# Velocity P-wave (km/s) = 5.14680 7.34851 3.70885
#
# Compressibility (1/GPa) = 0.05604747
#
# Stress axis : x y z
#
# Youngs Moduli (GPa) = 323.93089 50.68157 42.10736
#
# Poissons Ratio (x) = 0.04673 0.02348
# Poissons Ratio (y) = 0.29867 -0.26190
# Poissons Ratio (z) = 0.18062 -0.31523
#
# Static dielectric constant tensor:
#      x y z
#    x 2.187120 0.000000 0.000000 
#    y 0.000000 1.762250 0.000000 
#    z 0.000000 0.000000 1.949330 
# 
# From -- ./inp_files/4220.got.cif
#   From: 2010.05.17/outbox.cif.g08.bks.cpg/sg28_3_cif.got.tgz:4220.got - 2010.06.04 01:15:21.
