data_PCOD9339527
_publ_section_title
;
Structure prediction by ZEFSAII (Michael W. Deem and Ramdas Pophale) SiO2 
 PCOD9339527
Probable space group: P M A 2
;
_chemical_formula_sum "Si O2"
_cell_formula_units_Z 24
_cell_length_a 8.507137
_cell_length_b 9.256600
_cell_length_c 16.196379
_cell_angle_alpha 90.000000
_cell_angle_beta 90.000000
_cell_angle_gamma 90.000000
_cell_volume 1275.418919
_symmetry_space_group_name_H-M "P M A 2"
_symmetry_group_IT_number 28
_symmetry_cell_setting 'orthorhombic'
loop_
_space_group_symop_operation_xyz
x,y,z
-x,-y,z
1/2-x,y,z
1/2+x,-y,z
loop_
_atom_site_type_symbol
_atom_site_label
_atom_site_fract_x
_atom_site_fract_y
_atom_site_fract_z
Si Si1 0.060625 0.334938 0.571880
Si Si2 0.440316 0.335491 0.932664
Si Si3 0.939995 0.837434 0.093846
Si Si4 0.439358 0.335569 0.752726
Si Si5 0.938712 0.662975 0.256832
Si Si6 0.562791 0.162724 0.414570
O O1 0.250000 0.336749 0.567420
O O2 0.011608 0.276641 0.663096
O O3 0.000000 0.500000 0.564335
O O4 0.994188 0.239782 0.498161
O O5 0.500000 0.500000 0.940880
O O6 0.250000 0.339559 0.934228
O O7 0.490066 0.275827 0.842099
O O8 0.494386 0.239755 0.009527
O O9 0.750000 0.839329 0.093157
O O10 0.990365 0.745443 0.173614
O O11 0.000000 0.000000 0.099335
O O12 0.500000 0.500000 0.753055
O O13 0.250000 0.336026 0.752562
O O14 0.750000 0.661356 0.258736
O O15 0.000000 0.500000 0.256901
O O16 0.999662 0.747583 0.336649
O O17 0.750000 0.161468 0.412332
O O18 0.500000 0.000000 0.410762
#
# Coordination Sequence:
#
# PCOD9339527 Si02
#       6
#     4   4   4   4   4   4
#     4  10  19  34  56  83 112 146 185 228 273 322
#     4   9  17  32  53  80 109 141 181 225 268 316
#     4  10  22  37  55  79 111 146 181 220 268 321
#     4   8  15  28  50  77 108 141 178 223 269 313
#     4  11  23  40  61  86 111 141 180 224 270 322
#     4  12  25  41  59  81 110 145 181 224 274 328
#
# _framework density 18.817347000000002
#
# number of rings (size 3 to 8) (size 9 to 14) (size 15 to 20)
#    0.000    2.000    0.000    4.000    0.000    4.000 
#    0.000    0.833    0.000    2.000    0.000    0.000 
#    0.000    0.000    0.000    0.000    0.000    0.000 
#
# Total GULP energy -133942.595622 kJ/mol
# GULP energy per Si atom -5580.941484 kJ/mol
# Density = 1.877452 g / cm^3
# Si number density = 18.817347 Si / 1000 Ang^3
#
#
#
# Elastic Constant Matrix: (Units=GPa)
#
#
# Indices 1 2 3 4 5 6 
#
# 1 52.0951 32.0938 48.8549 0.0000 0.0000 0.0000
# 2 32.0938 134.7871 111.4983 0.0000 0.0000 0.0000
# 3 48.8549 111.4983 242.6756 0.0000 0.0000 0.0000
# 4 0.0000 0.0000 0.0000 -13.1113 0.0000 0.0000
# 5 0.0000 0.0000 0.0000 0.0000 3.2301 0.0000
# 6 0.0000 0.0000 0.0000 0.0000 0.0000 32.1992
#
#
#
# Elastic Compliance Matrix: (Units=1/GPa)
#
#
# Indices 1 2 3 4 5 6 
#
# 1 0.024304 -0.002806 -0.003604 0.000000 0.000000 0.000000
# 2 -0.002806 0.012292 -0.005083 0.000000 0.000000 0.000000
# 3 -0.003604 -0.005083 0.007181 0.000000 0.000000 0.000000
# 4 0.000000 0.000000 0.000000 -0.076270 0.000000 0.000000
# 5 0.000000 0.000000 0.000000 0.000000 0.309591 0.000000
# 6 0.000000 0.000000 0.000000 0.000000 0.000000 0.031057
#
#
# Mechanical properties :
#
#
# Convention : Reuss Voigt Hill
#
# Bulk Modulus (GPa) = 48.09407 90.49465 69.29436
# Shear Modulus (GPa) = 14.78986 20.27099 17.53043
#
# Velocity S-wave (km/s) = 2.80656 3.28571 3.05554
# Velocity P-wave (km/s) = 6.00968 7.91138 7.02518
#
# Compressibility (1/GPa) = 0.02079258
#
# Stress axis : x y z
#
# Youngs Moduli (GPa) = 41.14598 81.35646 139.24907
#
# Poissons Ratio (x) = 0.22828 0.50179
# Poissons Ratio (y) = 0.11545 0.70774
# Poissons Ratio (z) = 0.14827 0.41350
#
# Static dielectric constant tensor:
#      x y z
#    x 1.633430 0.000000 0.000000 
#    y 0.000000 1.590090 0.000000 
#    z 0.000000 0.000000 1.693000 
# 
# From -- ./inp_files/6036.got.cif
#   From: 2010.05.17/outbox.cif.g08.bks.cpg/sg28_4_cif.got.tgz:6036.got - 2010.06.04 01:15:21.
