data_PCOD9339359
_publ_section_title
;
Structure prediction by ZEFSAII (Michael W. Deem and Ramdas Pophale) SiO2 
 PCOD9339359
Probable space group: P M A 2
;
_chemical_formula_sum "Si O2"
_cell_formula_units_Z 32
_cell_length_a 15.110332
_cell_length_b 7.258780
_cell_length_c 11.473071
_cell_angle_alpha 90.000000
_cell_angle_beta 90.000000
_cell_angle_gamma 90.000000
_cell_volume 1258.395979
_symmetry_space_group_name_H-M "P M A 2"
_symmetry_group_IT_number 28
_symmetry_cell_setting 'orthorhombic'
loop_
_space_group_symop_operation_xyz
x,y,z
-x,-y,z
1/2-x,y,z
1/2+x,-y,z
loop_
_atom_site_type_symbol
_atom_site_label
_atom_site_fract_x
_atom_site_fract_y
_atom_site_fract_z
Si Si1 0.893547 0.459067 0.321470
Si Si2 0.398042 0.552629 0.570226
Si Si3 0.893547 0.459067 0.818982
Si Si4 0.605238 0.020390 0.320644
Si Si5 0.850215 0.032873 0.570226
Si Si6 0.894762 0.020390 0.819808
Si Si7 0.106767 0.974534 0.070226
Si Si8 0.393546 0.534757 0.070226
O O1 0.858202 0.515431 0.448203
O O2 0.876465 0.239226 0.321127
O O3 0.860812 0.532068 0.196546
O O4 0.000000 0.500000 0.322118
O O5 0.500000 0.500000 0.570226
O O6 0.358202 0.484569 0.692249
O O7 0.403607 0.775966 0.570226
O O8 0.876465 0.239226 0.819325
O O9 0.000000 0.500000 0.818334
O O10 0.860812 0.532068 0.943906
O O11 0.633753 0.939582 0.445233
O O12 0.639330 0.951643 0.195034
O O13 0.500000 0.000000 0.318257
O O14 0.750000 0.096217 0.570226
O O15 0.866247 0.939582 0.695219
O O16 0.860670 0.951643 0.945418
O O17 0.000000 0.000000 0.822195
O O18 0.121641 0.754781 0.070226
O O19 0.000000 0.000000 0.070226
O O20 0.500000 0.500000 0.070226
#
# Coordination Sequence:
#
# PCOD9339359 Si02
#       8
#     4   4   4   4   4   4   4   4
#     4   8  13  21  35  57  80 102 130 168 206 245
#     4   8  14  25  40  57  78 108 144 176 208 255
#     4   8  13  21  35  57  80 102 130 168 206 245
#     4   9  16  27  43  63  84 113 147 180 217 262
#     4  10  19  29  42  65  93 118 146 186 231 275
#     4   9  16  27  43  63  84 113 147 180 217 262
#     4   8  14  24  39  59  84 107 139 182 217 252
#     4   8  12  18  30  51  80 103 122 158 209 246
#
# _framework density 25.429196999999998
#
# number of rings (size 3 to 8) (size 9 to 14) (size 15 to 20)
#    0.000    3.500    0.000    0.375    0.000    0.000 
#    0.000    0.625    0.000    0.000    0.000   56.000 
#    0.000    0.000    0.000  261.750    0.000    0.000 
#
# Total GULP energy -178257.838856 kJ/mol
# GULP energy per Si atom -5570.557464 kJ/mol
# Density = 2.537132 g / cm^3
# Si number density = 25.429197 Si / 1000 Ang^3
#
#
#
# Elastic Constant Matrix: (Units=GPa)
#
#
# Indices 1 2 3 4 5 6 
#
# 1 52.6545 -8.1650 13.5288 0.0000 0.0000 0.0000
# 2 -8.1650 113.2947 19.2355 0.0000 0.0000 0.0000
# 3 13.5288 19.2355 413.9716 0.0000 0.0000 0.0000
# 4 0.0000 0.0000 0.0000 -21.1072 0.0000 0.0000
# 5 0.0000 0.0000 0.0000 0.0000 -40.6602 0.0000
# 6 0.0000 0.0000 0.0000 0.0000 0.0000 -15.8138
#
#
#
# Elastic Compliance Matrix: (Units=1/GPa)
#
#
# Indices 1 2 3 4 5 6 
#
# 1 0.019408 0.001518 -0.000705 0.000000 0.000000 0.000000
# 2 0.001518 0.009016 -0.000469 0.000000 0.000000 0.000000
# 3 -0.000705 -0.000469 0.002460 0.000000 0.000000 0.000000
# 4 0.000000 0.000000 0.000000 -0.047377 0.000000 0.000000
# 5 0.000000 0.000000 0.000000 0.000000 -0.024594 0.000000
# 6 0.000000 0.000000 0.000000 0.000000 0.000000 -0.063236
#
#
# Mechanical properties :
#
#
# Convention : Reuss Voigt Hill
#
# Bulk Modulus (GPa) = 31.67131 69.90213 50.78672
# Shear Modulus (GPa) = -52.91677 21.50518 -15.70579
#
# Velocity S-wave (km/s) = -4.56669 2.91123 -2.48791
# Velocity P-wave (km/s) = 3.91464 6.23289 3.42961
#
# Compressibility (1/GPa) = 0.03157432
#
# Stress axis : x y z
#
# Youngs Moduli (GPa) = 51.52437 110.91989 406.43307
#
# Poissons Ratio (x) = -0.16842 0.28646
# Poissons Ratio (y) = -0.07823 0.19043
# Poissons Ratio (z) = 0.03632 0.05197
#
# Static dielectric constant tensor:
#      x y z
#    x 1.905960 0.000000 0.000000 
#    y 0.000000 1.900980 0.000000 
#    z 0.000000 0.000000 2.147180 
# 
# From -- ./inp_files/5595.got.cif
#   From: 2010.05.17/outbox.cif.g08.bks.cpg/sg28_3_cif.got.tgz:5595.got - 2010.06.04 01:15:21.
