data_PCOD9339494
_publ_section_title
;
Structure prediction by ZEFSAII (Michael W. Deem and Ramdas Pophale) SiO2 
 PCOD9339494
Probable space group: P M A 2
;
_chemical_formula_sum "Si O2"
_cell_formula_units_Z 28
_cell_length_a 8.471525
_cell_length_b 9.406505
_cell_length_c 18.947374
_cell_angle_alpha 90.000000
_cell_angle_beta 90.000000
_cell_angle_gamma 90.000000
_cell_volume 1509.867772
_symmetry_space_group_name_H-M "P M A 2"
_symmetry_group_IT_number 28
_symmetry_cell_setting 'orthorhombic'
loop_
_space_group_symop_operation_xyz
x,y,z
-x,-y,z
1/2-x,y,z
1/2+x,-y,z
loop_
_atom_site_type_symbol
_atom_site_label
_atom_site_fract_x
_atom_site_fract_y
_atom_site_fract_z
Si Si1 0.439170 0.839363 0.567410
Si Si2 0.939532 0.839324 0.991941
Si Si3 0.059726 0.337720 0.280086
Si Si4 0.940990 0.661575 0.126917
Si Si5 0.060119 0.337456 0.434803
Si Si6 0.940767 0.339302 0.704109
Si Si7 0.439392 0.838641 0.840350
O O1 0.250000 0.841510 0.567920
O O2 0.496227 0.759160 0.497355
O O3 0.493802 0.750552 0.635964
O O4 0.500000 0.000000 0.570069
O O5 0.750000 0.839658 0.990625
O O6 0.000313 0.785421 0.916269
O O7 0.995542 0.749523 0.059209
O O8 0.000000 0.000000 0.998886
O O9 0.250000 0.337223 0.280252
O O10 0.008454 0.277443 0.203919
O O11 0.009388 0.281132 0.356810
O O12 0.000000 0.500000 0.279517
O O13 0.750000 0.660456 0.125886
O O14 0.000000 0.500000 0.122067
O O15 0.250000 0.339786 0.437550
O O16 0.000000 0.500000 0.442296
O O17 0.750000 0.341030 0.703845
O O18 0.992292 0.259612 0.775582
O O19 0.000000 0.500000 0.700930
O O20 0.250000 0.842673 0.841630
O O21 0.500000 0.000000 0.830739
#
# Coordination Sequence:
#
# PCOD9339494 Si02
#       7
#     4   4   4   4   4   4   4
#     4  11  23  39  57  79 107 140 177 215 261 313
#     4  10  20  34  52  75 103 137 174 211 255 306
#     4   8  15  29  49  73 102 135 171 212 257 305
#     4   9  18  32  51  75 103 135 173 215 258 305
#     4  10  19  33  55  81 108 139 176 219 264 311
#     4  10  23  39  57  81 107 136 171 211 255 306
#     4  10  20  36  56  78 103 134 172 211 255 306
#
# _framework density 18.544671000000001
#
# number of rings (size 3 to 8) (size 9 to 14) (size 15 to 20)
#    0.000    2.286    0.000    3.429    0.000    5.714 
#    0.000    3.571    0.000    1.714    0.000    0.000 
#    0.000    0.000    0.000    0.000    0.000    0.000 
#
# Total GULP energy -156167.956853 kJ/mol
# GULP energy per Si atom -5577.427030 kJ/mol
# Density = 1.850246 g / cm^3
# Si number density = 18.544671 Si / 1000 Ang^3
#
#
#
# Elastic Constant Matrix: (Units=GPa)
#
#
# Indices 1 2 3 4 5 6 
#
# 1 33.2926 19.4001 36.6551 0.0000 0.0000 0.0000
# 2 19.4001 94.4059 102.8732 0.0000 0.0000 0.0000
# 3 36.6551 102.8732 242.1798 0.0000 0.0000 0.0000
# 4 0.0000 0.0000 0.0000 27.5629 0.0000 0.0000
# 5 0.0000 0.0000 0.0000 0.0000 29.1413 0.0000
# 6 0.0000 0.0000 0.0000 0.0000 0.0000 27.0380
#
#
#
# Elastic Compliance Matrix: (Units=1/GPa)
#
#
# Indices 1 2 3 4 5 6 
#
# 1 0.036423 -0.002751 -0.004344 0.000000 0.000000 0.000000
# 2 -0.002751 0.019929 -0.008049 0.000000 0.000000 0.000000
# 3 -0.004344 -0.008049 0.008206 0.000000 0.000000 0.000000
# 4 0.000000 0.000000 0.000000 0.036281 0.000000 0.000000
# 5 0.000000 0.000000 0.000000 0.000000 0.034316 0.000000
# 6 0.000000 0.000000 0.000000 0.000000 0.000000 0.036985
#
#
# Mechanical properties :
#
#
# Convention : Reuss Voigt Hill
#
# Bulk Modulus (GPa) = 29.18093 76.41504 52.79798
# Shear Modulus (GPa) = 23.38093 30.81176 27.09635
#
# Velocity S-wave (km/s) = 3.55461 4.08056 3.82663
# Velocity P-wave (km/s) = 5.71110 7.96848 6.93229
#
# Compressibility (1/GPa) = 0.03426896
#
# Stress axis : x y z
#
# Youngs Moduli (GPa) = 27.45545 50.17871 121.86589
#
# Poissons Ratio (x) = 0.13803 0.52941
# Poissons Ratio (y) = 0.07553 0.98090
# Poissons Ratio (z) = 0.11927 0.40389
#
# Static dielectric constant tensor:
#      x y z
#    x 1.634540 0.000000 0.000000 
#    y 0.000000 1.587270 0.000000 
#    z 0.000000 0.000000 1.687280 
# 
# From -- ./inp_files/6844.got.cif
#   From: 2010.05.17/outbox.cif.g08.bks.cpg/sg28_4_cif.got.tgz:6844.got - 2010.06.04 01:15:21.
