data_PCOD9339166
_publ_section_title
;
Structure prediction by ZEFSAII (Michael W. Deem and Ramdas Pophale) SiO2 
 PCOD9339166
Probable space group: P C C 2
;
_chemical_formula_sum "Si O2"
_cell_formula_units_Z 32
_cell_length_a 11.767996
_cell_length_b 15.435967
_cell_length_c 8.560359
_cell_angle_alpha 90.000000
_cell_angle_beta 90.000000
_cell_angle_gamma 90.000000
_cell_volume 1554.992619
_symmetry_space_group_name_H-M "P C C 2"
_symmetry_group_IT_number 27
_symmetry_cell_setting 'orthorhombic'
loop_
_space_group_symop_operation_xyz
x,y,z
-x,-y,z
-x,y,1/2+z
x,-y,1/2+z
loop_
_atom_site_type_symbol
_atom_site_label
_atom_site_fract_x
_atom_site_fract_y
_atom_site_fract_z
Si Si1 0.881576 0.449464 0.356680
Si Si2 0.143384 0.924613 0.736722
Si Si3 0.272938 0.235548 0.361060
Si Si4 0.207563 0.400923 0.174571
Si Si5 0.892583 0.895835 0.867613
Si Si6 0.222523 0.728480 0.225416
Si Si7 0.548431 0.408758 0.524488
Si Si8 0.479416 0.705395 0.272580
O O1 0.794157 0.525528 0.307527
O O2 0.883017 0.421254 0.538468
O O3 0.839716 0.363598 0.262520
O O4 0.000000 0.500000 0.323950
O O5 0.233824 0.858866 0.807810
O O6 0.126869 0.908910 0.552145
O O7 0.025161 0.903800 0.824920
O O8 0.167202 0.024984 0.775000
O O9 0.207120 0.307601 0.255864
O O10 0.239111 0.255697 0.540183
O O11 0.407228 0.245056 0.323180
O O12 0.322481 0.406397 0.075770
O O13 0.849065 0.804264 0.805631
O O14 0.350732 0.736286 0.296425
O O15 0.500000 0.500000 0.566688
O O16 0.521846 0.391167 0.344935
O O17 0.495420 0.320261 0.592888
#
# Coordination Sequence:
#
# PCOD9339166 Si02
#       8
#     4   4   4   4   4   4   4   4
#     4  12  26  43  61  89 135 178 232 277 338 401
#     4  11  23  46  71 109 134 171 227 271 342 400
#     4  11  25  43  71  97 139 178 226 283 337 405
#     4  11  25  41  61  90 128 179 223 284 330 403
#     4  11  24  43  78 101 140 176 218 281 330 410
#     4  12  24  45  67 100 137 182 225 277 343 404
#     4  11  22  37  61  89 121 170 224 287 331 394
#     4  11  23  40  64  94 131 172 228 276 344 400
#
# _framework density 20.578876999999999
#
# number of rings (size 3 to 8) (size 9 to 14) (size 15 to 20)
#    0.000    0.750    2.500    6.000    7.000    0.000 
#    2.250    1.250    0.000    3.000    0.000    0.000 
#    0.000    0.000    0.000    0.000    0.000    0.000 
#
# Total GULP energy -178522.112147 kJ/mol
# GULP energy per Si atom -5578.816005 kJ/mol
# Density = 2.053204 g / cm^3
# Si number density = 20.578877 Si / 1000 Ang^3
#
#
#
# Elastic Constant Matrix: (Units=GPa)
#
#
# Indices 1 2 3 4 5 6 
#
# 1 74.7473 38.5534 14.1984 0.0000 0.0000 0.0000
# 2 38.5534 96.9726 2.5978 0.0000 0.0000 0.0000
# 3 14.1984 2.5978 85.7337 0.0000 0.0000 0.0000
# 4 0.0000 0.0000 0.0000 39.0860 0.0000 0.0000
# 5 0.0000 0.0000 0.0000 0.0000 -70.1760 0.0000
# 6 0.0000 0.0000 0.0000 0.0000 0.0000 31.8081
#
#
#
# Elastic Compliance Matrix: (Units=1/GPa)
#
#
# Indices 1 2 3 4 5 6 
#
# 1 0.017423 -0.006855 -0.002678 0.000000 0.000000 0.000000
# 2 -0.006855 0.013018 0.000741 0.000000 0.000000 0.000000
# 3 -0.002678 0.000741 0.012085 0.000000 0.000000 0.000000
# 4 0.000000 0.000000 0.000000 0.025585 0.000000 0.000000
# 5 0.000000 0.000000 0.000000 0.000000 -0.014250 0.000000
# 6 0.000000 0.000000 0.000000 0.000000 0.000000 0.031439
#
#
# Mechanical properties :
#
#
# Convention : Reuss Voigt Hill
#
# Bulk Modulus (GPa) = 40.09350 40.90586 40.49968
# Shear Modulus (GPa) = 44.96544 13.61720 29.29132
#
# Velocity S-wave (km/s) = 4.67950 2.57516 3.77685
# Velocity P-wave (km/s) = 6.98012 5.36308 6.22434
#
# Compressibility (1/GPa) = 0.02494170
#
# Stress axis : x y z
#
# Youngs Moduli (GPa) = 57.39618 76.81843 82.74704
#
# Poissons Ratio (x) = 0.52659 0.22157
# Poissons Ratio (y) = 0.39345 -0.06130
# Poissons Ratio (z) = 0.15369 -0.05691
#
# Static dielectric constant tensor:
#      x y z
#    x 3.768790 0.000000 0.000000 
#    y 0.000000 1.698110 0.000000 
#    z 0.000000 0.000000 1.755590 
# 
# From -- ./inp_files/1481.got.cif
#   From: 2010.05.17/outbox.cif.g08.bks.cpg/sg27_1_cif.got.tgz:1481.got - 2010.06.04 01:11:05.
