data_PCOD9339639
_publ_section_title
;
Structure prediction by ZEFSAII (Michael W. Deem and Ramdas Pophale) SiO2 
 PCOD9339639
Probable space group: P M A 2
;
_chemical_formula_sum "Si O2"
_cell_formula_units_Z 28
_cell_length_a 8.626248
_cell_length_b 9.041351
_cell_length_c 19.359992
_cell_angle_alpha 90.000000
_cell_angle_beta 90.000000
_cell_angle_gamma 90.000000
_cell_volume 1509.942617
_symmetry_space_group_name_H-M "P M A 2"
_symmetry_group_IT_number 28
_symmetry_cell_setting 'orthorhombic'
loop_
_space_group_symop_operation_xyz
x,y,z
-x,-y,z
1/2-x,y,z
1/2+x,-y,z
loop_
_atom_site_type_symbol
_atom_site_label
_atom_site_fract_x
_atom_site_fract_y
_atom_site_fract_z
Si Si1 0.564132 0.331171 0.006320
Si Si2 0.563443 0.331214 0.707553
Si Si3 0.064892 0.332168 0.147091
Si Si4 0.065039 0.333009 0.564690
Si Si5 0.434970 0.835393 0.431830
Si Si6 0.436409 0.332826 0.299297
Si Si7 0.436854 0.667946 0.857034
O O1 0.500000 0.500000 0.005327
O O2 0.750000 0.336302 0.010250
O O3 0.500948 0.261123 0.077047
O O4 0.517063 0.265123 0.931463
O O5 0.500000 0.500000 0.709208
O O6 0.750000 0.333959 0.701977
O O7 0.493373 0.265451 0.637555
O O8 0.518129 0.264858 0.782571
O O9 0.250000 0.338504 0.141623
O O10 0.024295 0.269757 0.222778
O O11 0.000000 0.500000 0.148543
O O12 0.250000 0.337273 0.564317
O O13 0.000000 0.500000 0.560988
O O14 0.002030 0.247462 0.498635
O O15 0.250000 0.834572 0.434879
O O16 0.491182 0.756307 0.362045
O O17 0.500000 0.000000 0.431800
O O18 0.500000 0.500000 0.302557
O O19 0.250000 0.335506 0.305513
O O20 0.500000 0.500000 0.857065
O O21 0.250000 0.660608 0.856971
#
# Coordination Sequence:
#
# PCOD9339639 Si02
#       7
#     4   4   4   4   4   4   4
#     4   9  14  20  31  50  80 118 157 194 235 282
#     4   9  15  25  40  61  89 122 161 202 243 286
#     4   9  16  25  39  60  88 121 158 198 238 281
#     4  11  21  35  54  77 103 133 169 207 248 294
#     4  12  25  41  58  77 101 129 161 201 250 301
#     4  10  20  35  54  77 103 133 169 208 249 294
#     4   8  14  21  31  50  80 118 156 194 236 282
#
# _framework density 18.543751
#
# number of rings (size 3 to 8) (size 9 to 14) (size 15 to 20)
#    0.000    2.286    0.000    6.429    0.000    2.857 
#    0.000    0.000    0.000    0.000    0.000    0.000 
#    0.000    1.143    0.000    6.000    0.000   13.143 
#
# Total GULP energy -155975.609522 kJ/mol
# GULP energy per Si atom -5570.557483 kJ/mol
# Density = 1.850154 g / cm^3
# Si number density = 18.543751 Si / 1000 Ang^3
#
#
#
# Elastic Constant Matrix: (Units=GPa)
#
#
# Indices 1 2 3 4 5 6 
#
# 1 109.9022 16.8321 78.7121 0.0000 0.0000 0.0000
# 2 16.8321 27.3587 45.7269 0.0000 0.0000 0.0000
# 3 78.7121 45.7269 256.8341 0.0000 0.0000 0.0000
# 4 0.0000 0.0000 0.0000 -6.3835 0.0000 0.0000
# 5 0.0000 0.0000 0.0000 0.0000 32.2385 0.0000
# 6 0.0000 0.0000 0.0000 0.0000 0.0000 14.7840
#
#
#
# Elastic Compliance Matrix: (Units=1/GPa)
#
#
# Indices 1 2 3 4 5 6 
#
# 1 0.011714 -0.001718 -0.003284 0.000000 0.000000 0.000000
# 2 -0.001718 0.052288 -0.008783 0.000000 0.000000 0.000000
# 3 -0.003284 -0.008783 0.006464 0.000000 0.000000 0.000000
# 4 0.000000 0.000000 0.000000 -0.156653 0.000000 0.000000
# 5 0.000000 0.000000 0.000000 0.000000 0.031019 0.000000
# 6 0.000000 0.000000 0.000000 0.000000 0.000000 0.067641
#
#
# Mechanical properties :
#
#
# Convention : Reuss Voigt Hill
#
# Bulk Modulus (GPa) = 23.31218 75.18191 49.24705
# Shear Modulus (GPa) = 92.01139 24.98273 58.49706
#
# Velocity S-wave (km/s) = 7.05168 3.67445 5.62262
# Velocity P-wave (km/s) = 8.88259 7.65722 8.29257
#
# Compressibility (1/GPa) = 0.04289603
#
# Stress axis : x y z
#
# Youngs Moduli (GPa) = 85.36596 19.12487 154.70779
#
# Poissons Ratio (x) = 0.03285 0.50810
# Poissons Ratio (y) = 0.14665 1.35878
# Poissons Ratio (z) = 0.28036 0.16797
#
# Static dielectric constant tensor:
#      x y z
#    x 1.619000 0.000000 0.000000 
#    y 0.000000 1.579720 0.000000 
#    z 0.000000 0.000000 1.743730 
# 
# From -- ./inp_files/7024.got.cif
#   From: 2010.05.17/outbox.cif.g08.bks.cpg/sg28_4_cif.got.tgz:7024.got - 2010.06.04 01:15:21.
