data_PCOD9339683
_publ_section_title
;
Structure prediction by ZEFSAII (Michael W. Deem and Ramdas Pophale) SiO2 
 PCOD9339683
Probable space group: P M A 2
;
_chemical_formula_sum "Si O2"
_cell_formula_units_Z 32
_cell_length_a 9.719009
_cell_length_b 13.874507
_cell_length_c 12.291157
_cell_angle_alpha 90.000000
_cell_angle_beta 90.000000
_cell_angle_gamma 90.000000
_cell_volume 1657.418991
_symmetry_space_group_name_H-M "P M A 2"
_symmetry_group_IT_number 28
_symmetry_cell_setting 'orthorhombic'
loop_
_space_group_symop_operation_xyz
x,y,z
-x,-y,z
1/2-x,y,z
1/2+x,-y,z
loop_
_atom_site_type_symbol
_atom_site_label
_atom_site_fract_x
_atom_site_fract_y
_atom_site_fract_z
Si Si1 0.092742 0.904316 0.185500
Si Si2 0.906360 0.748023 0.285311
Si Si3 0.967711 0.113108 0.940866
Si Si4 0.085425 0.406794 0.475969
Si Si5 0.598729 0.090879 0.694092
Si Si6 0.083905 0.693152 0.665093
Si Si7 0.092983 0.411732 0.100099
Si Si8 0.906898 0.694463 0.877842
O O1 0.250000 0.924403 0.215158
O O2 0.019814 0.828858 0.265430
O O3 0.092760 0.864807 0.060041
O O4 0.000000 0.000000 0.186751
O O5 0.750000 0.788362 0.285991
O O6 0.923749 0.680564 0.390075
O O7 0.917194 0.676352 0.182849
O O8 0.893024 0.114722 0.823779
O O9 0.082747 0.194535 0.919976
O O10 0.000000 0.000000 0.949734
O O11 0.250000 0.426540 0.492804
O O12 0.000000 0.500000 0.435404
O O13 0.002779 0.371925 0.582561
O O14 0.750000 0.063804 0.655417
O O15 0.557878 0.192757 0.641087
O O16 0.500000 0.000000 0.679349
O O17 0.250000 0.677727 0.662335
O O18 0.017489 0.677384 0.783748
O O19 0.250000 0.445164 0.100255
O O20 0.000000 0.500000 0.133163
O O21 0.060831 0.372903 0.980040
O O22 0.750000 0.677509 0.840420
#
# Coordination Sequence:
#
# PCOD9339683 Si02
#       8
#     4   4   4   4   4   4   4   4
#     4  11  22  35  57  88 124 164 203 245 294 352
#     4  10  22  42  63  87 119 153 196 248 301 357
#     4   9  18  30  50  82 118 157 200 239 285 343
#     4  11  24  43  69  92 114 149 198 253 307 362
#     4   9  18  32  52  81 117 156 195 238 285 341
#     4  10  22  39  59  86 122 155 197 251 298 355
#     4  10  21  37  57  83 115 151 189 238 297 358
#     4  10  20  36  58  83 119 162 198 241 298 359
#
# _framework density 19.307127000000001
#
# number of rings (size 3 to 8) (size 9 to 14) (size 15 to 20)
#    0.000    2.000    1.250    1.875    0.000   10.000 
#    0.000    1.875    0.000    1.500    0.000    0.000 
#    0.000    0.000    0.000    0.000    0.000    0.000 
#
# Total GULP energy -178287.528943 kJ/mol
# GULP energy per Si atom -5571.485279 kJ/mol
# Density = 1.926318 g / cm^3
# Si number density = 19.307127 Si / 1000 Ang^3
#
#
#
# Elastic Constant Matrix: (Units=GPa)
#
#
# Indices 1 2 3 4 5 6 
#
# 1 119.0879 40.2772 40.1158 0.0000 0.0000 0.0000
# 2 40.2772 43.9857 14.2766 0.0000 0.0000 0.0000
# 3 40.1158 14.2766 50.0520 0.0000 0.0000 0.0000
# 4 0.0000 0.0000 0.0000 8.9184 0.0000 0.0000
# 5 0.0000 0.0000 0.0000 0.0000 -15.7359 0.0000
# 6 0.0000 0.0000 0.0000 0.0000 0.0000 34.0222
#
#
#
# Elastic Compliance Matrix: (Units=1/GPa)
#
#
# Indices 1 2 3 4 5 6 
#
# 1 0.015128 -0.010929 -0.009007 0.000000 0.000000 0.000000
# 2 -0.010929 0.032949 -0.000639 0.000000 0.000000 0.000000
# 3 -0.009007 -0.000639 0.027381 0.000000 0.000000 0.000000
# 4 0.000000 0.000000 0.000000 0.112128 0.000000 0.000000
# 5 0.000000 0.000000 0.000000 0.000000 -0.063549 0.000000
# 6 0.000000 0.000000 0.000000 0.000000 0.000000 0.029393
#
#
# Mechanical properties :
#
#
# Convention : Reuss Voigt Hill
#
# Bulk Modulus (GPa) = 29.14823 44.71833 36.93328
# Shear Modulus (GPa) = 24.27013 13.33802 18.80407
#
# Velocity S-wave (km/s) = 3.54934 2.63122 3.12419
# Velocity P-wave (km/s) = 5.65040 5.69587 5.67318
#
# Compressibility (1/GPa) = 0.03430740
#
# Stress axis : x y z
#
# Youngs Moduli (GPa) = 66.10469 30.34963 36.52211
#
# Poissons Ratio (x) = 0.33168 0.32896
# Poissons Ratio (y) = 0.72243 0.02335
# Poissons Ratio (z) = 0.59542 0.01940
#
# Static dielectric constant tensor:
#      x y z
#    x 1.677230 0.000000 0.000000 
#    y 0.000000 1.579380 0.000000 
#    z 0.000000 0.000000 1.680930 
# 
# From -- ./inp_files/5036.got.cif
#   From: 2010.05.17/outbox.cif.g08.bks.cpg/sg28_3_cif.got.tgz:5036.got - 2010.06.04 01:15:21.
