data_PCOD9339051
_publ_section_title
;
Structure prediction by ZEFSAII (Michael W. Deem and Ramdas Pophale) SiO2 
 PCOD9339051
Probable space group: P C C 2
;
_chemical_formula_sum "Si O2"
_cell_formula_units_Z 20
_cell_length_a 5.137049
_cell_length_b 8.961231
_cell_length_c 18.465599
_cell_angle_alpha 90.000000
_cell_angle_beta 90.000000
_cell_angle_gamma 90.000000
_cell_volume 850.050605
_symmetry_space_group_name_H-M "P C C 2"
_symmetry_group_IT_number 27
_symmetry_cell_setting 'orthorhombic'
loop_
_space_group_symop_operation_xyz
x,y,z
-x,-y,z
-x,y,1/2+z
x,-y,1/2+z
loop_
_atom_site_type_symbol
_atom_site_label
_atom_site_fract_x
_atom_site_fract_y
_atom_site_fract_z
Si Si1 0.076536 0.328017 0.930140
Si Si2 0.750865 0.608304 0.081562
Si Si3 0.249052 0.606089 0.275898
Si Si4 0.256376 0.898902 0.860537
Si Si5 0.445799 0.169960 0.200645
O O1 0.238064 0.319609 0.855611
O O2 0.000000 0.500000 0.933978
O O3 0.820284 0.230917 0.915875
O O4 0.214307 0.302169 0.006060
O O5 0.500000 0.500000 0.077411
O O6 0.707409 0.729212 0.144069
O O7 0.000000 0.500000 0.093138
O O8 0.500000 0.500000 0.270746
O O9 0.290420 0.737952 0.218668
O O10 0.000000 0.500000 0.267104
O O11 0.306922 0.839576 0.779290
O O12 0.500000 0.000000 0.882015
O O13 0.000000 0.000000 0.858186
O O14 0.500000 0.000000 0.177690
#
# Coordination Sequence:
#
# PCOD9339051 Si02
#       5
#     4   4   4   4   4
#     4  10  22  45  74 102 138 185 241 292 348 421
#     4  11  27  48  70 103 146 191 237 293 355 423
#     4  11  23  41  73 108 137 181 239 297 353 416
#     4  11  25  44  72 107 143 180 231 297 361 419
#     4  11  25  46  74 108 147 187 237 293 354 425
#
# _framework density 23.528010999999999
#
# number of rings (size 3 to 8) (size 9 to 14) (size 15 to 20)
#    0.000    1.200    0.000    6.000    0.000   15.200 
#    0.000    9.000    0.000    6.000    0.000    0.000 
#    0.000    0.000    0.000    0.000    0.000    0.000 
#
# Total GULP energy -112050.156904 kJ/mol
# GULP energy per Si atom -5602.507845 kJ/mol
# Density = 2.347446 g / cm^3
# Si number density = 23.528011 Si / 1000 Ang^3
#
#
#
# Elastic Constant Matrix: (Units=GPa)
#
#
# Indices 1 2 3 4 5 6 
#
# 1 186.1718 91.1347 57.9270 0.0000 0.0000 0.0000
# 2 91.1347 175.0342 81.5740 0.0000 0.0000 0.0000
# 3 57.9270 81.5740 138.7419 0.0000 0.0000 0.0000
# 4 0.0000 0.0000 0.0000 -63.7236 0.0000 0.0000
# 5 0.0000 0.0000 0.0000 0.0000 61.0628 0.0000
# 6 0.0000 0.0000 0.0000 0.0000 0.0000 29.0516
#
#
#
# Elastic Compliance Matrix: (Units=1/GPa)
#
#
# Indices 1 2 3 4 5 6 
#
# 1 0.007334 -0.003294 -0.001125 0.000000 0.000000 0.000000
# 2 -0.003294 0.009349 -0.004122 0.000000 0.000000 0.000000
# 3 -0.001125 -0.004122 0.010101 0.000000 0.000000 0.000000
# 4 0.000000 0.000000 0.000000 -0.015693 0.000000 0.000000
# 5 0.000000 0.000000 0.000000 0.000000 0.016377 0.000000
# 6 0.000000 0.000000 0.000000 0.000000 0.000000 0.034422
#
#
# Mechanical properties :
#
#
# Convention : Reuss Voigt Hill
#
# Bulk Modulus (GPa) = 103.07130 106.80213 104.93672
# Shear Modulus (GPa) = 60.82341 23.23231 42.02786
#
# Velocity S-wave (km/s) = 5.08995 3.14575 4.23104
# Velocity P-wave (km/s) = 8.85700 7.66071 8.28049
#
# Compressibility (1/GPa) = 0.00970202
#
# Stress axis : x y z
#
# Youngs Moduli (GPa) = 136.34983 106.96153 99.00308
#
# Poissons Ratio (x) = 0.35235 0.11140
# Poissons Ratio (y) = 0.44916 0.40804
# Poissons Ratio (z) = 0.15343 0.44084
#
# Static dielectric constant tensor:
#      x y z
#    x 1.906340 0.000000 0.000000 
#    y 0.000000 1.902810 0.000000 
#    z 0.000000 0.000000 1.931400 
# 
# From -- ./inp_files/3916.got.cif
#   From: 2010.05.17/outbox.cif.g08.bks.cpg/sg27_2_cif.got.tgz:3916.got - 2010.06.04 01:11:05.
