data_PCOD9339074
_publ_section_title
;
Structure prediction by ZEFSAII (Michael W. Deem and Ramdas Pophale) SiO2 
 PCOD9339074
Probable space group: P C C 2
;
_chemical_formula_sum "Si O2"
_cell_formula_units_Z 32
_cell_length_a 17.898736
_cell_length_b 5.633393
_cell_length_c 13.284920
_cell_angle_alpha 90.000000
_cell_angle_beta 90.000000
_cell_angle_gamma 90.000000
_cell_volume 1339.526642
_symmetry_space_group_name_H-M "P C C 2"
_symmetry_group_IT_number 27
_symmetry_cell_setting 'orthorhombic'
loop_
_space_group_symop_operation_xyz
x,y,z
-x,-y,z
-x,y,1/2+z
x,-y,1/2+z
loop_
_atom_site_type_symbol
_atom_site_label
_atom_site_fract_x
_atom_site_fract_y
_atom_site_fract_z
Si Si1 0.638449 0.201313 0.715330
Si Si2 0.961131 0.748093 0.372138
Si Si3 0.887233 0.833070 0.176206
Si Si4 0.417530 0.211338 0.006541
Si Si5 0.764307 0.894604 0.812504
Si Si6 0.230321 0.463231 0.656188
Si Si7 0.413381 0.711703 0.929422
Si Si8 0.171195 0.883005 0.001564
O O1 0.580929 0.158268 0.625563
O O2 0.686438 0.988823 0.765127
O O3 0.700775 0.359808 0.659428
O O4 0.598325 0.319134 0.810445
O O5 0.953800 0.768189 0.250311
O O6 0.880608 0.734661 0.426199
O O7 0.000000 0.500000 0.397099
O O8 0.000000 0.000000 0.400603
O O9 0.828335 0.965634 0.250153
O O10 0.846954 0.596722 0.138970
O O11 0.887637 0.997004 0.078629
O O12 0.382940 0.470198 0.979885
O O13 0.500312 0.250768 0.961069
O O14 0.381948 0.971209 0.961097
O O15 0.783814 0.937738 0.928440
O O16 0.771418 0.631064 0.771024
O O17 0.229189 0.259759 0.571890
#
# Coordination Sequence:
#
# PCOD9339074 Si02
#       8
#     4   4   4   4   4   4   4   4
#     4  11  25  41  70 106 141 185 246 304 364 440
#     4  11  27  46  71 106 145 188 238 291 346 433
#     4   9  22  43  67  96 137 187 229 297 354 423
#     4  10  25  45  69  99 142 185 240 290 365 432
#     4   9  22  41  64 100 135 179 235 298 365 417
#     4  10  23  43  69 100 139 187 233 310 363 423
#     4  10  25  45  69 102 137 193 234 297 360 438
#     4  10  23  44  72 100 140 185 243 293 365 424
#
# _framework density 23.889036000000001
#
# number of rings (size 3 to 8) (size 9 to 14) (size 15 to 20)
#    0.000    2.000    0.000    0.000   12.250    8.500 
#    0.000    0.000    0.000    0.000    0.000    0.000 
#    0.000    0.000    0.000    0.000    0.000    0.000 
#
# Total GULP energy -178431.049549 kJ/mol
# GULP energy per Si atom -5575.970298 kJ/mol
# Density = 2.383466 g / cm^3
# Si number density = 23.889036 Si / 1000 Ang^3
#
#
#
# Elastic Constant Matrix: (Units=GPa)
#
#
# Indices 1 2 3 4 5 6 
#
# 1 53.3190 15.3325 20.3292 0.0000 0.0000 0.0000
# 2 15.3325 115.1909 27.2111 0.0000 0.0000 0.0000
# 3 20.3292 27.2111 139.8518 0.0000 0.0000 0.0000
# 4 0.0000 0.0000 0.0000 3.6008 0.0000 0.0000
# 5 0.0000 0.0000 0.0000 0.0000 1.0626 0.0000
# 6 0.0000 0.0000 0.0000 0.0000 0.0000 -0.0708
#
#
#
# Elastic Compliance Matrix: (Units=1/GPa)
#
#
# Indices 1 2 3 4 5 6 
#
# 1 0.020331 -0.002105 -0.002546 0.000000 0.000000 0.000000
# 2 -0.002105 0.009317 -0.001507 0.000000 0.000000 0.000000
# 3 -0.002546 -0.001507 0.007814 0.000000 0.000000 0.000000
# 4 0.000000 0.000000 0.000000 0.277717 0.000000 0.000000
# 5 0.000000 0.000000 0.000000 0.000000 0.941088 0.000000
# 6 0.000000 0.000000 0.000000 0.000000 0.000000-14.127591
#
#
# Mechanical properties :
#
#
# Convention : Reuss Voigt Hill
#
# Bulk Modulus (GPa) = 39.76621 48.23414 44.00017
# Shear Modulus (GPa) = -0.38909 17.28446 8.44768
#
# Velocity S-wave (km/s) = -0.40401 2.69277 1.88252
# Velocity P-wave (km/s) = 4.05767 5.46834 4.81495
#
# Compressibility (1/GPa) = 0.02514698
#
# Stress axis : x y z
#
# Youngs Moduli (GPa) = 49.18608 107.32643 127.98038
#
# Poissons Ratio (x) = 0.22590 0.32582
# Poissons Ratio (y) = 0.10352 0.19286
# Poissons Ratio (z) = 0.12522 0.16173
#
# Static dielectric constant tensor:
#      x y z
#    x 2.147740 0.000000 0.000000 
#    y 0.000000 2.041340 0.000000 
#    z 0.000000 0.000000 1.902500 
# 
# From -- ./inp_files/2865.got.cif
#   From: 2010.05.17/outbox.cif.g08.bks.cpg/sg27_2_cif.got.tgz:2865.got - 2010.06.04 01:11:05.
