data_PCOD9339248
_publ_section_title
;
Structure prediction by ZEFSAII (Michael W. Deem and Ramdas Pophale) SiO2 
 PCOD9339248
Probable space group: P M A 2
;
_chemical_formula_sum "Si O2"
_cell_formula_units_Z 28
_cell_length_a 8.640752
_cell_length_b 9.689992
_cell_length_c 19.050100
_cell_angle_alpha 90.000000
_cell_angle_beta 90.000000
_cell_angle_gamma 90.000000
_cell_volume 1595.042351
_symmetry_space_group_name_H-M "P M A 2"
_symmetry_group_IT_number 28
_symmetry_cell_setting 'orthorhombic'
loop_
_space_group_symop_operation_xyz
x,y,z
-x,-y,z
1/2-x,y,z
1/2+x,-y,z
loop_
_atom_site_type_symbol
_atom_site_label
_atom_site_fract_x
_atom_site_fract_y
_atom_site_fract_z
Si Si1 0.436211 0.342512 0.129080
Si Si2 0.064062 0.845458 0.541634
Si Si3 0.064190 0.344460 0.823767
Si Si4 0.934713 0.342962 0.273057
Si Si5 0.563704 0.656005 0.977169
Si Si6 0.065313 0.344587 0.419130
Si Si7 0.434986 0.846365 0.701675
O O1 0.500000 0.500000 0.126897
O O2 0.250000 0.346108 0.135160
O O3 0.506048 0.278583 0.199966
O O4 0.481157 0.280604 0.052793
O O5 0.250000 0.845674 0.534787
O O6 0.024376 0.803296 0.621795
O O7 0.990538 0.745270 0.484493
O O8 0.000000 0.000000 0.531768
O O9 0.250000 0.348837 0.820879
O O10 0.017279 0.285637 0.901097
O O11 0.000000 0.500000 0.818722
O O12 0.001315 0.254040 0.760380
O O13 0.750000 0.346577 0.274123
O O14 0.000000 0.500000 0.272727
O O15 0.999403 0.283688 0.345840
O O16 0.500000 0.500000 0.976985
O O17 0.750000 0.649739 0.977794
O O18 0.250000 0.350386 0.415241
O O19 0.000000 0.500000 0.426389
O O20 0.250000 0.849887 0.706623
O O21 0.500000 0.000000 0.712034
#
# Coordination Sequence:
#
# PCOD9339248 Si02
#       7
#     4   4   4   4   4   4   4
#     4   9  14  22  36  57  87 123 161 197 238 286
#     4  10  21  38  57  77 100 128 164 204 247 297
#     4  10  19  32  50  74 104 135 168 207 251 296
#     4  10  17  26  40  62  93 127 162 200 243 290
#     4   8  15  25  39  61  91 126 161 199 241 286
#     4  11  21  34  52  75 103 134 167 206 251 295
#     4  10  21  37  56  76  99 129 165 205 248 296
#
# _framework density 17.554395
#
# number of rings (size 3 to 8) (size 9 to 14) (size 15 to 20)
#    0.000    2.286    0.000    6.000    0.000    3.429 
#    0.000    0.000    0.000    0.000    0.000    1.000 
#    0.000    2.286    0.000    0.000    0.000    0.000 
#
# Total GULP energy -156006.780377 kJ/mol
# GULP energy per Si atom -5571.670728 kJ/mol
# Density = 1.751444 g / cm^3
# Si number density = 17.554395 Si / 1000 Ang^3
#
#
#
# Elastic Constant Matrix: (Units=GPa)
#
#
# Indices 1 2 3 4 5 6 
#
# 1 102.4475 24.8519 76.3723 0.0000 0.0000 0.0000
# 2 24.8519 31.2937 67.1219 0.0000 0.0000 0.0000
# 3 76.3723 67.1219 223.4148 0.0000 0.0000 0.0000
# 4 0.0000 0.0000 0.0000 -9.1600 0.0000 0.0000
# 5 0.0000 0.0000 0.0000 0.0000 -15.0495 0.0000
# 6 0.0000 0.0000 0.0000 0.0000 0.0000 21.5945
#
#
#
# Elastic Compliance Matrix: (Units=1/GPa)
#
#
# Indices 1 2 3 4 5 6 
#
# 1 0.013156 -0.002254 -0.003820 0.000000 0.000000 0.000000
# 2 -0.002254 0.090251 -0.026344 0.000000 0.000000 0.000000
# 3 -0.003820 -0.026344 0.013696 0.000000 0.000000 0.000000
# 4 0.000000 0.000000 0.000000 -0.109170 0.000000 0.000000
# 5 0.000000 0.000000 0.000000 0.000000 -0.066448 0.000000
# 6 0.000000 0.000000 0.000000 0.000000 0.000000 0.046308
#
#
# Mechanical properties :
#
#
# Convention : Reuss Voigt Hill
#
# Bulk Modulus (GPa) = 19.13267 77.09427 48.11347
# Shear Modulus (GPa) = 71.37547 12.06434 41.71990
#
# Velocity S-wave (km/s) = 6.38341 2.62440 4.88033
# Velocity P-wave (km/s) = 8.07795 7.29356 7.69575
#
# Compressibility (1/GPa) = 0.05226661
#
# Stress axis : x y z
#
# Youngs Moduli (GPa) = 76.01358 11.08020 73.01153
#
# Poissons Ratio (x) = 0.02498 0.27889
# Poissons Ratio (y) = 0.17136 1.92342
# Poissons Ratio (z) = 0.29036 0.29190
#
# Static dielectric constant tensor:
#      x y z
#    x 1.590510 0.000000 0.000000 
#    y 0.000000 1.569040 0.000000 
#    z 0.000000 0.000000 1.676050 
# 
# From -- ./inp_files/6858.got.cif
#   From: 2010.05.17/outbox.cif.g08.bks.cpg/sg28_4_cif.got.tgz:6858.got - 2010.06.04 01:15:21.
