data_PCOD9339823
_publ_section_title
;
Structure prediction by ZEFSAII (Michael W. Deem and Ramdas Pophale) SiO2 
 PCOD9339823
Probable space group: P M A 2
;
_chemical_formula_sum "Si O2"
_cell_formula_units_Z 32
_cell_length_a 28.203872
_cell_length_b 9.032304
_cell_length_c 6.427556
_cell_angle_alpha 90.000000
_cell_angle_beta 90.000000
_cell_angle_gamma 90.000000
_cell_volume 1637.393833
_symmetry_space_group_name_H-M "P M A 2"
_symmetry_group_IT_number 28
_symmetry_cell_setting 'orthorhombic'
loop_
_space_group_symop_operation_xyz
x,y,z
-x,-y,z
1/2-x,y,z
1/2+x,-y,z
loop_
_atom_site_type_symbol
_atom_site_label
_atom_site_fract_x
_atom_site_fract_y
_atom_site_fract_z
Si Si1 0.117067 0.922807 0.747570
Si Si2 0.030583 0.865061 0.444173
Si Si3 0.614611 0.723527 0.726317
Si Si4 0.138825 0.483994 0.352966
Si Si5 0.928629 0.312354 0.070986
Si Si6 0.488286 0.355590 0.750208
Si Si7 0.196692 0.437706 0.972154
Si Si8 0.805301 0.300078 0.666055
O O1 0.079689 0.897349 0.561212
O O2 0.168590 0.856081 0.694139
O O3 0.116943 0.100423 0.763680
O O4 0.098873 0.817499 0.939680
O O5 0.042985 0.760976 0.256838
O O6 0.997872 0.789395 0.616819
O O7 0.000000 0.000000 0.361574
O O8 0.616702 0.648679 0.493408
O O9 0.565480 0.662103 0.820775
O O10 0.659434 0.655207 0.841395
O O11 0.104362 0.565833 0.185785
O O12 0.161262 0.605919 0.509025
O O13 0.181888 0.427670 0.211096
O O14 0.969543 0.369837 0.916851
O O15 0.500000 0.500000 0.611393
O O16 0.250000 0.386207 0.937295
O O17 0.193883 0.604898 0.880300
O O18 0.750000 0.291109 0.600638
#
# Coordination Sequence:
#
# PCOD9339823 Si02
#       8
#     4   4   4   4   4   4   4   4
#     4  11  23  43  61  93 130 165 204 267 320 385
#     4  11  23  40  62  89 126 170 208 254 306 377
#     4  11  25  40  65  92 135 163 210 267 329 371
#     4  11  21  42  67  94 119 168 214 269 307 384
#     4  11  24  38  69  89 129 170 221 252 316 382
#     4  11  24  40  60  93 129 166 210 260 308 378
#     4  10  22  42  66  93 122 164 213 263 325 386
#     4  10  21  40  69  94 123 163 211 264 322 384
#
# _framework density 19.543254000000001
#
# number of rings (size 3 to 8) (size 9 to 14) (size 15 to 20)
#    0.000    1.250    3.750    1.875    5.250    4.500 
#    0.000    0.000    0.000    0.000    0.000    0.000 
#    0.000    0.000    0.000    0.000    0.000    0.000 
#
# Total GULP energy -178364.435283 kJ/mol
# GULP energy per Si atom -5573.888603 kJ/mol
# Density = 1.949877 g / cm^3
# Si number density = 19.543254 Si / 1000 Ang^3
#
#
#
# Elastic Constant Matrix: (Units=GPa)
#
#
# Indices 1 2 3 4 5 6 
#
# 1 126.3975 52.3984 23.7530 0.0000 0.0000 0.0000
# 2 52.3984 102.5123 20.2813 0.0000 0.0000 0.0000
# 3 23.7530 20.2813 56.5675 0.0000 0.0000 0.0000
# 4 0.0000 0.0000 0.0000 37.7724 0.0000 0.0000
# 5 0.0000 0.0000 0.0000 0.0000 62.4082 0.0000
# 6 0.0000 0.0000 0.0000 0.0000 0.0000 18.4228
#
#
#
# Elastic Compliance Matrix: (Units=1/GPa)
#
#
# Indices 1 2 3 4 5 6 
#
# 1 0.010394 -0.004789 -0.002648 0.000000 0.000000 0.000000
# 2 -0.004789 0.012706 -0.002545 0.000000 0.000000 0.000000
# 3 -0.002648 -0.002545 0.019702 0.000000 0.000000 0.000000
# 4 0.000000 0.000000 0.000000 0.026474 0.000000 0.000000
# 5 0.000000 0.000000 0.000000 0.000000 0.016024 0.000000
# 6 0.000000 0.000000 0.000000 0.000000 0.000000 0.054281
#
#
# Mechanical properties :
#
#
# Convention : Reuss Voigt Hill
#
# Bulk Modulus (GPa) = 43.78288 53.14919 48.46603
# Shear Modulus (GPa) = 29.91188 36.32364 33.11776
#
# Velocity S-wave (km/s) = 3.91647 4.31586 4.12100
# Velocity P-wave (km/s) = 6.55006 7.21736 6.89179
#
# Compressibility (1/GPa) = 0.02283998
#
# Stress axis : x y z
#
# Youngs Moduli (GPa) = 96.20474 78.70072 50.75610
#
# Poissons Ratio (x) = 0.37692 0.13438
# Poissons Ratio (y) = 0.46075 0.12915
# Poissons Ratio (z) = 0.25471 0.20026
#
# Static dielectric constant tensor:
#      x y z
#    x 1.523850 0.000000 0.000000 
#    y 0.000000 1.583940 0.000000 
#    z 0.000000 0.000000 1.697280 
# 
# From -- ./inp_files/1929.got.cif
#   From: 2010.05.17/outbox.cif.g08.bks.cpg/sg28_1_cif.got.tgz:1929.got - 2010.06.04 01:15:21.
