data_PCOD9339346
_publ_section_title
;
Structure prediction by ZEFSAII (Michael W. Deem and Ramdas Pophale) SiO2 
 PCOD9339346
Probable space group: P M A 2
;
_chemical_formula_sum "Si O2"
_cell_formula_units_Z 20
_cell_length_a 7.881100
_cell_length_b 14.797730
_cell_length_c 8.105493
_cell_angle_alpha 90.000000
_cell_angle_beta 90.000000
_cell_angle_gamma 90.000000
_cell_volume 945.281965
_symmetry_space_group_name_H-M "P M A 2"
_symmetry_group_IT_number 28
_symmetry_cell_setting 'orthorhombic'
loop_
_space_group_symop_operation_xyz
x,y,z
-x,-y,z
1/2-x,y,z
1/2+x,-y,z
loop_
_atom_site_type_symbol
_atom_site_label
_atom_site_fract_x
_atom_site_fract_y
_atom_site_fract_z
Si Si1 0.554346 0.600628 0.984510
Si Si2 0.954789 0.104634 0.769274
Si Si3 0.458065 0.785751 0.450156
Si Si4 0.547164 0.402031 0.602497
Si Si5 0.947166 0.207750 0.089828
O O1 0.500000 0.500000 0.036152
O O2 0.750000 0.613552 0.024767
O O3 0.529766 0.604842 0.786124
O O4 0.455473 0.684585 0.061306
O O5 0.750000 0.113897 0.767937
O O6 0.015167 0.151010 0.600139
O O7 0.021765 0.157919 0.930070
O O8 0.000000 0.000000 0.776951
O O9 0.250000 0.787221 0.446107
O O10 0.507268 0.683026 0.494229
O O11 0.521267 0.813137 0.269501
O O12 0.500000 0.500000 0.532761
O O13 0.750000 0.397823 0.623300
O O14 0.750000 0.180646 0.095697
#
# Coordination Sequence:
#
# PCOD9339346 Si02
#       5
#     4   4   4   4   4
#     4  11  21  34  55  84 117 153 193 231 276 332
#     4  10  21  39  60  83 112 147 186 232 287 340
#     4   9  19  36  59  84 111 149 188 226 280 338
#     4  10  18  33  55  82 114 150 191 228 275 333
#     4  10  20  38  61  83 114 150 188 234 281 334
#
# _framework density 21.157706999999998
#
# number of rings (size 3 to 8) (size 9 to 14) (size 15 to 20)
#    0.000    2.000    2.000    3.600    0.000    2.400 
#    0.000    5.000    0.000    0.000    0.000    0.000 
#    0.000    0.000    0.000    0.000    0.000    0.000 
#
# Total GULP energy -111706.573225 kJ/mol
# GULP energy per Si atom -5585.328661 kJ/mol
# Density = 2.110955 g / cm^3
# Si number density = 21.157707 Si / 1000 Ang^3
#
#
#
# Elastic Constant Matrix: (Units=GPa)
#
#
# Indices 1 2 3 4 5 6 
#
# 1 28.5396 -13.4815 -1.3049 0.0000 0.0000 0.0000
# 2 -13.4815 129.8392 87.1402 0.0000 0.0000 0.0000
# 3 -1.3049 87.1402 174.7274 0.0000 0.0000 0.0000
# 4 0.0000 0.0000 0.0000 -7.0031 0.0000 0.0000
# 5 0.0000 0.0000 0.0000 0.0000 2.2421 0.0000
# 6 0.0000 0.0000 0.0000 0.0000 0.0000 28.8853
#
#
#
# Elastic Compliance Matrix: (Units=1/GPa)
#
#
# Indices 1 2 3 4 5 6 
#
# 1 0.037560 0.005579 -0.002502 0.000000 0.000000 0.000000
# 2 0.005579 0.012405 -0.006145 0.000000 0.000000 0.000000
# 3 -0.002502 -0.006145 0.008769 0.000000 0.000000 0.000000
# 4 0.000000 0.000000 0.000000 -0.142794 0.000000 0.000000
# 5 0.000000 0.000000 0.000000 0.000000 0.446003 0.000000
# 6 0.000000 0.000000 0.000000 0.000000 0.000000 0.034620
#
#
# Mechanical properties :
#
#
# Convention : Reuss Voigt Hill
#
# Bulk Modulus (GPa) = 19.01187 53.09041 36.05114
# Shear Modulus (GPa) = 11.89820 22.20837 17.05329
#
# Velocity S-wave (km/s) = 2.37398 3.24336 2.84211
# Velocity P-wave (km/s) = 4.06444 6.25883 5.27696
#
# Compressibility (1/GPa) = 0.05259873
#
# Stress axis : x y z
#
# Youngs Moduli (GPa) = 26.62402 80.61027 114.03514
#
# Poissons Ratio (x) = -0.44973 0.28530
# Poissons Ratio (y) = -0.14854 0.70076
# Poissons Ratio (z) = 0.06661 0.49536
#
# Static dielectric constant tensor:
#      x y z
#    x 1.752790 0.000000 0.000000 
#    y 0.000000 1.739680 0.000000 
#    z 0.000000 0.000000 1.779860 
# 
# From -- ./inp_files/2367.got.cif
#   From: 2010.05.17/outbox.cif.g08.bks.cpg/sg28_2_cif.got.tgz:2367.got - 2010.06.04 01:15:21.
