data_PCOD9339877
_publ_section_title
;
Structure prediction by ZEFSAII (Michael W. Deem and Ramdas Pophale) SiO2 
 PCOD9339877
Probable space group: P M A 2
;
_chemical_formula_sum "Si O2"
_cell_formula_units_Z 28
_cell_length_a 18.775266
_cell_length_b 6.342951
_cell_length_c 11.621598
_cell_angle_alpha 90.000000
_cell_angle_beta 90.000000
_cell_angle_gamma 90.000000
_cell_volume 1384.022989
_symmetry_space_group_name_H-M "P M A 2"
_symmetry_group_IT_number 28
_symmetry_cell_setting 'orthorhombic'
loop_
_space_group_symop_operation_xyz
x,y,z
-x,-y,z
1/2-x,y,z
1/2+x,-y,z
loop_
_atom_site_type_symbol
_atom_site_label
_atom_site_fract_x
_atom_site_fract_y
_atom_site_fract_z
Si Si1 0.832562 0.223043 0.416840
Si Si2 0.914592 0.511617 0.592421
Si Si3 0.085408 0.511618 0.854579
Si Si4 0.898380 0.500000 0.223500
Si Si5 0.332562 0.223044 0.030159
Si Si6 0.569751 0.151717 0.043839
Si Si7 0.930249 0.848282 0.403161
O O1 0.750000 0.213172 0.446232
O O2 0.878812 0.322134 0.521202
O O3 0.848762 0.376931 0.311759
O O4 0.864882 0.001370 0.378089
O O5 0.888532 0.499998 0.723500
O O6 0.906708 0.726033 0.519190
O O7 0.000000 0.500000 0.594860
O O8 0.000000 0.500000 0.852138
O O9 0.121189 0.322134 0.925796
O O10 0.093291 0.726033 0.927810
O O11 0.848763 0.623069 0.135240
O O12 0.939628 0.329729 0.142531
O O13 0.939628 0.670270 0.304469
O O14 0.250000 0.213174 0.000769
O O15 0.364882 0.001371 0.068910
O O16 0.500000 0.000000 0.034294
O O17 0.000000 0.000000 0.412706
#
# Coordination Sequence:
#
# PCOD9339877 Si02
#       7
#     4   4   4   4   4   4   4
#     4  11  24  42  65  98 133 169 214 262 321 381
#     4  10  22  44  68  93 127 170 215 268 320 377
#     4  10  22  44  68  93 127 170 215 268 320 377
#     4  10  25  41  64  94 136 172 212 262 322 378
#     4  11  24  42  65  98 133 169 214 262 321 381
#     4  11  23  42  65  97 129 170 220 263 316 381
#     4  11  23  42  65  97 129 170 220 263 316 381
#
# _framework density 20.230879000000002
#
# number of rings (size 3 to 8) (size 9 to 14) (size 15 to 20)
#    0.000    1.429    2.857    1.286    0.000   12.000 
#    0.000    1.429    0.000    0.000    0.000    0.000 
#    0.000    0.000    0.000    0.000    0.000    0.000 
#
# Total GULP energy -156267.852221 kJ/mol
# GULP energy per Si atom -5580.994722 kJ/mol
# Density = 2.018483 g / cm^3
# Si number density = 20.230879 Si / 1000 Ang^3
#
#
#
# Elastic Constant Matrix: (Units=GPa)
#
#
# Indices 1 2 3 4 5 6 
#
# 1 86.4485 49.2187 36.8172 0.0000 0.0000 0.0000
# 2 49.2187 127.4171 56.4104 0.0000 0.0000 0.0000
# 3 36.8172 56.4104 146.5210 0.0000 0.0000 0.0000
# 4 0.0000 0.0000 0.0000 12.5086 0.0000 0.0000
# 5 0.0000 0.0000 0.0000 0.0000 16.7838 0.0000
# 6 0.0000 0.0000 0.0000 0.0000 0.0000 13.3385
#
#
#
# Elastic Compliance Matrix: (Units=1/GPa)
#
#
# Indices 1 2 3 4 5 6 
#
# 1 0.015249 -0.005056 -0.001885 0.000000 0.000000 0.000000
# 2 -0.005056 0.011137 -0.003017 0.000000 0.000000 0.000000
# 3 -0.001885 -0.003017 0.008460 0.000000 0.000000 0.000000
# 4 0.000000 0.000000 0.000000 0.079945 0.000000 0.000000
# 5 0.000000 0.000000 0.000000 0.000000 0.059581 0.000000
# 6 0.000000 0.000000 0.000000 0.000000 0.000000 0.074971
#
#
# Mechanical properties :
#
#
# Convention : Reuss Voigt Hill
#
# Bulk Modulus (GPa) = 66.98079 71.69768 69.33923
# Shear Modulus (GPa) = 18.23240 23.05552 20.64396
#
# Velocity S-wave (km/s) = 3.00528 3.37949 3.19786
# Velocity P-wave (km/s) = 6.72476 7.12352 6.92701
#
# Compressibility (1/GPa) = 0.01492965
#
# Stress axis : x y z
#
# Youngs Moduli (GPa) = 65.57853 89.79070 118.19836
#
# Poissons Ratio (x) = 0.45396 0.22283
# Poissons Ratio (y) = 0.33155 0.35665
# Poissons Ratio (z) = 0.12363 0.27093
#
# Static dielectric constant tensor:
#      x y z
#    x 1.715230 0.000000 0.000000 
#    y 0.000000 1.764020 0.000000 
#    z 0.000000 0.000000 1.754500 
# 
# From -- ./inp_files/5794.got.cif
#   From: 2010.05.17/outbox.cif.g08.bks.cpg/sg28_3_cif.got.tgz:5794.got - 2010.06.04 01:15:21.
