data_PCOD9339932
_publ_section_title
;
Structure prediction by ZEFSAII (Michael W. Deem and Ramdas Pophale) SiO2 
 PCOD9339932
Probable space group: P M A 2
;
_chemical_formula_sum "Si O2"
_cell_formula_units_Z 18
_cell_length_a 16.198637
_cell_length_b 7.381781
_cell_length_c 7.662268
_cell_angle_alpha 90.000000
_cell_angle_beta 90.000000
_cell_angle_gamma 90.000000
_cell_volume 916.214093
_symmetry_space_group_name_H-M "P M A 2"
_symmetry_group_IT_number 28
_symmetry_cell_setting 'orthorhombic'
loop_
_space_group_symop_operation_xyz
x,y,z
-x,-y,z
1/2-x,y,z
1/2+x,-y,z
loop_
_atom_site_type_symbol
_atom_site_label
_atom_site_fract_x
_atom_site_fract_y
_atom_site_fract_z
Si Si1 0.846301 0.119361 0.925420
Si Si2 0.099155 0.477507 0.861984
Si Si3 0.346940 0.198180 0.156768
Si Si4 0.000000 0.000000 0.689531
Si Si5 0.435485 0.346364 0.496633
O O1 0.750000 0.081205 0.876748
O O2 0.859958 0.334827 0.923028
O O3 0.917220 0.039423 0.799957
O O4 0.861815 0.012521 0.106962
O O5 0.117257 0.427004 0.659766
O O6 0.000000 0.500000 0.868341
O O7 0.123655 0.317795 0.992372
O O8 0.250000 0.222524 0.174050
O O9 0.387785 0.271210 0.331207
O O10 0.015515 0.177974 0.577616
O O11 0.500000 0.500000 0.441057
#
# Coordination Sequence:
#
# PCOD9339932 Si02
#       5
#     4   4   4   2   4
#     4  11  23  42  69 100 134 179 229 283 344 410
#     4  11  21  43  70  93 132 178 232 280 345 417
#     4  11  25  41  64  98 137 176 221 284 348 412
#     4  12  22  44  68  98 132 182 230 284 344 406
#     4  11  24  42  67 100 130 178 230 279 348 416
#
# _framework density 19.646062000000001
#
# number of rings (size 3 to 8) (size 9 to 14) (size 15 to 20)
#    0.000    0.889    6.667    1.333    0.000    7.111 
#    0.000    0.000    0.000    0.000    0.000    0.000 
#    0.000    0.000    0.000    0.000    0.000    0.000 
#
# Total GULP energy -100510.963203 kJ/mol
# GULP energy per Si atom -5583.942400 kJ/mol
# Density = 1.960135 g / cm^3
# Si number density = 19.646062 Si / 1000 Ang^3
#
#
#
# Elastic Constant Matrix: (Units=GPa)
#
#
# Indices 1 2 3 4 5 6 
#
# 1 82.8592 34.3537 50.1969 0.0000 0.0000 0.0000
# 2 34.3537 142.2493 56.7998 0.0000 0.0000 0.0000
# 3 50.1969 56.7998 134.9036 0.0000 0.0000 0.0000
# 4 0.0000 0.0000 0.0000 19.6883 0.0000 0.0000
# 5 0.0000 0.0000 0.0000 0.0000 30.8204 0.0000
# 6 0.0000 0.0000 0.0000 0.0000 0.0000 31.9381
#
#
#
# Elastic Compliance Matrix: (Units=1/GPa)
#
#
# Indices 1 2 3 4 5 6 
#
# 1 0.015948 -0.001781 -0.005184 0.000000 0.000000 0.000000
# 2 -0.001781 0.008650 -0.002979 0.000000 0.000000 0.000000
# 3 -0.005184 -0.002979 0.010596 0.000000 0.000000 0.000000
# 4 0.000000 0.000000 0.000000 0.050792 0.000000 0.000000
# 5 0.000000 0.000000 0.000000 0.000000 0.032446 0.000000
# 6 0.000000 0.000000 0.000000 0.000000 0.000000 0.031311
#
#
# Mechanical properties :
#
#
# Convention : Reuss Voigt Hill
#
# Bulk Modulus (GPa) = 65.34059 71.41256 68.37658
# Shear Modulus (GPa) = 28.61524 31.06680 29.84102
#
# Velocity S-wave (km/s) = 3.82060 3.98090 3.90158
# Velocity P-wave (km/s) = 7.26593 7.58674 7.42807
#
# Compressibility (1/GPa) = 0.01530442
#
# Stress axis : x y z
#
# Youngs Moduli (GPa) = 62.70456 115.61177 94.37606
#
# Poissons Ratio (x) = 0.20596 0.48925
# Poissons Ratio (y) = 0.11171 0.28114
# Poissons Ratio (z) = 0.32506 0.34440
#
# Static dielectric constant tensor:
#      x y z
#    x 1.628820 0.000000 0.000000 
#    y 0.000000 1.710930 0.000000 
#    z 0.000000 0.000000 1.694520 
# 
# From -- ./inp_files/3230.got.cif
#   From: 2010.05.17/outbox.cif.g08.bks.cpg/sg28_2_cif.got.tgz:3230.got - 2010.06.04 01:15:21.
