data_PCOD9339620
_publ_section_title
;
Structure prediction by ZEFSAII (Michael W. Deem and Ramdas Pophale) SiO2 
 PCOD9339620
Probable space group: P M A 2
;
_chemical_formula_sum "Si O2"
_cell_formula_units_Z 32
_cell_length_a 7.894308
_cell_length_b 24.513992
_cell_length_c 8.041158
_cell_angle_alpha 90.000000
_cell_angle_beta 90.000000
_cell_angle_gamma 90.000000
_cell_volume 1556.132963
_symmetry_space_group_name_H-M "P M A 2"
_symmetry_group_IT_number 28
_symmetry_cell_setting 'orthorhombic'
loop_
_space_group_symop_operation_xyz
x,y,z
-x,-y,z
1/2-x,y,z
1/2+x,-y,z
loop_
_atom_site_type_symbol
_atom_site_label
_atom_site_fract_x
_atom_site_fract_y
_atom_site_fract_z
Si Si1 0.951075 0.636898 0.161650
Si Si2 0.448934 0.241470 0.144554
Si Si3 0.453231 0.634401 0.542922
Si Si4 0.048055 0.563168 0.850568
Si Si5 0.948659 0.125640 0.033307
Si Si6 0.954612 0.063158 0.355033
Si Si7 0.044315 0.756952 0.526532
Si Si8 0.957676 0.129976 0.674775
O O1 0.750000 0.642592 0.171845
O O2 0.018595 0.697405 0.113400
O O3 0.007713 0.622018 0.349275
O O4 0.992922 0.594044 0.018368
O O5 0.250000 0.239668 0.104019
O O6 0.535975 0.190717 0.056098
O O7 0.475022 0.233125 0.341771
O O8 0.250000 0.634493 0.555151
O O9 0.519578 0.593415 0.684045
O O10 0.512033 0.696446 0.578602
O O11 0.250000 0.566515 0.845449
O O12 0.000000 0.500000 0.852999
O O13 0.750000 0.111871 0.030067
O O14 0.021934 0.094841 0.192735
O O15 0.020807 0.110771 0.853764
O O16 0.750000 0.068214 0.355951
O O17 0.015310 0.092931 0.522060
O O18 0.000000 0.000000 0.350993
O O19 0.250000 0.756846 0.516071
O O20 0.993023 0.807308 0.640823
O O21 0.750000 0.129157 0.676918
#
# Coordination Sequence:
#
# PCOD9339620 Si02
#       8
#     4   4   4   4   4   4   4   4
#     4  10  22  39  59  86 122 161 195 238 293 350
#     4  10  20  34  54  85 121 151 185 230 287 343
#     4   9  20  37  60  89 116 150 197 244 292 347
#     4  11  24  41  62  88 118 155 200 245 290 348
#     4  10  20  35  58  82 110 148 188 233 280 335
#     4  10  21  38  56  79 109 148 190 232 280 333
#     4   9  16  33  58  83 112 145 186 234 282 338
#     4   9  18  33  56  84 108 139 187 231 276 332
#
# _framework density 20.563797000000001
#
# number of rings (size 3 to 8) (size 9 to 14) (size 15 to 20)
#    0.000    2.250    1.250    1.125    1.750    4.000 
#    0.000    2.500    0.000    0.000    0.000    0.000 
#    0.000    0.000    0.000    0.000    0.000    0.000 
#
# Total GULP energy -178618.477375 kJ/mol
# GULP energy per Si atom -5581.827418 kJ/mol
# Density = 2.051699 g / cm^3
# Si number density = 20.563797 Si / 1000 Ang^3
#
#
#
# Elastic Constant Matrix: (Units=GPa)
#
#
# Indices 1 2 3 4 5 6 
#
# 1 20.0007 -3.3572 3.8975 0.0000 0.0000 0.0000
# 2 -3.3572 132.8012 109.7735 0.0000 0.0000 0.0000
# 3 3.8975 109.7735 176.4363 0.0000 0.0000 0.0000
# 4 0.0000 0.0000 0.0000 7.6212 0.0000 0.0000
# 5 0.0000 0.0000 0.0000 0.0000 -16.0274 0.0000
# 6 0.0000 0.0000 0.0000 0.0000 0.0000 16.8308
#
#
#
# Elastic Compliance Matrix: (Units=1/GPa)
#
#
# Indices 1 2 3 4 5 6 
#
# 1 0.051556 0.004622 -0.004014 0.000000 0.000000 0.000000
# 2 0.004622 0.015917 -0.010005 0.000000 0.000000 0.000000
# 3 -0.004014 -0.010005 0.011982 0.000000 0.000000 0.000000
# 4 0.000000 0.000000 0.000000 0.131213 0.000000 0.000000
# 5 0.000000 0.000000 0.000000 0.000000 -0.062393 0.000000
# 6 0.000000 0.000000 0.000000 0.000000 0.000000 0.059415
#
#
# Mechanical properties :
#
#
# Convention : Reuss Voigt Hill
#
# Bulk Modulus (GPa) = 16.48565 61.09618 38.79092
# Shear Modulus (GPa) = 20.26708 16.27988 18.27348
#
# Velocity S-wave (km/s) = 3.14279 2.81673 2.98421
# Velocity P-wave (km/s) = 4.60475 6.35245 5.54785
#
# Compressibility (1/GPa) = 0.06065881
#
# Stress axis : x y z
#
# Youngs Moduli (GPa) = 19.39631 62.82447 83.46189
#
# Poissons Ratio (x) = -0.29034 0.33504
# Poissons Ratio (y) = -0.08964 0.83507
# Poissons Ratio (z) = 0.07786 0.62858
#
# Static dielectric constant tensor:
#      x y z
#    x 1.736400 0.000000 0.000000 
#    y 0.000000 1.698070 0.000000 
#    z 0.000000 0.000000 1.743360 
# 
# From -- ./inp_files/2744.got.cif
#   From: 2010.05.17/outbox.cif.g08.bks.cpg/sg28_2_cif.got.tgz:2744.got - 2010.06.04 01:15:21.
