data_PCOD9339638
_publ_section_title
;
Structure prediction by ZEFSAII (Michael W. Deem and Ramdas Pophale) SiO2 
 PCOD9339638
Probable space group: P M A 2
;
_chemical_formula_sum "Si O2"
_cell_formula_units_Z 32
_cell_length_a 8.872526
_cell_length_b 10.542092
_cell_length_c 19.651928
_cell_angle_alpha 90.000000
_cell_angle_beta 90.000000
_cell_angle_gamma 90.000000
_cell_volume 1838.142798
_symmetry_space_group_name_H-M "P M A 2"
_symmetry_group_IT_number 28
_symmetry_cell_setting 'orthorhombic'
loop_
_space_group_symop_operation_xyz
x,y,z
-x,-y,z
1/2-x,y,z
1/2+x,-y,z
loop_
_atom_site_type_symbol
_atom_site_label
_atom_site_fract_x
_atom_site_fract_y
_atom_site_fract_z
Si Si1 0.568355 0.635313 0.998350
Si Si2 0.930691 0.864017 0.585547
Si Si3 0.929484 0.364450 0.500118
Si Si4 0.930691 0.864017 0.253167
Si Si5 0.568896 0.865403 0.744733
Si Si6 0.568355 0.635313 0.840364
Si Si7 0.931104 0.865403 0.093981
Si Si8 0.429484 0.635550 0.338595
O O1 0.500000 0.500000 0.018557
O O2 0.750000 0.627360 0.001924
O O3 0.527028 0.659069 0.919357
O O4 0.517991 0.749553 0.046767
O O5 0.750000 0.868221 0.579190
O O6 0.969380 0.843813 0.665360
O O7 0.997298 0.750305 0.541375
O O8 0.000000 0.000000 0.565375
O O9 0.750000 0.366947 0.510716
O O10 0.958054 0.347551 0.419357
O O11 0.000000 0.500000 0.520160
O O12 0.750000 0.868221 0.259524
O O13 0.969379 0.843813 0.173353
O O14 0.997298 0.750305 0.297339
O O15 0.000000 0.000000 0.273339
O O16 0.750000 0.873750 0.749354
O O17 0.517991 0.749553 0.791946
O O18 0.500000 0.000000 0.765733
O O19 0.500000 0.500000 0.820157
O O20 0.750000 0.627360 0.836790
O O21 0.750000 0.873750 0.089359
O O22 0.000000 0.000000 0.072981
O O23 0.500000 0.500000 0.318554
O O24 0.250000 0.633053 0.327998
#
# Coordination Sequence:
#
# PCOD9339638 Si02
#       8
#     4   4   4   4   4   4   4   4
#     4   9  18  33  51  72 100 132 167 207 249 295
#     4  10  20  35  54  76 104 136 171 211 254 302
#     4  10  21  37  56  78 104 134 169 209 253 302
#     4  10  20  35  54  76 104 136 171 211 254 302
#     4   9  19  34  51  74 102 132 167 207 250 296
#     4   9  18  33  51  72 100 132 167 207 249 295
#     4   9  19  34  51  74 102 132 167 207 250 296
#     4  10  21  37  56  78 104 134 169 209 253 302
#
# _framework density 17.408877
#
# number of rings (size 3 to 8) (size 9 to 14) (size 15 to 20)
#    0.000    2.500    0.000    1.500    0.000    5.500 
#    0.000    2.500    0.000    0.000    0.000    0.000 
#    0.000    0.000    0.000    0.000    0.000    0.000 
#
# Total GULP energy -178561.356858 kJ/mol
# GULP energy per Si atom -5580.042402 kJ/mol
# Density = 1.736925 g / cm^3
# Si number density = 17.408877 Si / 1000 Ang^3
#
#
#
# Elastic Constant Matrix: (Units=GPa)
#
#
# Indices 1 2 3 4 5 6 
#
# 1 38.1784 67.5395 44.1798 0.0000 0.0000 0.0000
# 2 67.5395 219.4626 109.0231 0.0000 0.0000 0.0000
# 3 44.1798 109.0231 70.5723 0.0000 0.0000 0.0000
# 4 0.0000 0.0000 0.0000 43.6051 0.0000 0.0000
# 5 0.0000 0.0000 0.0000 0.0000 36.3343 0.0000
# 6 0.0000 0.0000 0.0000 0.0000 0.0000 39.2721
#
#
#
# Elastic Compliance Matrix: (Units=1/GPa)
#
#
# Indices 1 2 3 4 5 6 
#
# 1 0.095139 0.001326 -0.061607 0.000000 0.000000 0.000000
# 2 0.001326 0.019611 -0.031126 0.000000 0.000000 0.000000
# 3 -0.061607 -0.031126 0.100823 0.000000 0.000000 0.000000
# 4 0.000000 0.000000 0.000000 0.022933 0.000000 0.000000
# 5 0.000000 0.000000 0.000000 0.000000 0.027522 0.000000
# 6 0.000000 0.000000 0.000000 0.000000 0.000000 0.025463
#
#
# Mechanical properties :
#
#
# Convention : Reuss Voigt Hill
#
# Bulk Modulus (GPa) = 30.52751 85.52202 58.02477
# Shear Modulus (GPa) = 10.30446 31.00702 20.65574
#
# Velocity S-wave (km/s) = 2.43556 4.22489 3.44831
# Velocity P-wave (km/s) = 5.04806 8.54586 7.01836
#
# Compressibility (1/GPa) = 0.03275734
#
# Stress axis : x y z
#
# Youngs Moduli (GPa) = 10.51094 50.99096 9.91839
#
# Poissons Ratio (x) = -0.06761 0.61105
# Poissons Ratio (y) = -0.01394 0.30872
# Poissons Ratio (z) = 0.64755 1.58717
#
# Static dielectric constant tensor:
#      x y z
#    x 1.581230 0.000000 0.000000 
#    y 0.000000 1.554920 0.000000 
#    z 0.000000 0.000000 1.586710 
# 
# From -- ./inp_files/7093.got.cif
#   From: 2010.05.17/outbox.cif.g08.bks.cpg/sg28_4_cif.got.tgz:7093.got - 2010.06.04 01:15:21.
