data_PCOD9339045
_publ_section_title
;
Structure prediction by ZEFSAII (Michael W. Deem and Ramdas Pophale) SiO2 
 PCOD9339045
Probable space group: P C C 2
;
_chemical_formula_sum "Si O2"
_cell_formula_units_Z 18
_cell_length_a 8.363489
_cell_length_b 9.476983
_cell_length_c 8.702969
_cell_angle_alpha 90.000000
_cell_angle_beta 90.000000
_cell_angle_gamma 90.000000
_cell_volume 689.802920
_symmetry_space_group_name_H-M "P C C 2"
_symmetry_group_IT_number 27
_symmetry_cell_setting 'orthorhombic'
loop_
_space_group_symop_operation_xyz
x,y,z
-x,-y,z
-x,y,1/2+z
x,-y,1/2+z
loop_
_atom_site_type_symbol
_atom_site_label
_atom_site_fract_x
_atom_site_fract_y
_atom_site_fract_z
Si Si1 0.358076 0.815225 0.295960
Si Si2 0.000000 0.000000 0.776198
Si Si3 0.178774 0.441781 0.660718
Si Si4 0.368740 0.618147 0.865443
Si Si5 0.758161 0.068128 0.009990
O O1 0.237303 0.679631 0.280683
O O2 0.534629 0.760553 0.341657
O O3 0.301882 0.926125 0.424981
O O4 0.379803 0.868835 0.120243
O O5 0.876381 0.935414 0.657603
O O6 0.106427 0.892967 0.879341
O O7 0.290590 0.572711 0.705981
O O8 0.233296 0.383583 0.495473
O O9 0.000000 0.500000 0.666377
O O10 0.500000 0.500000 0.907297
#
# Coordination Sequence:
#
# PCOD9339045 Si02
#       5
#     4   2   4   4   4
#     4  10  22  44  78 109 165 205 260 340 405 506
#     4   8  16  36  64  96 166 198 252 314 372 482
#     4  11  24  49  77 115 150 212 281 334 413 475
#     4  10  22  47  75 107 153 203 259 341 403 470
#     4   9  18  40  65 112 154 207 260 309 420 471
#
# _framework density 26.09441
#
# number of rings (size 3 to 8) (size 9 to 14) (size 15 to 20)
#    0.000    2.222    0.000    2.667    0.000    0.000 
#   48.000   21.111    0.000    2.667    0.000    0.000 
#    0.000    0.000    0.000    0.000    0.000    0.000 
#
# Total GULP energy -100270.766941 kJ/mol
# GULP energy per Si atom -5570.598163 kJ/mol
# Density = 2.603502 g / cm^3
# Si number density = 26.094410 Si / 1000 Ang^3
#
#
#
# Elastic Constant Matrix: (Units=GPa)
#
#
# Indices 1 2 3 4 5 6 
#
# 1 125.9362 47.2198 46.8868 0.0000 0.0000 0.0000
# 2 47.2198 83.2101 27.3079 0.0000 0.0000 0.0000
# 3 46.8868 27.3079 123.7047 0.0000 0.0000 0.0000
# 4 0.0000 0.0000 0.0000 44.1840 0.0000 0.0000
# 5 0.0000 0.0000 0.0000 0.0000 53.4407 0.0000
# 6 0.0000 0.0000 0.0000 0.0000 0.0000 22.3691
#
#
#
# Elastic Compliance Matrix: (Units=1/GPa)
#
#
# Indices 1 2 3 4 5 6 
#
# 1 0.011043 -0.005275 -0.003021 0.000000 0.000000 0.000000
# 2 -0.005275 0.015476 -0.001417 0.000000 0.000000 0.000000
# 3 -0.003021 -0.001417 0.009542 0.000000 0.000000 0.000000
# 4 0.000000 0.000000 0.000000 0.022633 0.000000 0.000000
# 5 0.000000 0.000000 0.000000 0.000000 0.018712 0.000000
# 6 0.000000 0.000000 0.000000 0.000000 0.000000 0.044705
#
#
# Mechanical properties :
#
#
# Convention : Reuss Voigt Hill
#
# Bulk Modulus (GPa) = 60.11597 63.96445 62.04021
# Shear Modulus (GPa) = 33.99450 38.09452 36.04451
#
# Velocity S-wave (km/s) = 3.61328 3.82497 3.72063
# Velocity P-wave (km/s) = 6.36362 6.63876 6.50264
#
# Compressibility (1/GPa) = 0.01663451
#
# Stress axis : x y z
#
# Youngs Moduli (GPa) = 90.55254 64.61434 104.80390
#
# Poissons Ratio (x) = 0.34086 0.31663
# Poissons Ratio (y) = 0.47770 0.14850
# Poissons Ratio (z) = 0.27357 0.09156
#
# Static dielectric constant tensor:
#      x y z
#    x 2.768210 0.000000 0.000000 
#    y 0.000000 2.486040 0.000000 
#    z 0.000000 0.000000 1.987530 
# 
# From -- ./inp_files/1045.got.cif
#   From: 2010.05.17/outbox.cif.g08.bks.cpg/sg27_1_cif.got.tgz:1045.got - 2010.06.04 01:11:05.
