data_PCOD9339676
_publ_section_title
;
Structure prediction by ZEFSAII (Michael W. Deem and Ramdas Pophale) SiO2 
 PCOD9339676
Probable space group: P M A 2
;
_chemical_formula_sum "Si O2"
_cell_formula_units_Z 28
_cell_length_a 8.582851
_cell_length_b 9.918877
_cell_length_c 18.076427
_cell_angle_alpha 90.000000
_cell_angle_beta 90.000000
_cell_angle_gamma 90.000000
_cell_volume 1538.886783
_symmetry_space_group_name_H-M "P M A 2"
_symmetry_group_IT_number 28
_symmetry_cell_setting 'orthorhombic'
loop_
_space_group_symop_operation_xyz
x,y,z
-x,-y,z
1/2-x,y,z
1/2+x,-y,z
loop_
_atom_site_type_symbol
_atom_site_label
_atom_site_fract_x
_atom_site_fract_y
_atom_site_fract_z
Si Si1 0.062261 0.150367 0.747080
Si Si2 0.062485 0.349809 0.450097
Si Si3 0.062235 0.352057 0.620444
Si Si4 0.936363 0.649325 0.200822
Si Si5 0.563839 0.152388 0.325353
Si Si6 0.062590 0.151745 0.914009
Si Si7 0.564032 0.353033 0.036540
O O1 0.250000 0.146412 0.744463
O O2 0.005919 0.246624 0.681562
O O3 0.019461 0.196137 0.830243
O O4 0.000000 0.000000 0.736971
O O5 0.250000 0.350845 0.443918
O O6 0.017822 0.320884 0.535557
O O7 0.000000 0.500000 0.431810
O O8 0.993688 0.237523 0.396200
O O9 0.250000 0.354423 0.622467
O O10 0.000000 0.500000 0.637987
O O11 0.750000 0.646288 0.204216
O O12 0.000000 0.500000 0.221024
O O13 0.001389 0.762703 0.255391
O O14 0.992008 0.677075 0.117146
O O15 0.750000 0.148825 0.323756
O O16 0.500000 0.000000 0.325929
O O17 0.250000 0.152829 0.920397
O O18 0.000000 0.000000 0.922671
O O19 0.988922 0.246058 0.975870
O O20 0.500000 0.500000 0.014895
O O21 0.750000 0.357470 0.043062
#
# Coordination Sequence:
#
# PCOD9339676 Si02
#       7
#     4   4   4   4   4   4   4
#     4   9  19  35  54  78 109 145 185 228 275 329
#     4  10  20  37  59  83 112 148 188 229 276 330
#     4   9  19  35  55  81 111 143 183 229 275 325
#     4  11  22  40  63  87 114 147 185 225 273 328
#     4  12  25  41  59  84 115 147 185 229 277 327
#     4  10  20  36  56  80 111 148 189 231 278 332
#     4  11  22  38  59  85 114 146 185 229 277 327
#
# _framework density 18.194970999999999
#
# number of rings (size 3 to 8) (size 9 to 14) (size 15 to 20)
#    0.000    1.714    0.000    6.000    0.000    3.429 
#    0.000    5.714    0.000    0.000    0.000    0.000 
#    0.000    0.000    0.000    0.000    0.000    0.000 
#
# Total GULP energy -156430.830718 kJ/mol
# GULP energy per Si atom -5586.815383 kJ/mol
# Density = 1.815356 g / cm^3
# Si number density = 18.194971 Si / 1000 Ang^3
#
#
#
# Elastic Constant Matrix: (Units=GPa)
#
#
# Indices 1 2 3 4 5 6 
#
# 1 118.5660 61.3669 56.8042 0.0000 0.0000 0.0000
# 2 61.3669 148.5131 121.4844 0.0000 0.0000 0.0000
# 3 56.8042 121.4844 134.8234 0.0000 0.0000 0.0000
# 4 0.0000 0.0000 0.0000 56.6981 0.0000 0.0000
# 5 0.0000 0.0000 0.0000 0.0000 79.3622 0.0000
# 6 0.0000 0.0000 0.0000 0.0000 0.0000 35.7801
#
#
#
# Elastic Compliance Matrix: (Units=1/GPa)
#
#
# Indices 1 2 3 4 5 6 
#
# 1 0.010872 -0.002835 -0.002026 0.000000 0.000000 0.000000
# 2 -0.002835 0.026349 -0.022548 0.000000 0.000000 0.000000
# 3 -0.002026 -0.022548 0.028587 0.000000 0.000000 0.000000
# 4 0.000000 0.000000 0.000000 0.017637 0.000000 0.000000
# 5 0.000000 0.000000 0.000000 0.000000 0.012600 0.000000
# 6 0.000000 0.000000 0.000000 0.000000 0.000000 0.027948
#
#
# Mechanical properties :
#
#
# Convention : Reuss Voigt Hill
#
# Bulk Modulus (GPa) = 90.98249 97.91261 94.44755
# Shear Modulus (GPa) = 27.40086 45.18454 36.29270
#
# Velocity S-wave (km/s) = 3.88488 4.98873 4.47100
# Velocity P-wave (km/s) = 8.38068 9.33344 8.86986
#
# Compressibility (1/GPa) = 0.01099113
#
# Stress axis : x y z
#
# Youngs Moduli (GPa) = 91.97766 37.95220 34.98037
#
# Poissons Ratio (x) = 0.10760 0.07087
# Poissons Ratio (y) = 0.26078 0.78872
# Poissons Ratio (z) = 0.18635 0.85573
#
# Static dielectric constant tensor:
#      x y z
#    x 1.608600 0.000000 0.000000 
#    y 0.000000 1.587030 0.000000 
#    z 0.000000 0.000000 1.629650 
# 
# From -- ./inp_files/6764.got.cif
#   From: 2010.05.17/outbox.cif.g08.bks.cpg/sg28_4_cif.got.tgz:6764.got - 2010.06.04 01:15:21.
