data_PCOD9339183
_publ_section_title
;
Structure prediction by ZEFSAII (Michael W. Deem and Ramdas Pophale) SiO2 
 PCOD9339183
Probable space group: P C C 2
;
_chemical_formula_sum "Si O2"
_cell_formula_units_Z 26
_cell_length_a 6.493869
_cell_length_b 15.360895
_cell_length_c 11.081275
_cell_angle_alpha 90.000000
_cell_angle_beta 90.000000
_cell_angle_gamma 90.000000
_cell_volume 1105.375353
_symmetry_space_group_name_H-M "P C C 2"
_symmetry_group_IT_number 27
_symmetry_cell_setting 'orthorhombic'
loop_
_space_group_symop_operation_xyz
x,y,z
-x,-y,z
-x,y,1/2+z
x,-y,1/2+z
loop_
_atom_site_type_symbol
_atom_site_label
_atom_site_fract_x
_atom_site_fract_y
_atom_site_fract_z
Si Si1 0.243801 0.801764 0.959320
Si Si2 0.500000 0.500000 0.480224
Si Si3 0.419134 0.781547 0.645411
Si Si4 0.122928 0.087533 0.033928
Si Si5 0.446538 0.908180 0.325575
Si Si6 0.150529 0.610786 0.607177
Si Si7 0.847138 0.620665 0.374781
O O1 0.356978 0.887381 0.909711
O O2 0.188878 0.725032 0.868451
O O3 0.044599 0.836986 0.023506
O O4 0.409745 0.760613 0.046774
O O5 0.332499 0.547015 0.564585
O O6 0.635003 0.567959 0.400205
O O7 0.293314 0.871085 0.621160
O O8 0.559223 0.815896 0.756284
O O9 0.262614 0.703146 0.627285
O O10 0.242652 0.079842 0.906185
O O11 0.000000 0.000000 0.068257
O O12 0.500000 0.000000 0.263815
O O13 0.066884 0.592534 0.743196
O O14 0.990512 0.609613 0.494560
#
# Coordination Sequence:
#
# PCOD9339183 Si02
#       7
#     4   2   4   4   4   4   4
#     4  11  23  46  68 103 143 196 240 307 372 450
#     4  12  28  52  78 112 154 202 254 324 388 464
#     4  11  25  43  71 103 143 198 248 307 378 455
#     4  11  24  43  66 100 147 190 247 308 370 444
#     4  11  24  41  67 104 146 194 250 307 375 448
#     4  12  27  51  79 116 152 199 255 316 389 463
#     4  12  27  50  81 115 153 198 256 313 393 463
#
# _framework density 23.521421
#
# number of rings (size 3 to 8) (size 9 to 14) (size 15 to 20)
#    0.000    0.615    6.154    0.923    2.154    6.154 
#    0.000    0.000    0.000    0.000    0.000    0.000 
#    0.000    0.000    0.000    0.000    0.000    0.000 
#
# Total GULP energy -144943.718323 kJ/mol
# GULP energy per Si atom -5574.758397 kJ/mol
# Density = 2.346789 g / cm^3
# Si number density = 23.521421 Si / 1000 Ang^3
#
#
#
# Elastic Constant Matrix: (Units=GPa)
#
#
# Indices 1 2 3 4 5 6 
#
# 1 87.7588 34.1578 33.3094 0.0000 0.0000 0.0000
# 2 34.1578 105.2787 -4.9747 0.0000 0.0000 0.0000
# 3 33.3094 -4.9747 86.9718 0.0000 0.0000 0.0000
# 4 0.0000 0.0000 0.0000 15.1068 0.0000 0.0000
# 5 0.0000 0.0000 0.0000 0.0000 3.0837 0.0000
# 6 0.0000 0.0000 0.0000 0.0000 0.0000 42.3610
#
#
#
# Elastic Compliance Matrix: (Units=1/GPa)
#
#
# Indices 1 2 3 4 5 6 
#
# 1 0.015971 -0.005486 -0.006430 0.000000 0.000000 0.000000
# 2 -0.005486 0.011409 0.002753 0.000000 0.000000 0.000000
# 3 -0.006430 0.002753 0.014118 0.000000 0.000000 0.000000
# 4 0.000000 0.000000 0.000000 0.066196 0.000000 0.000000
# 5 0.000000 0.000000 0.000000 0.000000 0.324283 0.000000
# 6 0.000000 0.000000 0.000000 0.000000 0.000000 0.023607
#
#
# Mechanical properties :
#
#
# Convention : Reuss Voigt Hill
#
# Bulk Modulus (GPa) = 43.15464 44.99938 44.07701
# Shear Modulus (GPa) = 10.38138 26.61142 18.49640
#
# Velocity S-wave (km/s) = 2.10313 3.36723 2.80726
# Velocity P-wave (km/s) = 4.92791 5.85580 5.41178
#
# Compressibility (1/GPa) = 0.02317248
#
# Stress axis : x y z
#
# Youngs Moduli (GPa) = 62.61469 87.65383 70.83026
#
# Poissons Ratio (x) = 0.48083 0.45547
# Poissons Ratio (y) = 0.34348 -0.19503
# Poissons Ratio (z) = 0.40264 -0.24135
#
# Static dielectric constant tensor:
#      x y z
#    x 1.906740 0.000000 0.000000 
#    y 0.000000 1.933130 0.000000 
#    z 0.000000 0.000000 2.042220 
# 
# From -- ./inp_files/2055.got.cif
#   From: 2010.05.17/outbox.cif.g08.bks.cpg/sg27_2_cif.got.tgz:2055.got - 2010.06.04 01:11:05.
