data_PCOD9339168
_publ_section_title
;
Structure prediction by ZEFSAII (Michael W. Deem and Ramdas Pophale) SiO2 
 PCOD9339168
Probable space group: P C C 2
;
_chemical_formula_sum "Si O2"
_cell_formula_units_Z 24
_cell_length_a 10.640616
_cell_length_b 12.489528
_cell_length_c 7.774633
_cell_angle_alpha 90.000000
_cell_angle_beta 90.000000
_cell_angle_gamma 90.000000
_cell_volume 1033.219738
_symmetry_space_group_name_H-M "P C C 2"
_symmetry_group_IT_number 27
_symmetry_cell_setting 'orthorhombic'
loop_
_space_group_symop_operation_xyz
x,y,z
-x,-y,z
-x,y,1/2+z
x,-y,1/2+z
loop_
_atom_site_type_symbol
_atom_site_label
_atom_site_fract_x
_atom_site_fract_y
_atom_site_fract_z
Si Si1 0.023727 0.627091 0.087320
Si Si2 0.634609 0.443874 0.965968
Si Si3 0.801549 0.290643 0.777869
Si Si4 0.661213 0.900200 0.411505
Si Si5 0.741281 0.644181 0.819102
Si Si6 0.626636 0.136060 0.312873
O O1 0.118658 0.649440 0.246171
O O2 0.000000 0.500000 0.079290
O O3 0.891507 0.686675 0.117382
O O4 0.107537 0.669187 0.931242
O O5 0.500000 0.500000 0.951544
O O6 0.675324 0.360778 0.815726
O O7 0.727745 0.543551 0.943405
O O8 0.657038 0.388046 0.149258
O O9 0.761986 0.169032 0.808301
O O10 0.523270 0.872199 0.336735
O O11 0.660160 0.867316 0.611067
O O12 0.678664 0.027362 0.396818
O O13 0.682275 0.754322 0.886642
#
# Coordination Sequence:
#
# PCOD9339168 Si02
#       6
#     4   4   4   4   4   4
#     4  11  22  42  65  93 135 181 223 268 333 410
#     4  11  22  40  62  99 138 168 217 288 345 404
#     4  11  24  43  65  97 134 179 231 275 339 406
#     4  11  23  46  71  99 135 176 227 283 349 408
#     4  11  24  40  65  95 135 175 227 272 340 403
#     4  11  23  46  69 100 134 177 224 289 347 416
#
# _framework density 23.228359999999999
#
# number of rings (size 3 to 8) (size 9 to 14) (size 15 to 20)
#    0.000    1.000    5.000    4.000    2.333    0.000 
#    9.000    0.833    0.000    0.000    0.000    0.000 
#    0.000    0.000    0.000    0.000    0.000    0.000 
#
# Total GULP energy -134397.123569 kJ/mol
# GULP energy per Si atom -5599.880149 kJ/mol
# Density = 2.317549 g / cm^3
# Si number density = 23.228360 Si / 1000 Ang^3
#
#
#
# Elastic Constant Matrix: (Units=GPa)
#
#
# Indices 1 2 3 4 5 6 
#
# 1 86.5480 17.0186 -3.6663 0.0000 0.0000 0.0000
# 2 17.0186 156.0611 -5.1946 0.0000 0.0000 0.0000
# 3 -3.6663 -5.1946 50.7702 0.0000 0.0000 0.0000
# 4 0.0000 0.0000 0.0000 35.8958 0.0000 0.0000
# 5 0.0000 0.0000 0.0000 0.0000 33.4613 0.0000
# 6 0.0000 0.0000 0.0000 0.0000 0.0000 46.0638
#
#
#
# Elastic Compliance Matrix: (Units=1/GPa)
#
#
# Indices 1 2 3 4 5 6 
#
# 1 0.011834 -0.001266 0.000725 0.000000 0.000000 0.000000
# 2 -0.001266 0.006565 0.000580 0.000000 0.000000 0.000000
# 3 0.000725 0.000580 0.019808 0.000000 0.000000 0.000000
# 4 0.000000 0.000000 0.000000 0.027858 0.000000 0.000000
# 5 0.000000 0.000000 0.000000 0.000000 0.029885 0.000000
# 6 0.000000 0.000000 0.000000 0.000000 0.000000 0.021709
#
#
# Mechanical properties :
#
#
# Convention : Reuss Voigt Hill
#
# Bulk Modulus (GPa) = 26.11969 34.41052 30.26510
# Shear Modulus (GPa) = 38.35999 42.09896 40.22948
#
# Velocity S-wave (km/s) = 4.06819 4.26184 4.16614
# Velocity P-wave (km/s) = 5.77373 6.25011 6.01664
#
# Compressibility (1/GPa) = 0.03828529
#
# Stress axis : x y z
#
# Youngs Moduli (GPa) = 84.50219 152.31915 50.48386
#
# Poissons Ratio (x) = 0.19289 -0.03660
# Poissons Ratio (y) = 0.10701 -0.02929
# Poissons Ratio (z) = -0.06127 -0.08839
#
# Static dielectric constant tensor:
#      x y z
#    x 1.886280 0.000000 0.000000 
#    y 0.000000 1.828310 0.000000 
#    z 0.000000 0.000000 2.043690 
# 
# From -- ./inp_files/1401.got.cif
#   From: 2010.05.17/outbox.cif.g08.bks.cpg/sg27_1_cif.got.tgz:1401.got - 2010.06.04 01:11:05.
