data_PCOD9339110
_publ_section_title
;
Structure prediction by ZEFSAII (Michael W. Deem and Ramdas Pophale) SiO2 
 PCOD9339110
Probable space group: P C C 2
;
_chemical_formula_sum "Si O2"
_cell_formula_units_Z 20
_cell_length_a 9.338700
_cell_length_b 9.637667
_cell_length_c 9.398002
_cell_angle_alpha 90.000000
_cell_angle_beta 90.000000
_cell_angle_gamma 90.000000
_cell_volume 845.851013
_symmetry_space_group_name_H-M "P C C 2"
_symmetry_group_IT_number 27
_symmetry_cell_setting 'orthorhombic'
loop_
_space_group_symop_operation_xyz
x,y,z
-x,-y,z
-x,y,1/2+z
x,-y,1/2+z
loop_
_atom_site_type_symbol
_atom_site_label
_atom_site_fract_x
_atom_site_fract_y
_atom_site_fract_z
Si Si1 0.894986 0.333960 0.262500
Si Si2 0.164326 0.959044 0.365456
Si Si3 0.601330 0.871957 0.047440
Si Si4 0.383380 0.213719 0.327219
Si Si5 0.170792 0.584128 0.940850
O O1 0.841303 0.175986 0.264265
O O2 0.813343 0.429429 0.378962
O O3 0.054794 0.346877 0.330541
O O4 0.880832 0.395094 0.103178
O O5 0.236210 0.910913 0.513355
O O6 0.269804 0.085276 0.324775
O O7 0.000000 0.000000 0.384715
O O8 0.528968 0.832033 0.899791
O O9 0.500000 0.000000 0.098875
O O10 0.593187 0.752689 0.163515
O O11 0.315222 0.333022 0.419756
#
# Coordination Sequence:
#
# PCOD9339110 Si02
#       5
#     4   4   4   4   4
#     4  11  25  44  69 107 141 179 231 297 345 421
#     4  11  24  41  74 108 138 177 238 298 349 414
#     4  10  24  43  67 101 145 187 226 295 350 421
#     4  11  25  44  72 100 143 188 233 284 362 412
#     4  11  25  45  72 101 143 187 229 288 366 412
#
# _framework density 23.644826999999999
#
# number of rings (size 3 to 8) (size 9 to 14) (size 15 to 20)
#    0.000    1.200    2.000    4.200   14.000    0.800 
#    0.000    1.000    0.000    0.000    0.000    0.000 
#    0.000    0.000    0.000    0.000    0.000    0.000 
#
# Total GULP energy -111721.931458 kJ/mol
# GULP energy per Si atom -5586.096573 kJ/mol
# Density = 2.359101 g / cm^3
# Si number density = 23.644827 Si / 1000 Ang^3
#
#
#
# Elastic Constant Matrix: (Units=GPa)
#
#
# Indices 1 2 3 4 5 6 
#
# 1 95.5845 33.0268 33.9237 0.0000 0.0000 0.0000
# 2 33.0268 77.8293 7.6643 0.0000 0.0000 0.0000
# 3 33.9237 7.6643 162.4501 0.0000 0.0000 0.0000
# 4 0.0000 0.0000 0.0000 24.0704 0.0000 0.0000
# 5 0.0000 0.0000 0.0000 0.0000 22.5346 0.0000
# 6 0.0000 0.0000 0.0000 0.0000 0.0000 21.0731
#
#
#
# Elastic Compliance Matrix: (Units=1/GPa)
#
#
# Indices 1 2 3 4 5 6 
#
# 1 0.013201 -0.005355 -0.002504 0.000000 0.000000 0.000000
# 2 -0.005355 0.015081 0.000407 0.000000 0.000000 0.000000
# 3 -0.002504 0.000407 0.006659 0.000000 0.000000 0.000000
# 4 0.000000 0.000000 0.000000 0.041545 0.000000 0.000000
# 5 0.000000 0.000000 0.000000 0.000000 0.044376 0.000000
# 6 0.000000 0.000000 0.000000 0.000000 0.000000 0.047454
#
#
# Mechanical properties :
#
#
# Convention : Reuss Voigt Hill
#
# Bulk Modulus (GPa) = 49.90882 53.89926 51.90404
# Shear Modulus (GPa) = 26.32961 30.95223 28.64092
#
# Velocity S-wave (km/s) = 3.34060 3.62200 3.48415
# Velocity P-wave (km/s) = 6.00275 6.35112 6.17939
#
# Compressibility (1/GPa) = 0.02003654
#
# Stress axis : x y z
#
# Youngs Moduli (GPa) = 75.75165 66.30826 150.16245
#
# Poissons Ratio (x) = 0.35510 0.37601
# Poissons Ratio (y) = 0.40567 -0.06109
# Poissons Ratio (z) = 0.18969 -0.02697
#
# Static dielectric constant tensor:
#      x y z
#    x 1.888230 0.000000 0.000000 
#    y 0.000000 1.965390 0.000000 
#    z 0.000000 0.000000 1.878910 
# 
# From -- ./inp_files/1041.got.cif
#   From: 2010.05.17/outbox.cif.g08.bks.cpg/sg27_1_cif.got.tgz:1041.got - 2010.06.04 01:11:05.
