data_PCOD9339469
_publ_section_title
;
Structure prediction by ZEFSAII (Michael W. Deem and Ramdas Pophale) SiO2 
 PCOD9339469
Probable space group: P M A 2
;
_chemical_formula_sum "Si O2"
_cell_formula_units_Z 28
_cell_length_a 8.505681
_cell_length_b 9.421256
_cell_length_c 18.916225
_cell_angle_alpha 90.000000
_cell_angle_beta 90.000000
_cell_angle_gamma 90.000000
_cell_volume 1515.836523
_symmetry_space_group_name_H-M "P M A 2"
_symmetry_group_IT_number 28
_symmetry_cell_setting 'orthorhombic'
loop_
_space_group_symop_operation_xyz
x,y,z
-x,-y,z
1/2-x,y,z
1/2+x,-y,z
loop_
_atom_site_type_symbol
_atom_site_label
_atom_site_fract_x
_atom_site_fract_y
_atom_site_fract_z
Si Si1 0.939443 0.338341 0.620680
Si Si2 0.559692 0.338325 0.775154
Si Si3 0.939149 0.338536 0.466665
Si Si4 0.061345 0.839390 0.183810
Si Si5 0.940194 0.160168 0.910958
Si Si6 0.563018 0.840175 0.335527
Si Si7 0.439939 0.660074 0.047802
O O1 0.750000 0.338986 0.620569
O O2 0.990120 0.280910 0.697396
O O3 0.988520 0.278103 0.544269
O O4 0.000000 0.500000 0.620590
O O5 0.500000 0.500000 0.783085
O O6 0.750000 0.342941 0.776515
O O7 0.506443 0.240660 0.839808
O O8 0.750000 0.338462 0.463190
O O9 0.000000 0.500000 0.462796
O O10 0.006196 0.251564 0.401433
O O11 0.250000 0.843924 0.185058
O O12 0.009046 0.740201 0.119280
O O13 0.001483 0.787189 0.259990
O O14 0.000000 0.000000 0.173710
O O15 0.750000 0.157785 0.910770
O O16 0.991566 0.249821 0.979479
O O17 0.000000 0.000000 0.913986
O O18 0.750000 0.842747 0.332581
O O19 0.500000 0.000000 0.343784
O O20 0.500000 0.500000 0.044716
O O21 0.250000 0.657484 0.047577
#
# Coordination Sequence:
#
# PCOD9339469 Si02
#       7
#     4   4   4   4   4   4   4
#     4   8  15  28  48  73 102 135 170 212 258 305
#     4   9  17  31  52  77 104 134 172 215 258 304
#     4  10  19  33  53  78 107 139 177 219 264 312
#     4  10  20  36  56  78 104 135 173 213 257 310
#     4  10  21  36  53  76 106 139 174 211 253 303
#     4  11  22  37  56  78 105 139 177 216 263 315
#     4  10  22  37  55  80 107 135 170 212 255 303
#
# _framework density 18.471647000000001
#
# number of rings (size 3 to 8) (size 9 to 14) (size 15 to 20)
#    0.000    2.286    0.000    3.857    0.000    3.429 
#    0.000    2.143    0.000    1.714    0.000    0.000 
#    0.000    0.000    0.000    0.000    0.000    0.000 
#
# Total GULP energy -156174.422230 kJ/mol
# GULP energy per Si atom -5577.657937 kJ/mol
# Density = 1.842960 g / cm^3
# Si number density = 18.471647 Si / 1000 Ang^3
#
#
#
# Elastic Constant Matrix: (Units=GPa)
#
#
# Indices 1 2 3 4 5 6 
#
# 1 42.5546 19.6138 41.4921 0.0000 0.0000 0.0000
# 2 19.6138 93.8384 103.4304 0.0000 0.0000 0.0000
# 3 41.4921 103.4304 238.4921 0.0000 0.0000 0.0000
# 4 0.0000 0.0000 0.0000 -108.7437 0.0000 0.0000
# 5 0.0000 0.0000 0.0000 0.0000 -20.2931 0.0000
# 6 0.0000 0.0000 0.0000 0.0000 0.0000 30.3506
#
#
#
# Elastic Compliance Matrix: (Units=1/GPa)
#
#
# Indices 1 2 3 4 5 6 
#
# 1 0.028343 -0.000937 -0.004525 0.000000 0.000000 0.000000
# 2 -0.000937 0.020447 -0.008704 0.000000 0.000000 0.000000
# 3 -0.004525 -0.008704 0.008755 0.000000 0.000000 0.000000
# 4 0.000000 0.000000 0.000000 -0.009196 0.000000 0.000000
# 5 0.000000 0.000000 0.000000 0.000000 -0.049278 0.000000
# 6 0.000000 0.000000 0.000000 0.000000 0.000000 0.032948
#
#
# Mechanical properties :
#
#
# Convention : Reuss Voigt Hill
#
# Bulk Modulus (GPa) = 34.23190 78.21751 56.22471
# Shear Modulus (GPa) = 71.33865 -5.71397 32.81234
#
# Velocity S-wave (km/s) = 6.22129 -1.76071 4.21926
# Velocity P-wave (km/s) = 8.37725 6.18895 7.36483
#
# Compressibility (1/GPa) = 0.02921252
#
# Stress axis : x y z
#
# Youngs Moduli (GPa) = 35.28237 48.90803 114.21878
#
# Poissons Ratio (x) = 0.04583 0.51680
# Poissons Ratio (y) = 0.03306 0.99420
# Poissons Ratio (z) = 0.15964 0.42571
#
# Static dielectric constant tensor:
#      x y z
#    x 1.623940 0.000000 0.000000 
#    y 0.000000 1.596880 0.000000 
#    z 0.000000 0.000000 1.681160 
# 
# From -- ./inp_files/6800.got.cif
#   From: 2010.05.17/outbox.cif.g08.bks.cpg/sg28_4_cif.got.tgz:6800.got - 2010.06.04 01:15:21.
