data_PCOD9339590
_publ_section_title
;
Structure prediction by ZEFSAII (Michael W. Deem and Ramdas Pophale) SiO2 
 PCOD9339590
Probable space group: P M A 2
;
_chemical_formula_sum "Si O2"
_cell_formula_units_Z 28
_cell_length_a 8.743604
_cell_length_b 9.700313
_cell_length_c 18.957648
_cell_angle_alpha 90.000000
_cell_angle_beta 90.000000
_cell_angle_gamma 90.000000
_cell_volume 1607.906101
_symmetry_space_group_name_H-M "P M A 2"
_symmetry_group_IT_number 28
_symmetry_cell_setting 'orthorhombic'
loop_
_space_group_symop_operation_xyz
x,y,z
-x,-y,z
1/2-x,y,z
1/2+x,-y,z
loop_
_atom_site_type_symbol
_atom_site_label
_atom_site_fract_x
_atom_site_fract_y
_atom_site_fract_z
Si Si1 0.932684 0.152480 0.806270
Si Si2 0.933499 0.153348 0.967904
Si Si3 0.432801 0.344728 0.530282
Si Si4 0.066370 0.655541 0.233925
Si Si5 0.933162 0.654085 0.686175
Si Si6 0.932686 0.654723 0.088893
Si Si7 0.067135 0.655704 0.388221
O O1 0.750000 0.147683 0.799515
O O2 0.968922 0.195269 0.886970
O O3 0.001232 0.253918 0.748499
O O4 0.000000 0.000000 0.796222
O O5 0.750000 0.151166 0.976114
O O6 0.000000 0.000000 0.977784
O O7 0.007593 0.255222 0.024142
O O8 0.500000 0.500000 0.532066
O O9 0.250000 0.351566 0.523658
O O10 0.471495 0.287073 0.607801
O O11 0.500570 0.277751 0.459389
O O12 0.250000 0.650083 0.226625
O O13 0.029896 0.717994 0.311113
O O14 0.000000 0.500000 0.236098
O O15 0.993361 0.716642 0.163272
O O16 0.750000 0.646722 0.690895
O O17 0.000000 0.500000 0.690977
O O18 0.750000 0.647902 0.090082
O O19 0.000000 0.500000 0.082900
O O20 0.250000 0.647165 0.394042
O O21 0.000000 0.500000 0.386604
#
# Coordination Sequence:
#
# PCOD9339590 Si02
#       7
#     4   4   4   4   4   4   4
#     4  10  21  37  57  77  99 129 164 204 248 296
#     4  10  21  38  57  77 100 128 164 204 247 297
#     4   9  16  25  39  61  91 126 161 199 241 286
#     4   9  16  26  40  62  93 127 162 201 244 290
#     4  10  20  33  50  74 104 135 168 207 251 296
#     4  11  21  33  51  75 103 135 168 206 251 295
#     4   9  15  22  36  58  87 124 161 197 239 286
#
# _framework density 17.413952999999999
#
# number of rings (size 3 to 8) (size 9 to 14) (size 15 to 20)
#    0.000    2.286    0.000    5.571    0.000    5.714 
#    0.000    0.000    0.000    0.000    0.000    1.000 
#    0.000    2.286    0.000    0.000    0.000    0.000 
#
# Total GULP energy -156028.764067 kJ/mol
# GULP energy per Si atom -5572.455860 kJ/mol
# Density = 1.737432 g / cm^3
# Si number density = 17.413953 Si / 1000 Ang^3
#
#
#
# Elastic Constant Matrix: (Units=GPa)
#
#
# Indices 1 2 3 4 5 6 
#
# 1 101.9896 28.6900 87.3143 0.0000 0.0000 0.0000
# 2 28.6900 32.8268 67.6144 0.0000 0.0000 0.0000
# 3 87.3143 67.6144 215.2354 0.0000 0.0000 0.0000
# 4 0.0000 0.0000 0.0000 -9.6434 0.0000 0.0000
# 5 0.0000 0.0000 0.0000 0.0000 33.8852 0.0000
# 6 0.0000 0.0000 0.0000 0.0000 0.0000 21.7307
#
#
#
# Elastic Compliance Matrix: (Units=1/GPa)
#
#
# Indices 1 2 3 4 5 6 
#
# 1 0.015053 -0.001638 -0.005592 0.000000 0.000000 0.000000
# 2 -0.001638 0.086487 -0.026505 0.000000 0.000000 0.000000
# 3 -0.005592 -0.026505 0.015241 0.000000 0.000000 0.000000
# 4 0.000000 0.000000 0.000000 -0.103698 0.000000 0.000000
# 5 0.000000 0.000000 0.000000 0.000000 0.029511 0.000000
# 6 0.000000 0.000000 0.000000 0.000000 0.000000 0.046018
#
#
# Mechanical properties :
#
#
# Convention : Reuss Voigt Hill
#
# Bulk Modulus (GPa) = 20.27931 79.69880 49.98906
# Shear Modulus (GPa) = 28.98235 20.29003 24.63619
#
# Velocity S-wave (km/s) = 4.08403 3.41715 3.76538
# Velocity P-wave (km/s) = 5.82321 7.83810 6.90455
#
# Compressibility (1/GPa) = 0.04931134
#
# Stress axis : x y z
#
# Youngs Moduli (GPa) = 66.43163 11.56243 65.61361
#
# Poissons Ratio (x) = 0.01894 0.36691
# Poissons Ratio (y) = 0.10883 1.73906
# Poissons Ratio (z) = 0.37148 0.30646
#
# Static dielectric constant tensor:
#      x y z
#    x 1.584770 0.000000 0.000000 
#    y 0.000000 1.549130 0.000000 
#    z 0.000000 0.000000 1.662850 
# 
# From -- ./inp_files/7013.got.cif
#   From: 2010.05.17/outbox.cif.g08.bks.cpg/sg28_4_cif.got.tgz:7013.got - 2010.06.04 01:15:21.
