data_PCOD9339952
_publ_section_title
;
Structure prediction by ZEFSAII (Michael W. Deem and Ramdas Pophale) SiO2 
 PCOD9339952
Probable space group: P M A 2
;
_chemical_formula_sum "Si O2"
_cell_formula_units_Z 18
_cell_length_a 17.334407
_cell_length_b 4.918348
_cell_length_c 9.130667
_cell_angle_alpha 90.000000
_cell_angle_beta 90.000000
_cell_angle_gamma 90.000000
_cell_volume 778.450044
_symmetry_space_group_name_H-M "P M A 2"
_symmetry_group_IT_number 28
_symmetry_cell_setting 'orthorhombic'
loop_
_space_group_symop_operation_xyz
x,y,z
-x,-y,z
1/2-x,y,z
1/2+x,-y,z
loop_
_atom_site_type_symbol
_atom_site_label
_atom_site_fract_x
_atom_site_fract_y
_atom_site_fract_z
Si Si1 0.000000 0.500000 0.297511
Si Si2 0.420180 0.831870 0.727635
Si Si3 0.750000 0.077966 0.178275
Si Si4 0.104701 0.314070 0.538916
Si Si5 0.750000 0.583233 0.363304
Si Si6 0.583907 0.150373 0.067668
O O1 0.040635 0.286929 0.409407
O O2 0.065236 0.620144 0.189366
O O3 0.421317 0.540569 0.653927
O O4 0.500000 0.000000 0.723756
O O5 0.371850 0.041841 0.626046
O O6 0.403041 0.777943 0.897752
O O7 0.750000 0.395336 0.220151
O O8 0.666254 0.014170 0.107458
O O9 0.750000 0.899489 0.322879
O O10 0.175111 0.457955 0.458347
O O11 0.500000 0.000000 0.070840
#
# Coordination Sequence:
#
# PCOD9339952 Si02
#       6
#     2   4   2   4   2   4
#     4  12  24  42  76 102 136 194 248 298 362 440
#     4  11  25  45  70 104 145 187 238 302 368 440
#     4  12  26  48  72 110 148 189 245 316 358 437
#     4  12  25  44  72 102 142 188 241 300 367 434
#     4  12  26  44  70 108 146 183 249 310 366 429
#     4  11  28  45  76 108 149 197 248 302 373 442
#
# _framework density 23.122869999999999
#
# number of rings (size 3 to 8) (size 9 to 14) (size 15 to 20)
#    0.000    0.444    4.444    2.667    9.333    1.778 
#    0.000    0.000    0.000    0.000    0.000    0.000 
#    0.000    0.000    0.000    0.000    0.000    0.000 
#
# Total GULP energy -100375.118760 kJ/mol
# GULP energy per Si atom -5576.395487 kJ/mol
# Density = 2.307024 g / cm^3
# Si number density = 23.122870 Si / 1000 Ang^3
#
#
#
# Elastic Constant Matrix: (Units=GPa)
#
#
# Indices 1 2 3 4 5 6 
#
# 1 128.6280 7.2631 41.1351 0.0000 0.0000 0.0000
# 2 7.2631 97.0526 46.6782 0.0000 0.0000 0.0000
# 3 41.1351 46.6782 170.8050 0.0000 0.0000 0.0000
# 4 0.0000 0.0000 0.0000 24.4342 0.0000 0.0000
# 5 0.0000 0.0000 0.0000 0.0000 15.4476 0.0000
# 6 0.0000 0.0000 0.0000 0.0000 0.0000 23.0488
#
#
#
# Elastic Compliance Matrix: (Units=1/GPa)
#
#
# Indices 1 2 3 4 5 6 
#
# 1 0.008436 0.000398 -0.002141 0.000000 0.000000 0.000000
# 2 0.000398 0.011882 -0.003343 0.000000 0.000000 0.000000
# 3 -0.002141 -0.003343 0.007284 0.000000 0.000000 0.000000
# 4 0.000000 0.000000 0.000000 0.040926 0.000000 0.000000
# 5 0.000000 0.000000 0.000000 0.000000 0.064735 0.000000
# 6 0.000000 0.000000 0.000000 0.000000 0.000000 0.043386
#
#
# Mechanical properties :
#
#
# Convention : Reuss Voigt Hill
#
# Bulk Modulus (GPa) = 57.36861 65.18203 61.27532
# Shear Modulus (GPa) = 25.95643 32.68008 29.31825
#
# Velocity S-wave (km/s) = 3.35407 3.76350 3.56467
# Velocity P-wave (km/s) = 6.31379 6.86555 6.59544
#
# Compressibility (1/GPa) = 0.01743113
#
# Stress axis : x y z
#
# Youngs Moduli (GPa) = 118.53367 84.16297 137.29255
#
# Poissons Ratio (x) = -0.03351 0.29388
# Poissons Ratio (y) = -0.04720 0.45896
# Poissons Ratio (z) = 0.25373 0.28135
#
# Static dielectric constant tensor:
#      x y z
#    x 1.989930 0.000000 0.000000 
#    y 0.000000 1.919030 0.000000 
#    z 0.000000 0.000000 1.848490 
# 
# From -- ./inp_files/3664.got.cif
#   From: 2010.05.17/outbox.cif.g08.bks.cpg/sg28_2_cif.got.tgz:3664.got - 2010.06.04 01:15:21.
