data_PCOD9339535
_publ_section_title
;
Structure prediction by ZEFSAII (Michael W. Deem and Ramdas Pophale) SiO2 
 PCOD9339535
Probable space group: P M A 2
;
_chemical_formula_sum "Si O2"
_cell_formula_units_Z 32
_cell_length_a 8.692102
_cell_length_b 19.748747
_cell_length_c 10.423441
_cell_angle_alpha 90.000000
_cell_angle_beta 90.000000
_cell_angle_gamma 90.000000
_cell_volume 1789.268320
_symmetry_space_group_name_H-M "P M A 2"
_symmetry_group_IT_number 28
_symmetry_cell_setting 'orthorhombic'
loop_
_space_group_symop_operation_xyz
x,y,z
-x,-y,z
1/2-x,y,z
1/2+x,-y,z
loop_
_atom_site_type_symbol
_atom_site_label
_atom_site_fract_x
_atom_site_fract_y
_atom_site_fract_z
Si Si1 0.434156 0.573713 0.222590
Si Si2 0.934781 0.926755 0.775078
Si Si3 0.933212 0.572572 0.508344
Si Si4 0.433273 0.703714 0.615824
Si Si5 0.065716 0.071703 0.475715
Si Si6 0.565451 0.211983 0.870176
Si Si7 0.065514 0.291440 0.113284
Si Si8 0.935430 0.785387 0.376165
O O1 0.500000 0.500000 0.185337
O O2 0.250000 0.571410 0.225996
O O3 0.497222 0.587360 0.366818
O O4 0.492561 0.634470 0.133338
O O5 0.750000 0.927457 0.781473
O O6 0.981390 0.917057 0.624763
O O7 0.999508 0.863618 0.854202
O O8 0.000000 0.000000 0.814853
O O9 0.250000 0.430369 0.496664
O O10 0.984482 0.631540 0.603639
O O11 0.000000 0.500000 0.547705
O O12 0.250000 0.694001 0.614894
O O13 0.476095 0.746090 0.741727
O O14 0.484787 0.745328 0.491003
O O15 0.250000 0.067473 0.474989
O O16 0.019851 0.136087 0.391333
O O17 0.000000 0.000000 0.432620
O O18 0.750000 0.208897 0.878820
O O19 0.497776 0.251825 0.990894
O O20 0.250000 0.297668 0.106155
O O21 0.026725 0.247947 0.240544
O O22 0.750000 0.780427 0.393622
#
# Coordination Sequence:
#
# PCOD9339535 Si02
#       8
#     4   4   4   4   4   4   4   4
#     4  11  21  36  59  87 118 152 194 240 288 346
#     4  10  19  34  58  85 115 151 192 241 292 350
#     4  11  21  35  57  86 119 152 191 239 291 346
#     4  11  22  36  58  86 115 149 191 240 293 345
#     4   9  18  32  53  83 115 147 185 236 291 344
#     4  11  24  40  58  85 120 157 200 245 292 352
#     4  11  23  39  60  86 118 158 199 242 294 349
#     4  10  20  36  58  84 114 148 191 239 289 348
#
# _framework density 17.884405000000001
#
# number of rings (size 3 to 8) (size 9 to 14) (size 15 to 20)
#    0.000    1.500    2.500    4.500    0.000    3.000 
#    0.000    1.250    0.000    4.500    0.000    0.000 
#    0.000    0.000    0.000    0.000    0.000    0.000 
#
# Total GULP energy -178773.805753 kJ/mol
# GULP energy per Si atom -5586.681430 kJ/mol
# Density = 1.784370 g / cm^3
# Si number density = 17.884405 Si / 1000 Ang^3
#
#
#
# Elastic Constant Matrix: (Units=GPa)
#
#
# Indices 1 2 3 4 5 6 
#
# 1 85.9581 67.2857 54.5764 0.0000 0.0000 0.0000
# 2 67.2857 180.9714 72.2429 0.0000 0.0000 0.0000
# 3 54.5764 72.2429 96.1023 0.0000 0.0000 0.0000
# 4 0.0000 0.0000 0.0000 28.9576 0.0000 0.0000
# 5 0.0000 0.0000 0.0000 0.0000 23.1926 0.0000
# 6 0.0000 0.0000 0.0000 0.0000 0.0000 36.1028
#
#
#
# Elastic Compliance Matrix: (Units=1/GPa)
#
#
# Indices 1 2 3 4 5 6 
#
# 1 0.020194 -0.004186 -0.008321 0.000000 0.000000 0.000000
# 2 -0.004186 0.008763 -0.004210 0.000000 0.000000 0.000000
# 3 -0.008321 -0.004210 0.018296 0.000000 0.000000 0.000000
# 4 0.000000 0.000000 0.000000 0.034533 0.000000 0.000000
# 5 0.000000 0.000000 0.000000 0.000000 0.043117 0.000000
# 6 0.000000 0.000000 0.000000 0.000000 0.000000 0.027699
#
#
# Mechanical properties :
#
#
# Convention : Reuss Voigt Hill
#
# Bulk Modulus (GPa) = 72.37000 83.47130 77.92065
# Shear Modulus (GPa) = 26.22724 28.91237 27.56981
#
# Velocity S-wave (km/s) = 3.83363 4.02509 3.93052
# Velocity P-wave (km/s) = 7.75557 8.26897 8.01638
#
# Compressibility (1/GPa) = 0.01381788
#
# Stress axis : x y z
#
# Youngs Moduli (GPa) = 49.52039 114.11904 54.65783
#
# Poissons Ratio (x) = 0.47775 0.45480
# Poissons Ratio (y) = 0.20731 0.23010
# Poissons Ratio (z) = 0.41206 0.48042
#
# Static dielectric constant tensor:
#      x y z
#    x 1.596410 0.000000 0.000000 
#    y 0.000000 1.618800 0.000000 
#    z 0.000000 0.000000 1.585010 
# 
# From -- ./inp_files/5204.got.cif
#   From: 2010.05.17/outbox.cif.g08.bks.cpg/sg28_3_cif.got.tgz:5204.got - 2010.06.04 01:15:21.
