data_PCOD9339215
_publ_section_title
;
Structure prediction by ZEFSAII (Michael W. Deem and Ramdas Pophale) SiO2 
 PCOD9339215
Probable space group: P C C 2
;
_chemical_formula_sum "Si O2"
_cell_formula_units_Z 20
_cell_length_a 5.483927
_cell_length_b 11.709649
_cell_length_c 14.955430
_cell_angle_alpha 90.000000
_cell_angle_beta 90.000000
_cell_angle_gamma 90.000000
_cell_volume 960.360848
_symmetry_space_group_name_H-M "P C C 2"
_symmetry_group_IT_number 27
_symmetry_cell_setting 'orthorhombic'
loop_
_space_group_symop_operation_xyz
x,y,z
-x,-y,z
-x,y,1/2+z
x,-y,1/2+z
loop_
_atom_site_type_symbol
_atom_site_label
_atom_site_fract_x
_atom_site_fract_y
_atom_site_fract_z
Si Si1 0.500000 0.743001 0.422620
Si Si2 0.500000 0.362974 0.620546
Si Si3 1.000000 0.693587 0.222966
Si Si4 1.000000 0.864558 0.867068
Si Si5 0.000000 0.500000 0.375832
Si Si6 0.500000 0.500000 0.905125
O O1 0.500000 0.691129 0.521825
O O2 0.251749 0.812991 0.407250
O O3 0.500000 0.627119 0.360645
O O4 0.748251 0.812991 0.407250
O O5 0.500000 0.500000 0.618174
O O6 0.752155 0.326406 0.668180
O O7 0.247845 0.326406 0.668180
O O8 1.000000 0.605901 0.307541
O O9 0.000000 0.819435 0.265336
O O10 0.000000 0.000000 0.875232
O O11 0.770985 0.500000 0.440836
#
# Coordination Sequence:
#
# PCOD9339215 Si02
#       6
#     4   4   4   4   2   2
#     4  12  24  43  68  99 135 166 216 275 329 390
#     4  12  24  39  64 105 138 161 198 269 353 401
#     4  12  23  39  65  96 135 168 211 268 325 391
#     4  12  27  47  68  91 128 185 235 264 300 378
#     4  12  20  34  64 100 134 162 210 272 330 388
#     4  12  20  36  64 104 128 162 212 278 334 382
#
# _framework density 20.825506000000001
#
# number of rings (size 3 to 8) (size 9 to 14) (size 15 to 20)
#    0.000    0.000    7.000    4.200    0.000    0.000 
#    0.000    6.000    0.000    0.000    0.000    0.000 
#    0.000    0.000    0.000    0.000    0.000    0.000 
#
# Total GULP energy -111551.127679 kJ/mol
# GULP energy per Si atom -5577.556384 kJ/mol
# Density = 2.077811 g / cm^3
# Si number density = 20.825506 Si / 1000 Ang^3
#
#
#
# Elastic Constant Matrix: (Units=GPa)
#
#
# Indices 1 2 3 4 5 6 
#
# 1 294.7641 89.0673 82.5641 0.0000 0.0000 0.0000
# 2 89.0673 184.9911 38.1250 0.0000 0.0000 0.0000
# 3 82.5641 38.1250 104.4734 0.0000 0.0000 0.0000
# 4 0.0000 0.0000 0.0000 19.6478 0.0000 0.0000
# 5 0.0000 0.0000 0.0000 0.0000 43.1162 0.0000
# 6 0.0000 0.0000 0.0000 0.0000 0.0000 30.3613
#
#
#
# Elastic Compliance Matrix: (Units=1/GPa)
#
#
# Indices 1 2 3 4 5 6 
#
# 1 0.004780 -0.001647 -0.003177 0.000000 0.000000 0.000000
# 2 -0.001647 0.006413 -0.001039 0.000000 0.000000 0.000000
# 3 -0.003177 -0.001039 0.012461 0.000000 0.000000 0.000000
# 4 0.000000 0.000000 0.000000 0.050896 0.000000 0.000000
# 5 0.000000 0.000000 0.000000 0.000000 0.023193 0.000000
# 6 0.000000 0.000000 0.000000 0.000000 0.000000 0.032937
#
#
# Mechanical properties :
#
#
# Convention : Reuss Voigt Hill
#
# Bulk Modulus (GPa) = 83.82425 111.52681 97.67553
# Shear Modulus (GPa) = 34.15754 43.58985 38.87370
#
# Velocity S-wave (km/s) = 4.05430 4.58000 4.32515
# Velocity P-wave (km/s) = 7.89016 9.03537 8.48211
#
# Compressibility (1/GPa) = 0.01192972
#
# Stress axis : x y z
#
# Youngs Moduli (GPa) = 209.21035 155.94363 80.24861
#
# Poissons Ratio (x) = 0.25679 0.25491
# Poissons Ratio (y) = 0.34451 0.08336
# Poissons Ratio (z) = 0.66457 0.16199
#
# Static dielectric constant tensor:
#      x y z
#    x 1.752460 0.000000 0.000000 
#    y 0.000000 1.805940 0.000000 
#    z 0.000000 0.000000 1.811650 
# 
# From -- ./inp_files/3013.got.cif
#   From: 2010.05.17/outbox.cif.g08.bks.cpg/sg27_2_cif.got.tgz:3013.got - 2010.06.04 01:11:05.
