data_PCOD9339133
_publ_section_title
;
Structure prediction by ZEFSAII (Michael W. Deem and Ramdas Pophale) SiO2 
 PCOD9339133
Probable space group: P C C 2
;
_chemical_formula_sum "Si O2"
_cell_formula_units_Z 20
_cell_length_a 17.756508
_cell_length_b 5.128562
_cell_length_c 9.044959
_cell_angle_alpha 90.000000
_cell_angle_beta 90.000000
_cell_angle_gamma 90.000000
_cell_volume 823.682377
_symmetry_space_group_name_H-M "P C C 2"
_symmetry_group_IT_number 27
_symmetry_cell_setting 'orthorhombic'
loop_
_space_group_symop_operation_xyz
x,y,z
-x,-y,z
-x,y,1/2+z
x,-y,1/2+z
loop_
_atom_site_type_symbol
_atom_site_label
_atom_site_fract_x
_atom_site_fract_y
_atom_site_fract_z
Si Si1 0.870443 0.810146 0.860920
Si Si2 0.078087 0.337681 0.185807
Si Si3 0.426725 0.665762 0.866741
Si Si4 0.616859 0.963654 0.619976
Si Si5 0.699966 0.725688 0.868224
O O1 0.868067 0.568162 0.744620
O O2 0.783624 0.809256 0.911474
O O3 0.903925 0.073889 0.782758
O O4 0.915110 0.739256 0.012698
O O5 0.000000 0.500000 0.208746
O O6 0.500000 0.500000 0.835656
O O7 0.425524 0.891023 0.747957
O O8 0.340493 0.554989 0.856438
O O9 0.433074 0.756896 0.034781
O O10 0.646694 0.149899 0.492621
O O11 0.686834 0.834683 0.704065
#
# Coordination Sequence:
#
# PCOD9339133 Si02
#       5
#     4   4   4   4   4
#     4  12  28  48  84 119 163 215 268 333 410 492
#     4  12  28  52  80 118 165 207 270 332 411 497
#     4  11  26  46  72 107 152 207 263 331 399 469
#     4  10  25  45  70 103 151 190 264 317 392 468
#     4  11  25  43  74 107 150 197 259 318 393 471
#
# _framework density 24.281203999999999
#
# number of rings (size 3 to 8) (size 9 to 14) (size 15 to 20)
#    0.000    0.800    0.000    4.800   11.200    9.600 
#    0.000    4.000    0.000    0.000    0.000    0.000 
#    0.000    0.000    0.000    0.000    0.000    0.000 
#
# Total GULP energy -111624.559992 kJ/mol
# GULP energy per Si atom -5581.228000 kJ/mol
# Density = 2.422594 g / cm^3
# Si number density = 24.281204 Si / 1000 Ang^3
#
#
#
# Elastic Constant Matrix: (Units=GPa)
#
#
# Indices 1 2 3 4 5 6 
#
# 1 109.0292 37.1125 26.6426 0.0000 0.0000 0.0000
# 2 37.1125 136.2718 51.6625 0.0000 0.0000 0.0000
# 3 26.6426 51.6625 120.4263 0.0000 0.0000 0.0000
# 4 0.0000 0.0000 0.0000 70.6241 0.0000 0.0000
# 5 0.0000 0.0000 0.0000 0.0000 8.7217 0.0000
# 6 0.0000 0.0000 0.0000 0.0000 0.0000 27.1415
#
#
#
# Elastic Compliance Matrix: (Units=1/GPa)
#
#
# Indices 1 2 3 4 5 6 
#
# 1 0.010272 -0.002312 -0.001281 0.000000 0.000000 0.000000
# 2 -0.002312 0.009284 -0.003471 0.000000 0.000000 0.000000
# 3 -0.001281 -0.003471 0.010076 0.000000 0.000000 0.000000
# 4 0.000000 0.000000 0.000000 0.014159 0.000000 0.000000
# 5 0.000000 0.000000 0.000000 0.000000 0.114656 0.000000
# 6 0.000000 0.000000 0.000000 0.000000 0.000000 0.036844
#
#
# Mechanical properties :
#
#
# Convention : Reuss Voigt Hill
#
# Bulk Modulus (GPa) = 64.49844 66.28473 65.39159
# Shear Modulus (GPa) = 23.30054 37.98478 30.64266
#
# Velocity S-wave (km/s) = 3.10112 3.95950 3.55631
# Velocity P-wave (km/s) = 6.28040 6.94706 6.62212
#
# Compressibility (1/GPa) = 0.01550425
#
# Stress axis : x y z
#
# Youngs Moduli (GPa) = 97.35435 107.71306 99.24233
#
# Poissons Ratio (x) = 0.24902 0.12710
# Poissons Ratio (y) = 0.22507 0.34450
# Poissons Ratio (z) = 0.12468 0.37390
#
# Static dielectric constant tensor:
#      x y z
#    x 2.478720 0.000000 0.000000 
#    y 0.000000 2.033040 0.000000 
#    z 0.000000 0.000000 1.875010 
# 
# From -- ./inp_files/1657.got.cif
#   From: 2010.05.17/outbox.cif.g08.bks.cpg/sg27_1_cif.got.tgz:1657.got - 2010.06.04 01:11:05.
