data_PCOD9339874
_publ_section_title
;
Structure prediction by ZEFSAII (Michael W. Deem and Ramdas Pophale) SiO2 
 PCOD9339874
Probable space group: P M A 2
;
_chemical_formula_sum "Si O2"
_cell_formula_units_Z 22
_cell_length_a 29.245487
_cell_length_b 5.638287
_cell_length_c 5.086487
_cell_angle_alpha 90.000000
_cell_angle_beta 90.000000
_cell_angle_gamma 90.000000
_cell_volume 838.733472
_symmetry_space_group_name_H-M "P M A 2"
_symmetry_group_IT_number 28
_symmetry_cell_setting 'orthorhombic'
loop_
_space_group_symop_operation_xyz
x,y,z
-x,-y,z
1/2-x,y,z
1/2+x,-y,z
loop_
_atom_site_type_symbol
_atom_site_label
_atom_site_fract_x
_atom_site_fract_y
_atom_site_fract_z
Si Si1 0.800713 0.915488 0.772340
Si Si2 0.131361 0.712072 0.608507
Si Si3 0.914746 0.715334 0.923692
Si Si4 0.549127 0.119311 0.265852
Si Si5 0.000000 0.500000 0.952978
Si Si6 0.330726 0.369269 0.261694
O O1 0.750000 0.018215 0.781135
O O2 0.810696 0.794187 0.492208
O O3 0.840517 0.111752 0.796772
O O4 0.805304 0.716802 0.999299
O O5 0.114645 0.465777 0.739818
O O6 0.087558 0.844403 0.485004
O O7 0.167421 0.633475 0.380878
O O8 0.965187 0.658473 0.798478
O O9 0.884038 0.668220 0.187487
O O10 0.929017 0.978911 0.021533
O O11 0.500000 0.000000 0.333540
O O12 0.535482 0.371187 0.143347
#
# Coordination Sequence:
#
# PCOD9339874 Si02
#       6
#     4   4   4   4   2   4
#     4  12  30  53  83 121 159 207 275 347 418 494
#     4  12  27  50  87 112 164 220 271 335 420 482
#     4  11  24  46  75 117 159 212 271 328 390 483
#     4  10  23  47  77 118 167 212 274 331 393 481
#     4  10  22  42  76 112 168 214 270 324 396 470
#     4  12  26  52  82 116 161 209 268 336 410 492
#
# _framework density 26.230028000000001
#
# number of rings (size 3 to 8) (size 9 to 14) (size 15 to 20)
#    0.000    0.727    5.455    0.545    5.091    2.182 
#    3.273    0.000    0.000    0.000    0.000    0.000 
#    0.000    0.000    0.000    0.000    0.000    0.000 
#
# Total GULP energy -122523.186374 kJ/mol
# GULP energy per Si atom -5569.235744 kJ/mol
# Density = 2.617033 g / cm^3
# Si number density = 26.230028 Si / 1000 Ang^3
#
#
#
# Elastic Constant Matrix: (Units=GPa)
#
#
# Indices 1 2 3 4 5 6 
#
# 1 189.5673 50.5350 43.0761 0.0000 0.0000 0.0000
# 2 50.5350 54.7936 46.5785 0.0000 0.0000 0.0000
# 3 43.0761 46.5785 146.0714 0.0000 0.0000 0.0000
# 4 0.0000 0.0000 0.0000 60.0671 0.0000 0.0000
# 5 0.0000 0.0000 0.0000 0.0000 13.7655 0.0000
# 6 0.0000 0.0000 0.0000 0.0000 0.0000 38.2699
#
#
#
# Elastic Compliance Matrix: (Units=1/GPa)
#
#
# Indices 1 2 3 4 5 6 
#
# 1 0.006995 -0.006445 -0.000008 0.000000 0.000000 0.000000
# 2 -0.006445 0.030975 -0.007977 0.000000 0.000000 0.000000
# 3 -0.000008 -0.007977 0.009392 0.000000 0.000000 0.000000
# 4 0.000000 0.000000 0.000000 0.016648 0.000000 0.000000
# 5 0.000000 0.000000 0.000000 0.000000 0.072645 0.000000
# 6 0.000000 0.000000 0.000000 0.000000 0.000000 0.026130
#
#
# Mechanical properties :
#
#
# Convention : Reuss Voigt Hill
#
# Bulk Modulus (GPa) = 54.04384 74.53459 64.28922
# Shear Modulus (GPa) = 25.27665 39.10336 32.19000
#
# Velocity S-wave (km/s) = 3.10764 3.86526 3.50697
# Velocity P-wave (km/s) = 5.79009 6.95685 6.40011
#
# Compressibility (1/GPa) = 0.01850349
#
# Stress axis : x y z
#
# Youngs Moduli (GPa) = 142.95990 32.28433 106.47624
#
# Poissons Ratio (x) = 0.20806 0.00082
# Poissons Ratio (y) = 0.92134 0.84931
# Poissons Ratio (z) = 0.00111 0.25752
#
# Static dielectric constant tensor:
#      x y z
#    x 2.107500 0.000000 0.000000 
#    y 0.000000 2.152530 0.000000 
#    z 0.000000 0.000000 2.130900 
# 
# From -- ./inp_files/1839.got.cif
#   From: 2010.05.17/outbox.cif.g08.bks.cpg/sg28_1_cif.got.tgz:1839.got - 2010.06.04 01:15:21.
