data_PCOD9339054
_publ_section_title
;
Structure prediction by ZEFSAII (Michael W. Deem and Ramdas Pophale) SiO2 
 PCOD9339054
Probable space group: P C C 2
;
_chemical_formula_sum "Si O2"
_cell_formula_units_Z 20
_cell_length_a 5.149240
_cell_length_b 8.187293
_cell_length_c 18.327898
_cell_angle_alpha 90.000000
_cell_angle_beta 90.000000
_cell_angle_gamma 90.000000
_cell_volume 772.673693
_symmetry_space_group_name_H-M "P C C 2"
_symmetry_group_IT_number 27
_symmetry_cell_setting 'orthorhombic'
loop_
_space_group_symop_operation_xyz
x,y,z
-x,-y,z
-x,y,1/2+z
x,-y,1/2+z
loop_
_atom_site_type_symbol
_atom_site_label
_atom_site_fract_x
_atom_site_fract_y
_atom_site_fract_z
Si Si1 0.500000 0.000000 0.754290
Si Si2 0.728645 0.219428 0.371125
Si Si3 0.272508 0.293120 0.571174
Si Si4 0.000000 0.500000 0.450067
Si Si5 0.500000 0.500000 0.783647
Si Si6 0.500000 0.000000 0.995848
Si Si7 0.235389 0.297791 0.169251
O O1 0.716007 0.914596 0.806904
O O2 0.342519 0.868158 0.706805
O O3 0.945963 0.345553 0.397496
O O4 0.531715 0.348358 0.336607
O O5 0.646387 0.126095 0.443503
O O6 0.300281 0.108694 0.541114
O O7 0.550956 0.326142 0.606669
O O8 0.205295 0.419539 0.506621
O O9 0.044051 0.293411 0.631532
O O10 0.725378 0.440384 0.728954
#
# Coordination Sequence:
#
# PCOD9339054 Si02
#       7
#     2   4   4   2   2   2   4
#     4   9  23  46  72 100 143 189 246 300 362 433
#     4  10  23  45  71 105 142 193 243 302 363 433
#     4  12  27  47  75 109 148 192 242 304 370 440
#     4  12  26  44  74 110 150 192 246 306 370 440
#     4  10  22  46  72 104 146 192 248 304 364 436
#     4  11  25  48  74 106 149 193 246 304 370 441
#     4  11  25  46  74 107 145 192 244 304 368 437
#
# _framework density 25.884146999999999
#
# number of rings (size 3 to 8) (size 9 to 14) (size 15 to 20)
#    0.000    1.200    0.000    4.200    0.000   12.000 
#    0.000    8.000    0.000    0.000    0.000    0.000 
#    0.000    0.000    0.000    0.000    0.000    0.000 
#
# Total GULP energy -111913.456438 kJ/mol
# GULP energy per Si atom -5595.672822 kJ/mol
# Density = 2.582523 g / cm^3
# Si number density = 25.884147 Si / 1000 Ang^3
#
#
#
# Elastic Constant Matrix: (Units=GPa)
#
#
# Indices 1 2 3 4 5 6 
#
# 1 104.0420 40.5335 46.8125 0.0000 0.0000 0.0000
# 2 40.5335 165.2352 61.7294 0.0000 0.0000 0.0000
# 3 46.8125 61.7294 121.0673 0.0000 0.0000 0.0000
# 4 0.0000 0.0000 0.0000 95.6706 0.0000 0.0000
# 5 0.0000 0.0000 0.0000 0.0000 39.1069 0.0000
# 6 0.0000 0.0000 0.0000 0.0000 0.0000 44.5827
#
#
#
# Elastic Compliance Matrix: (Units=1/GPa)
#
#
# Indices 1 2 3 4 5 6 
#
# 1 0.011924 -0.001486 -0.003853 0.000000 0.000000 0.000000
# 2 -0.001486 0.007661 -0.003332 0.000000 0.000000 0.000000
# 3 -0.003853 -0.003332 0.011449 0.000000 0.000000 0.000000
# 4 0.000000 0.000000 0.000000 0.010453 0.000000 0.000000
# 5 0.000000 0.000000 0.000000 0.000000 0.025571 0.000000
# 6 0.000000 0.000000 0.000000 0.000000 0.000000 0.022430
#
#
# Mechanical properties :
#
#
# Convention : Reuss Voigt Hill
#
# Bulk Modulus (GPa) = 73.03208 76.49949 74.76579
# Shear Modulus (GPa) = 44.88634 51.95664 48.42149
#
# Velocity S-wave (km/s) = 4.16880 4.48512 4.32985
# Velocity P-wave (km/s) = 7.17273 7.51269 7.34468
#
# Compressibility (1/GPa) = 0.01369261
#
# Stress axis : x y z
#
# Youngs Moduli (GPa) = 83.86505 130.52929 87.34737
#
# Poissons Ratio (x) = 0.19391 0.33656
# Poissons Ratio (y) = 0.12459 0.29102
# Poissons Ratio (z) = 0.32314 0.43490
#
# Static dielectric constant tensor:
#      x y z
#    x 1.596200 0.000000 0.000000 
#    y 0.000000 2.115000 0.000000 
#    z 0.000000 0.000000 2.038640 
# 
# From -- ./inp_files/3951.got.cif
#   From: 2010.05.17/outbox.cif.g08.bks.cpg/sg27_2_cif.got.tgz:3951.got - 2010.06.04 01:11:05.
