data_PCOD9339668
_publ_section_title
;
Structure prediction by ZEFSAII (Michael W. Deem and Ramdas Pophale) SiO2 
 PCOD9339668
Probable space group: P M A 2
;
_chemical_formula_sum "Si O2"
_cell_formula_units_Z 20
_cell_length_a 8.631610
_cell_length_b 9.940260
_cell_length_c 13.332817
_cell_angle_alpha 90.000000
_cell_angle_beta 90.000000
_cell_angle_gamma 90.000000
_cell_volume 1143.961667
_symmetry_space_group_name_H-M "P M A 2"
_symmetry_group_IT_number 28
_symmetry_cell_setting 'orthorhombic'
loop_
_space_group_symop_operation_xyz
x,y,z
-x,-y,z
1/2-x,y,z
1/2+x,-y,z
loop_
_atom_site_type_symbol
_atom_site_label
_atom_site_fract_x
_atom_site_fract_y
_atom_site_fract_z
Si Si1 0.563070 0.651181 0.655350
Si Si2 0.434587 0.652058 0.084896
Si Si3 0.436213 0.149773 0.252413
Si Si4 0.936819 0.851517 0.482115
Si Si5 0.064166 0.347685 0.876428
O O1 0.500000 0.500000 0.645773
O O2 0.750000 0.643897 0.652038
O O3 0.508538 0.745403 0.564994
O O4 0.522293 0.707861 0.766319
O O5 0.500000 0.500000 0.094325
O O6 0.250000 0.645559 0.084997
O O7 0.495521 0.744208 0.174562
O O8 0.492255 0.710865 0.977798
O O9 0.250000 0.148771 0.245390
O O10 0.480452 0.184193 0.367619
O O11 0.500000 0.000000 0.232245
O O12 0.750000 0.855793 0.485833
O O13 0.000000 0.000000 0.503274
O O14 0.250000 0.349306 0.886119
O O15 0.000000 0.500000 0.873627
#
# Coordination Sequence:
#
# PCOD9339668 Si02
#       5
#     4   4   4   4   4
#     4   9  18  32  51  76 103 131 165 206 249 295
#     4  11  21  34  53  77 104 134 171 212 255 301
#     4  10  20  36  55  75 102 135 171 210 255 305
#     4   9  19  35  53  74 101 133 167 204 248 298
#     4   9  16  29  49  72 101 133 165 204 251 299
#
# _framework density 17.483104000000001
#
# number of rings (size 3 to 8) (size 9 to 14) (size 15 to 20)
#    0.000    2.400    0.000    4.200    0.000    3.200 
#    0.000    3.000    0.000    2.400    0.000    0.000 
#    0.000    0.000    0.000    0.000    0.000    0.000 
#
# Total GULP energy -111495.669314 kJ/mol
# GULP energy per Si atom -5574.783466 kJ/mol
# Density = 1.744331 g / cm^3
# Si number density = 17.483104 Si / 1000 Ang^3
#
#
#
# Elastic Constant Matrix: (Units=GPa)
#
#
# Indices 1 2 3 4 5 6 
#
# 1 70.0426 32.6644 56.0029 0.0000 0.0000 0.0000
# 2 32.6644 76.9589 100.4528 0.0000 0.0000 0.0000
# 3 56.0029 100.4528 187.4294 0.0000 0.0000 0.0000
# 4 0.0000 0.0000 0.0000 -16.0692 0.0000 0.0000
# 5 0.0000 0.0000 0.0000 0.0000 -10.2978 0.0000
# 6 0.0000 0.0000 0.0000 0.0000 0.0000 25.7667
#
#
#
# Elastic Compliance Matrix: (Units=1/GPa)
#
#
# Indices 1 2 3 4 5 6 
#
# 1 0.018866 -0.002162 -0.004478 0.000000 0.000000 0.000000
# 2 -0.002162 0.043498 -0.022667 0.000000 0.000000 0.000000
# 3 -0.004478 -0.022667 0.018822 0.000000 0.000000 0.000000
# 4 0.000000 0.000000 0.000000 -0.062231 0.000000 0.000000
# 5 0.000000 0.000000 0.000000 0.000000 -0.097108 0.000000
# 6 0.000000 0.000000 0.000000 0.000000 0.000000 0.038810
#
#
# Mechanical properties :
#
#
# Convention : Reuss Voigt Hill
#
# Bulk Modulus (GPa) = 44.30368 79.18568 61.74468
# Shear Modulus (GPa) = 186.60980 9.56734 98.08857
#
# Velocity S-wave (km/s) = 10.34258 2.34184 7.49844
# Velocity P-wave (km/s) = 12.96230 7.25970 10.50534
#
# Compressibility (1/GPa) = 0.02257149
#
# Stress axis : x y z
#
# Youngs Moduli (GPa) = 53.00553 22.98959 53.13022
#
# Poissons Ratio (x) = 0.04970 0.23794
# Poissons Ratio (y) = 0.11460 1.20429
# Poissons Ratio (z) = 0.23738 0.52110
#
# Static dielectric constant tensor:
#      x y z
#    x 1.584260 0.000000 0.000000 
#    y 0.000000 1.533860 0.000000 
#    z 0.000000 0.000000 1.638150 
# 
# From -- ./inp_files/4555.got.cif
#   From: 2010.05.17/outbox.cif.g08.bks.cpg/sg28_3_cif.got.tgz:4555.got - 2010.06.04 01:15:21.
