data_PCOD9339850
_publ_section_title
;
Structure prediction by ZEFSAII (Michael W. Deem and Ramdas Pophale) SiO2 
 PCOD9339850
Probable space group: P M A 2
;
_chemical_formula_sum "Si O2"
_cell_formula_units_Z 32
_cell_length_a 8.689109
_cell_length_b 15.802536
_cell_length_c 12.102256
_cell_angle_alpha 90.000000
_cell_angle_beta 90.000000
_cell_angle_gamma 90.000000
_cell_volume 1661.760260
_symmetry_space_group_name_H-M "P M A 2"
_symmetry_group_IT_number 28
_symmetry_cell_setting 'orthorhombic'
loop_
_space_group_symop_operation_xyz
x,y,z
-x,-y,z
1/2-x,y,z
1/2+x,-y,z
loop_
_atom_site_type_symbol
_atom_site_label
_atom_site_fract_x
_atom_site_fract_y
_atom_site_fract_z
Si Si1 0.433293 0.088745 0.758700
Si Si2 0.565874 0.151592 0.988417
Si Si3 0.064919 0.409185 0.226777
Si Si4 0.564600 0.658070 0.986252
Si Si5 0.434552 0.089619 0.220636
Si Si6 0.934290 0.410994 0.759636
Si Si7 0.064153 0.249291 0.374929
Si Si8 0.066098 0.755796 0.620137
O O1 0.250000 0.085145 0.763610
O O2 0.500288 0.105004 0.880907
O O3 0.486677 0.166724 0.683386
O O4 0.500000 0.000000 0.716342
O O5 0.750000 0.150132 0.985698
O O6 0.505726 0.248006 0.984370
O O7 0.504704 0.109989 0.100727
O O8 0.250000 0.412414 0.228883
O O9 0.016653 0.332708 0.306624
O O10 0.000000 0.500000 0.259196
O O11 0.018939 0.386293 0.101148
O O12 0.750000 0.664259 0.982793
O O13 0.504233 0.608143 0.880115
O O14 0.250000 0.085736 0.211177
O O15 0.474124 0.166482 0.302666
O O16 0.500000 0.000000 0.259965
O O17 0.750000 0.415635 0.767991
O O18 0.974958 0.332035 0.681297
O O19 0.000000 0.500000 0.718282
O O20 0.250000 0.251194 0.387337
O O21 0.986994 0.246678 0.493948
O O22 0.250000 0.766035 0.628016
#
# Coordination Sequence:
#
# PCOD9339850 Si02
#       8
#     4   4   4   4   4   4   4   4
#     4  12  25  43  68  95 128 168 208 257 314 374
#     4  12  23  38  63  96 131 166 206 254 311 377
#     4  10  22  40  62  92 126 163 207 255 310 370
#     4  11  21  38  64  93 128 168 205 254 316 378
#     4  11  23  42  65  93 127 164 209 257 311 375
#     4  11  24  41  63  93 129 166 210 262 313 378
#     4  10  23  44  65  87 123 168 212 260 315 372
#     4  11  25  44  65  93 126 163 214 266 315 373
#
# _framework density 19.256689000000001
#
# number of rings (size 3 to 8) (size 9 to 14) (size 15 to 20)
#    0.000    1.000    2.500    4.500    0.000    6.000 
#    0.000    3.750    0.000    0.000    0.000    0.000 
#    0.000    0.000    0.000    0.000    0.000    0.000 
#
# Total GULP energy -179057.704634 kJ/mol
# GULP energy per Si atom -5595.553270 kJ/mol
# Density = 1.921286 g / cm^3
# Si number density = 19.256689 Si / 1000 Ang^3
#
#
#
# Elastic Constant Matrix: (Units=GPa)
#
#
# Indices 1 2 3 4 5 6 
#
# 1 92.0960 68.8952 56.7163 0.0000 0.0000 0.0000
# 2 68.8952 186.9949 69.5502 0.0000 0.0000 0.0000
# 3 56.7163 69.5502 131.6540 0.0000 0.0000 0.0000
# 4 0.0000 0.0000 0.0000 -7.1005 0.0000 0.0000
# 5 0.0000 0.0000 0.0000 0.0000 42.5041 0.0000
# 6 0.0000 0.0000 0.0000 0.0000 0.0000 22.5358
#
#
#
# Elastic Compliance Matrix: (Units=1/GPa)
#
#
# Indices 1 2 3 4 5 6 
#
# 1 0.017369 -0.004501 -0.005105 0.000000 0.000000 0.000000
# 2 -0.004501 0.007822 -0.002193 0.000000 0.000000 0.000000
# 3 -0.005105 -0.002193 0.010953 0.000000 0.000000 0.000000
# 4 0.000000 0.000000 0.000000 -0.140835 0.000000 0.000000
# 5 0.000000 0.000000 0.000000 0.000000 0.023527 0.000000
# 6 0.000000 0.000000 0.000000 0.000000 0.000000 0.044374
#
#
# Mechanical properties :
#
#
# Convention : Reuss Voigt Hill
#
# Bulk Modulus (GPa) = 79.70270 89.00762 84.35516
# Shear Modulus (GPa) = -554.87049 25.96010 -264.45520
#
# Velocity S-wave (km/s) = -16.99323 3.67564 -11.73157
# Velocity P-wave (km/s) = 18.53502 8.02096 11.81548
#
# Compressibility (1/GPa) = 0.01254663
#
# Stress axis : x y z
#
# Youngs Moduli (GPa) = 57.57448 127.85082 91.29533
#
# Poissons Ratio (x) = 0.57540 0.46605
# Poissons Ratio (y) = 0.25912 0.20023
# Poissons Ratio (z) = 0.29391 0.28040
#
# Static dielectric constant tensor:
#      x y z
#    x 1.644940 0.000000 0.000000 
#    y 0.000000 1.675020 0.000000 
#    z 0.000000 0.000000 1.640070 
# 
# From -- ./inp_files/5028.got.cif
#   From: 2010.05.17/outbox.cif.g08.bks.cpg/sg28_3_cif.got.tgz:5028.got - 2010.06.04 01:15:21.
