data_PCOD9339591
_publ_section_title
;
Structure prediction by ZEFSAII (Michael W. Deem and Ramdas Pophale) SiO2 
 PCOD9339591
Probable space group: P M A 2
;
_chemical_formula_sum "Si O2"
_cell_formula_units_Z 24
_cell_length_a 8.886678
_cell_length_b 13.409461
_cell_length_c 11.641604
_cell_angle_alpha 90.000000
_cell_angle_beta 90.000000
_cell_angle_gamma 90.000000
_cell_volume 1387.278284
_symmetry_space_group_name_H-M "P M A 2"
_symmetry_group_IT_number 28
_symmetry_cell_setting 'orthorhombic'
loop_
_space_group_symop_operation_xyz
x,y,z
-x,-y,z
1/2-x,y,z
1/2+x,-y,z
loop_
_atom_site_type_symbol
_atom_site_label
_atom_site_fract_x
_atom_site_fract_y
_atom_site_fract_z
Si Si1 0.573628 0.391890 0.623980
Si Si2 0.567071 0.730604 0.159971
Si Si3 0.069001 0.890330 0.983997
Si Si4 0.073128 0.608013 0.348846
Si Si5 0.919970 0.764693 0.788670
Si Si6 0.586332 0.589194 0.971547
O O1 0.500000 0.500000 0.651617
O O2 0.750000 0.395784 0.655435
O O3 0.559920 0.380123 0.486489
O O4 0.498061 0.296555 0.685987
O O5 0.750000 0.737832 0.155965
O O6 0.508037 0.700258 0.284804
O O7 0.496878 0.822590 0.088878
O O8 0.515997 0.634034 0.085703
O O9 0.250000 0.890190 0.988626
O O10 0.014025 0.846611 0.860092
O O11 0.000000 0.000000 0.996104
O O12 0.250000 0.606539 0.319234
O O13 0.000000 0.500000 0.320807
O O14 0.750000 0.799345 0.759220
O O15 0.904049 0.679368 0.884950
O O16 0.500000 0.500000 0.916231
O O17 0.750000 0.551212 0.002391
#
# Coordination Sequence:
#
# PCOD9339591 Si02
#       6
#     4   4   4   4   4   4
#     4  10  20  33  50  75 108 146 184 218 255 303
#     4  10  20  34  51  74 103 135 173 214 259 310
#     4  11  22  38  59  81 105 133 168 213 266 318
#     4  10  20  33  50  75 108 146 184 218 255 303
#     4  10  20  34  51  74 103 135 173 214 259 310
#     4   9  18  28  41  65  97 129 161 201 246 298
#
# _framework density 17.300060999999999
#
# number of rings (size 3 to 8) (size 9 to 14) (size 15 to 20)
#    0.000    2.000    0.000    5.500    0.000    8.667 
#    0.000    0.000    0.000    1.000    0.000    0.000 
#    0.000    0.000    0.000    0.000    0.000    0.000 
#
# Total GULP energy -133658.016253 kJ/mol
# GULP energy per Si atom -5569.084011 kJ/mol
# Density = 1.726069 g / cm^3
# Si number density = 17.300061 Si / 1000 Ang^3
#
#
#
# Elastic Constant Matrix: (Units=GPa)
#
#
# Indices 1 2 3 4 5 6 
#
# 1 134.7289 65.8866 48.5263 0.0000 0.0000 0.0000
# 2 65.8866 95.0283 40.7236 0.0000 0.0000 0.0000
# 3 48.5263 40.7236 68.8152 0.0000 0.0000 0.0000
# 4 0.0000 0.0000 0.0000 25.1627 0.0000 0.0000
# 5 0.0000 0.0000 0.0000 0.0000 24.5692 0.0000
# 6 0.0000 0.0000 0.0000 0.0000 0.0000 25.8690
#
#
#
# Elastic Compliance Matrix: (Units=1/GPa)
#
#
# Indices 1 2 3 4 5 6 
#
# 1 0.012341 -0.006467 -0.004875 0.000000 0.000000 0.000000
# 2 -0.006467 0.017488 -0.005788 0.000000 0.000000 0.000000
# 3 -0.004875 -0.005788 0.021395 0.000000 0.000000 0.000000
# 4 0.000000 0.000000 0.000000 0.039741 0.000000 0.000000
# 5 0.000000 0.000000 0.000000 0.000000 0.040701 0.000000
# 6 0.000000 0.000000 0.000000 0.000000 0.000000 0.038656
#
#
# Mechanical properties :
#
#
# Convention : Reuss Voigt Hill
#
# Bulk Modulus (GPa) = 58.95571 67.64947 63.30259
# Shear Modulus (GPa) = 23.78251 24.68257 24.23254
#
# Velocity S-wave (km/s) = 3.71173 3.78131 3.74668
# Velocity P-wave (km/s) = 7.24717 7.63236 7.44226
#
# Compressibility (1/GPa) = 0.01696189
#
# Stress axis : x y z
#
# Youngs Moduli (GPa) = 81.03135 57.18309 46.73969
#
# Poissons Ratio (x) = 0.36981 0.22787
# Poissons Ratio (y) = 0.52404 0.27055
# Poissons Ratio (z) = 0.39505 0.33100
#
# Static dielectric constant tensor:
#      x y z
#    x 1.632430 0.000000 0.000000 
#    y 0.000000 1.677350 0.000000 
#    z 0.000000 0.000000 1.617920 
# 
# From -- ./inp_files/4679.got.cif
#   From: 2010.05.17/outbox.cif.g08.bks.cpg/sg28_3_cif.got.tgz:4679.got - 2010.06.04 01:15:21.
