data_PCOD9339497
_publ_section_title
;
Structure prediction by ZEFSAII (Michael W. Deem and Ramdas Pophale) SiO2 
 PCOD9339497
Probable space group: P M A 2
;
_chemical_formula_sum "Si O2"
_cell_formula_units_Z 32
_cell_length_a 16.195705
_cell_length_b 9.260366
_cell_length_c 11.960965
_cell_angle_alpha 90.000000
_cell_angle_beta 90.000000
_cell_angle_gamma 90.000000
_cell_volume 1793.883474
_symmetry_space_group_name_H-M "P M A 2"
_symmetry_group_IT_number 28
_symmetry_cell_setting 'orthorhombic'
loop_
_space_group_symop_operation_xyz
x,y,z
-x,-y,z
1/2-x,y,z
1/2+x,-y,z
loop_
_atom_site_type_symbol
_atom_site_label
_atom_site_fract_x
_atom_site_fract_y
_atom_site_fract_z
Si Si1 0.660583 0.153808 0.194900
Si Si2 0.457238 0.237947 0.953964
Si Si3 0.625246 0.052566 0.951880
Si Si4 0.510453 0.665106 0.708534
Si Si5 0.159025 0.843860 0.707320
Si Si6 0.504564 0.665129 0.196541
Si Si7 0.917049 0.910262 0.349773
Si Si8 0.654492 0.846135 0.588316
O O1 0.750000 0.211541 0.228197
O O2 0.587852 0.270327 0.196953
O O3 0.634505 0.021214 0.273832
O O4 0.664488 0.094427 0.068879
O O5 0.537318 0.134494 0.957993
O O6 0.466066 0.327893 0.840615
O O7 0.384351 0.120314 0.945164
O O8 0.458612 0.323593 0.070382
O O9 0.662005 0.112966 0.837900
O O10 0.500000 0.500000 0.673167
O O11 0.422492 0.746385 0.691169
O O12 0.584884 0.746120 0.645118
O O13 0.250000 0.782359 0.676635
O O14 0.147284 0.993617 0.641150
O O15 0.500000 0.500000 0.233144
O O16 0.555722 0.773181 0.275600
O O17 0.867578 0.861404 0.458155
O O18 0.000000 0.000000 0.382507
O O19 0.750000 0.798681 0.604751
#
# Coordination Sequence:
#
# PCOD9339497 Si02
#       8
#     4   4   4   4   4   4   4   4
#     4  10  19  33  55  82 110 140 183 236 278 325
#     4   9  16  31  54  82 111 146 181 219 269 330
#     4   9  15  29  55  81 109 138 182 229 274 319
#     4  11  22  36  58  84 118 154 183 222 283 345
#     4  10  20  35  58  84 110 145 189 236 279 331
#     4  10  20  35  57  82 114 151 184 217 275 346
#     4  10  20  36  58  81 105 144 190 235 281 331
#     4  11  23  39  59  82 109 143 192 245 284 328
#
# _framework density 17.838394999999998
#
# number of rings (size 3 to 8) (size 9 to 14) (size 15 to 20)
#    0.000    2.000    2.500    2.250    0.000    1.000 
#    0.000    1.250    0.000    1.500    0.000    0.000 
#    0.000    0.000    0.000    0.000    0.000    0.000 
#
# Total GULP energy -178365.030023 kJ/mol
# GULP energy per Si atom -5573.907188 kJ/mol
# Density = 1.779779 g / cm^3
# Si number density = 17.838395 Si / 1000 Ang^3
#
#
#
# Elastic Constant Matrix: (Units=GPa)
#
#
# Indices 1 2 3 4 5 6 
#
# 1 130.1752 57.1847 49.9202 0.0000 0.0000 0.0000
# 2 57.1847 96.3124 32.9249 0.0000 0.0000 0.0000
# 3 49.9202 32.9249 85.0607 0.0000 0.0000 0.0000
# 4 0.0000 0.0000 0.0000 0.3766 0.0000 0.0000
# 5 0.0000 0.0000 0.0000 0.0000 36.6355 0.0000
# 6 0.0000 0.0000 0.0000 0.0000 0.0000 1.3420
#
#
#
# Elastic Compliance Matrix: (Units=1/GPa)
#
#
# Indices 1 2 3 4 5 6 
#
# 1 0.011944 -0.005411 -0.004915 0.000000 0.000000 0.000000
# 2 -0.005411 0.014418 -0.002405 0.000000 0.000000 0.000000
# 3 -0.004915 -0.002405 0.015572 0.000000 0.000000 0.000000
# 4 0.000000 0.000000 0.000000 2.655177 0.000000 0.000000
# 5 0.000000 0.000000 0.000000 0.000000 0.027296 0.000000
# 6 0.000000 0.000000 0.000000 0.000000 0.000000 0.745131
#
#
# Mechanical properties :
#
#
# Convention : Reuss Voigt Hill
#
# Bulk Modulus (GPa) = 60.71340 65.73421 63.22381
# Shear Modulus (GPa) = 1.42837 19.10539 10.26688
#
# Velocity S-wave (km/s) = 0.89581 3.27620 2.40166
# Velocity P-wave (km/s) = 5.93120 7.15830 6.57344
#
# Compressibility (1/GPa) = 0.01647083
#
# Stress axis : x y z
#
# Youngs Moduli (GPa) = 83.72426 69.35762 64.21882
#
# Poissons Ratio (x) = 0.37532 0.31564
# Poissons Ratio (y) = 0.45307 0.15445
# Poissons Ratio (z) = 0.41151 0.16681
#
# Static dielectric constant tensor:
#      x y z
#    x 1.639700 0.000000 0.000000 
#    y 0.000000 1.573330 0.000000 
#    z 0.000000 0.000000 1.611550 
# 
# From -- ./inp_files/5562.got.cif
#   From: 2010.05.17/outbox.cif.g08.bks.cpg/sg28_3_cif.got.tgz:5562.got - 2010.06.04 01:15:21.
