data_PCOD9339340
_publ_section_title
;
Structure prediction by ZEFSAII (Michael W. Deem and Ramdas Pophale) SiO2 
 PCOD9339340
Probable space group: P M A 2
;
_chemical_formula_sum "Si O2"
_cell_formula_units_Z 32
_cell_length_a 8.821769
_cell_length_b 14.936156
_cell_length_c 12.395404
_cell_angle_alpha 90.000000
_cell_angle_beta 90.000000
_cell_angle_gamma 90.000000
_cell_volume 1633.259559
_symmetry_space_group_name_H-M "P M A 2"
_symmetry_group_IT_number 28
_symmetry_cell_setting 'orthorhombic'
loop_
_space_group_symop_operation_xyz
x,y,z
-x,-y,z
1/2-x,y,z
1/2+x,-y,z
loop_
_atom_site_type_symbol
_atom_site_label
_atom_site_fract_x
_atom_site_fract_y
_atom_site_fract_z
Si Si1 0.429238 0.208671 0.269740
Si Si2 0.424386 0.631662 0.977236
Si Si3 0.430850 0.217930 0.656838
Si Si4 0.431504 0.407227 0.744125
Si Si5 0.431200 0.408626 0.206716
Si Si6 0.077955 0.835818 0.051889
Si Si7 0.430428 0.900225 0.465719
Si Si8 0.930754 0.091866 0.826805
O O1 0.250000 0.205268 0.291743
O O2 0.475794 0.314047 0.262515
O O3 0.466013 0.168217 0.152076
O O4 0.516816 0.151129 0.357921
O O5 0.250000 0.599187 0.976718
O O6 0.510706 0.597324 0.083199
O O7 0.421594 0.738396 0.995300
O O8 0.502743 0.608281 0.864637
O O9 0.250000 0.210815 0.644256
O O10 0.471394 0.322378 0.669248
O O11 0.510745 0.162162 0.562985
O O12 0.484455 0.171714 0.767167
O O13 0.500000 0.500000 0.703168
O O14 0.250000 0.412277 0.751096
O O15 0.500000 0.500000 0.254242
O O16 0.250000 0.413413 0.207742
O O17 0.250000 0.852484 0.091165
O O18 0.041083 0.901636 0.954584
O O19 0.250000 0.907751 0.470129
O O20 0.500000 0.000000 0.471179
O O21 0.750000 0.097013 0.809000
O O22 0.000000 0.000000 0.783376
#
# Coordination Sequence:
#
# PCOD9339340 Si02
#       8
#     4   4   4   4   4   4   4   4
#     4  10  22  40  63  91 124 159 203 256 307 360
#     4  10  18  32  54  81 119 164 209 252 295 354
#     4  11  24  43  65  90 122 158 202 255 306 360
#     4  11  23  37  58  87 122 162 204 250 301 360
#     4  10  20  34  55  86 124 166 208 251 299 356
#     4   9  19  35  56  84 122 165 203 247 302 361
#     4  12  26  46  72  95 119 154 201 254 309 368
#     4  11  22  37  58  88 123 161 202 246 303 367
#
# _framework density 19.592721000000001
#
# number of rings (size 3 to 8) (size 9 to 14) (size 15 to 20)
#    0.000    1.500    1.250    4.125    0.000    5.000 
#    0.000    1.875    0.000    0.000    0.000    0.000 
#    0.000    0.000    0.000    0.000    0.000    0.000 
#
# Total GULP energy -178781.070291 kJ/mol
# GULP energy per Si atom -5586.908447 kJ/mol
# Density = 1.954813 g / cm^3
# Si number density = 19.592721 Si / 1000 Ang^3
#
#
#
# Elastic Constant Matrix: (Units=GPa)
#
#
# Indices 1 2 3 4 5 6 
#
# 1 101.2207 72.6620 49.2486 0.0000 0.0000 0.0000
# 2 72.6620 154.3463 53.8862 0.0000 0.0000 0.0000
# 3 49.2486 53.8862 64.2233 0.0000 0.0000 0.0000
# 4 0.0000 0.0000 0.0000 16.1522 0.0000 0.0000
# 5 0.0000 0.0000 0.0000 0.0000 21.3662 0.0000
# 6 0.0000 0.0000 0.0000 0.0000 0.0000 132.0476
#
#
#
# Elastic Compliance Matrix: (Units=1/GPa)
#
#
# Indices 1 2 3 4 5 6 
#
# 1 0.018364 -0.005274 -0.009657 0.000000 0.000000 0.000000
# 2 -0.005274 0.010678 -0.004915 0.000000 0.000000 0.000000
# 3 -0.009657 -0.004915 0.027100 0.000000 0.000000 0.000000
# 4 0.000000 0.000000 0.000000 0.061911 0.000000 0.000000
# 5 0.000000 0.000000 0.000000 0.000000 0.046803 0.000000
# 6 0.000000 0.000000 0.000000 0.000000 0.000000 0.007573
#
#
# Mechanical properties :
#
#
# Convention : Reuss Voigt Hill
#
# Bulk Modulus (GPa) = 60.79089 74.59819 67.69454
# Shear Modulus (GPa) = 22.97765 43.51277 33.24521
#
# Velocity S-wave (km/s) = 3.42828 4.71772 4.12371
# Velocity P-wave (km/s) = 6.83853 8.23607 7.56962
#
# Compressibility (1/GPa) = 0.01644983
#
# Stress axis : x y z
#
# Youngs Moduli (GPa) = 54.45514 93.65460 36.90043
#
# Poissons Ratio (x) = 0.49390 0.35635
# Poissons Ratio (y) = 0.28717 0.18136
# Poissons Ratio (z) = 0.52588 0.46031
#
# Static dielectric constant tensor:
#      x y z
#    x 1.666800 0.000000 0.000000 
#    y 0.000000 1.784880 0.000000 
#    z 0.000000 0.000000 1.672360 
# 
# From -- ./inp_files/5011.got.cif
#   From: 2010.05.17/outbox.cif.g08.bks.cpg/sg28_3_cif.got.tgz:5011.got - 2010.06.04 01:15:21.
