data_PCOD9339774
_publ_section_title
;
Structure prediction by ZEFSAII (Michael W. Deem and Ramdas Pophale) SiO2 
 PCOD9339774
Probable space group: P M A 2
;
_chemical_formula_sum "Si O2"
_cell_formula_units_Z 24
_cell_length_a 17.275430
_cell_length_b 4.893585
_cell_length_c 13.024249
_cell_angle_alpha 90.000000
_cell_angle_beta 90.000000
_cell_angle_gamma 90.000000
_cell_volume 1101.054188
_symmetry_space_group_name_H-M "P M A 2"
_symmetry_group_IT_number 28
_symmetry_cell_setting 'orthorhombic'
loop_
_space_group_symop_operation_xyz
x,y,z
-x,-y,z
1/2-x,y,z
1/2+x,-y,z
loop_
_atom_site_type_symbol
_atom_site_label
_atom_site_fract_x
_atom_site_fract_y
_atom_site_fract_z
Si Si1 0.913041 0.892090 0.700060
Si Si2 0.090041 0.026300 0.160608
Si Si3 0.660449 0.404661 0.805821
Si Si4 0.408408 0.536360 0.023639
Si Si5 0.338944 0.182821 0.478977
Si Si6 0.163868 0.665372 0.339944
O O1 0.899354 0.595839 0.746535
O O2 0.885979 0.853896 0.582794
O O3 0.860590 0.099849 0.767795
O O4 0.000000 0.000000 0.705420
O O5 0.101250 0.845513 0.059768
O O6 0.132691 0.857000 0.248811
O O7 0.108277 0.331950 0.120414
O O8 0.000000 0.000000 0.189042
O O9 0.750000 0.459680 0.780107
O O10 0.644623 0.482502 0.924274
O O11 0.500000 0.500000 0.998757
O O12 0.250000 0.275370 0.501173
O O13 0.372469 0.393385 0.392270
O O14 0.334009 0.882935 0.431455
O O15 0.250000 0.576590 0.307720
#
# Coordination Sequence:
#
# PCOD9339774 Si02
#       6
#     4   4   4   4   4   4
#     4  12  25  43  66  94 128 168 214 267 326 391
#     4  10  21  37  58  86 122 162 203 253 311 370
#     4  12  25  42  66  96 128 168 215 268 325 389
#     4  10  21  38  59  86 122 164 208 256 311 372
#     4  10  21  39  61  88 121 159 201 252 309 366
#     4  10  21  37  60  86 117 157 201 250 306 364
#
# _framework density 21.797291000000001
#
# number of rings (size 3 to 8) (size 9 to 14) (size 15 to 20)
#    0.000    1.333    0.000    6.000    0.000    4.667 
#    0.000    1.667    0.000    0.000    0.000    0.000 
#    0.000    0.000    0.000    0.000    0.000    0.000 
#
# Total GULP energy -133857.240747 kJ/mol
# GULP energy per Si atom -5577.385031 kJ/mol
# Density = 2.174768 g / cm^3
# Si number density = 21.797291 Si / 1000 Ang^3
#
#
#
# Elastic Constant Matrix: (Units=GPa)
#
#
# Indices 1 2 3 4 5 6 
#
# 1 65.1539 -3.4841 23.6189 0.0000 0.0000 0.0000
# 2 -3.4841 92.2610 -14.9430 0.0000 0.0000 0.0000
# 3 23.6189 -14.9430 40.5706 0.0000 0.0000 0.0000
# 4 0.0000 0.0000 0.0000 33.2162 0.0000 0.0000
# 5 0.0000 0.0000 0.0000 0.0000 23.5699 0.0000
# 6 0.0000 0.0000 0.0000 0.0000 0.0000 24.0035
#
#
#
# Elastic Compliance Matrix: (Units=1/GPa)
#
#
# Indices 1 2 3 4 5 6 
#
# 1 0.019573 -0.001177 -0.011828 0.000000 0.000000 0.000000
# 2 -0.001177 0.011597 0.004956 0.000000 0.000000 0.000000
# 3 -0.011828 0.004956 0.033360 0.000000 0.000000 0.000000
# 4 0.000000 0.000000 0.000000 0.030106 0.000000 0.000000
# 5 0.000000 0.000000 0.000000 0.000000 0.042427 0.000000
# 6 0.000000 0.000000 0.000000 0.000000 0.000000 0.041661
#
#
# Mechanical properties :
#
#
# Convention : Reuss Voigt Hill
#
# Bulk Modulus (GPa) = 20.64685 23.15211 21.89948
# Shear Modulus (GPa) = 23.70060 29.01083 26.35572
#
# Velocity S-wave (km/s) = 3.30103 3.65216 3.48102
# Velocity P-wave (km/s) = 4.90121 5.33188 5.12107
#
# Compressibility (1/GPa) = 0.04843354
#
# Stress axis : x y z
#
# Youngs Moduli (GPa) = 51.09018 86.22807 29.97602
#
# Poissons Ratio (x) = 0.10146 0.35456
# Poissons Ratio (y) = 0.06011 -0.14857
# Poissons Ratio (z) = 0.60431 -0.42739
#
# Static dielectric constant tensor:
#      x y z
#    x 1.819890 0.000000 0.000000 
#    y 0.000000 1.770320 0.000000 
#    z 0.000000 0.000000 1.848800 
# 
# From -- ./inp_files/5669.got.cif
#   From: 2010.05.17/outbox.cif.g08.bks.cpg/sg28_3_cif.got.tgz:5669.got - 2010.06.04 01:15:21.
