data_PCOD9339525
_publ_section_title
;
Structure prediction by ZEFSAII (Michael W. Deem and Ramdas Pophale) SiO2 
 PCOD9339525
Probable space group: P M A 2
;
_chemical_formula_sum "Si O2"
_cell_formula_units_Z 28
_cell_length_a 8.418910
_cell_length_b 9.451771
_cell_length_c 18.921583
_cell_angle_alpha 90.000000
_cell_angle_beta 90.000000
_cell_angle_gamma 90.000000
_cell_volume 1505.658655
_symmetry_space_group_name_H-M "P M A 2"
_symmetry_group_IT_number 28
_symmetry_cell_setting 'orthorhombic'
loop_
_space_group_symop_operation_xyz
x,y,z
-x,-y,z
1/2-x,y,z
1/2+x,-y,z
loop_
_atom_site_type_symbol
_atom_site_label
_atom_site_fract_x
_atom_site_fract_y
_atom_site_fract_z
Si Si1 0.941260 0.662390 0.167330
Si Si2 0.557674 0.661153 0.858976
Si Si3 0.058586 0.338044 0.012216
Si Si4 0.938882 0.160492 0.300269
Si Si5 0.941962 0.840313 0.725585
Si Si6 0.558044 0.839540 0.567513
Si Si7 0.940406 0.660073 0.433389
O O1 0.750000 0.661304 0.170536
O O2 0.992448 0.717447 0.089116
O O3 0.000000 0.500000 0.175098
O O4 0.006576 0.759236 0.229487
O O5 0.500000 0.500000 0.854699
O O6 0.750000 0.661521 0.857884
O O7 0.499977 0.746461 0.790841
O O8 0.506645 0.722099 0.936014
O O9 0.250000 0.336536 0.012477
O O10 0.000000 0.500000 0.011527
O O11 0.750000 0.159433 0.303482
O O12 0.003840 0.247548 0.367060
O O13 0.000000 0.000000 0.301491
O O14 0.750000 0.838541 0.726526
O O15 0.992940 0.794419 0.646625
O O16 0.000000 0.000000 0.734835
O O17 0.750000 0.841738 0.566401
O O18 0.502814 0.736027 0.505509
O O19 0.500000 0.000000 0.555547
O O20 0.750000 0.658360 0.433969
O O21 0.000000 0.500000 0.428098
#
# Coordination Sequence:
#
# PCOD9339525 Si02
#       7
#     4   4   4   4   4   4   4
#     4  10  19  34  56  81 108 139 177 219 264 312
#     4   9  17  30  49  74 104 136 173 216 259 304
#     4   8  15  28  48  73 102 136 172 212 257 305
#     4  12  25  41  59  80 107 139 175 214 261 314
#     4   9  18  33  51  73 103 138 175 214 257 307
#     4   9  19  35  55  77 103 137 175 214 258 309
#     4  11  23  39  58  82 110 139 174 215 260 309
#
# _framework density 18.596512000000001
#
# number of rings (size 3 to 8) (size 9 to 14) (size 15 to 20)
#    0.000    2.286    0.000    3.000    0.000    4.000 
#    0.000    0.714    0.000    1.714    0.000    0.000 
#    0.000    0.000    0.000    0.000    0.000    0.000 
#
# Total GULP energy -156150.351889 kJ/mol
# GULP energy per Si atom -5576.798282 kJ/mol
# Density = 1.855419 g / cm^3
# Si number density = 18.596512 Si / 1000 Ang^3
#
#
#
# Elastic Constant Matrix: (Units=GPa)
#
#
# Indices 1 2 3 4 5 6 
#
# 1 38.4077 22.1497 35.5185 0.0000 0.0000 0.0000
# 2 22.1497 103.5650 108.5224 0.0000 0.0000 0.0000
# 3 35.5185 108.5224 228.5665 0.0000 0.0000 0.0000
# 4 0.0000 0.0000 0.0000 -217.8314 0.0000 0.0000
# 5 0.0000 0.0000 0.0000 0.0000 -34.6785 0.0000
# 6 0.0000 0.0000 0.0000 0.0000 0.0000 29.3341
#
#
#
# Elastic Compliance Matrix: (Units=1/GPa)
#
#
# Indices 1 2 3 4 5 6 
#
# 1 0.030911 -0.003140 -0.003313 0.000000 0.000000 0.000000
# 2 -0.003140 0.019535 -0.008787 0.000000 0.000000 0.000000
# 3 -0.003313 -0.008787 0.009062 0.000000 0.000000 0.000000
# 4 0.000000 0.000000 0.000000 -0.004591 0.000000 0.000000
# 5 0.000000 0.000000 0.000000 0.000000 -0.028836 0.000000
# 6 0.000000 0.000000 0.000000 0.000000 0.000000 0.034090
#
#
# Mechanical properties :
#
#
# Convention : Reuss Voigt Hill
#
# Bulk Modulus (GPa) = 34.44888 78.10226 56.27557
# Shear Modulus (GPa) = 49.83728 -31.01191 9.41269
#
# Velocity S-wave (km/s) = 5.18242 -4.08808 2.25223
# Velocity P-wave (km/s) = 7.37391 4.45043 6.09019
#
# Compressibility (1/GPa) = 0.02902852
#
# Stress axis : x y z
#
# Youngs Moduli (GPa) = 32.35136 51.18948 110.34972
#
# Poissons Ratio (x) = 0.16071 0.36556
# Poissons Ratio (y) = 0.10157 0.96968
# Poissons Ratio (z) = 0.10717 0.44982
#
# Static dielectric constant tensor:
#      x y z
#    x 1.628220 0.000000 0.000000 
#    y 0.000000 1.596280 0.000000 
#    z 0.000000 0.000000 1.696300 
# 
# From -- ./inp_files/6760.got.cif
#   From: 2010.05.17/outbox.cif.g08.bks.cpg/sg28_4_cif.got.tgz:6760.got - 2010.06.04 01:15:21.
