data_PCOD9339397
_publ_section_title
;
Structure prediction by ZEFSAII (Michael W. Deem and Ramdas Pophale) SiO2 
 PCOD9339397
Probable space group: P M A 2
;
_chemical_formula_sum "Si O2"
_cell_formula_units_Z 32
_cell_length_a 8.120627
_cell_length_b 15.128155
_cell_length_c 12.774390
_cell_angle_alpha 90.000000
_cell_angle_beta 90.000000
_cell_angle_gamma 90.000000
_cell_volume 1569.335139
_symmetry_space_group_name_H-M "P M A 2"
_symmetry_group_IT_number 28
_symmetry_cell_setting 'orthorhombic'
loop_
_space_group_symop_operation_xyz
x,y,z
-x,-y,z
1/2-x,y,z
1/2+x,-y,z
loop_
_atom_site_type_symbol
_atom_site_label
_atom_site_fract_x
_atom_site_fract_y
_atom_site_fract_z
Si Si1 0.550557 0.289576 0.252380
Si Si2 0.551872 0.406624 0.816363
Si Si3 0.943537 0.722663 0.641902
Si Si4 0.443791 0.659608 0.027228
Si Si5 0.950281 0.852213 0.964142
Si Si6 0.554032 0.905159 0.194373
Si Si7 0.944112 0.398489 0.451907
Si Si8 0.948276 0.903984 0.731585
O O1 0.750000 0.293109 0.250947
O O2 0.486770 0.333751 0.144135
O O3 0.506964 0.185338 0.248570
O O4 0.487446 0.345149 0.351171
O O5 0.500000 0.500000 0.768748
O O6 0.750000 0.397632 0.813940
O O7 0.472167 0.328598 0.750349
O O8 0.488688 0.402546 0.936134
O O9 0.750000 0.727970 0.619191
O O10 0.008766 0.821799 0.661598
O O11 0.021439 0.662195 0.552546
O O12 0.250000 0.640421 0.037539
O O13 0.470191 0.756380 0.978106
O O14 0.750000 0.844851 0.963580
O O15 0.003059 0.892503 0.853097
O O16 0.000100 0.900737 0.071789
O O17 0.750000 0.901826 0.195994
O O18 0.500000 0.000000 0.238660
O O19 0.750000 0.403303 0.437452
O O20 0.000000 0.500000 0.462310
O O21 0.750000 0.898896 0.732893
O O22 0.000000 0.000000 0.693277
#
# Coordination Sequence:
#
# PCOD9339397 Si02
#       8
#     4   4   4   4   4   4   4   4
#     4   9  20  39  60  84 116 151 192 241 292 344
#     4  11  22  35  55  84 116 152 190 232 288 351
#     4  11  23  41  62  84 116 152 193 244 289 341
#     4   9  18  33  54  81 114 152 189 230 283 341
#     4   9  17  31  50  78 115 155 195 232 279 333
#     4  10  19  31  53  84 120 159 198 239 283 340
#     4  11  24  43  67  90 113 146 192 245 297 351
#     4  10  21  35  55  83 116 153 191 233 283 339
#
# _framework density 20.390799999999999
#
# number of rings (size 3 to 8) (size 9 to 14) (size 15 to 20)
#    0.000    2.000    1.250    2.250    0.000    4.000 
#    0.000    0.625    0.000    1.500    0.000    0.000 
#    0.000    0.000    0.000    0.000    0.000    0.000 
#
# Total GULP energy -178507.304600 kJ/mol
# GULP energy per Si atom -5578.353269 kJ/mol
# Density = 2.034439 g / cm^3
# Si number density = 20.390800 Si / 1000 Ang^3
#
#
#
# Elastic Constant Matrix: (Units=GPa)
#
#
# Indices 1 2 3 4 5 6 
#
# 1 14.0956 4.2916 3.8130 0.0000 0.0000 0.0000
# 2 4.2916 155.5440 66.5110 0.0000 0.0000 0.0000
# 3 3.8130 66.5110 106.2890 0.0000 0.0000 0.0000
# 4 0.0000 0.0000 0.0000 16.3223 0.0000 0.0000
# 5 0.0000 0.0000 0.0000 0.0000 9.7618 0.0000
# 6 0.0000 0.0000 0.0000 0.0000 0.0000 23.5962
#
#
#
# Elastic Compliance Matrix: (Units=1/GPa)
#
#
# Indices 1 2 3 4 5 6 
#
# 1 0.071803 -0.001201 -0.001824 0.000000 0.000000 0.000000
# 2 -0.001201 0.008798 -0.005462 0.000000 0.000000 0.000000
# 3 -0.001824 -0.005462 0.012892 0.000000 0.000000 0.000000
# 4 0.000000 0.000000 0.000000 0.061266 0.000000 0.000000
# 5 0.000000 0.000000 0.000000 0.000000 0.102440 0.000000
# 6 0.000000 0.000000 0.000000 0.000000 0.000000 0.042380
#
#
# Mechanical properties :
#
#
# Convention : Reuss Voigt Hill
#
# Bulk Modulus (GPa) = 13.06886 47.23996 30.15441
# Shear Modulus (GPa) = 14.61733 23.35692 18.98713
#
# Velocity S-wave (km/s) = 2.68033 3.38814 3.05480
# Velocity P-wave (km/s) = 4.00025 6.20674 5.22138
#
# Compressibility (1/GPa) = 0.07651777
#
# Stress axis : x y z
#
# Youngs Moduli (GPa) = 13.92695 113.66417 77.56884
#
# Poissons Ratio (x) = 0.13651 0.14151
# Poissons Ratio (y) = 0.01673 0.42370
# Poissons Ratio (z) = 0.02541 0.62086
#
# Static dielectric constant tensor:
#      x y z
#    x 1.706360 0.000000 0.000000 
#    y 0.000000 1.802800 0.000000 
#    z 0.000000 0.000000 1.753000 
# 
# From -- ./inp_files/5057.got.cif
#   From: 2010.05.17/outbox.cif.g08.bks.cpg/sg28_3_cif.got.tgz:5057.got - 2010.06.04 01:15:21.
