data_PCOD9339247
_publ_section_title
;
Structure prediction by ZEFSAII (Michael W. Deem and Ramdas Pophale) SiO2 
 PCOD9339247
Probable space group: P M A 2
;
_chemical_formula_sum "Si O2"
_cell_formula_units_Z 32
_cell_length_a 16.953267
_cell_length_b 7.221946
_cell_length_c 11.216759
_cell_angle_alpha 90.000000
_cell_angle_beta 90.000000
_cell_angle_gamma 90.000000
_cell_volume 1373.330380
_symmetry_space_group_name_H-M "P M A 2"
_symmetry_group_IT_number 28
_symmetry_cell_setting 'orthorhombic'
loop_
_space_group_symop_operation_xyz
x,y,z
-x,-y,z
1/2-x,y,z
1/2+x,-y,z
loop_
_atom_site_type_symbol
_atom_site_label
_atom_site_fract_x
_atom_site_fract_y
_atom_site_fract_z
Si Si1 0.907777 0.463448 0.302500
Si Si2 0.345216 0.550947 0.549772
Si Si3 0.842321 0.479860 0.802500
Si Si4 0.656887 0.045524 0.302500
Si Si5 0.907159 0.027199 0.548897
Si Si6 0.841791 0.028477 0.802499
Si Si7 0.092841 0.972801 0.056101
Si Si8 0.345216 0.550948 0.055228
O O1 0.870974 0.536154 0.425378
O O2 0.888256 0.243412 0.302500
O O3 0.870974 0.536154 0.179622
O O4 0.000000 0.500000 0.302500
O O5 0.250000 0.566008 0.552955
O O6 0.374300 0.461070 0.673752
O O7 0.381634 0.756828 0.550142
O O8 0.750000 0.530543 0.802500
O O9 0.846646 0.254294 0.802500
O O10 0.874300 0.538929 0.931248
O O11 0.750000 0.082237 0.302498
O O12 0.633336 0.952856 0.427832
O O13 0.633334 0.952855 0.177168
O O14 0.879333 0.959917 0.679049
O O15 0.000000 0.000000 0.537577
O O16 0.750000 0.981047 0.802496
O O17 0.879330 0.959916 0.925952
O O18 0.118366 0.756829 0.054859
O O19 0.000000 0.000000 0.067418
O O20 0.250000 0.566008 0.052044
#
# Coordination Sequence:
#
# PCOD9339247 Si02
#       8
#     4   4   4   4   4   4   4   4
#     4  10  18  27  42  65  86 103 134 182 224 260
#     4   9  16  29  46  65  86 115 146 174 211 261
#     4   7  12  23  42  62  83 106 138 175 203 238
#     4  10  19  33  48  63  84 117 149 176 216 270
#     4  10  17  25  41  68  95 115 142 184 218 242
#     4   9  15  25  39  60  89 124 154 175 201 246
#     4  10  17  25  41  68  95 115 142 184 218 242
#     4   9  16  29  46  65  86 115 146 174 211 261
#
# _framework density 23.301020999999999
#
# number of rings (size 3 to 8) (size 9 to 14) (size 15 to 20)
#    0.000    2.750    0.000    7.125    0.000    0.000 
#    0.000    0.625    0.000    0.000    0.000   84.000 
#    0.000    8.000    0.000    0.000    0.000    0.000 
#
# Total GULP energy -178575.082948 kJ/mol
# GULP energy per Si atom -5580.471342 kJ/mol
# Density = 2.324799 g / cm^3
# Si number density = 23.301021 Si / 1000 Ang^3
#
#
#
# Elastic Constant Matrix: (Units=GPa)
#
#
# Indices 1 2 3 4 5 6 
#
# 1 154.4715 19.1565 67.8675 0.0000 0.0000 0.0000
# 2 19.1565 108.9886 20.8021 0.0000 0.0000 0.0000
# 3 67.8675 20.8021 315.4994 0.0000 0.0000 0.0000
# 4 0.0000 0.0000 0.0000 -22.0725 0.0000 0.0000
# 5 0.0000 0.0000 0.0000 0.0000-1157.5068 0.0000
# 6 0.0000 0.0000 0.0000 0.0000 0.0000 19.7731
#
#
#
# Elastic Compliance Matrix: (Units=1/GPa)
#
#
# Indices 1 2 3 4 5 6 
#
# 1 0.007253 -0.000990 -0.001495 0.000000 0.000000 0.000000
# 2 -0.000990 0.009427 -0.000409 0.000000 0.000000 0.000000
# 3 -0.001495 -0.000409 0.003518 0.000000 0.000000 0.000000
# 4 0.000000 0.000000 0.000000 -0.045305 0.000000 0.000000
# 5 0.000000 0.000000 0.000000 0.000000 -0.000864 0.000000
# 6 0.000000 0.000000 0.000000 0.000000 0.000000 0.050574
#
#
# Mechanical properties :
#
#
# Convention : Reuss Voigt Hill
#
# Bulk Modulus (GPa) = 69.38632 88.29018 78.83825
# Shear Modulus (GPa) = 142.07114 -200.55234 -29.24060
#
# Velocity S-wave (km/s) = 7.81693 -9.28747 -3.54631
# Velocity P-wave (km/s) = 10.55061 8.77702 4.14001
#
# Compressibility (1/GPa) = 0.01441206
#
# Stress axis : x y z
#
# Youngs Moduli (GPa) = 137.86952 106.07594 284.24274
#
# Poissons Ratio (x) = 0.10496 0.42495
# Poissons Ratio (y) = 0.13643 0.11617
# Poissons Ratio (z) = 0.20612 0.04335
#
# Static dielectric constant tensor:
#      x y z
#    x 1.768240 0.000000 0.000000 
#    y 0.000000 1.813420 0.000000 
#    z 0.000000 0.000000 1.980990 
# 
# From -- ./inp_files/5599.got.cif
#   From: 2010.05.17/outbox.cif.g08.bks.cpg/sg28_3_cif.got.tgz:5599.got - 2010.06.04 01:15:21.
