data_PCOD9339399
_publ_section_title
;
Structure prediction by ZEFSAII (Michael W. Deem and Ramdas Pophale) SiO2 
 PCOD9339399
Probable space group: P M A 2
;
_chemical_formula_sum "Si O2"
_cell_formula_units_Z 32
_cell_length_a 8.595258
_cell_length_b 14.442492
_cell_length_c 14.248400
_cell_angle_alpha 90.000000
_cell_angle_beta 90.000000
_cell_angle_gamma 90.000000
_cell_volume 1768.752846
_symmetry_space_group_name_H-M "P M A 2"
_symmetry_group_IT_number 28
_symmetry_cell_setting 'orthorhombic'
loop_
_space_group_symop_operation_xyz
x,y,z
-x,-y,z
1/2-x,y,z
1/2+x,-y,z
loop_
_atom_site_type_symbol
_atom_site_label
_atom_site_fract_x
_atom_site_fract_y
_atom_site_fract_z
Si Si1 0.567527 0.745357 0.956820
Si Si2 0.562986 0.104458 0.092727
Si Si3 0.063865 0.601687 0.808497
Si Si4 0.564169 0.601307 0.597684
Si Si5 0.438772 0.895374 0.305487
Si Si6 0.928307 0.250766 0.454857
Si Si7 0.423879 0.587489 0.307066
Si Si8 0.061274 0.598939 0.097180
O O1 0.750000 0.756415 0.939348
O O2 0.491894 0.690127 0.869185
O O3 0.499187 0.839081 0.002746
O O4 0.528448 0.674944 0.039999
O O5 0.750000 0.106238 0.089856
O O6 0.518497 0.139783 0.199249
O O7 0.500000 0.000000 0.088243
O O8 0.250000 0.597028 0.811330
O O9 0.000000 0.500000 0.840337
O O10 0.003597 0.613451 0.702276
O O11 0.500000 0.500000 0.565693
O O12 0.750000 0.595126 0.600098
O O13 0.514778 0.690269 0.535194
O O14 0.250000 0.893098 0.308601
O O15 0.493197 0.838052 0.397743
O O16 0.500000 0.000000 0.311185
O O17 0.750000 0.231773 0.486198
O O18 0.922222 0.324255 0.370465
O O19 0.500000 0.500000 0.354964
O O20 0.250000 0.556783 0.286686
O O21 0.490688 0.606998 0.205218
O O22 0.250000 0.608820 0.087332
O O23 0.000000 0.500000 0.064194
#
# Coordination Sequence:
#
# PCOD9339399 Si02
#       8
#     4   4   4   4   4   4   4   4
#     4  12  23  35  53  79 107 140 180 223 268 322
#     4  10  20  37  58  83 112 146 184 227 274 323
#     4  11  22  39  60  82 109 143 180 224 273 326
#     4  11  22  37  56  81 110 142 179 223 270 324
#     4   9  19  35  56  80 111 145 183 227 272 320
#     4  10  19  33  52  76 104 139 178 220 267 317
#     4   9  18  30  45  66  98 135 172 210 254 307
#     4  10  19  32  47  69 102 140 177 216 260 313
#
# _framework density 18.091843999999998
#
# number of rings (size 3 to 8) (size 9 to 14) (size 15 to 20)
#    0.000    1.750    0.000    6.375    0.000    5.000 
#    0.000    1.250    0.000    0.750    0.000    3.500 
#    0.000    0.000    0.000    0.000    0.000    0.000 
#
# Total GULP energy -178268.676409 kJ/mol
# GULP energy per Si atom -5570.896138 kJ/mol
# Density = 1.805067 g / cm^3
# Si number density = 18.091844 Si / 1000 Ang^3
#
#
#
# Elastic Constant Matrix: (Units=GPa)
#
#
# Indices 1 2 3 4 5 6 
#
# 1 93.2616 30.9893 40.4505 0.0000 0.0000 0.0000
# 2 30.9893 83.3554 48.4685 0.0000 0.0000 0.0000
# 3 40.4505 48.4685 117.0760 0.0000 0.0000 0.0000
# 4 0.0000 0.0000 0.0000 34.7144 0.0000 0.0000
# 5 0.0000 0.0000 0.0000 0.0000 15.2715 0.0000
# 6 0.0000 0.0000 0.0000 0.0000 0.0000 27.7664
#
#
#
# Elastic Compliance Matrix: (Units=1/GPa)
#
#
# Indices 1 2 3 4 5 6 
#
# 1 0.013144 -0.002958 -0.003317 0.000000 0.000000 0.000000
# 2 -0.002958 0.016466 -0.005795 0.000000 0.000000 0.000000
# 3 -0.003317 -0.005795 0.012086 0.000000 0.000000 0.000000
# 4 0.000000 0.000000 0.000000 0.028807 0.000000 0.000000
# 5 0.000000 0.000000 0.000000 0.000000 0.065481 0.000000
# 6 0.000000 0.000000 0.000000 0.000000 0.000000 0.036015
#
#
# Mechanical properties :
#
#
# Convention : Reuss Voigt Hill
#
# Bulk Modulus (GPa) = 56.95619 59.27884 58.11751
# Shear Modulus (GPa) = 24.75363 27.13611 25.94487
#
# Velocity S-wave (km/s) = 3.70296 3.87707 3.79101
# Velocity P-wave (km/s) = 7.05922 7.27178 7.16629
#
# Compressibility (1/GPa) = 0.01755735
#
# Stress axis : x y z
#
# Youngs Moduli (GPa) = 76.08030 60.73117 82.73760
#
# Poissons Ratio (x) = 0.17964 0.27442
# Poissons Ratio (y) = 0.22505 0.47945
# Poissons Ratio (z) = 0.25234 0.35192
#
# Static dielectric constant tensor:
#      x y z
#    x 1.660080 0.000000 0.000000 
#    y 0.000000 1.636350 0.000000 
#    z 0.000000 0.000000 1.653010 
# 
# From -- ./inp_files/6293.got.cif
#   From: 2010.05.17/outbox.cif.g08.bks.cpg/sg28_4_cif.got.tgz:6293.got - 2010.06.04 01:15:21.
