data_PCOD9339128
_publ_section_title
;
Structure prediction by ZEFSAII (Michael W. Deem and Ramdas Pophale) SiO2 
 PCOD9339128
Probable space group: P C C 2
;
_chemical_formula_sum "Si O2"
_cell_formula_units_Z 12
_cell_length_a 5.007064
_cell_length_b 10.102360
_cell_length_c 9.962035
_cell_angle_alpha 90.000000
_cell_angle_beta 90.000000
_cell_angle_gamma 90.000000
_cell_volume 503.911241
_symmetry_space_group_name_H-M "P C C 2"
_symmetry_group_IT_number 27
_symmetry_cell_setting 'orthorhombic'
loop_
_space_group_symop_operation_xyz
x,y,z
-x,-y,z
-x,y,1/2+z
x,-y,1/2+z
loop_
_atom_site_type_symbol
_atom_site_label
_atom_site_fract_x
_atom_site_fract_y
_atom_site_fract_z
Si Si1 0.441278 0.707986 0.103400
Si Si2 0.793644 0.382622 0.844500
Si Si3 0.030729 0.153916 0.996204
O O1 0.564721 0.642888 0.235429
O O2 0.187340 0.805088 0.109529
O O3 0.680046 0.794891 0.039874
O O4 0.330752 0.603399 0.993551
O O5 0.000000 0.500000 0.811901
O O6 0.946184 0.244460 0.870134
O O7 0.000000 0.000000 0.968956
#
# Coordination Sequence:
#
# PCOD9339128 Si02
#       3
#     4   4   4
#     4  10  25  48  76 117 154 211 263 328 398 470
#     4  10  26  51  80 112 163 210 266 330 399 470
#     4  10  24  48  78 118 156 207 262 325 397 478
#
# _framework density 23.813718000000001
#
# number of rings (size 3 to 8) (size 9 to 14) (size 15 to 20)
#    2.000    0.000    0.000    1.000    4.667    4.000 
#   12.000    1.667    0.000    0.000    0.000    0.000 
#    0.000    0.000    0.000    0.000    0.000    0.000 
#
# Total GULP energy -66975.172855 kJ/mol
# GULP energy per Si atom -5581.264405 kJ/mol
# Density = 2.375952 g / cm^3
# Si number density = 23.813718 Si / 1000 Ang^3
#
#
#
# Elastic Constant Matrix: (Units=GPa)
#
#
# Indices 1 2 3 4 5 6 
#
# 1 142.4942 33.8726 36.3460 0.0000 0.0000 0.0000
# 2 33.8726 144.9968 24.3282 0.0000 0.0000 0.0000
# 3 36.3460 24.3282 121.4927 0.0000 0.0000 0.0000
# 4 0.0000 0.0000 0.0000 2.3185 0.0000 0.0000
# 5 0.0000 0.0000 0.0000 0.0000 55.8840 0.0000
# 6 0.0000 0.0000 0.0000 0.0000 0.0000 32.0325
#
#
#
# Elastic Compliance Matrix: (Units=1/GPa)
#
#
# Indices 1 2 3 4 5 6 
#
# 1 0.007901 -0.001499 -0.002063 0.000000 0.000000 0.000000
# 2 -0.001499 0.007421 -0.001037 0.000000 0.000000 0.000000
# 3 -0.002063 -0.001037 0.009056 0.000000 0.000000 0.000000
# 4 0.000000 0.000000 0.000000 0.431314 0.000000 0.000000
# 5 0.000000 0.000000 0.000000 0.000000 0.017894 0.000000
# 6 0.000000 0.000000 0.000000 0.000000 0.000000 0.031218
#
#
# Mechanical properties :
#
#
# Convention : Reuss Voigt Hill
#
# Bulk Modulus (GPa) = 65.88839 66.45305 66.17072
# Shear Modulus (GPa) = 9.63273 39.00946 24.32109
#
# Velocity S-wave (km/s) = 2.01341 4.05175 3.19925
# Velocity P-wave (km/s) = 5.75616 7.06079 6.44159
#
# Compressibility (1/GPa) = 0.01517718
#
# Stress axis : x y z
#
# Youngs Moduli (GPa) = 126.57345 134.75169 110.42468
#
# Poissons Ratio (x) = 0.20205 0.22784
# Poissons Ratio (y) = 0.18979 0.11456
# Poissons Ratio (z) = 0.26116 0.13980
#
# Static dielectric constant tensor:
#      x y z
#    x 2.337610 0.000000 0.000000 
#    y 0.000000 1.845450 0.000000 
#    z 0.000000 0.000000 1.955770 
# 
# From -- ./inp_files/1799.got.cif
#   From: 2010.05.17/outbox.cif.g08.bks.cpg/sg27_1_cif.got.tgz:1799.got - 2010.06.04 01:11:05.
