data_PCOD9339878
_publ_section_title
;
Structure prediction by ZEFSAII (Michael W. Deem and Ramdas Pophale) SiO2 
 PCOD9339878
Probable space group: P M A 2
;
_chemical_formula_sum "Si O2"
_cell_formula_units_Z 24
_cell_length_a 14.652841
_cell_length_b 8.602413
_cell_length_c 9.261113
_cell_angle_alpha 90.000000
_cell_angle_beta 90.000000
_cell_angle_gamma 90.000000
_cell_volume 1167.361348
_symmetry_space_group_name_H-M "P M A 2"
_symmetry_group_IT_number 28
_symmetry_cell_setting 'orthorhombic'
loop_
_space_group_symop_operation_xyz
x,y,z
-x,-y,z
1/2-x,y,z
1/2+x,-y,z
loop_
_atom_site_type_symbol
_atom_site_label
_atom_site_fract_x
_atom_site_fract_y
_atom_site_fract_z
Si Si1 0.425498 0.111531 0.366330
Si Si2 0.066178 0.625518 0.439872
Si Si3 0.750000 0.035862 0.881549
Si Si4 0.750000 0.925433 0.198689
Si Si5 0.354369 0.440523 0.707034
Si Si6 0.250000 0.703368 0.268499
Si Si7 0.094678 0.086630 0.679367
Si Si8 0.750000 0.401090 0.946843
O O1 0.496033 0.232558 0.438125
O O2 0.342333 0.151012 0.261707
O O3 0.377799 0.050661 0.512944
O O4 0.500000 0.000000 0.290897
O O5 0.096076 0.555738 0.595017
O O6 0.158268 0.663190 0.355395
O O7 0.000000 0.500000 0.364719
O O8 0.836111 0.990779 0.788018
O O9 0.750000 0.219142 0.908996
O O10 0.750000 0.934214 0.026840
O O11 0.750000 0.109946 0.241511
O O12 0.250000 0.414818 0.650320
O O13 0.400786 0.271964 0.709378
O O14 0.335459 0.516864 0.864106
O O15 0.250000 0.603911 0.119596
O O16 0.000000 0.000000 0.701406
#
# Coordination Sequence:
#
# PCOD9339878 Si02
#       8
#     4   4   2   2   4   2   4   2
#     4  11  24  41  71 102 126 180 230 284 350 402
#     4  12  24  42  71 102 133 173 232 290 346 411
#     4  11  24  45  64 100 134 187 228 275 346 411
#     4  11  25  44  69  95 148 177 225 290 337 421
#     4  10  22  44  68  98 136 175 228 292 347 405
#     4  11  23  48  65  97 143 184 221 278 349 419
#     4  11  24  42  69 100 133 176 232 286 339 414
#     4   9  24  41  72  94 135 188 220 279 350 405
#
# _framework density 20.559187999999999
#
# number of rings (size 3 to 8) (size 9 to 14) (size 15 to 20)
#    0.500    0.667    5.000    0.500    4.667    2.667 
#    6.000    0.833    0.000    0.000    0.000    0.000 
#    0.000    0.000    0.000    0.000    0.000    0.000 
#
# Total GULP energy -133755.908841 kJ/mol
# GULP energy per Si atom -5573.162868 kJ/mol
# Density = 2.051239 g / cm^3
# Si number density = 20.559188 Si / 1000 Ang^3
#
#
#
# Elastic Constant Matrix: (Units=GPa)
#
#
# Indices 1 2 3 4 5 6 
#
# 1 132.8425 22.4110 50.0981 0.0000 0.0000 0.0000
# 2 22.4110 47.6994 -1.6524 0.0000 0.0000 0.0000
# 3 50.0981 -1.6524 84.4243 0.0000 0.0000 0.0000
# 4 0.0000 0.0000 0.0000 16.8853 0.0000 0.0000
# 5 0.0000 0.0000 0.0000 0.0000 -1.9577 0.0000
# 6 0.0000 0.0000 0.0000 0.0000 0.0000 40.2275
#
#
#
# Elastic Compliance Matrix: (Units=1/GPa)
#
#
# Indices 1 2 3 4 5 6 
#
# 1 0.010913 -0.005355 -0.006581 0.000000 0.000000 0.000000
# 2 -0.005355 0.023607 0.003640 0.000000 0.000000 0.000000
# 3 -0.006581 0.003640 0.015821 0.000000 0.000000 0.000000
# 4 0.000000 0.000000 0.000000 0.059223 0.000000 0.000000
# 5 0.000000 0.000000 0.000000 0.000000 -0.510811 0.000000
# 6 0.000000 0.000000 0.000000 0.000000 0.000000 0.024859
#
#
# Mechanical properties :
#
#
# Convention : Reuss Voigt Hill
#
# Bulk Modulus (GPa) = 29.63059 45.18664 37.40862
# Shear Modulus (GPa) = -14.34525 23.97167 4.81321
#
# Velocity S-wave (km/s) = -2.64437 3.41835 1.53174
# Velocity P-wave (km/s) = 2.26275 6.13243 4.62205
#
# Compressibility (1/GPa) = 0.03374890
#
# Stress axis : x y z
#
# Youngs Moduli (GPa) = 91.63499 42.36067 63.20652
#
# Poissons Ratio (x) = 0.22685 0.41594
# Poissons Ratio (y) = 0.49073 -0.23006
# Poissons Ratio (z) = 0.60301 -0.15419
#
# Static dielectric constant tensor:
#      x y z
#    x 1.745140 0.000000 0.000000 
#    y 0.000000 1.905320 0.000000 
#    z 0.000000 0.000000 1.731000 
# 
# From -- ./inp_files/3420.got.cif
#   From: 2010.05.17/outbox.cif.g08.bks.cpg/sg28_2_cif.got.tgz:3420.got - 2010.06.04 01:15:21.
