data_PCOD9339970
_publ_section_title
;
Structure prediction by ZEFSAII (Michael W. Deem and Ramdas Pophale) SiO2 
 PCOD9339970
Probable space group: P M A 2
;
_chemical_formula_sum "Si O2"
_cell_formula_units_Z 32
_cell_length_a 9.000000
_cell_length_b 15.000000
_cell_length_c 12.000000
_cell_angle_alpha 90.000000
_cell_angle_beta 90.000000
_cell_angle_gamma 90.000000
_cell_volume 1620.000000
_symmetry_space_group_name_H-M "P M A 2"
_symmetry_group_IT_number 28
_symmetry_cell_setting 'orthorhombic'
loop_
_space_group_symop_operation_xyz
x,y,z
-x,-y,z
1/2-x,y,z
1/2+x,-y,z
loop_
_atom_site_type_symbol
_atom_site_label
_atom_site_fract_x
_atom_site_fract_y
_atom_site_fract_z
Si Si1 0.426645 0.786820 0.524390
Si Si2 0.075246 0.770057 0.930143
Si Si3 0.573456 0.095333 0.726328
Si Si4 0.576670 0.910167 0.079656
Si Si5 0.914780 0.833207 0.310336
Si Si6 0.579779 0.629374 0.239447
Si Si7 0.572918 0.410002 0.468230
Si Si8 0.572566 0.591433 0.983200
O O1 0.250000 0.780878 0.539566
O O2 0.486666 0.851686 0.619059
O O3 0.464760 0.829979 0.405997
O O4 0.481087 0.683934 0.521483
O O5 0.250000 0.754176 0.945192
O O6 0.052526 0.836299 0.827268
O O7 0.007504 0.825117 0.032064
O O8 0.992173 0.676691 0.920230
O O9 0.750000 0.080745 0.713424
O O10 0.500000 0.000000 0.743622
O O11 0.750000 0.907426 0.048481
O O12 0.566179 0.903934 0.213017
O O13 0.500000 0.000000 0.038289
O O14 0.750000 0.843609 0.360796
O O15 0.916945 0.736233 0.251766
O O16 0.750000 0.597643 0.258603
O O17 0.474358 0.596636 0.338208
O O18 0.534003 0.603716 0.114913
O O19 0.500000 0.500000 0.514490
O O20 0.750000 0.414935 0.477572
O O21 0.500000 0.500000 0.943727
O O22 0.750000 0.589018 0.975349
#
# Coordination Sequence:
#
# PCOD9339970 Si02
#       8
#     4   4   4   4   4   4   4   4
#     4   9  20  38  58  82 114 149 189 237 289 345
#     4  11  23  40  62  86 115 153 195 245 297 349
#     4  10  23  43  65  88 113 145 192 246 298 351
#     4  11  22  37  56  84 119 154 191 238 293 355
#     4   9  18  34  54  80 116 153 188 233 285 340
#     4   9  17  32  52  77 112 153 192 232 276 329
#     4  10  19  31  51  80 113 152 191 231 277 334
#     4  11  22  37  57  85 120 158 197 241 290 346
#
# _framework density 19.753086
#
# number of rings (size 3 to 8) (size 9 to 14) (size 15 to 20)
#    0.000    2.000    1.250    2.250    0.000    6.500 
#    0.000    3.125    0.000    1.500    0.000    0.000 
#    0.000    0.000    0.000    0.000    0.000    0.000 
#
# Total GULP energy -178551.155656 kJ/mol
# GULP energy per Si atom -5579.723614 kJ/mol
# Density = 1.970813 g / cm^3
# Si number density = 19.753086 Si / 1000 Ang^3
#
#
#
# Elastic Constant Matrix: (Units=GPa)
#
#
# Indices 1 2 3 4 5 6 
#
# 1 48.6054 67.2566 36.3445 0.0000 0.0000 0.0000
# 2 67.2566 135.1563 25.0408 0.0000 0.0000 0.0000
# 3 36.3445 25.0408 25.1127 0.0000 0.0000 0.0000
# 4 0.0000 0.0000 0.0000 5.5779 0.0000 0.0000
# 5 0.0000 0.0000 0.0000 0.0000 20.4339 0.0000
# 6 0.0000 0.0000 0.0000 0.0000 0.0000 -2.5621
#
#
#
# Elastic Compliance Matrix: (Units=1/GPa)
#
#
# Indices 1 2 3 4 5 6 
#
# 1 -0.078586 0.022121 0.091676 0.000000 0.000000 0.000000
# 2 0.022121 0.002849 -0.034855 0.000000 0.000000 0.000000
# 3 0.091676 -0.034855 -0.058103 0.000000 0.000000 0.000000
# 4 0.000000 0.000000 0.000000 0.179279 0.000000 0.000000
# 5 0.000000 0.000000 0.000000 0.000000 0.048938 0.000000
# 6 0.000000 0.000000 0.000000 0.000000 0.000000 -0.390300
#
#
# Mechanical properties :
#
#
# Convention : Reuss Voigt Hill
#
# Bulk Modulus (GPa) = 41.59067 51.79537 46.69302
# Shear Modulus (GPa) = -11.21601 10.03875 -0.58863
#
# Velocity S-wave (km/s) = -2.38546 2.25680 -0.54648
# Velocity P-wave (km/s) = 3.67610 5.75058 4.82612
#
# Compressibility (1/GPa) = 0.02404385
#
# Stress axis : x y z
#
# Youngs Moduli (GPa) = -12.72497 351.02607 -17.21087
#
# Poissons Ratio (x) = -7.76496 1.57782
# Poissons Ratio (y) = 0.28149 -0.59989
# Poissons Ratio (z) = 1.16657 12.23502
#
# Static dielectric constant tensor:
#      x y z
#    x 1.665920 0.000000 0.000000 
#    y 0.000000 1.705230 0.000000 
#    z 0.000000 0.000000 1.726700 
# 
# From -- ./inp_files/5051.got.cif
#   From: 2010.05.17/outbox.ucp.g08.bks.cvg/sg28_3_cif.got.tgz:5051.got - 2010.06.11 15:23:59.
