data_PCOD9339856
_publ_section_title
;
Structure prediction by ZEFSAII (Michael W. Deem and Ramdas Pophale) SiO2 
 PCOD9339856
Probable space group: P M A 2
;
_chemical_formula_sum "Si O2"
_cell_formula_units_Z 32
_cell_length_a 8.943031
_cell_length_b 14.785582
_cell_length_c 12.553237
_cell_angle_alpha 90.000000
_cell_angle_beta 90.000000
_cell_angle_gamma 90.000000
_cell_volume 1659.888395
_symmetry_space_group_name_H-M "P M A 2"
_symmetry_group_IT_number 28
_symmetry_cell_setting 'orthorhombic'
loop_
_space_group_symop_operation_xyz
x,y,z
-x,-y,z
1/2-x,y,z
1/2+x,-y,z
loop_
_atom_site_type_symbol
_atom_site_label
_atom_site_fract_x
_atom_site_fract_y
_atom_site_fract_z
Si Si1 0.070494 0.899722 0.782640
Si Si2 0.918582 0.844621 0.207465
Si Si3 0.929761 0.783334 0.972958
Si Si4 0.574560 0.089874 0.405076
Si Si5 0.428335 0.593867 0.042386
Si Si6 0.071346 0.405932 0.508063
Si Si7 0.928788 0.227988 0.580152
Si Si8 0.921963 0.633341 0.263531
O O1 0.250000 0.907738 0.794688
O O2 0.040376 0.840007 0.677048
O O3 0.000827 0.841559 0.878882
O O4 0.000000 0.000000 0.776913
O O5 0.750000 0.881079 0.219741
O O6 0.917858 0.741408 0.249301
O O7 0.029760 0.897605 0.282862
O O8 0.957396 0.836718 0.083787
O O9 0.750000 0.774261 0.961676
O O10 0.001316 0.683481 0.987645
O O11 0.750000 0.082529 0.417328
O O12 0.523471 0.175650 0.473108
O O13 0.500000 0.000000 0.448915
O O14 0.500000 0.500000 0.001833
O O15 0.250000 0.593797 0.030670
O O16 0.473809 0.600040 0.167689
O O17 0.250000 0.409106 0.511773
O O18 0.028707 0.390635 0.382946
O O19 0.000000 0.500000 0.542836
O O20 0.011556 0.323203 0.578345
O O21 0.750000 0.243795 0.577100
O O22 0.750000 0.600724 0.247140
#
# Coordination Sequence:
#
# PCOD9339856 Si02
#       8
#     4   4   4   4   4   4   4   4
#     4  11  24  44  69  94 119 153 202 255 308 366
#     4   9  18  35  56  82 119 156 193 240 293 352
#     4  10  22  41  63  89 122 157 201 255 307 361
#     4  11  22  35  56  85 118 156 195 239 296 359
#     4  11  21  34  56  87 124 166 207 249 299 359
#     4  11  22  36  58  87 122 163 204 248 299 357
#     4  10  23  42  62  88 121 155 199 253 302 358
#     4   9  18  33  53  82 119 162 205 247 294 350
#
# _framework density 19.278403000000001
#
# number of rings (size 3 to 8) (size 9 to 14) (size 15 to 20)
#    0.000    1.750    1.250    4.125    0.000    6.500 
#    0.000    0.625    0.000    3.000    0.000    0.000 
#    0.000    0.000    0.000    0.000    0.000    0.000 
#
# Total GULP energy -178711.350961 kJ/mol
# GULP energy per Si atom -5584.729718 kJ/mol
# Density = 1.923452 g / cm^3
# Si number density = 19.278403 Si / 1000 Ang^3
#
#
#
# Elastic Constant Matrix: (Units=GPa)
#
#
# Indices 1 2 3 4 5 6 
#
# 1 86.7800 69.0029 53.9760 0.0000 0.0000 0.0000
# 2 69.0029 144.3312 56.4915 0.0000 0.0000 0.0000
# 3 53.9760 56.4915 86.3623 0.0000 0.0000 0.0000
# 4 0.0000 0.0000 0.0000 16.9870 0.0000 0.0000
# 5 0.0000 0.0000 0.0000 0.0000 24.6013 0.0000
# 6 0.0000 0.0000 0.0000 0.0000 0.0000 35.4199
#
#
#
# Elastic Compliance Matrix: (Units=1/GPa)
#
#
# Indices 1 2 3 4 5 6 
#
# 1 0.023545 -0.007389 -0.009883 0.000000 0.000000 0.000000
# 2 -0.007389 0.011631 -0.002991 0.000000 0.000000 0.000000
# 3 -0.009883 -0.002991 0.019712 0.000000 0.000000 0.000000
# 4 0.000000 0.000000 0.000000 0.058869 0.000000 0.000000
# 5 0.000000 0.000000 0.000000 0.000000 0.040648 0.000000
# 6 0.000000 0.000000 0.000000 0.000000 0.000000 0.028233
#
#
# Mechanical properties :
#
#
# Convention : Reuss Voigt Hill
#
# Bulk Modulus (GPa) = 69.61335 75.15714 72.38524
# Shear Modulus (GPa) = 21.93465 24.60187 23.26826
#
# Velocity S-wave (km/s) = 3.37676 3.57618 3.47790
# Velocity P-wave (km/s) = 7.16877 7.49145 7.33189
#
# Compressibility (1/GPa) = 0.01436506
#
# Stress axis : x y z
#
# Youngs Moduli (GPa) = 42.47132 85.97412 50.73090
#
# Poissons Ratio (x) = 0.63523 0.50135
# Poissons Ratio (y) = 0.31381 0.15171
# Poissons Ratio (z) = 0.41973 0.25711
#
# Static dielectric constant tensor:
#      x y z
#    x 1.655990 0.000000 0.000000 
#    y 0.000000 1.678750 0.000000 
#    z 0.000000 0.000000 1.664700 
# 
# From -- ./inp_files/5033.got.cif
#   From: 2010.05.17/outbox.cif.g08.bks.cpg/sg28_3_cif.got.tgz:5033.got - 2010.06.04 01:15:21.
