data_PCOD9339718
_publ_section_title
;
Structure prediction by ZEFSAII (Michael W. Deem and Ramdas Pophale) SiO2 
 PCOD9339718
Probable space group: P M A 2
;
_chemical_formula_sum "Si O2"
_cell_formula_units_Z 32
_cell_length_a 8.721733
_cell_length_b 15.864256
_cell_length_c 12.163718
_cell_angle_alpha 90.000000
_cell_angle_beta 90.000000
_cell_angle_gamma 90.000000
_cell_volume 1683.018306
_symmetry_space_group_name_H-M "P M A 2"
_symmetry_group_IT_number 28
_symmetry_cell_setting 'orthorhombic'
loop_
_space_group_symop_operation_xyz
x,y,z
-x,-y,z
1/2-x,y,z
1/2+x,-y,z
loop_
_atom_site_type_symbol
_atom_site_label
_atom_site_fract_x
_atom_site_fract_y
_atom_site_fract_z
Si Si1 0.435442 0.250362 0.740080
Si Si2 0.434551 0.589182 0.123223
Si Si3 0.065588 0.089881 0.594165
Si Si4 0.565927 0.246844 0.984240
Si Si5 0.066493 0.411272 0.592787
Si Si6 0.433912 0.650022 0.363650
Si Si7 0.933556 0.908953 0.120770
Si Si8 0.564888 0.838449 0.359078
O O1 0.250000 0.249691 0.749453
O O2 0.481722 0.166939 0.672423
O O3 0.508403 0.251021 0.859796
O O4 0.478776 0.332972 0.670017
O O5 0.500000 0.500000 0.085305
O O6 0.250000 0.585682 0.120780
O O7 0.482387 0.606782 0.249302
O O8 0.483155 0.668821 0.049777
O O9 0.250000 0.085957 0.596107
O O10 0.018480 0.112110 0.469159
O O11 0.000000 0.000000 0.628021
O O12 0.750000 0.242497 0.987926
O O13 0.498291 0.165183 0.044756
O O14 0.250000 0.415143 0.589716
O O15 0.000000 0.500000 0.632427
O O16 0.005425 0.393202 0.470388
O O17 0.250000 0.646777 0.370862
O O18 0.488941 0.746685 0.359904
O O19 0.750000 0.910516 0.112777
O O20 0.975726 0.886472 0.247051
O O21 0.000000 0.000000 0.091275
O O22 0.750000 0.827733 0.362062
#
# Coordination Sequence:
#
# PCOD9339718 Si02
#       8
#     4   4   4   4   4   4   4   4
#     4  10  23  43  63  84 119 161 203 251 303 359
#     4  10  23  40  60  89 122 157 196 246 300 358
#     4  10  21  39  61  89 122 155 195 241 296 355
#     4  11  24  43  63  87 121 157 206 259 303 357
#     4  11  23  41  63  90 125 160 201 250 301 362
#     4  11  21  36  61  92 125 159 198 244 302 364
#     4  11  23  39  64  93 124 162 202 246 304 364
#     4  10  20  37  61  90 124 161 195 241 303 363
#
# _framework density 19.013459000000001
#
# number of rings (size 3 to 8) (size 9 to 14) (size 15 to 20)
#    0.000    1.500    2.500    2.250    0.000    6.500 
#    0.000    3.750    0.000    0.000    0.000    0.000 
#    0.000    0.000    0.000    0.000    0.000    0.000 
#
# Total GULP energy -178895.123694 kJ/mol
# GULP energy per Si atom -5590.472615 kJ/mol
# Density = 1.897018 g / cm^3
# Si number density = 19.013459 Si / 1000 Ang^3
#
#
#
# Elastic Constant Matrix: (Units=GPa)
#
#
# Indices 1 2 3 4 5 6 
#
# 1 29.1921 46.6300 41.5155 0.0000 0.0000 0.0000
# 2 46.6300 203.8650 89.7943 0.0000 0.0000 0.0000
# 3 41.5155 89.7943 152.4372 0.0000 0.0000 0.0000
# 4 0.0000 0.0000 0.0000 -3.0595 0.0000 0.0000
# 5 0.0000 0.0000 0.0000 0.0000 54.7924 0.0000
# 6 0.0000 0.0000 0.0000 0.0000 0.0000 37.5126
#
#
#
# Elastic Compliance Matrix: (Units=1/GPa)
#
#
# Indices 1 2 3 4 5 6 
#
# 1 0.068360 -0.010041 -0.012703 0.000000 0.000000 0.000000
# 2 -0.010041 0.008099 -0.002036 0.000000 0.000000 0.000000
# 3 -0.012703 -0.002036 0.011219 0.000000 0.000000 0.000000
# 4 0.000000 0.000000 0.000000 -0.326854 0.000000 0.000000
# 5 0.000000 0.000000 0.000000 0.000000 0.018251 0.000000
# 6 0.000000 0.000000 0.000000 0.000000 0.000000 0.026658
#
#
# Mechanical properties :
#
#
# Convention : Reuss Voigt Hill
#
# Bulk Modulus (GPa) = 26.23424 82.37489 54.30457
# Shear Modulus (GPa) = -37.87797 31.68605 -3.09596
#
# Velocity S-wave (km/s) = -4.46821 4.08672 -1.27743
# Velocity P-wave (km/s) = 3.57662 8.10475 5.14270
#
# Compressibility (1/GPa) = 0.03811812
#
# Stress axis : x y z
#
# Youngs Moduli (GPa) = 14.62845 123.47785 89.13498
#
# Poissons Ratio (x) = 1.23982 1.13227
# Poissons Ratio (y) = 0.14688 0.18148
# Poissons Ratio (z) = 0.18582 0.25140
#
# Static dielectric constant tensor:
#      x y z
#    x 1.641620 0.000000 0.000000 
#    y 0.000000 1.643440 0.000000 
#    z 0.000000 0.000000 1.642120 
# 
# From -- ./inp_files/4986.got.cif
#   From: 2010.05.17/outbox.cif.g08.bks.cpg/sg28_3_cif.got.tgz:4986.got - 2010.06.04 01:15:21.
