data_PCOD9339323
_publ_section_title
;
Structure prediction by ZEFSAII (Michael W. Deem and Ramdas Pophale) SiO2 
 PCOD9339323
Probable space group: P M A 2
;
_chemical_formula_sum "Si O2"
_cell_formula_units_Z 28
_cell_length_a 8.591520
_cell_length_b 9.369819
_cell_length_c 18.727849
_cell_angle_alpha 90.000000
_cell_angle_beta 90.000000
_cell_angle_gamma 90.000000
_cell_volume 1507.610335
_symmetry_space_group_name_H-M "P M A 2"
_symmetry_group_IT_number 28
_symmetry_cell_setting 'orthorhombic'
loop_
_space_group_symop_operation_xyz
x,y,z
-x,-y,z
1/2-x,y,z
1/2+x,-y,z
loop_
_atom_site_type_symbol
_atom_site_label
_atom_site_fract_x
_atom_site_fract_y
_atom_site_fract_z
Si Si1 0.563822 0.660818 0.468860
Si Si2 0.562136 0.339863 0.039050
Si Si3 0.937113 0.161547 0.899432
Si Si4 0.435907 0.162583 0.750035
Si Si5 0.064038 0.838605 0.601385
Si Si6 0.062148 0.839994 0.177081
Si Si7 0.937367 0.339381 0.316046
O O1 0.500000 0.500000 0.475667
O O2 0.750000 0.660240 0.470335
O O3 0.497159 0.752529 0.533632
O O4 0.504891 0.713411 0.391525
O O5 0.500000 0.500000 0.040374
O O6 0.750000 0.344447 0.040402
O O7 0.509488 0.251258 0.108505
O O8 0.516048 0.256397 0.967121
O O9 0.750000 0.155200 0.894995
O O10 0.003144 0.223162 0.824971
O O11 0.000000 0.000000 0.908425
O O12 0.250000 0.160967 0.748603
O O13 0.501203 0.225398 0.676289
O O14 0.500000 0.000000 0.750658
O O15 0.250000 0.841640 0.603066
O O16 0.000000 0.000000 0.596384
O O17 0.250000 0.844446 0.175624
O O18 0.015934 0.759721 0.249880
O O19 0.000000 0.000000 0.174227
O O20 0.750000 0.344603 0.320535
O O21 0.000000 0.500000 0.304705
#
# Coordination Sequence:
#
# PCOD9339323 Si02
#       7
#     4   4   4   4   4   4   4
#     4  11  22  38  58  82 112 148 187 227 276 330
#     4  10  22  38  56  80 110 144 182 223 269 323
#     4  10  19  33  54  80 108 140 181 226 273 324
#     4  10  18  31  52  79 109 143 182 224 275 328
#     4  11  21  36  57  83 113 146 186 231 278 328
#     4  10  22  38  57  83 112 142 180 225 271 322
#     4  10  20  36  57  81 109 143 184 226 272 327
#
# _framework density 18.57244
#
# number of rings (size 3 to 8) (size 9 to 14) (size 15 to 20)
#    0.000    1.714    0.000    8.143    0.000    3.429 
#    0.000    2.143    0.000    1.714    0.000    0.000 
#    0.000    0.000    0.000    0.000    0.000    0.000 
#
# Total GULP energy -156398.223037 kJ/mol
# GULP energy per Si atom -5585.650823 kJ/mol
# Density = 1.853017 g / cm^3
# Si number density = 18.572440 Si / 1000 Ang^3
#
#
#
# Elastic Constant Matrix: (Units=GPa)
#
#
# Indices 1 2 3 4 5 6 
#
# 1 116.2435 34.5217 72.3428 0.0000 0.0000 0.0000
# 2 34.5217 91.1351 99.0394 0.0000 0.0000 0.0000
# 3 72.3428 99.0394 233.6133 0.0000 0.0000 0.0000
# 4 0.0000 0.0000 0.0000 240.5605 0.0000 0.0000
# 5 0.0000 0.0000 0.0000 0.0000 -30.7968 0.0000
# 6 0.0000 0.0000 0.0000 0.0000 0.0000 28.9706
#
#
#
# Elastic Compliance Matrix: (Units=1/GPa)
#
#
# Indices 1 2 3 4 5 6 
#
# 1 0.010691 -0.000838 -0.002955 0.000000 0.000000 0.000000
# 2 -0.000838 0.020412 -0.008394 0.000000 0.000000 0.000000
# 3 -0.002955 -0.008394 0.008754 0.000000 0.000000 0.000000
# 4 0.000000 0.000000 0.000000 0.004157 0.000000 0.000000
# 5 0.000000 0.000000 0.000000 0.000000 -0.032471 0.000000
# 6 0.000000 0.000000 0.000000 0.000000 0.000000 0.034518
#
#
# Mechanical properties :
#
#
# Convention : Reuss Voigt Hill
#
# Bulk Modulus (GPa) = 64.58904 94.75552 79.67228
# Shear Modulus (GPa) = 66.13976 63.41940 64.77958
#
# Velocity S-wave (km/s) = 5.97403 5.84989 5.91229
# Velocity P-wave (km/s) = 9.07952 9.83659 9.46563
#
# Compressibility (1/GPa) = 0.01548250
#
# Stress axis : x y z
#
# Youngs Moduli (GPa) = 93.53921 48.98961 114.22718
#
# Poissons Ratio (x) = 0.04105 0.33758
# Poissons Ratio (y) = 0.07838 0.95886
# Poissons Ratio (z) = 0.27644 0.41123
#
# Static dielectric constant tensor:
#      x y z
#    x 1.624620 0.000000 0.000000 
#    y 0.000000 1.593500 0.000000 
#    z 0.000000 0.000000 1.669380 
# 
# From -- ./inp_files/6849.got.cif
#   From: 2010.05.17/outbox.cif.g08.bks.cpg/sg28_4_cif.got.tgz:6849.got - 2010.06.04 01:15:21.
