data_PCOD9339513
_publ_section_title
;
Structure prediction by ZEFSAII (Michael W. Deem and Ramdas Pophale) SiO2 
 PCOD9339513
Probable space group: P M A 2
;
_chemical_formula_sum "Si O2"
_cell_formula_units_Z 24
_cell_length_a 8.251470
_cell_length_b 27.409027
_cell_length_c 5.268779
_cell_angle_alpha 90.000000
_cell_angle_beta 90.000000
_cell_angle_gamma 90.000000
_cell_volume 1191.612159
_symmetry_space_group_name_H-M "P M A 2"
_symmetry_group_IT_number 28
_symmetry_cell_setting 'orthorhombic'
loop_
_space_group_symop_operation_xyz
x,y,z
-x,-y,z
1/2-x,y,z
1/2+x,-y,z
loop_
_atom_site_type_symbol
_atom_site_label
_atom_site_fract_x
_atom_site_fract_y
_atom_site_fract_z
Si Si1 0.560195 0.223398 0.072390
Si Si2 0.554468 0.944310 0.654641
Si Si3 0.551923 0.612483 0.674876
Si Si4 0.058065 0.276960 0.574682
Si Si5 0.554271 0.555600 0.173847
Si Si6 0.553484 0.886797 0.155274
O O1 0.750000 0.225110 0.018946
O O2 0.521760 0.254759 0.323488
O O3 0.507522 0.168071 0.127158
O O4 0.471637 0.244389 0.823858
O O5 0.750000 0.943730 0.653545
O O6 0.498629 0.912556 0.414393
O O7 0.500000 0.000000 0.636025
O O8 0.500050 0.919106 0.915363
O O9 0.750000 0.612969 0.678942
O O10 0.499801 0.668202 0.635088
O O11 0.499756 0.579418 0.438041
O O12 0.497560 0.588367 0.937561
O O13 0.250000 0.279029 0.523853
O O14 0.500000 0.500000 0.148224
O O15 0.750000 0.556434 0.173060
O O16 0.750000 0.885395 0.156699
#
# Coordination Sequence:
#
# PCOD9339513 Si02
#       6
#     4   4   4   4   4   4
#     4  12  25  40  60  92 126 154 191 252 310 348
#     4  10  21  36  57  83 112 146 191 240 286 337
#     4   9  19  35  57  80 106 144 193 236 274 336
#     4  11  22  41  66  87 113 160 207 242 289 359
#     4  10  19  34  54  80 110 142 183 232 282 338
#     4  10  21  38  58  82 112 154 199 234 276 350
#
# _framework density 20.140782000000002
#
# number of rings (size 3 to 8) (size 9 to 14) (size 15 to 20)
#    0.000    1.667    0.000    5.000    0.000    5.333 
#    0.000    5.000    0.000    0.000    0.000    0.000 
#    0.000    0.000    0.000    0.000    0.000    0.000 
#
# Total GULP energy -134197.604814 kJ/mol
# GULP energy per Si atom -5591.566867 kJ/mol
# Density = 2.009494 g / cm^3
# Si number density = 20.140782 Si / 1000 Ang^3
#
#
#
# Elastic Constant Matrix: (Units=GPa)
#
#
# Indices 1 2 3 4 5 6 
#
# 1 12.4550 -1.5770 -4.8834 0.0000 0.0000 0.0000
# 2 -1.5770 60.4133 -26.5050 0.0000 0.0000 0.0000
# 3 -4.8834 -26.5050 65.1253 0.0000 0.0000 0.0000
# 4 0.0000 0.0000 0.0000 44.1909 0.0000 0.0000
# 5 0.0000 0.0000 0.0000 0.0000 16.0399 0.0000
# 6 0.0000 0.0000 0.0000 0.0000 0.0000 39.1197
#
#
#
# Elastic Compliance Matrix: (Units=1/GPa)
#
#
# Indices 1 2 3 4 5 6 
#
# 1 0.084511 0.006070 0.008807 0.000000 0.000000 0.000000
# 2 0.006070 0.020587 0.008834 0.000000 0.000000 0.000000
# 3 0.008807 0.008834 0.019611 0.000000 0.000000 0.000000
# 4 0.000000 0.000000 0.000000 0.022629 0.000000 0.000000
# 5 0.000000 0.000000 0.000000 0.000000 0.062344 0.000000
# 6 0.000000 0.000000 0.000000 0.000000 0.000000 0.025563
#
#
# Mechanical properties :
#
#
# Convention : Reuss Voigt Hill
#
# Bulk Modulus (GPa) = 5.80956 8.00699 6.90828
# Shear Modulus (GPa) = 20.39165 31.26738 25.82951
#
# Velocity S-wave (km/s) = 3.18536 3.94438 3.58501
# Velocity P-wave (km/s) = 4.05209 4.97276 4.53584
#
# Compressibility (1/GPa) = 0.17213004
#
# Stress axis : x y z
#
# Youngs Moduli (GPa) = 11.83283 48.57519 50.99295
#
# Poissons Ratio (x) = -0.29486 -0.44912
# Poissons Ratio (y) = -0.07183 -0.45045
# Poissons Ratio (z) = -0.10422 -0.42909
#
# Static dielectric constant tensor:
#      x y z
#    x 1.702480 0.000000 0.000000 
#    y 0.000000 1.664640 0.000000 
#    z 0.000000 0.000000 1.686090 
# 
# From -- ./inp_files/224.got.cif
#   From: 2010.05.17/outbox.cif.g08.bks.cpg/sg28_1_cif.got.tgz:224.got - 2010.06.04 01:15:21.
