data_PCOD9339514
_publ_section_title
;
Structure prediction by ZEFSAII (Michael W. Deem and Ramdas Pophale) SiO2 
 PCOD9339514
Probable space group: P M A 2
;
_chemical_formula_sum "Si O2"
_cell_formula_units_Z 32
_cell_length_a 8.386696
_cell_length_b 35.252870
_cell_length_c 5.084570
_cell_angle_alpha 90.000000
_cell_angle_beta 90.000000
_cell_angle_gamma 90.000000
_cell_volume 1503.279071
_symmetry_space_group_name_H-M "P M A 2"
_symmetry_group_IT_number 28
_symmetry_cell_setting 'orthorhombic'
loop_
_space_group_symop_operation_xyz
x,y,z
-x,-y,z
1/2-x,y,z
1/2+x,-y,z
loop_
_atom_site_type_symbol
_atom_site_label
_atom_site_fract_x
_atom_site_fract_y
_atom_site_fract_z
Si Si1 0.555630 0.412379 0.563080
Si Si2 0.062501 0.789643 0.034617
Si Si3 0.943059 0.088893 0.724594
Si Si4 0.941295 0.042266 0.220517
Si Si5 0.942304 0.457825 0.065111
Si Si6 0.562358 0.710936 0.271884
Si Si7 0.439671 0.669523 0.770513
Si Si8 0.436674 0.169608 0.528176
O O1 0.750000 0.410907 0.557509
O O2 0.502282 0.427317 0.280895
O O3 0.503857 0.370855 0.655375
O O4 0.506821 0.443220 0.779820
O O5 0.250000 0.785929 0.987395
O O6 0.994955 0.750902 0.155262
O O7 0.030295 0.820923 0.260609
O O8 0.980762 0.801205 0.761355
O O9 0.750000 0.093569 0.726626
O O10 0.985742 0.057405 0.507287
O O11 0.017815 0.128513 0.639978
O O12 0.996780 0.072684 0.004471
O O13 0.750000 0.041603 0.205636
O O14 0.000000 0.000000 0.168718
O O15 0.750000 0.458107 0.069978
O O16 0.000000 0.500000 0.123333
O O17 0.750000 0.712024 0.322233
O O18 0.475304 0.699955 0.542256
O O19 0.521337 0.680721 0.043411
O O20 0.250000 0.667620 0.818842
O O21 0.250000 0.172087 0.469545
#
# Coordination Sequence:
#
# PCOD9339514 Si02
#       8
#     4   4   4   4   4   4   4   4
#     4   9  19  35  57  80 109 147 193 240 285 343
#     4  12  25  44  67  91 122 166 209 246 295 368
#     4  10  21  38  58  84 117 158 200 243 296 363
#     4  10  21  36  57  83 115 153 199 248 297 351
#     4  10  19  34  54  80 110 146 187 236 291 345
#     4  12  25  42  62  92 129 159 193 252 312 356
#     4  11  22  41  66  90 116 160 211 248 291 364
#     4  12  25  42  65  96 127 159 202 259 312 356
#
# _framework density 21.286801000000001
#
# number of rings (size 3 to 8) (size 9 to 14) (size 15 to 20)
#    0.000    1.250    0.000    6.750    0.000    4.000 
#    0.000    3.750    0.000    0.000    0.000    0.000 
#    0.000    0.000    0.000    0.000    0.000    0.000 
#
# Total GULP energy -179076.790260 kJ/mol
# GULP energy per Si atom -5596.149696 kJ/mol
# Density = 2.123835 g / cm^3
# Si number density = 21.286801 Si / 1000 Ang^3
#
#
#
# Elastic Constant Matrix: (Units=GPa)
#
#
# Indices 1 2 3 4 5 6 
#
# 1 33.4468 -0.4517 -8.9851 0.0000 0.0000 0.0000
# 2 -0.4517 55.8311 -30.2743 0.0000 0.0000 0.0000
# 3 -8.9851 -30.2743 54.0916 0.0000 0.0000 0.0000
# 4 0.0000 0.0000 0.0000 40.2640 0.0000 0.0000
# 5 0.0000 0.0000 0.0000 0.0000 18.7283 0.0000
# 6 0.0000 0.0000 0.0000 0.0000 0.0000 29.1578
#
#
#
# Elastic Compliance Matrix: (Units=1/GPa)
#
#
# Indices 1 2 3 4 5 6 
#
# 1 0.032070 0.004520 0.007857 0.000000 0.000000 0.000000
# 2 0.004520 0.026353 0.015500 0.000000 0.000000 0.000000
# 3 0.007857 0.015500 0.028467 0.000000 0.000000 0.000000
# 4 0.000000 0.000000 0.000000 0.024836 0.000000 0.000000
# 5 0.000000 0.000000 0.000000 0.000000 0.053395 0.000000
# 6 0.000000 0.000000 0.000000 0.000000 0.000000 0.034296
#
#
# Mechanical properties :
#
#
# Convention : Reuss Voigt Hill
#
# Bulk Modulus (GPa) = 7.01052 7.10525 7.05788
# Shear Modulus (GPa) = 26.14902 29.83540 27.99221
#
# Velocity S-wave (km/s) = 3.50868 3.74785 3.63023
# Velocity P-wave (km/s) = 4.44015 4.69825 4.57102
#
# Compressibility (1/GPa) = 0.14264273
#
# Stress axis : x y z
#
# Youngs Moduli (GPa) = 31.18188 37.94703 35.12803
#
# Poissons Ratio (x) = -0.17151 -0.27599
# Poissons Ratio (y) = -0.14094 -0.54448
# Poissons Ratio (z) = -0.24499 -0.58818
#
# Static dielectric constant tensor:
#      x y z
#    x 1.736170 0.000000 0.000000 
#    y 0.000000 1.759550 0.000000 
#    z 0.000000 0.000000 1.746070 
# 
# From -- ./inp_files/248.got.cif
#   From: 2010.05.17/outbox.cif.g08.bks.cpg/sg28_1_cif.got.tgz:248.got - 2010.06.04 01:15:21.
