data_PCOD9339549
_publ_section_title
;
Structure prediction by ZEFSAII (Michael W. Deem and Ramdas Pophale) SiO2 
 PCOD9339549
Probable space group: P M A 2
;
_chemical_formula_sum "Si O2"
_cell_formula_units_Z 24
_cell_length_a 8.909177
_cell_length_b 14.438044
_cell_length_c 10.383987
_cell_angle_alpha 90.000000
_cell_angle_beta 90.000000
_cell_angle_gamma 90.000000
_cell_volume 1335.703561
_symmetry_space_group_name_H-M "P M A 2"
_symmetry_group_IT_number 28
_symmetry_cell_setting 'orthorhombic'
loop_
_space_group_symop_operation_xyz
x,y,z
-x,-y,z
1/2-x,y,z
1/2+x,-y,z
loop_
_atom_site_type_symbol
_atom_site_label
_atom_site_fract_x
_atom_site_fract_y
_atom_site_fract_z
Si Si1 0.070171 0.714961 0.944570
Si Si2 0.428988 0.398606 0.709646
Si Si3 0.429975 0.099011 0.860828
Si Si4 0.570521 0.708904 0.442425
Si Si5 0.569753 0.901859 0.557680
Si Si6 0.929284 0.397854 0.203455
O O1 0.250000 0.721265 0.934027
O O2 0.003238 0.660468 0.822967
O O3 0.999116 0.817009 0.941086
O O4 0.032676 0.657787 0.073169
O O5 0.500000 0.500000 0.708325
O O6 0.250000 0.403438 0.730535
O O7 0.455049 0.348963 0.573078
O O8 0.250000 0.097294 0.872367
O O9 0.467392 0.114953 0.708819
O O10 0.500000 0.000000 0.896244
O O11 0.750000 0.709433 0.418676
O O12 0.521318 0.814109 0.473088
O O13 0.488797 0.660144 0.324680
O O14 0.750000 0.907791 0.550700
O O15 0.500000 0.000000 0.519567
O O16 0.750000 0.406819 0.210893
O O17 0.000000 0.500000 0.202269
#
# Coordination Sequence:
#
# PCOD9339549 Si02
#       6
#     4   4   4   4   4   4
#     4  11  23  39  59  86 117 154 199 242 290 349
#     4  11  22  37  57  85 116 147 192 245 295 351
#     4  10  19  35  59  89 122 154 192 240 293 348
#     4  10  21  39  60  85 117 152 194 239 290 349
#     4   9  18  34  56  87 119 150 187 233 286 343
#     4  11  25  42  60  84 115 155 200 241 292 352
#
# _framework density 17.968059
#
# number of rings (size 3 to 8) (size 9 to 14) (size 15 to 20)
#    0.000    1.667    1.667    3.000    0.000    8.000 
#    0.000    0.833    0.000    2.000    0.000    0.000 
#    0.000    0.000    0.000    0.000    0.000    0.000 
#
# Total GULP energy -134100.155849 kJ/mol
# GULP energy per Si atom -5587.506494 kJ/mol
# Density = 1.792716 g / cm^3
# Si number density = 17.968059 Si / 1000 Ang^3
#
#
#
# Elastic Constant Matrix: (Units=GPa)
#
#
# Indices 1 2 3 4 5 6 
#
# 1 59.4217 67.2043 62.3996 0.0000 0.0000 0.0000
# 2 67.2043 193.6611 77.5953 0.0000 0.0000 0.0000
# 3 62.3996 77.5953 107.1952 0.0000 0.0000 0.0000
# 4 0.0000 0.0000 0.0000 25.1197 0.0000 0.0000
# 5 0.0000 0.0000 0.0000 0.0000 21.9498 0.0000
# 6 0.0000 0.0000 0.0000 0.0000 0.0000 38.1182
#
#
#
# Elastic Compliance Matrix: (Units=1/GPa)
#
#
# Indices 1 2 3 4 5 6 
#
# 1 0.051107 -0.008191 -0.023821 0.000000 0.000000 0.000000
# 2 -0.008191 0.008586 -0.001447 0.000000 0.000000 0.000000
# 3 -0.023821 -0.001447 0.024243 0.000000 0.000000 0.000000
# 4 0.000000 0.000000 0.000000 0.039809 0.000000 0.000000
# 5 0.000000 0.000000 0.000000 0.000000 0.045558 0.000000
# 6 0.000000 0.000000 0.000000 0.000000 0.000000 0.026234
#
#
# Mechanical properties :
#
#
# Convention : Reuss Voigt Hill
#
# Bulk Modulus (GPa) = 58.76115 86.07515 72.41815
# Shear Modulus (GPa) = 18.64774 27.24280 22.94527
#
# Velocity S-wave (km/s) = 3.22503 3.89804 3.57739
# Velocity P-wave (km/s) = 6.82948 8.26245 7.57991
#
# Compressibility (1/GPa) = 0.01701805
#
# Stress axis : x y z
#
# Youngs Moduli (GPa) = 19.56663 116.47117 41.24913
#
# Poissons Ratio (x) = 0.95398 0.98261
# Poissons Ratio (y) = 0.16026 0.05969
# Poissons Ratio (z) = 0.46610 0.16855
#
# Static dielectric constant tensor:
#      x y z
#    x 1.598820 0.000000 0.000000 
#    y 0.000000 1.613400 0.000000 
#    z 0.000000 0.000000 1.590420 
# 
# From -- ./inp_files/2432.got.cif
#   From: 2010.05.17/outbox.cif.g08.bks.cpg/sg28_2_cif.got.tgz:2432.got - 2010.06.04 01:15:21.
