data_PCOD9339944
_publ_section_title
;
Structure prediction by ZEFSAII (Michael W. Deem and Ramdas Pophale) SiO2 
 PCOD9339944
Probable space group: P M A 2
;
_chemical_formula_sum "Si O2"
_cell_formula_units_Z 18
_cell_length_a 17.267088
_cell_length_b 6.931847
_cell_length_c 6.280298
_cell_angle_alpha 90.000000
_cell_angle_beta 90.000000
_cell_angle_gamma 90.000000
_cell_volume 751.706529
_symmetry_space_group_name_H-M "P M A 2"
_symmetry_group_IT_number 28
_symmetry_cell_setting 'orthorhombic'
loop_
_space_group_symop_operation_xyz
x,y,z
-x,-y,z
1/2-x,y,z
1/2+x,-y,z
loop_
_atom_site_type_symbol
_atom_site_label
_atom_site_fract_x
_atom_site_fract_y
_atom_site_fract_z
Si Si1 0.582920 0.720922 0.946220
Si Si2 0.553394 0.264309 0.593606
Si Si3 0.341430 0.445423 0.333597
Si Si4 0.332337 0.084199 0.616997
Si Si5 0.500000 0.000000 0.227049
O O1 0.489869 0.302247 0.779545
O O2 0.658110 0.765746 0.807667
O O3 0.607955 0.556674 0.114958
O O4 0.565033 0.917982 0.072941
O O5 0.610687 0.431913 0.510219
O O6 0.604148 0.077813 0.648234
O O7 0.514512 0.183686 0.377653
O O8 0.250000 0.504689 0.311064
O O9 0.339345 0.223605 0.414272
O O10 0.250000 0.985542 0.612255
#
# Coordination Sequence:
#
# PCOD9339944 Si02
#       5
#     4   4   4   4   2
#     4  12  23  47  73 108 148 196 257 313 379 457
#     4  12  24  46  73 109 149 198 259 319 378 464
#     4  11  27  47  73 113 156 206 253 315 399 466
#     4  11  23  44  70 103 152 197 247 319 382 460
#     4  12  22  42  72 110 140 188 258 312 382 438
#
# _framework density 23.945513999999999
#
# number of rings (size 3 to 8) (size 9 to 14) (size 15 to 20)
#    0.000    0.444    6.667    1.333    0.000    7.111 
#    0.000    0.000    0.000    0.000    0.000    3.111 
#    0.000    0.000    0.000    0.000    0.000    0.000 
#
# Total GULP energy -100380.445176 kJ/mol
# GULP energy per Si atom -5576.691399 kJ/mol
# Density = 2.389101 g / cm^3
# Si number density = 23.945514 Si / 1000 Ang^3
#
#
#
# Elastic Constant Matrix: (Units=GPa)
#
#
# Indices 1 2 3 4 5 6 
#
# 1 169.4234 42.7231 67.2365 0.0000 0.0000 0.0000
# 2 42.7231 80.5112 28.7121 0.0000 0.0000 0.0000
# 3 67.2365 28.7121 126.5279 0.0000 0.0000 0.0000
# 4 0.0000 0.0000 0.0000 39.6934 0.0000 0.0000
# 5 0.0000 0.0000 0.0000 0.0000 10.9975 0.0000
# 6 0.0000 0.0000 0.0000 0.0000 0.0000 30.4203
#
#
#
# Elastic Compliance Matrix: (Units=1/GPa)
#
#
# Indices 1 2 3 4 5 6 
#
# 1 0.008097 -0.003006 -0.003621 0.000000 0.000000 0.000000
# 2 -0.003006 0.014630 -0.001723 0.000000 0.000000 0.000000
# 3 -0.003621 -0.001723 0.010218 0.000000 0.000000 0.000000
# 4 0.000000 0.000000 0.000000 0.025193 0.000000 0.000000
# 5 0.000000 0.000000 0.000000 0.000000 0.090930 0.000000
# 6 0.000000 0.000000 0.000000 0.000000 0.000000 0.032873
#
#
# Mechanical properties :
#
#
# Convention : Reuss Voigt Hill
#
# Bulk Modulus (GPa) = 61.54841 72.64511 67.09676
# Shear Modulus (GPa) = 24.50315 32.07495 28.28905
#
# Velocity S-wave (km/s) = 3.20236 3.66388 3.44087
# Velocity P-wave (km/s) = 6.27955 6.94998 6.62326
#
# Compressibility (1/GPa) = 0.01624737
#
# Stress axis : x y z
#
# Youngs Moduli (GPa) = 123.49955 68.35329 97.86259
#
# Poissons Ratio (x) = 0.20544 0.35434
# Poissons Ratio (y) = 0.37118 0.16859
# Poissons Ratio (z) = 0.44717 0.11776
#
# Static dielectric constant tensor:
#      x y z
#    x 1.977510 0.000000 0.000000 
#    y 0.000000 1.902570 0.000000 
#    z 0.000000 0.000000 1.970900 
# 
# From -- ./inp_files/1493.got.cif
#   From: 2010.05.17/outbox.cif.g08.bks.cpg/sg28_1_cif.got.tgz:1493.got - 2010.06.04 01:15:21.
