data_PCOD9339203
_publ_section_title
;
Structure prediction by ZEFSAII (Michael W. Deem and Ramdas Pophale) SiO2 
 PCOD9339203
Probable space group: P C C 2
;
_chemical_formula_sum "Si O2"
_cell_formula_units_Z 18
_cell_length_a 5.285224
_cell_length_b 5.300881
_cell_length_c 25.522436
_cell_angle_alpha 90.000000
_cell_angle_beta 90.000000
_cell_angle_gamma 90.000000
_cell_volume 715.045333
_symmetry_space_group_name_H-M "P C C 2"
_symmetry_group_IT_number 27
_symmetry_cell_setting 'orthorhombic'
loop_
_space_group_symop_operation_xyz
x,y,z
-x,-y,z
-x,y,1/2+z
x,-y,1/2+z
loop_
_atom_site_type_symbol
_atom_site_label
_atom_site_fract_x
_atom_site_fract_y
_atom_site_fract_z
Si Si1 0.500000 0.500000 0.976090
Si Si2 0.243021 0.838965 0.824760
Si Si3 0.872170 0.248788 0.606727
Si Si4 0.500000 0.000000 0.539312
Si Si5 0.654797 0.737394 0.211942
Si Si6 0.000000 0.500000 0.914268
O O1 0.239564 0.404916 0.947777
O O2 0.594487 0.228866 0.001035
O O3 0.282988 0.677480 0.772075
O O4 0.146287 0.691639 0.875259
O O5 0.500000 0.000000 0.834142
O O6 0.000000 0.000000 0.808714
O O7 0.601038 0.204009 0.582887
O O8 0.875249 0.239168 0.669466
O O9 0.000000 0.500000 0.587879
O O10 0.000000 0.000000 0.583692
O O11 0.500000 0.500000 0.190995
O O12 0.500000 0.000000 0.211846
#
# Coordination Sequence:
#
# PCOD9339203 Si02
#       6
#     2   4   4   2   4   2
#     4  12  32  52  86 112 164 210 290 340 426 456
#     4  11  27  48  81 116 164 210 264 329 404 492
#     4  12  26  46  81 113 159 209 261 328 406 490
#     4  12  30  54  76 118 156 212 272 358 394 504
#     4  11  25  45  74 117 163 207 258 317 400 494
#     4  12  30  52  82 118 154 222 270 358 398 498
#
# _framework density 25.17323
#
# number of rings (size 3 to 8) (size 9 to 14) (size 15 to 20)
#    0.000    0.444    1.111    4.667   20.222    0.000 
#    0.000    0.000    0.000    0.000    0.000    0.000 
#    0.000    0.000    0.000    0.000    0.000    0.000 
#
# Total GULP energy -100260.025674 kJ/mol
# GULP energy per Si atom -5570.001426 kJ/mol
# Density = 2.511593 g / cm^3
# Si number density = 25.173230 Si / 1000 Ang^3
#
#
#
# Elastic Constant Matrix: (Units=GPa)
#
#
# Indices 1 2 3 4 5 6 
#
# 1 120.1809 49.3376 43.8252 0.0000 0.0000 0.0000
# 2 49.3376 176.5191 41.0272 0.0000 0.0000 0.0000
# 3 43.8252 41.0272 84.3650 0.0000 0.0000 0.0000
# 4 0.0000 0.0000 0.0000 18.6847 0.0000 0.0000
# 5 0.0000 0.0000 0.0000 0.0000 28.0994 0.0000
# 6 0.0000 0.0000 0.0000 0.0000 0.0000 53.6554
#
#
#
# Elastic Compliance Matrix: (Units=1/GPa)
#
#
# Indices 1 2 3 4 5 6 
#
# 1 0.010823 -0.001937 -0.004680 0.000000 0.000000 0.000000
# 2 -0.001937 0.006734 -0.002268 0.000000 0.000000 0.000000
# 3 -0.004680 -0.002268 0.015387 0.000000 0.000000 0.000000
# 4 0.000000 0.000000 0.000000 0.053520 0.000000 0.000000
# 5 0.000000 0.000000 0.000000 0.000000 0.035588 0.000000
# 6 0.000000 0.000000 0.000000 0.000000 0.000000 0.018637
#
#
# Mechanical properties :
#
#
# Convention : Reuss Voigt Hill
#
# Bulk Modulus (GPa) = 65.90728 72.16055 69.03391
# Shear Modulus (GPa) = 30.57773 36.54624 33.56198
#
# Velocity S-wave (km/s) = 3.48902 3.81437 3.65532
# Velocity P-wave (km/s) = 6.51685 6.93737 6.73039
#
# Compressibility (1/GPa) = 0.01517283
#
# Stress axis : x y z
#
# Youngs Moduli (GPa) = 92.39858 148.50477 64.98792
#
# Poissons Ratio (x) = 0.28769 0.30414
# Poissons Ratio (y) = 0.17900 0.14741
# Poissons Ratio (z) = 0.43242 0.33686
#
# Static dielectric constant tensor:
#      x y z
#    x 1.908890 0.000000 0.000000 
#    y 0.000000 2.048840 0.000000 
#    z 0.000000 0.000000 2.063970 
# 
# From -- ./inp_files/4937.got.cif
#   From: 2010.05.17/outbox.cif.g08.bks.cpg/sg27_3_cif.got.tgz:4937.got - 2010.06.04 01:11:05.
