data_PCOD9339260
_publ_section_title
;
Structure prediction by ZEFSAII (Michael W. Deem and Ramdas Pophale) SiO2 
 PCOD9339260
Probable space group: P M A 2
;
_chemical_formula_sum "Si O2"
_cell_formula_units_Z 32
_cell_length_a 9.117539
_cell_length_b 17.786175
_cell_length_c 11.775826
_cell_angle_alpha 90.000000
_cell_angle_beta 90.000000
_cell_angle_gamma 90.000000
_cell_volume 1909.640297
_symmetry_space_group_name_H-M "P M A 2"
_symmetry_group_IT_number 28
_symmetry_cell_setting 'orthorhombic'
loop_
_space_group_symop_operation_xyz
x,y,z
-x,-y,z
1/2-x,y,z
1/2+x,-y,z
loop_
_atom_site_type_symbol
_atom_site_label
_atom_site_fract_x
_atom_site_fract_y
_atom_site_fract_z
Si Si1 0.425084 0.237003 0.129770
Si Si2 0.081021 0.697859 0.341833
Si Si3 0.584284 0.131344 0.441511
Si Si4 0.078249 0.731592 0.895165
Si Si5 0.424238 0.789420 0.657131
Si Si6 0.575890 0.426425 0.766302
Si Si7 0.576770 0.925035 0.230787
Si Si8 0.424338 0.355987 0.556148
O O1 0.250000 0.243921 0.139824
O O2 0.502358 0.291247 0.221473
O O3 0.465438 0.151186 0.164409
O O4 0.479821 0.254209 0.003912
O O5 0.250000 0.674415 0.330388
O O6 0.081880 0.782049 0.396806
O O7 0.994097 0.645906 0.430686
O O8 0.750000 0.102651 0.424352
O O9 0.553367 0.139041 0.575747
O O10 0.473779 0.087832 0.361050
O O11 0.250000 0.735885 0.927233
O O12 0.052817 0.790456 0.791859
O O13 0.052642 0.649063 0.840350
O O14 0.250000 0.767156 0.641614
O O15 0.530351 0.724831 0.609562
O O16 0.500000 0.500000 0.817643
O O17 0.750000 0.436651 0.753810
O O18 0.501473 0.412354 0.643788
O O19 0.750000 0.933298 0.224935
O O20 0.500000 0.000000 0.186730
O O21 0.250000 0.365481 0.553218
#
# Coordination Sequence:
#
# PCOD9339260 Si02
#       8
#     4   4   4   4   4   4   4   4
#     4  10  20  32  48  73 100 127 168 214 251 293
#     4   9  16  28  46  67  93 124 155 190 236 286
#     4   8  14  26  45  67  91 118 148 186 233 283
#     4   9  18  32  50  72  99 132 169 205 244 294
#     4   8  15  28  45  67  94 123 155 190 231 282
#     4  10  20  34  51  73 100 130 166 205 249 301
#     4  10  20  32  47  69  96 125 159 202 250 302
#     4  10  17  26  44  70  97 123 152 190 238 285
#
# _framework density 16.757082
#
# number of rings (size 3 to 8) (size 9 to 14) (size 15 to 20)
#    0.000    2.750    0.000    4.125    0.000    7.000 
#    0.000    0.000    0.000    1.500    0.000    5.250 
#    0.000    0.000    0.000    0.000    0.000    0.000 
#
# Total GULP energy -178204.640738 kJ/mol
# GULP energy per Si atom -5568.895023 kJ/mol
# Density = 1.671894 g / cm^3
# Si number density = 16.757082 Si / 1000 Ang^3
#
#
#
# Elastic Constant Matrix: (Units=GPa)
#
#
# Indices 1 2 3 4 5 6 
#
# 1 90.7481 32.8602 54.4173 0.0000 0.0000 0.0000
# 2 32.8602 40.5688 21.1655 0.0000 0.0000 0.0000
# 3 54.4173 21.1655 109.6881 0.0000 0.0000 0.0000
# 4 0.0000 0.0000 0.0000 10.0508 0.0000 0.0000
# 5 0.0000 0.0000 0.0000 0.0000 28.4283 0.0000
# 6 0.0000 0.0000 0.0000 0.0000 0.0000 21.7923
#
#
#
# Elastic Compliance Matrix: (Units=1/GPa)
#
#
# Indices 1 2 3 4 5 6 
#
# 1 0.019981 -0.012245 -0.007550 0.000000 0.000000 0.000000
# 2 -0.012245 0.034913 -0.000662 0.000000 0.000000 0.000000
# 3 -0.007550 -0.000662 0.012990 0.000000 0.000000 0.000000
# 4 0.000000 0.000000 0.000000 0.099495 0.000000 0.000000
# 5 0.000000 0.000000 0.000000 0.000000 0.035176 0.000000
# 6 0.000000 0.000000 0.000000 0.000000 0.000000 0.045888
#
#
# Mechanical properties :
#
#
# Convention : Reuss Voigt Hill
#
# Bulk Modulus (GPa) = 37.07802 50.87677 43.97739
# Shear Modulus (GPa) = 16.75901 20.89175 18.82538
#
# Velocity S-wave (km/s) = 3.16589 3.53475 3.35539
# Velocity P-wave (km/s) = 5.96143 6.86197 6.42749
#
# Compressibility (1/GPa) = 0.02697016
#
# Stress axis : x y z
#
# Youngs Moduli (GPa) = 50.04792 28.64229 76.98230
#
# Poissons Ratio (x) = 0.35074 0.58120
# Poissons Ratio (y) = 0.61285 0.05095
# Poissons Ratio (z) = 0.37785 0.01896
#
# Static dielectric constant tensor:
#      x y z
#    x 1.559050 0.000000 0.000000 
#    y 0.000000 1.593110 0.000000 
#    z 0.000000 0.000000 1.579430 
# 
# From -- ./inp_files/5171.got.cif
#   From: 2010.05.17/outbox.cif.g08.bks.cpg/sg28_3_cif.got.tgz:5171.got - 2010.06.04 01:15:21.
