data_PCOD9339407
_publ_section_title
;
Structure prediction by ZEFSAII (Michael W. Deem and Ramdas Pophale) SiO2 
 PCOD9339407
Probable space group: P M A 2
;
_chemical_formula_sum "Si O2"
_cell_formula_units_Z 32
_cell_length_a 9.293667
_cell_length_b 21.555484
_cell_length_c 7.504674
_cell_angle_alpha 90.000000
_cell_angle_beta 90.000000
_cell_angle_gamma 90.000000
_cell_volume 1503.407517
_symmetry_space_group_name_H-M "P M A 2"
_symmetry_group_IT_number 28
_symmetry_cell_setting 'orthorhombic'
loop_
_space_group_symop_operation_xyz
x,y,z
-x,-y,z
1/2-x,y,z
1/2+x,-y,z
loop_
_atom_site_type_symbol
_atom_site_label
_atom_site_fract_x
_atom_site_fract_y
_atom_site_fract_z
Si Si1 0.913091 0.939140 0.742640
Si Si2 0.083780 0.062103 0.306326
Si Si3 0.085164 0.439800 0.271689
Si Si4 0.917652 0.562092 0.835107
Si Si5 0.575639 0.694915 0.238319
Si Si6 0.587371 0.181727 0.327689
Si Si7 0.090669 0.822691 0.746237
Si Si8 0.577125 0.315574 0.856733
O O1 0.750000 0.944134 0.801521
O O2 0.913285 0.938006 0.524681
O O3 0.983037 0.875401 0.810517
O O4 0.000000 0.000000 0.796771
O O5 0.250000 0.062873 0.248920
O O6 0.996651 0.123189 0.247236
O O7 0.000000 0.000000 0.251989
O O8 0.250000 0.447719 0.322985
O O9 0.038176 0.370976 0.330566
O O10 0.000000 0.500000 0.332328
O O11 0.079001 0.438447 0.053695
O O12 0.750000 0.562881 0.783617
O O13 0.000000 0.500000 0.777416
O O14 0.001275 0.623851 0.775018
O O15 0.750000 0.697550 0.222724
O O16 0.509452 0.756783 0.319700
O O17 0.497160 0.691186 0.048455
O O18 0.750000 0.191736 0.256527
O O19 0.602826 0.166702 0.535735
O O20 0.250000 0.830495 0.826214
O O21 0.048339 0.751045 0.768574
O O22 0.750000 0.324703 0.867022
#
# Coordination Sequence:
#
# PCOD9339407 Si02
#       8
#     4   4   4   4   4   4   4   4
#     4   9  16  26  44  68  94 123 157 196 238 279
#     4   9  16  27  44  68  95 123 156 197 238 279
#     4   8  15  26  42  64  90 117 149 190 233 273
#     4   9  16  27  44  68  95 123 157 199 240 281
#     4  10  20  33  48  71 100 128 160 199 240 288
#     4  10  19  32  50  72  97 128 162 198 240 286
#     4   9  19  33  49  71  99 127 160 199 239 285
#     4  10  19  32  50  72  98 129 161 198 242 287
#
# _framework density 21.284983
#
# number of rings (size 3 to 8) (size 9 to 14) (size 15 to 20)
#    0.000    2.750    0.000    3.000    0.000    8.000 
#    0.000    0.000    0.000    1.500    0.000    3.500 
#    0.000    0.000    0.000    0.000    0.000    0.000 
#
# Total GULP energy -178523.345819 kJ/mol
# GULP energy per Si atom -5578.854557 kJ/mol
# Density = 2.123654 g / cm^3
# Si number density = 21.284983 Si / 1000 Ang^3
#
#
#
# Elastic Constant Matrix: (Units=GPa)
#
#
# Indices 1 2 3 4 5 6 
#
# 1 170.2709 139.2148 10.6604 0.0000 0.0000 0.0000
# 2 139.2148 216.8307 0.0758 0.0000 0.0000 0.0000
# 3 10.6604 0.0758 45.9111 0.0000 0.0000 0.0000
# 4 0.0000 0.0000 0.0000 14.1251 0.0000 0.0000
# 5 0.0000 0.0000 0.0000 0.0000 -12.1643 0.0000
# 6 0.0000 0.0000 0.0000 0.0000 0.0000 42.8402
#
#
#
# Elastic Compliance Matrix: (Units=1/GPa)
#
#
# Indices 1 2 3 4 5 6 
#
# 1 0.012749 -0.008185 -0.002947 0.000000 0.000000 0.000000
# 2 -0.008185 0.009866 0.001884 0.000000 0.000000 0.000000
# 3 -0.002947 0.001884 0.022462 0.000000 0.000000 0.000000
# 4 0.000000 0.000000 0.000000 0.070796 0.000000 0.000000
# 5 0.000000 0.000000 0.000000 0.000000 -0.082207 0.000000
# 6 0.000000 0.000000 0.000000 0.000000 0.000000 0.023343
#
#
# Mechanical properties :
#
#
# Convention : Reuss Voigt Hill
#
# Bulk Modulus (GPa) = 37.61772 81.43497 59.52635
# Shear Modulus (GPa) = 59.26666 27.83095 43.54881
#
# Velocity S-wave (km/s) = 5.28250 3.61991 4.52817
# Velocity P-wave (km/s) = 7.41068 7.47088 7.44084
#
# Compressibility (1/GPa) = 0.02658322
#
# Stress axis : x y z
#
# Youngs Moduli (GPa) = 78.43615 101.35756 44.51892
#
# Poissons Ratio (x) = 0.82956 0.13119
# Poissons Ratio (y) = 0.64196 -0.08388
# Poissons Ratio (z) = 0.23114 -0.19097
#
# Static dielectric constant tensor:
#      x y z
#    x 1.733530 0.000000 0.000000 
#    y 0.000000 1.773680 0.000000 
#    z 0.000000 0.000000 1.832420 
# 
# From -- ./inp_files/5209.got.cif
#   From: 2010.05.17/outbox.cif.g08.bks.cpg/sg28_3_cif.got.tgz:5209.got - 2010.06.04 01:15:21.
