data_PCOD9339614
_publ_section_title
;
Structure prediction by ZEFSAII (Michael W. Deem and Ramdas Pophale) SiO2 
 PCOD9339614
Probable space group: P M A 2
;
_chemical_formula_sum "Si O2"
_cell_formula_units_Z 24
_cell_length_a 8.675454
_cell_length_b 9.240335
_cell_length_c 16.109941
_cell_angle_alpha 90.000000
_cell_angle_beta 90.000000
_cell_angle_gamma 90.000000
_cell_volume 1291.438941
_symmetry_space_group_name_H-M "P M A 2"
_symmetry_group_IT_number 28
_symmetry_cell_setting 'orthorhombic'
loop_
_space_group_symop_operation_xyz
x,y,z
-x,-y,z
1/2-x,y,z
1/2+x,-y,z
loop_
_atom_site_type_symbol
_atom_site_label
_atom_site_fract_x
_atom_site_fract_y
_atom_site_fract_z
Si Si1 0.063948 0.839016 0.912210
Si Si2 0.435168 0.161686 0.592029
Si Si3 0.065575 0.337127 0.427000
Si Si4 0.936030 0.337263 0.073317
Si Si5 0.434730 0.663624 0.255993
Si Si6 0.064756 0.661756 0.747930
O O1 0.250000 0.845213 0.913585
O O2 0.018466 0.744142 0.832428
O O3 0.011521 0.761232 0.997016
O O4 0.000000 0.000000 0.905609
O O5 0.250000 0.158299 0.597307
O O6 0.478524 0.242134 0.506411
O O7 0.501064 0.251184 0.669286
O O8 0.500000 0.000000 0.593454
O O9 0.250000 0.346788 0.422601
O O10 0.000000 0.500000 0.436301
O O11 0.003548 0.272017 0.340275
O O12 0.750000 0.346454 0.070702
O O13 0.977647 0.276847 0.164966
O O14 0.000000 0.500000 0.065001
O O15 0.500000 0.500000 0.254643
O O16 0.250000 0.660310 0.262712
O O17 0.250000 0.657513 0.744118
O O18 0.000000 0.500000 0.747880
#
# Coordination Sequence:
#
# PCOD9339614 Si02
#       6
#     4   4   4   4   4   4
#     4  10  22  38  55  79 111 145 180 219 266 320
#     4  11  24  40  58  81 111 146 182 223 273 327
#     4  10  20  34  54  80 108 140 180 224 269 319
#     4   9  18  33  53  79 108 139 179 223 267 316
#     4   9  16  28  50  77 106 139 176 222 269 313
#     4  11  23  39  61  86 111 141 180 225 270 321
#
# _framework density 18.583921
#
# number of rings (size 3 to 8) (size 9 to 14) (size 15 to 20)
#    0.000    2.000    0.000    4.500    0.000    8.000 
#    0.000    0.833    0.000    4.000    0.000    0.000 
#    0.000    0.000    0.000    0.000    0.000    0.000 
#
# Total GULP energy -133982.426341 kJ/mol
# GULP energy per Si atom -5582.601098 kJ/mol
# Density = 1.854162 g / cm^3
# Si number density = 18.583921 Si / 1000 Ang^3
#
#
#
# Elastic Constant Matrix: (Units=GPa)
#
#
# Indices 1 2 3 4 5 6 
#
# 1 39.7869 34.4278 57.6200 0.0000 0.0000 0.0000
# 2 34.4278 131.0312 105.7768 0.0000 0.0000 0.0000
# 3 57.6200 105.7768 231.7532 0.0000 0.0000 0.0000
# 4 0.0000 0.0000 0.0000 -44.6789 0.0000 0.0000
# 5 0.0000 0.0000 0.0000 0.0000 17.1822 0.0000
# 6 0.0000 0.0000 0.0000 0.0000 0.0000 27.7381
#
#
#
# Elastic Compliance Matrix: (Units=1/GPa)
#
#
# Indices 1 2 3 4 5 6 
#
# 1 0.040547 -0.003983 -0.008263 0.000000 0.000000 0.000000
# 2 -0.003983 0.012475 -0.004704 0.000000 0.000000 0.000000
# 3 -0.008263 -0.004704 0.008516 0.000000 0.000000 0.000000
# 4 0.000000 0.000000 0.000000 -0.022382 0.000000 0.000000
# 5 0.000000 0.000000 0.000000 0.000000 0.058200 0.000000
# 6 0.000000 0.000000 0.000000 0.000000 0.000000 0.036051
#
#
# Mechanical properties :
#
#
# Convention : Reuss Voigt Hill
#
# Bulk Modulus (GPa) = 36.18058 88.69116 62.43587
# Shear Modulus (GPa) = 28.32517 13.69806 21.01162
#
# Velocity S-wave (km/s) = 3.90831 2.71789 3.36614
# Velocity P-wave (km/s) = 6.31486 7.59457 6.98409
#
# Compressibility (1/GPa) = 0.02763914
#
# Stress axis : x y z
#
# Youngs Moduli (GPa) = 24.66249 80.15726 117.42191
#
# Poissons Ratio (x) = 0.31927 0.97029
# Poissons Ratio (y) = 0.09823 0.55233
# Poissons Ratio (z) = 0.20379 0.37704
#
# Static dielectric constant tensor:
#      x y z
#    x 1.627300 0.000000 0.000000 
#    y 0.000000 1.645540 0.000000 
#    z 0.000000 0.000000 1.675770 
# 
# From -- ./inp_files/6028.got.cif
#   From: 2010.05.17/outbox.cif.g08.bks.cpg/sg28_4_cif.got.tgz:6028.got - 2010.06.04 01:15:21.
