data_PCOD9339242
_publ_section_title
;
Structure prediction by ZEFSAII (Michael W. Deem and Ramdas Pophale) SiO2 
 PCOD9339242
Probable space group: P M A 2
;
_chemical_formula_sum "Si O2"
_cell_formula_units_Z 32
_cell_length_a 28.646915
_cell_length_b 12.062581
_cell_length_c 5.515417
_cell_angle_alpha 90.000000
_cell_angle_beta 90.000000
_cell_angle_gamma 90.000000
_cell_volume 1905.883962
_symmetry_space_group_name_H-M "P M A 2"
_symmetry_group_IT_number 28
_symmetry_cell_setting 'orthorhombic'
loop_
_space_group_symop_operation_xyz
x,y,z
-x,-y,z
1/2-x,y,z
1/2+x,-y,z
loop_
_atom_site_type_symbol
_atom_site_label
_atom_site_fract_x
_atom_site_fract_y
_atom_site_fract_z
Si Si1 0.444774 0.523614 0.637620
Si Si2 0.463892 0.602543 0.137615
Si Si3 0.354976 0.077682 0.637977
Si Si4 0.695243 0.911783 0.137972
Si Si5 0.456397 0.081079 0.638006
Si Si6 0.367186 0.349316 0.637974
Si Si7 0.349461 0.325519 0.137979
Si Si8 0.045215 0.219834 0.138008
O O1 0.500000 0.500000 0.637484
O O2 0.435436 0.588911 0.387451
O O3 0.417935 0.406320 0.637901
O O4 0.435470 0.589063 0.887635
O O5 0.500000 0.500000 0.137458
O O6 0.499193 0.704878 0.137912
O O7 0.328180 0.049683 0.390048
O O8 0.405804 0.023413 0.637951
O O9 0.364233 0.213703 0.637986
O O10 0.328184 0.049672 0.885912
O O11 0.750000 0.933184 0.137963
O O12 0.684129 0.780206 0.137957
O O13 0.456700 0.150709 0.387501
O O14 0.500000 0.000000 0.637994
O O15 0.456689 0.150665 0.888568
O O16 0.343501 0.386995 0.389948
O O17 0.343513 0.387008 0.886019
O O18 0.404316 0.283300 0.137997
#
# Coordination Sequence:
#
# PCOD9339242 Si02
#       8
#     4   4   4   4   4   4   4   4
#     4  10  17  24  35  61  82 106 154 179 211 263
#     4  10  20  25  42  63  84 115 150 188 229 263
#     4  10  19  32  46  63  89 121 152 195 221 271
#     4  10  18  29  46  67  86 111 150 189 236 283
#     4  12  23  34  50  65  84 125 176 199 219 264
#     4  10  16  26  42  57  86 120 145 187 220 252
#     4  10  16  27  43  59  80 121 144 183 224 263
#     4  12  19  35  46  61  94 119 158 210 223 257
#
# _framework density 16.790108
#
# number of rings (size 3 to 8) (size 9 to 14) (size 15 to 20)
#    0.000    1.500    5.000    5.250    0.000    0.000 
#    0.000    0.000    0.000    0.000    0.000    0.000 
#    0.000    0.000    0.000    0.000    0.000  457.500 
#
# Total GULP energy -178150.595322 kJ/mol
# GULP energy per Si atom -5567.206104 kJ/mol
# Density = 1.675189 g / cm^3
# Si number density = 16.790108 Si / 1000 Ang^3
#
#
#
# Elastic Constant Matrix: (Units=GPa)
#
#
# Indices 1 2 3 4 5 6 
#
# 1 79.9243 15.8496 44.2822 0.0000 0.0000 0.0000
# 2 15.8496 11.2910 23.1205 0.0000 0.0000 0.0000
# 3 44.2822 23.1205 210.5151 0.0000 0.0000 0.0000
# 4 0.0000 0.0000 0.0000 10.3704 0.0000 0.0000
# 5 0.0000 0.0000 0.0000 0.0000 17.3786 0.0000
# 6 0.0000 0.0000 0.0000 0.0000 0.0000 14.1410
#
#
#
# Elastic Compliance Matrix: (Units=1/GPa)
#
#
# Indices 1 2 3 4 5 6 
#
# 1 0.017600 -0.022094 -0.001276 0.000000 0.000000 0.000000
# 2 -0.022094 0.141998 -0.010948 0.000000 0.000000 0.000000
# 3 -0.001276 -0.010948 0.006221 0.000000 0.000000 0.000000
# 4 0.000000 0.000000 0.000000 0.096429 0.000000 0.000000
# 5 0.000000 0.000000 0.000000 0.000000 0.057542 0.000000
# 6 0.000000 0.000000 0.000000 0.000000 0.000000 0.070716
#
#
# Mechanical properties :
#
#
# Convention : Reuss Voigt Hill
#
# Bulk Modulus (GPa) = 10.28967 52.02609 31.15788
# Shear Modulus (GPa) = 10.17220 22.94319 16.55769
#
# Velocity S-wave (km/s) = 2.46406 3.70059 3.14372
# Velocity P-wave (km/s) = 3.77322 7.02229 5.63692
#
# Compressibility (1/GPa) = 0.09718481
#
# Stress axis : x y z
#
# Youngs Moduli (GPa) = 56.81832 7.04233 160.74604
#
# Poissons Ratio (x) = 0.15559 0.20506
# Poissons Ratio (y) = 1.25532 1.75985
# Poissons Ratio (z) = 0.07248 0.07710
#
# Static dielectric constant tensor:
#      x y z
#    x 1.552230 0.000000 0.000000 
#    y 0.000000 1.565230 0.000000 
#    z 0.000000 0.000000 1.747670 
# 
# From -- ./inp_files/1787.got.cif
#   From: 2010.05.17/outbox.cif.g08.bks.cpg/sg28_1_cif.got.tgz:1787.got - 2010.06.04 01:15:21.
