data_PCOD9339814
_publ_section_title
;
Structure prediction by ZEFSAII (Michael W. Deem and Ramdas Pophale) SiO2 
 PCOD9339814
Probable space group: P M A 2
;
_chemical_formula_sum "Si O2"
_cell_formula_units_Z 32
_cell_length_a 14.308453
_cell_length_b 9.517888
_cell_length_c 12.118300
_cell_angle_alpha 90.000000
_cell_angle_beta 90.000000
_cell_angle_gamma 90.000000
_cell_volume 1650.345871
_symmetry_space_group_name_H-M "P M A 2"
_symmetry_group_IT_number 28
_symmetry_cell_setting 'orthorhombic'
loop_
_space_group_symop_operation_xyz
x,y,z
-x,-y,z
1/2-x,y,z
1/2+x,-y,z
loop_
_atom_site_type_symbol
_atom_site_label
_atom_site_fract_x
_atom_site_fract_y
_atom_site_fract_z
Si Si1 0.027731 0.348002 0.612460
Si Si2 0.470841 0.352644 0.159730
Si Si3 0.404574 0.909277 0.601730
Si Si4 0.854128 0.152489 0.155419
Si Si5 0.858944 0.657600 0.383430
Si Si6 0.112971 0.012074 0.373156
Si Si7 0.357202 0.136710 0.766903
Si Si8 0.636873 0.880386 0.018206
O O1 0.083176 0.370346 0.496484
O O2 0.089997 0.251644 0.692967
O O3 0.000000 0.500000 0.656542
O O4 0.934958 0.251954 0.600283
O O5 0.500000 0.500000 0.105264
O O6 0.567707 0.268949 0.174868
O O7 0.416246 0.388097 0.274162
O O8 0.407228 0.245490 0.089383
O O9 0.355014 0.944879 0.487785
O O10 0.500000 0.000000 0.593161
O O11 0.360718 0.983214 0.708217
O O12 0.750000 0.205456 0.126287
O O13 0.848428 0.066770 0.268584
O O14 0.885683 0.034281 0.067296
O O15 0.750000 0.609350 0.386902
O O16 0.859339 0.826390 0.373803
O O17 0.000000 0.000000 0.364104
O O18 0.250000 0.180262 0.771798
O O19 0.394209 0.129102 0.891162
O O20 0.750000 0.869654 0.023792
#
# Coordination Sequence:
#
# PCOD9339814 Si02
#       8
#     4   4   4   4   4   4   4   4
#     4  11  22  37  57  88 124 162 196 237 295 365
#     4  12  25  40  59  86 125 161 194 238 300 368
#     4   9  18  34  57  83 114 149 191 237 288 343
#     4  11  22  37  61  90 117 151 198 252 297 349
#     4  12  22  37  61  87 119 160 202 244 294 350
#     4  11  16  33  60  89 117 147 197 248 297 343
#     4  10  21  39  63  88 112 149 203 255 299 351
#     4  10  22  41  64  88 113 150 206 257 298 348
#
# _framework density 19.389875
#
# number of rings (size 3 to 8) (size 9 to 14) (size 15 to 20)
#    0.000    1.250    6.250    1.875    0.000    5.000 
#    0.000    1.250    0.000    3.000    0.000    0.000 
#    0.000    0.000    0.000    0.000    0.000    0.000 
#
# Total GULP energy -178497.994032 kJ/mol
# GULP energy per Si atom -5578.062313 kJ/mol
# Density = 1.934574 g / cm^3
# Si number density = 19.389875 Si / 1000 Ang^3
#
#
#
# Elastic Constant Matrix: (Units=GPa)
#
#
# Indices 1 2 3 4 5 6 
#
# 1 90.7271 17.4878 21.9088 0.0000 0.0000 0.0000
# 2 17.4878 81.3296 8.5382 0.0000 0.0000 0.0000
# 3 21.9088 8.5382 110.7188 0.0000 0.0000 0.0000
# 4 0.0000 0.0000 0.0000 8.0288 0.0000 0.0000
# 5 0.0000 0.0000 0.0000 0.0000 47.8090 0.0000
# 6 0.0000 0.0000 0.0000 0.0000 0.0000 6.1601
#
#
#
# Elastic Compliance Matrix: (Units=1/GPa)
#
#
# Indices 1 2 3 4 5 6 
#
# 1 0.012005 -0.002351 -0.002194 0.000000 0.000000 0.000000
# 2 -0.002351 0.012856 -0.000526 0.000000 0.000000 0.000000
# 3 -0.002194 -0.000526 0.009507 0.000000 0.000000 0.000000
# 4 0.000000 0.000000 0.000000 0.124551 0.000000 0.000000
# 5 0.000000 0.000000 0.000000 0.000000 0.020917 0.000000
# 6 0.000000 0.000000 0.000000 0.000000 0.000000 0.162334
#
#
# Mechanical properties :
#
#
# Convention : Reuss Voigt Hill
#
# Bulk Modulus (GPa) = 41.27933 42.07168 41.67551
# Shear Modulus (GPa) = 13.87394 28.05565 20.96479
#
# Velocity S-wave (km/s) = 2.67783 3.80797 3.29176
# Velocity P-wave (km/s) = 5.55845 6.40929 5.99898
#
# Compressibility (1/GPa) = 0.02422520
#
# Stress axis : x y z
#
# Youngs Moduli (GPa) = 83.29798 77.78221 105.18942
#
# Poissons Ratio (x) = 0.18287 0.23081
# Poissons Ratio (y) = 0.19584 0.05535
# Poissons Ratio (z) = 0.18278 0.04093
#
# Static dielectric constant tensor:
#      x y z
#    x 1.729140 0.000000 0.000000 
#    y 0.000000 1.656420 0.000000 
#    z 0.000000 0.000000 1.710300 
# 
# From -- ./inp_files/5607.got.cif
#   From: 2010.05.17/outbox.cif.g08.bks.cpg/sg28_3_cif.got.tgz:5607.got - 2010.06.04 01:15:21.
