data_PCOD9339421
_publ_section_title
;
Structure prediction by ZEFSAII (Michael W. Deem and Ramdas Pophale) SiO2 
 PCOD9339421
Probable space group: P M A 2
;
_chemical_formula_sum "Si O2"
_cell_formula_units_Z 32
_cell_length_a 8.209121
_cell_length_b 15.219865
_cell_length_c 12.652569
_cell_angle_alpha 90.000000
_cell_angle_beta 90.000000
_cell_angle_gamma 90.000000
_cell_volume 1580.833650
_symmetry_space_group_name_H-M "P M A 2"
_symmetry_group_IT_number 28
_symmetry_cell_setting 'orthorhombic'
loop_
_space_group_symop_operation_xyz
x,y,z
-x,-y,z
1/2-x,y,z
1/2+x,-y,z
loop_
_atom_site_type_symbol
_atom_site_label
_atom_site_fract_x
_atom_site_fract_y
_atom_site_fract_z
Si Si1 0.054786 0.405427 0.523250
Si Si2 0.944957 0.405701 0.985705
Si Si3 0.060382 0.164089 0.823993
Si Si4 0.944524 0.348233 0.753072
Si Si5 0.941369 0.213719 0.049467
Si Si6 0.054112 0.091676 0.614665
Si Si7 0.557885 0.899049 0.244706
Si Si8 0.449092 0.222747 0.435827
O O1 0.250000 0.402953 0.530639
O O2 0.999832 0.323623 0.450538
O O3 0.000000 0.500000 0.482711
O O4 0.986576 0.392504 0.642181
O O5 0.750000 0.402469 0.991622
O O6 0.988542 0.399812 0.860815
O O7 0.000000 0.500000 0.028440
O O8 0.005335 0.314850 0.039904
O O9 0.250000 0.145897 0.846543
O O10 0.992306 0.099561 0.734600
O O11 0.043019 0.258031 0.765898
O O12 0.966811 0.172332 0.933441
O O13 0.750000 0.330841 0.757189
O O14 0.750000 0.217637 0.073140
O O15 0.022654 0.151755 0.135836
O O16 0.250000 0.095016 0.619499
O O17 0.999148 0.171044 0.541163
O O18 0.000000 0.000000 0.566097
O O19 0.750000 0.903806 0.260897
O O20 0.491023 0.835124 0.337330
O O21 0.500000 0.000000 0.245693
O O22 0.250000 0.223138 0.432216
#
# Coordination Sequence:
#
# PCOD9339421 Si02
#       8
#     4   4   4   4   4   4   4   4
#     4  11  21  36  56  83 119 158 199 244 292 350
#     4   9  19  33  52  80 116 155 193 237 284 338
#     4  10  19  34  56  82 118 160 196 236 295 353
#     4  10  19  32  51  81 118 159 202 242 288 343
#     4  10  22  40  59  85 121 153 196 251 296 349
#     4  10  20  35  55  83 115 151 187 231 290 352
#     4  11  23  42  68  91 112 148 197 248 305 360
#     4   9  20  40  61  83 117 152 190 243 296 351
#
# _framework density 20.242484999999999
#
# number of rings (size 3 to 8) (size 9 to 14) (size 15 to 20)
#    0.000    2.000    1.250    3.375    0.000    5.500 
#    0.000    5.000    0.000    3.000    0.000    0.000 
#    0.000    0.000    0.000    0.000    0.000    0.000 
#
# Total GULP energy -178526.180459 kJ/mol
# GULP energy per Si atom -5578.943139 kJ/mol
# Density = 2.019641 g / cm^3
# Si number density = 20.242485 Si / 1000 Ang^3
#
#
#
# Elastic Constant Matrix: (Units=GPa)
#
#
# Indices 1 2 3 4 5 6 
#
# 1 22.1372 11.5843 2.7571 0.0000 0.0000 0.0000
# 2 11.5843 171.3317 69.8135 0.0000 0.0000 0.0000
# 3 2.7571 69.8135 89.2671 0.0000 0.0000 0.0000
# 4 0.0000 0.0000 0.0000 17.2077 0.0000 0.0000
# 5 0.0000 0.0000 0.0000 0.0000 24.9420 0.0000
# 6 0.0000 0.0000 0.0000 0.0000 0.0000 27.1880
#
#
#
# Elastic Compliance Matrix: (Units=1/GPa)
#
#
# Indices 1 2 3 4 5 6 
#
# 1 0.046969 -0.003794 0.001516 0.000000 0.000000 0.000000
# 2 -0.003794 0.008873 -0.006822 0.000000 0.000000 0.000000
# 3 0.001516 -0.006822 0.016491 0.000000 0.000000 0.000000
# 4 0.000000 0.000000 0.000000 0.058114 0.000000 0.000000
# 5 0.000000 0.000000 0.000000 0.000000 0.040093 0.000000
# 6 0.000000 0.000000 0.000000 0.000000 0.000000 0.036781
#
#
# Mechanical properties :
#
#
# Convention : Reuss Voigt Hill
#
# Bulk Modulus (GPa) = 18.47273 50.11622 34.29447
# Shear Modulus (GPa) = 20.52846 27.10627 23.81736
#
# Velocity S-wave (km/s) = 3.18799 3.66331 3.43389
# Velocity P-wave (km/s) = 4.76409 6.53489 5.71845
#
# Compressibility (1/GPa) = 0.05413386
#
# Stress axis : x y z
#
# Youngs Moduli (GPa) = 21.29061 112.70153 60.63933
#
# Poissons Ratio (x) = 0.42753 -0.09194
# Poissons Ratio (y) = 0.08077 0.41369
# Poissons Ratio (z) = -0.03228 0.76887
#
# Static dielectric constant tensor:
#      x y z
#    x 1.707430 0.000000 0.000000 
#    y 0.000000 1.758990 0.000000 
#    z 0.000000 0.000000 1.715800 
# 
# From -- ./inp_files/5097.got.cif
#   From: 2010.05.17/outbox.cif.g08.bks.cpg/sg28_3_cif.got.tgz:5097.got - 2010.06.04 01:15:21.
