data_PCOD9339847
_publ_section_title
;
Structure prediction by ZEFSAII (Michael W. Deem and Ramdas Pophale) SiO2 
 PCOD9339847
Probable space group: P M A 2
;
_chemical_formula_sum "Si O2"
_cell_formula_units_Z 18
_cell_length_a 17.784624
_cell_length_b 6.997803
_cell_length_c 7.080923
_cell_angle_alpha 90.000000
_cell_angle_beta 90.000000
_cell_angle_gamma 90.000000
_cell_volume 881.244200
_symmetry_space_group_name_H-M "P M A 2"
_symmetry_group_IT_number 28
_symmetry_cell_setting 'orthorhombic'
loop_
_space_group_symop_operation_xyz
x,y,z
-x,-y,z
1/2-x,y,z
1/2+x,-y,z
loop_
_atom_site_type_symbol
_atom_site_label
_atom_site_fract_x
_atom_site_fract_y
_atom_site_fract_z
Si Si1 0.750000 0.174746 0.914240
Si Si2 0.750000 0.606680 0.798476
Si Si3 0.000000 0.000000 0.119190
Si Si4 0.618696 0.877512 0.832114
Si Si5 0.750000 0.290447 0.343767
Si Si6 0.122863 0.979637 0.417662
Si Si7 0.250000 0.268755 0.364656
O O1 0.750000 0.381062 0.816430
O O2 0.675933 0.053029 0.868328
O O3 0.750000 0.202563 0.136923
O O4 0.750000 0.697046 0.589532
O O5 0.671958 0.694907 0.872567
O O6 0.060440 0.916643 0.267431
O O7 0.048884 0.126095 0.974243
O O8 0.595488 0.920980 0.613116
O O9 0.822506 0.202285 0.449153
O O10 0.750000 0.514617 0.299667
O O11 0.176729 0.142249 0.324119
#
# Coordination Sequence:
#
# PCOD9339847 Si02
#       7
#     2   2   2   4   2   4   2
#     4  11  20  36  64  89 111 145 195 244 283 333
#     4   9  20  38  62  86 110 146 193 243 286 329
#     4  12  22  38  58  86 120 156 190 224 286 352
#     4  10  22  40  60  85 117 151 190 237 286 337
#     4  11  20  36  64  89 111 145 195 244 283 333
#     4  10  22  40  60  85 117 151 190 237 286 337
#     4   9  20  38  62  86 110 146 193 243 286 329
#
# _framework density 20.425667000000001
#
# number of rings (size 3 to 8) (size 9 to 14) (size 15 to 20)
#    0.000    1.778    2.222    4.000    3.111    0.000 
#    0.000    4.444    0.000    8.000    0.000    0.000 
#    0.000    0.000    0.000    0.000    0.000    0.000 
#
# Total GULP energy -100290.568974 kJ/mol
# GULP energy per Si atom -5571.698276 kJ/mol
# Density = 2.037918 g / cm^3
# Si number density = 20.425667 Si / 1000 Ang^3
#
#
#
# Elastic Constant Matrix: (Units=GPa)
#
#
# Indices 1 2 3 4 5 6 
#
# 1 93.5766 25.6689 39.4700 0.0000 0.0000 0.0000
# 2 25.6689 119.4274 3.6295 0.0000 0.0000 0.0000
# 3 39.4700 3.6295 87.2723 0.0000 0.0000 0.0000
# 4 0.0000 0.0000 0.0000 21.8590 0.0000 0.0000
# 5 0.0000 0.0000 0.0000 0.0000 42.2258 0.0000
# 6 0.0000 0.0000 0.0000 0.0000 0.0000 1.5074
#
#
#
# Elastic Compliance Matrix: (Units=1/GPa)
#
#
# Indices 1 2 3 4 5 6 
#
# 1 0.014107 -0.002842 -0.006262 0.000000 0.000000 0.000000
# 2 -0.002842 0.008956 0.000913 0.000000 0.000000 0.000000
# 3 -0.006262 0.000913 0.014252 0.000000 0.000000 0.000000
# 4 0.000000 0.000000 0.000000 0.045748 0.000000 0.000000
# 5 0.000000 0.000000 0.000000 0.000000 0.023682 0.000000
# 6 0.000000 0.000000 0.000000 0.000000 0.000000 0.663400
#
#
# Mechanical properties :
#
#
# Convention : Reuss Voigt Hill
#
# Bulk Modulus (GPa) = 47.76917 48.64592 48.20755
# Shear Modulus (GPa) = 6.30115 28.55231 17.42673
#
# Velocity S-wave (km/s) = 1.75830 3.74286 2.92409
# Velocity P-wave (km/s) = 5.24974 6.52276 5.92057
#
# Compressibility (1/GPa) = 0.02093400
#
# Stress axis : x y z
#
# Youngs Moduli (GPa) = 70.88563 111.65271 70.16318
#
# Poissons Ratio (x) = 0.31729 0.43936
# Poissons Ratio (y) = 0.20144 -0.06404
# Poissons Ratio (z) = 0.44389 -0.10191
#
# Static dielectric constant tensor:
#      x y z
#    x 1.750950 0.000000 0.000000 
#    y 0.000000 1.752790 0.000000 
#    z 0.000000 0.000000 1.848230 
# 
# From -- ./inp_files/3667.got.cif
#   From: 2010.05.17/outbox.cif.g08.bks.cpg/sg28_2_cif.got.tgz:3667.got - 2010.06.04 01:15:21.
