data_PCOD9339587
_publ_section_title
;
Structure prediction by ZEFSAII (Michael W. Deem and Ramdas Pophale) SiO2 
 PCOD9339587
Probable space group: P M A 2
;
_chemical_formula_sum "Si O2"
_cell_formula_units_Z 32
_cell_length_a 15.880226
_cell_length_b 8.197420
_cell_length_c 10.909863
_cell_angle_alpha 90.000000
_cell_angle_beta 90.000000
_cell_angle_gamma 90.000000
_cell_volume 1420.211951
_symmetry_space_group_name_H-M "P M A 2"
_symmetry_group_IT_number 28
_symmetry_cell_setting 'orthorhombic'
loop_
_space_group_symop_operation_xyz
x,y,z
-x,-y,z
1/2-x,y,z
1/2+x,-y,z
loop_
_atom_site_type_symbol
_atom_site_label
_atom_site_fract_x
_atom_site_fract_y
_atom_site_fract_z
Si Si1 0.839712 0.391284 0.804600
Si Si2 0.018775 0.185875 0.467085
Si Si3 0.342401 0.658207 0.401351
Si Si4 0.346401 0.179478 0.249417
Si Si5 0.158969 0.369515 0.575452
Si Si6 0.159008 0.305745 0.987035
Si Si7 0.480899 0.694801 0.948952
Si Si8 0.344871 0.812505 0.141477
O O1 0.750000 0.302749 0.799212
O O2 0.846837 0.500443 0.684236
O O3 0.835923 0.520050 0.918597
O O4 0.923996 0.292682 0.828095
O O5 0.077321 0.198083 0.344470
O O6 0.077877 0.259042 0.571572
O O7 0.928604 0.270339 0.453942
O O8 0.000000 0.000000 0.489008
O O9 0.250000 0.729122 0.440049
O O10 0.340822 0.474632 0.450176
O O11 0.347102 0.690472 0.257105
O O12 0.250000 0.188623 0.299846
O O13 0.353925 0.996242 0.193370
O O14 0.350937 0.303368 0.134278
O O15 0.250000 0.285715 0.588473
O O16 0.250000 0.224671 0.962492
O O17 0.072863 0.226154 0.940051
O O18 0.500000 0.500000 0.972439
O O19 0.421661 0.769032 0.053464
O O20 0.250000 0.799643 0.086917
#
# Coordination Sequence:
#
# PCOD9339587 Si02
#       8
#     4   4   4   4   4   4   4   4
#     4   9  19  39  62  85 113 150 199 253 304 358
#     4  12  23  37  63  91 123 162 206 253 308 377
#     4  10  22  38  57  88 124 160 199 253 310 367
#     4  10  21  38  59  84 122 163 202 250 312 377
#     4  10  23  42  66  89 119 161 209 259 313 369
#     4   9  19  33  55  82 112 153 195 238 292 357
#     4  10  20  32  55  84 113 148 190 244 300 358
#     4  10  20  36  57  83 119 155 198 253 312 372
#
# _framework density 22.531846000000002
#
# number of rings (size 3 to 8) (size 9 to 14) (size 15 to 20)
#    0.000    2.000    1.250    1.875    0.000    7.000 
#    0.000    6.250    8.250    0.000    0.000    0.000 
#    0.000    0.000    0.000    0.000    0.000    0.000 
#
# Total GULP energy -178516.553340 kJ/mol
# GULP energy per Si atom -5578.642292 kJ/mol
# Density = 2.248056 g / cm^3
# Si number density = 22.531846 Si / 1000 Ang^3
#
#
#
# Elastic Constant Matrix: (Units=GPa)
#
#
# Indices 1 2 3 4 5 6 
#
# 1 271.8726 31.1142 25.6745 0.0000 0.0000 0.0000
# 2 31.1142 41.9173 15.1868 0.0000 0.0000 0.0000
# 3 25.6745 15.1868 32.0406 0.0000 0.0000 0.0000
# 4 0.0000 0.0000 0.0000 15.8945 0.0000 0.0000
# 5 0.0000 0.0000 0.0000 0.0000 26.0184 0.0000
# 6 0.0000 0.0000 0.0000 0.0000 0.0000 32.4705
#
#
#
# Elastic Compliance Matrix: (Units=1/GPa)
#
#
# Indices 1 2 3 4 5 6 
#
# 1 0.004150 -0.002265 -0.002252 0.000000 0.000000 0.000000
# 2 -0.002265 0.030038 -0.012423 0.000000 0.000000 0.000000
# 3 -0.002252 -0.012423 0.038903 0.000000 0.000000 0.000000
# 4 0.000000 0.000000 0.000000 0.062915 0.000000 0.000000
# 5 0.000000 0.000000 0.000000 0.000000 0.038434 0.000000
# 6 0.000000 0.000000 0.000000 0.000000 0.000000 0.030797
#
#
# Mechanical properties :
#
#
# Convention : Reuss Voigt Hill
#
# Bulk Modulus (GPa) = 25.50225 54.42016 39.96120
# Shear Modulus (GPa) = 19.82645 33.13368 26.48007
#
# Velocity S-wave (km/s) = 2.96958 3.83891 3.43188
# Velocity P-wave (km/s) = 4.80632 6.62228 5.78599
#
# Compressibility (1/GPa) = 0.03921222
#
# Stress axis : x y z
#
# Youngs Moduli (GPa) = 240.96182 33.29081 25.70472
#
# Poissons Ratio (x) = 0.07539 0.05789
# Poissons Ratio (y) = 0.54566 0.31933
# Poissons Ratio (z) = 0.54267 0.41358
#
# Static dielectric constant tensor:
#      x y z
#    x 1.907560 0.000000 0.000000 
#    y 0.000000 1.869520 0.000000 
#    z 0.000000 0.000000 1.862900 
# 
# From -- ./inp_files/5646.got.cif
#   From: 2010.05.17/outbox.cif.g08.bks.cpg/sg28_3_cif.got.tgz:5646.got - 2010.06.04 01:15:21.
