data_PCOD9339278
_publ_section_title
;
Structure prediction by ZEFSAII (Michael W. Deem and Ramdas Pophale) SiO2 
 PCOD9339278
Probable space group: P M A 2
;
_chemical_formula_sum "Si O2"
_cell_formula_units_Z 24
_cell_length_a 8.461545
_cell_length_b 13.808029
_cell_length_c 11.874751
_cell_angle_alpha 90.000000
_cell_angle_beta 90.000000
_cell_angle_gamma 90.000000
_cell_volume 1387.413355
_symmetry_space_group_name_H-M "P M A 2"
_symmetry_group_IT_number 28
_symmetry_cell_setting 'orthorhombic'
loop_
_space_group_symop_operation_xyz
x,y,z
-x,-y,z
1/2-x,y,z
1/2+x,-y,z
loop_
_atom_site_type_symbol
_atom_site_label
_atom_site_fract_x
_atom_site_fract_y
_atom_site_fract_z
Si Si1 0.427984 0.099883 0.934400
Si Si2 0.440823 0.894470 0.565318
Si Si3 0.933541 0.239190 0.761539
Si Si4 0.070584 0.256463 0.131610
Si Si5 0.560681 0.608427 0.938676
Si Si6 0.440718 0.106247 0.309750
O O1 0.250000 0.089326 0.888313
O O2 0.541700 0.147309 0.842944
O O3 0.500000 0.000000 0.972493
O O4 0.418696 0.172325 0.038322
O O5 0.250000 0.896559 0.564720
O O6 0.492921 0.803853 0.642862
O O7 0.504872 0.884331 0.438768
O O8 0.500000 0.000000 0.607680
O O9 0.750000 0.264179 0.749947
O O10 0.015228 0.325894 0.830543
O O11 0.250000 0.286239 0.163869
O O12 0.999028 0.198617 0.237397
O O13 0.997809 0.342888 0.055933
O O14 0.500000 0.500000 0.926354
O O15 0.750000 0.610235 0.946426
O O16 0.250000 0.105442 0.302760
O O17 0.500000 0.000000 0.270020
#
# Coordination Sequence:
#
# PCOD9339278 Si02
#       6
#     4   4   4   4   4   4
#     4  10  18  28  43  66  97 128 159 196 240 290
#     4  10  20  32  47  70 101 135 170 204 238 281
#     4  10  20  33  49  70  96 127 164 203 244 291
#     4   8  17  31  47  69  96 126 159 198 240 287
#     4  10  20  36  56  77 100 124 157 201 252 303
#     4  10  18  30  48  70  99 134 169 200 236 282
#
# _framework density 17.298378
#
# number of rings (size 3 to 8) (size 9 to 14) (size 15 to 20)
#    0.000    2.333    0.000    5.500    0.000    4.000 
#    0.000    9.167    0.000    1.000    0.000    4.667 
#    0.000    0.000    0.000    0.000    0.000    0.000 
#
# Total GULP energy -133610.858230 kJ/mol
# GULP energy per Si atom -5567.119093 kJ/mol
# Density = 1.725901 g / cm^3
# Si number density = 17.298378 Si / 1000 Ang^3
#
#
#
# Elastic Constant Matrix: (Units=GPa)
#
#
# Indices 1 2 3 4 5 6 
#
# 1 34.8347 26.7430 12.0373 0.0000 0.0000 0.0000
# 2 26.7430 102.8240 50.1558 0.0000 0.0000 0.0000
# 3 12.0373 50.1558 81.5777 0.0000 0.0000 0.0000
# 4 0.0000 0.0000 0.0000 22.7454 0.0000 0.0000
# 5 0.0000 0.0000 0.0000 0.0000 -109.4472 0.0000
# 6 0.0000 0.0000 0.0000 0.0000 0.0000 12.2799
#
#
#
# Elastic Compliance Matrix: (Units=1/GPa)
#
#
# Indices 1 2 3 4 5 6 
#
# 1 0.035892 -0.009644 0.000633 0.000000 0.000000 0.000000
# 2 -0.009644 0.016483 -0.008711 0.000000 0.000000 0.000000
# 3 0.000633 -0.008711 0.017520 0.000000 0.000000 0.000000
# 4 0.000000 0.000000 0.000000 0.043965 0.000000 0.000000
# 5 0.000000 0.000000 0.000000 0.000000 -0.009137 0.000000
# 6 0.000000 0.000000 0.000000 0.000000 0.000000 0.081434
#
#
# Mechanical properties :
#
#
# Convention : Reuss Voigt Hill
#
# Bulk Modulus (GPa) = 29.02598 44.12319 36.57458
# Shear Modulus (GPa) = 21.45151 -6.19769 7.62691
#
# Velocity S-wave (km/s) = 3.52531 -1.89489 2.10205
# Velocity P-wave (km/s) = 5.77810 4.55796 5.20392
#
# Compressibility (1/GPa) = 0.03445189
#
# Stress axis : x y z
#
# Youngs Moduli (GPa) = 27.86149 60.67016 57.07608
#
# Poissons Ratio (x) = 0.58509 -0.03614
# Poissons Ratio (y) = 0.26869 0.49718
# Poissons Ratio (z) = -0.01764 0.52849
#
# Static dielectric constant tensor:
#      x y z
#    x 1.635720 0.000000 0.000000 
#    y 0.000000 1.601990 0.000000 
#    z 0.000000 0.000000 1.621860 
# 
# From -- ./inp_files/4704.got.cif
#   From: 2010.05.17/outbox.cif.g08.bks.cpg/sg28_3_cif.got.tgz:4704.got - 2010.06.04 01:15:21.
