data_PCOD9339006
_publ_section_title
;
Structure prediction by ZEFSAII (Michael W. Deem and Ramdas Pophale) SiO2 
 PCOD9339006
Probable space group: P C C 2
;
_chemical_formula_sum "Si O2"
_cell_formula_units_Z 22
_cell_length_a 9.284034
_cell_length_b 11.780866
_cell_length_c 8.695613
_cell_angle_alpha 90.000000
_cell_angle_beta 90.000000
_cell_angle_gamma 90.000000
_cell_volume 951.073633
_symmetry_space_group_name_H-M "P C C 2"
_symmetry_group_IT_number 27
_symmetry_cell_setting 'orthorhombic'
loop_
_space_group_symop_operation_xyz
x,y,z
-x,-y,z
-x,y,1/2+z
x,-y,1/2+z
loop_
_atom_site_type_symbol
_atom_site_label
_atom_site_fract_x
_atom_site_fract_y
_atom_site_fract_z
Si Si1 0.185137 0.172615 0.189040
Si Si2 0.686345 0.427939 0.353867
Si Si3 0.913908 0.747984 0.852525
Si Si4 0.500000 0.000000 0.957846
Si Si5 0.289780 0.079938 0.708413
Si Si6 0.410991 0.353966 0.192559
O O1 0.340866 0.230970 0.204225
O O2 0.078035 0.230870 0.309930
O O3 0.202499 0.038896 0.210242
O O4 0.124604 0.202080 0.019926
O O5 0.846538 0.377631 0.345626
O O6 0.577892 0.363175 0.236481
O O7 0.668588 0.558578 0.308491
O O8 0.624686 0.400106 0.522577
O O9 0.822413 0.820413 0.728886
O O10 0.397440 0.076434 0.853156
O O11 0.607225 0.074527 0.061319
#
# Coordination Sequence:
#
# PCOD9339006 Si02
#       6
#     4   4   4   2   4   4
#     4  11  26  42  62  90 128 167 205 251 307 369
#     4  10  22  41  64  93 121 157 205 257 307 360
#     4  11  26  42  62  90 128 167 205 251 307 369
#     4  10  24  38  66  94 122 162 206 258 296 368
#     4  11  23  42  62  96 126 160 204 252 312 358
#     4  10  22  41  64  93 121 157 205 257 307 360
#
# _framework density 23.131754999999998
#
# number of rings (size 3 to 8) (size 9 to 14) (size 15 to 20)
#    0.000    1.455    1.818    2.727    7.636    5.091 
#    0.000    3.636    0.000    0.000    0.000    0.000 
#    0.000    0.000    0.000    0.000    0.000    0.000 
#
# Total GULP energy -123166.103770 kJ/mol
# GULP energy per Si atom -5598.459262 kJ/mol
# Density = 2.307911 g / cm^3
# Si number density = 23.131755 Si / 1000 Ang^3
#
#
#
# Elastic Constant Matrix: (Units=GPa)
#
#
# Indices 1 2 3 4 5 6 
#
# 1 69.4551 4.9987 12.5603 0.0000 0.0000 0.0000
# 2 4.9987 55.3395 -3.2528 0.0000 0.0000 0.0000
# 3 12.5603 -3.2528 85.0881 0.0000 0.0000 0.0000
# 4 0.0000 0.0000 0.0000 11.7990 0.0000 0.0000
# 5 0.0000 0.0000 0.0000 0.0000 24.8746 0.0000
# 6 0.0000 0.0000 0.0000 0.0000 0.0000 33.6445
#
#
#
# Elastic Compliance Matrix: (Units=1/GPa)
#
#
# Indices 1 2 3 4 5 6 
#
# 1 0.014913 -0.001480 -0.002258 0.000000 0.000000 0.000000
# 2 -0.001480 0.018258 0.000916 0.000000 0.000000 0.000000
# 3 -0.002258 0.000916 0.012121 0.000000 0.000000 0.000000
# 4 0.000000 0.000000 0.000000 0.084753 0.000000 0.000000
# 5 0.000000 0.000000 0.000000 0.000000 0.040202 0.000000
# 6 0.000000 0.000000 0.000000 0.000000 0.000000 0.029723
#
#
# Mechanical properties :
#
#
# Convention : Reuss Voigt Hill
#
# Bulk Modulus (GPa) = 25.22144 26.49945 25.86045
# Shear Modulus (GPa) = 22.84907 27.10205 24.97556
#
# Velocity S-wave (km/s) = 3.14631 3.42663 3.28946
# Velocity P-wave (km/s) = 4.91183 5.20927 5.06273
#
# Compressibility (1/GPa) = 0.03964880
#
# Stress axis : x y z
#
# Youngs Moduli (GPa) = 67.05739 54.77110 82.50238
#
# Poissons Ratio (x) = 0.08105 0.18628
# Poissons Ratio (y) = 0.09923 -0.07560
# Poissons Ratio (z) = 0.15141 -0.05019
#
# Static dielectric constant tensor:
#      x y z
#    x 1.855800 0.000000 0.000000 
#    y 0.000000 1.855710 0.000000 
#    z 0.000000 0.000000 1.876720 
# 
# From -- ./inp_files/1119.got.cif
#   From: 2010.05.17/outbox.cif.g08.bks.cpg/sg27_1_cif.got.tgz:1119.got - 2010.06.04 01:11:05.
