data_PCOD9339077
_publ_section_title
;
Structure prediction by ZEFSAII (Michael W. Deem and Ramdas Pophale) SiO2 
 PCOD9339077
Probable space group: P C C 2
;
_chemical_formula_sum "Si O2"
_cell_formula_units_Z 18
_cell_length_a 6.612184
_cell_length_b 5.279995
_cell_length_c 23.001978
_cell_angle_alpha 90.000000
_cell_angle_beta 90.000000
_cell_angle_gamma 90.000000
_cell_volume 803.051921
_symmetry_space_group_name_H-M "P C C 2"
_symmetry_group_IT_number 27
_symmetry_cell_setting 'orthorhombic'
loop_
_space_group_symop_operation_xyz
x,y,z
-x,-y,z
-x,y,1/2+z
x,-y,1/2+z
loop_
_atom_site_type_symbol
_atom_site_label
_atom_site_fract_x
_atom_site_fract_y
_atom_site_fract_z
Si Si1 0.000000 0.500000 0.801760
Si Si2 0.628504 0.250331 0.864121
Si Si3 0.873785 0.249132 0.973290
Si Si4 0.876119 0.258655 0.189909
Si Si5 0.375939 0.248038 0.582560
O O1 0.849471 0.310495 0.835649
O O2 0.860912 0.665663 0.757508
O O3 0.500000 0.500000 0.851427
O O4 0.676014 0.240878 0.932983
O O5 0.500000 0.000000 0.847430
O O6 0.000000 0.500000 0.959514
O O7 0.817832 0.249786 0.041036
O O8 0.000000 0.000000 0.959271
O O9 0.680325 0.237187 0.150473
O O10 0.000000 0.500000 0.165148
O O11 0.000000 0.000000 0.184909
O O12 0.500000 0.500000 0.570552
O O13 0.500000 0.000000 0.567055
#
# Coordination Sequence:
#
# PCOD9339077 Si02
#       5
#     2   4   4   4   4
#     4  10  28  48  72 100 148 194 244 302 350 432
#     4  12  27  46  74 108 143 188 245 296 362 429
#     4  12  24  44  75 100 143 186 228 291 370 429
#     4  10  23  44  67  91 136 184 236 274 358 416
#     4  12  24  42  68 106 141 172 236 296 351 431
#
# _framework density 22.414490000000001
#
# number of rings (size 3 to 8) (size 9 to 14) (size 15 to 20)
#    0.667    0.000    1.111    6.667    3.111    0.889 
#    0.000    0.000    0.000    0.000    0.000    0.000 
#    0.000    0.000    0.000    0.000    0.000    0.000 
#
# Total GULP energy -100569.094429 kJ/mol
# GULP energy per Si atom -5587.171913 kJ/mol
# Density = 2.236347 g / cm^3
# Si number density = 22.414490 Si / 1000 Ang^3
#
#
#
# Elastic Constant Matrix: (Units=GPa)
#
#
# Indices 1 2 3 4 5 6 
#
# 1 66.1378 56.4252 28.7699 0.0000 0.0000 0.0000
# 2 56.4252 216.2421 24.8700 0.0000 0.0000 0.0000
# 3 28.7699 24.8700 88.5599 0.0000 0.0000 0.0000
# 4 0.0000 0.0000 0.0000 218.8612 0.0000 0.0000
# 5 0.0000 0.0000 0.0000 0.0000 49.6598 0.0000
# 6 0.0000 0.0000 0.0000 0.0000 0.0000 42.3248
#
#
#
# Elastic Compliance Matrix: (Units=1/GPa)
#
#
# Indices 1 2 3 4 5 6 
#
# 1 0.021919 -0.005064 -0.005699 0.000000 0.000000 0.000000
# 2 -0.005064 0.005949 -0.000025 0.000000 0.000000 0.000000
# 3 -0.005699 -0.000025 0.013150 0.000000 0.000000 0.000000
# 4 0.000000 0.000000 0.000000 0.004569 0.000000 0.000000
# 5 0.000000 0.000000 0.000000 0.000000 0.020137 0.000000
# 6 0.000000 0.000000 0.000000 0.000000 0.000000 0.023627
#
#
# Mechanical properties :
#
#
# Convention : Reuss Voigt Hill
#
# Bulk Modulus (GPa) = 51.43527 65.67444 58.55485
# Shear Modulus (GPa) = 42.58645 79.56081 61.07363
#
# Velocity S-wave (km/s) = 4.36357 5.96425 5.22557
# Velocity P-wave (km/s) = 6.95592 8.76318 7.91133
#
# Compressibility (1/GPa) = 0.01944191
#
# Stress axis : x y z
#
# Youngs Moduli (GPa) = 45.62191 168.10177 76.04435
#
# Poissons Ratio (x) = 0.85129 0.43335
# Poissons Ratio (y) = 0.23103 0.00193
# Poissons Ratio (z) = 0.25998 0.00427
#
# Static dielectric constant tensor:
#      x y z
#    x 1.809370 0.000000 0.000000 
#    y 0.000000 1.573130 0.000000 
#    z 0.000000 0.000000 1.806150 
# 
# From -- ./inp_files/4921.got.cif
#   From: 2010.05.17/outbox.cif.g08.bks.cpg/sg27_3_cif.got.tgz:4921.got - 2010.06.04 01:11:05.
