data_PCOD9339615
_publ_section_title
;
Structure prediction by ZEFSAII (Michael W. Deem and Ramdas Pophale) SiO2 
 PCOD9339615
Probable space group: P M A 2
;
_chemical_formula_sum "Si O2"
_cell_formula_units_Z 32
_cell_length_a 8.609568
_cell_length_b 14.376800
_cell_length_c 13.400253
_cell_angle_alpha 90.000000
_cell_angle_beta 90.000000
_cell_angle_gamma 90.000000
_cell_volume 1658.657015
_symmetry_space_group_name_H-M "P M A 2"
_symmetry_group_IT_number 28
_symmetry_cell_setting 'orthorhombic'
loop_
_space_group_symop_operation_xyz
x,y,z
-x,-y,z
1/2-x,y,z
1/2+x,-y,z
loop_
_atom_site_type_symbol
_atom_site_label
_atom_site_fract_x
_atom_site_fract_y
_atom_site_fract_z
Si Si1 0.437940 0.104562 0.514660
Si Si2 0.437628 0.209974 0.314052
Si Si3 0.435744 0.604130 0.794181
Si Si4 0.934936 0.603594 0.224979
Si Si5 0.563139 0.894843 0.910442
Si Si6 0.563580 0.394550 0.016012
Si Si7 0.564601 0.105161 0.120663
Si Si8 0.437240 0.215824 0.711519
O O1 0.250000 0.101524 0.514974
O O2 0.487907 0.159651 0.415342
O O3 0.488201 0.159273 0.614035
O O4 0.500000 0.000000 0.513976
O O5 0.250000 0.203807 0.308162
O O6 0.478821 0.319142 0.306457
O O7 0.506592 0.158987 0.217722
O O8 0.500000 0.500000 0.779943
O O9 0.250000 0.599812 0.791838
O O10 0.498117 0.680053 0.717688
O O11 0.482850 0.639281 0.905990
O O12 0.750000 0.595845 0.219793
O O13 0.000000 0.500000 0.241058
O O14 0.993960 0.643421 0.118371
O O15 0.750000 0.896699 0.916208
O O16 0.515028 0.838593 0.812090
O O17 0.500000 0.000000 0.901269
O O18 0.497155 0.855982 0.014823
O O19 0.500000 0.500000 0.016125
O O20 0.750000 0.392779 0.023320
O O21 0.750000 0.103805 0.117667
O O22 0.500000 0.000000 0.127209
O O23 0.250000 0.220052 0.710912
#
# Coordination Sequence:
#
# PCOD9339615 Si02
#       8
#     4   4   4   4   4   4   4   4
#     4  10  22  42  65  88 115 148 192 243 294 347
#     4  10  22  39  59  84 115 152 194 238 290 345
#     4  10  21  36  56  83 117 155 196 240 288 341
#     4  10  20  34  54  80 113 152 191 235 283 336
#     4  10  20  35  55  82 115 150 187 231 289 350
#     4   9  17  30  49  76 109 147 188 229 276 329
#     4  11  22  36  56  82 115 150 187 233 288 349
#     4  10  22  38  59  85 115 152 193 239 292 347
#
# _framework density 19.292718000000001
#
# number of rings (size 3 to 8) (size 9 to 14) (size 15 to 20)
#    0.000    2.000    0.000    4.875    1.750    5.500 
#    0.000    0.625    0.000    1.500    0.000    0.000 
#    0.000    0.000    0.000    0.000    0.000    0.000 
#
# Total GULP energy -178679.454952 kJ/mol
# GULP energy per Si atom -5583.732967 kJ/mol
# Density = 1.924881 g / cm^3
# Si number density = 19.292718 Si / 1000 Ang^3
#
#
#
# Elastic Constant Matrix: (Units=GPa)
#
#
# Indices 1 2 3 4 5 6 
#
# 1 37.1674 33.0757 40.3686 0.0000 0.0000 0.0000
# 2 33.0757 141.2627 98.8480 0.0000 0.0000 0.0000
# 3 40.3686 98.8480 159.3849 0.0000 0.0000 0.0000
# 4 0.0000 0.0000 0.0000 36.7126 0.0000 0.0000
# 5 0.0000 0.0000 0.0000 0.0000 16.3073 0.0000
# 6 0.0000 0.0000 0.0000 0.0000 0.0000 20.6308
#
#
#
# Elastic Compliance Matrix: (Units=1/GPa)
#
#
# Indices 1 2 3 4 5 6 
#
# 1 0.038263 -0.003847 -0.007305 0.000000 0.000000 0.000000
# 2 -0.003847 0.012893 -0.007022 0.000000 0.000000 0.000000
# 3 -0.007305 -0.007022 0.012479 0.000000 0.000000 0.000000
# 4 0.000000 0.000000 0.000000 0.027239 0.000000 0.000000
# 5 0.000000 0.000000 0.000000 0.000000 0.061322 0.000000
# 6 0.000000 0.000000 0.000000 0.000000 0.000000 0.048471
#
#
# Mechanical properties :
#
#
# Convention : Reuss Voigt Hill
#
# Bulk Modulus (GPa) = 36.64716 75.82218 56.23467
# Shear Modulus (GPa) = 20.31593 25.76499 23.04046
#
# Velocity S-wave (km/s) = 3.24857 3.65838 3.45955
# Velocity P-wave (km/s) = 5.75391 7.56514 6.72082
#
# Compressibility (1/GPa) = 0.02728725
#
# Stress axis : x y z
#
# Youngs Moduli (GPa) = 26.13461 77.55965 80.13364
#
# Poissons Ratio (x) = 0.29840 0.58539
# Poissons Ratio (y) = 0.10055 0.56268
# Poissons Ratio (z) = 0.19092 0.54461
#
# Static dielectric constant tensor:
#      x y z
#    x 1.650210 0.000000 0.000000 
#    y 0.000000 1.669970 0.000000 
#    z 0.000000 0.000000 1.683040 
# 
# From -- ./inp_files/5116.got.cif
#   From: 2010.05.17/outbox.cif.g08.bks.cpg/sg28_3_cif.got.tgz:5116.got - 2010.06.04 01:15:21.
