data_PCOD9339737
_publ_section_title
;
Structure prediction by ZEFSAII (Michael W. Deem and Ramdas Pophale) SiO2 
 PCOD9339737
Probable space group: P M A 2
;
_chemical_formula_sum "Si O2"
_cell_formula_units_Z 32
_cell_length_a 15.680593
_cell_length_b 9.747955
_cell_length_c 9.920441
_cell_angle_alpha 90.000000
_cell_angle_beta 90.000000
_cell_angle_gamma 90.000000
_cell_volume 1516.376261
_symmetry_space_group_name_H-M "P M A 2"
_symmetry_group_IT_number 28
_symmetry_cell_setting 'orthorhombic'
loop_
_space_group_symop_operation_xyz
x,y,z
-x,-y,z
1/2-x,y,z
1/2+x,-y,z
loop_
_atom_site_type_symbol
_atom_site_label
_atom_site_fract_x
_atom_site_fract_y
_atom_site_fract_z
Si Si1 0.479675 0.837572 0.297560
Si Si2 0.973106 0.645898 0.695908
Si Si3 0.592062 0.536053 0.986353
Si Si4 0.350114 0.028963 0.952428
Si Si5 0.071986 0.881983 0.596836
Si Si6 0.149252 0.752486 0.063579
Si Si7 0.846499 0.862525 0.677250
Si Si8 0.846404 0.761340 0.189742
O O1 0.438180 0.830612 0.444700
O O2 0.413498 0.771556 0.191303
O O3 0.572294 0.765406 0.286855
O O4 0.500000 0.000000 0.272836
O O5 0.931693 0.600578 0.840496
O O6 0.903237 0.739352 0.619449
O O7 0.000000 0.500000 0.633832
O O8 0.053352 0.751506 0.691821
O O9 0.500000 0.500000 0.048837
O O10 0.639742 0.391358 0.987990
O O11 0.642294 0.638641 0.082718
O O12 0.250000 0.019971 0.920778
O O13 0.381957 0.876003 0.967910
O O14 0.357093 0.105711 0.093574
O O15 0.385592 0.111845 0.827120
O O16 0.151281 0.984542 0.614623
O O17 0.000000 0.000000 0.617843
O O18 0.250000 0.773790 0.097927
O O19 0.750000 0.813456 0.683504
O O20 0.750000 0.761098 0.246647
#
# Coordination Sequence:
#
# PCOD9339737 Si02
#       8
#     4   4   4   4   4   4   4   4
#     4  11  22  40  64  93 127 166 216 265 314 378
#     4  10  22  40  61  88 126 168 209 263 325 384
#     4  11  22  36  59  91 125 165 205 258 330 389
#     4   9  19  34  58  90 121 157 203 264 324 379
#     4   9  22  42  62  90 121 164 221 267 311 378
#     4  11  23  38  59  92 129 167 209 262 326 391
#     4  10  20  38  65  93 124 164 213 272 329 380
#     4  11  21  38  62  90 127 165 206 261 324 386
#
# _framework density 21.102943
#
# number of rings (size 3 to 8) (size 9 to 14) (size 15 to 20)
#    0.000    1.750    3.750    0.375    3.500    1.000 
#    4.500    5.625    0.000    0.000    0.000    0.000 
#    0.000    0.000    0.000    0.000    0.000    0.000 
#
# Total GULP energy -178213.313794 kJ/mol
# GULP energy per Si atom -5569.166056 kJ/mol
# Density = 2.105491 g / cm^3
# Si number density = 21.102943 Si / 1000 Ang^3
#
#
#
# Elastic Constant Matrix: (Units=GPa)
#
#
# Indices 1 2 3 4 5 6 
#
# 1 95.8119 22.7396 28.6640 0.0000 0.0000 0.0000
# 2 22.7396 154.2116 25.6186 0.0000 0.0000 0.0000
# 3 28.6640 25.6186 65.7680 0.0000 0.0000 0.0000
# 4 0.0000 0.0000 0.0000 19.7992 0.0000 0.0000
# 5 0.0000 0.0000 0.0000 0.0000 7.7913 0.0000
# 6 0.0000 0.0000 0.0000 0.0000 0.0000 27.6382
#
#
#
# Elastic Compliance Matrix: (Units=1/GPa)
#
#
# Indices 1 2 3 4 5 6 
#
# 1 0.012137 -0.000974 -0.004910 0.000000 0.000000 0.000000
# 2 -0.000974 0.007011 -0.002307 0.000000 0.000000 0.000000
# 3 -0.004910 -0.002307 0.018244 0.000000 0.000000 0.000000
# 4 0.000000 0.000000 0.000000 0.050507 0.000000 0.000000
# 5 0.000000 0.000000 0.000000 0.000000 0.128348 0.000000
# 6 0.000000 0.000000 0.000000 0.000000 0.000000 0.036182
#
#
# Mechanical properties :
#
#
# Convention : Reuss Voigt Hill
#
# Bulk Modulus (GPa) = 47.59606 52.20398 49.90002
# Shear Modulus (GPa) = 18.12810 26.96370 22.54590
#
# Velocity S-wave (km/s) = 2.93410 3.57840 3.27215
# Velocity P-wave (km/s) = 5.83796 6.47030 6.16225
#
# Compressibility (1/GPa) = 0.02101014
#
# Stress axis : x y z
#
# Youngs Moduli (GPa) = 82.39035 142.62458 54.81366
#
# Poissons Ratio (x) = 0.13891 0.26916
# Poissons Ratio (y) = 0.08025 0.12644
# Poissons Ratio (z) = 0.40458 0.32899
#
# Static dielectric constant tensor:
#      x y z
#    x 1.862160 0.000000 0.000000 
#    y 0.000000 1.830490 0.000000 
#    z 0.000000 0.000000 1.797720 
# 
# From -- ./inp_files/5623.got.cif
#   From: 2010.05.17/outbox.cif.g08.bks.cpg/sg28_3_cif.got.tgz:5623.got - 2010.06.04 01:15:21.
