data_PCOD9339581
_publ_section_title
;
Structure prediction by ZEFSAII (Michael W. Deem and Ramdas Pophale) SiO2 
 PCOD9339581
Probable space group: P M A 2
;
_chemical_formula_sum "Si O2"
_cell_formula_units_Z 32
_cell_length_a 8.563752
_cell_length_b 9.108649
_cell_length_c 22.244240
_cell_angle_alpha 90.000000
_cell_angle_beta 90.000000
_cell_angle_gamma 90.000000
_cell_volume 1735.144393
_symmetry_space_group_name_H-M "P M A 2"
_symmetry_group_IT_number 28
_symmetry_cell_setting 'orthorhombic'
loop_
_space_group_symop_operation_xyz
x,y,z
-x,-y,z
1/2-x,y,z
1/2+x,-y,z
loop_
_atom_site_type_symbol
_atom_site_label
_atom_site_fract_x
_atom_site_fract_y
_atom_site_fract_z
Si Si1 0.063165 0.665556 0.857950
Si Si2 0.938621 0.667719 0.241536
Si Si3 0.937528 0.165498 0.737753
Si Si4 0.436204 0.165862 0.611819
Si Si5 0.436041 0.666050 0.496386
Si Si6 0.562557 0.668008 0.982323
Si Si7 0.561296 0.667782 0.112265
Si Si8 0.937809 0.668073 0.371604
O O1 0.250000 0.661845 0.860304
O O2 0.013917 0.749499 0.797792
O O3 0.000000 0.500000 0.854534
O O4 0.002441 0.734148 0.920599
O O5 0.750000 0.663372 0.241791
O O6 0.988796 0.733683 0.176910
O O7 0.985133 0.733402 0.306400
O O8 0.000000 0.500000 0.241341
O O9 0.750000 0.163898 0.734234
O O10 0.003620 0.229647 0.675398
O O11 0.000000 0.000000 0.742084
O O12 0.250000 0.164375 0.611798
O O13 0.499342 0.250501 0.554117
O O14 0.500000 0.000000 0.608970
O O15 0.500000 0.500000 0.498719
O O16 0.250000 0.663704 0.497081
O O17 0.493497 0.733544 0.432825
O O18 0.500000 0.500000 0.982997
O O19 0.750000 0.665235 0.978980
O O20 0.513962 0.733161 0.047416
O O21 0.500000 0.500000 0.112380
O O22 0.750000 0.663836 0.112062
O O23 0.750000 0.666224 0.375972
O O24 0.000000 0.500000 0.370289
#
# Coordination Sequence:
#
# PCOD9339581 Si02
#       8
#     4   4   4   4   4   4   4   4
#     4  10  20  32  48  70  97 126 158 193 233 280
#     4   8  13  20  31  48  75 110 149 188 227 272
#     4  10  21  37  55  75  97 124 157 194 235 282
#     4  11  22  38  58  78 100 127 158 195 238 287
#     4  11  21  34  51  73 101 132 165 202 242 287
#     4   9  15  23  37  56  83 117 153 190 231 275
#     4   8  13  20  30  48  74 109 149 187 225 270
#     4   9  15  24  38  58  85 119 155 193 236 281
#
# _framework density 18.442267999999999
#
# number of rings (size 3 to 8) (size 9 to 14) (size 15 to 20)
#    0.000    2.500    0.000    6.000    0.000    3.500 
#    0.000    1.250    0.000    0.000    0.000    0.000 
#    0.000    1.000    0.000    4.250    0.000   12.375 
#
# Total GULP energy -178164.470485 kJ/mol
# GULP energy per Si atom -5567.639703 kJ/mol
# Density = 1.840029 g / cm^3
# Si number density = 18.442268 Si / 1000 Ang^3
#
#
#
# Elastic Constant Matrix: (Units=GPa)
#
#
# Indices 1 2 3 4 5 6 
#
# 1 76.8639 8.3960 57.2218 0.0000 0.0000 0.0000
# 2 8.3960 11.4864 37.9330 0.0000 0.0000 0.0000
# 3 57.2218 37.9330 261.1216 0.0000 0.0000 0.0000
# 4 0.0000 0.0000 0.0000 -14.5581 0.0000 0.0000
# 5 0.0000 0.0000 0.0000 0.0000 108.7577 0.0000
# 6 0.0000 0.0000 0.0000 0.0000 0.0000 13.2772
#
#
#
# Elastic Compliance Matrix: (Units=1/GPa)
#
#
# Indices 1 2 3 4 5 6 
#
# 1 0.015546 -0.000217 -0.003375 0.000000 0.000000 0.000000
# 2 -0.000217 0.167341 -0.024262 0.000000 0.000000 0.000000
# 3 -0.003375 -0.024262 0.008094 0.000000 0.000000 0.000000
# 4 0.000000 0.000000 0.000000 -0.068690 0.000000 0.000000
# 5 0.000000 0.000000 0.000000 0.000000 0.009195 0.000000
# 6 0.000000 0.000000 0.000000 0.000000 0.000000 0.075317
#
#
# Mechanical properties :
#
#
# Convention : Reuss Voigt Hill
#
# Bulk Modulus (GPa) = 7.39249 61.84149 34.61699
# Shear Modulus (GPa) = 16.25476 37.89009 27.07243
#
# Velocity S-wave (km/s) = 2.97204 4.53760 3.83555
# Velocity P-wave (km/s) = 3.97423 7.81399 6.19891
#
# Compressibility (1/GPa) = 0.13527239
#
# Stress axis : x y z
#
# Youngs Moduli (GPa) = 64.32327 5.97584 123.55140
#
# Poissons Ratio (x) = 0.00130 0.41702
# Poissons Ratio (y) = 0.01396 2.99759
# Poissons Ratio (z) = 0.21711 0.14499
#
# Static dielectric constant tensor:
#      x y z
#    x 1.617330 0.000000 0.000000 
#    y 0.000000 1.590560 0.000000 
#    z 0.000000 0.000000 1.744690 
# 
# From -- ./inp_files/7169.got.cif
#   From: 2010.05.17/outbox.cif.g08.bks.cpg/sg28_4_cif.got.tgz:7169.got - 2010.06.04 01:15:21.
