data_PCOD9339145
_publ_section_title
;
Structure prediction by ZEFSAII (Michael W. Deem and Ramdas Pophale) SiO2 
 PCOD9339145
Probable space group: P C C 2
;
_chemical_formula_sum "Si O2"
_cell_formula_units_Z 14
_cell_length_a 11.796434
_cell_length_b 6.263978
_cell_length_c 8.571995
_cell_angle_alpha 90.000000
_cell_angle_beta 90.000000
_cell_angle_gamma 90.000000
_cell_volume 633.407024
_symmetry_space_group_name_H-M "P C C 2"
_symmetry_group_IT_number 27
_symmetry_cell_setting 'orthorhombic'
loop_
_space_group_symop_operation_xyz
x,y,z
-x,-y,z
-x,y,1/2+z
x,-y,1/2+z
loop_
_atom_site_type_symbol
_atom_site_label
_atom_site_fract_x
_atom_site_fract_y
_atom_site_fract_z
Si Si1 0.464768 0.258671 0.476480
Si Si2 0.000000 0.500000 0.527280
Si Si3 0.350134 0.043905 0.780096
Si Si4 0.094689 0.185349 0.777039
O O1 0.500000 0.500000 0.501046
O O2 0.405015 0.160556 0.630009
O O3 0.584928 0.156627 0.424084
O O4 0.383986 0.200043 0.326589
O O5 0.924007 0.657131 0.631374
O O6 0.924842 0.341659 0.423139
O O7 0.217407 0.079656 0.777876
O O8 0.000000 0.000000 0.776128
#
# Coordination Sequence:
#
# PCOD9339145 Si02
#       4
#     4   2   4   4
#     4  11  25  47  71 110 145 194 238 305 366 439
#     4  10  26  48  70 118 142 198 244 296 394 418
#     4  11  26  45  75 106 147 191 254 294 374 437
#     4  11  26  47  77 109 150 192 249 310 363 444
#
# _framework density 22.102691
#
# number of rings (size 3 to 8) (size 9 to 14) (size 15 to 20)
#    0.000    1.143    0.000    5.143   12.000    2.286 
#    0.000    1.429    0.000    0.000    0.000    0.000 
#    0.000    0.000    0.000    0.000    0.000    0.000 
#
# Total GULP energy -78120.789762 kJ/mol
# GULP energy per Si atom -5580.056412 kJ/mol
# Density = 2.205238 g / cm^3
# Si number density = 22.102691 Si / 1000 Ang^3
#
#
#
# Elastic Constant Matrix: (Units=GPa)
#
#
# Indices 1 2 3 4 5 6 
#
# 1 218.1414 86.1790 72.3874 0.0000 0.0000 0.0000
# 2 86.1790 149.3932 84.6757 0.0000 0.0000 0.0000
# 3 72.3874 84.6757 129.8804 0.0000 0.0000 0.0000
# 4 0.0000 0.0000 0.0000 11.3819 0.0000 0.0000
# 5 0.0000 0.0000 0.0000 0.0000 -4.7870 0.0000
# 6 0.0000 0.0000 0.0000 0.0000 0.0000 30.5900
#
#
#
# Elastic Compliance Matrix: (Units=1/GPa)
#
#
# Indices 1 2 3 4 5 6 
#
# 1 0.006186 -0.002560 -0.001778 0.000000 0.000000 0.000000
# 2 -0.002560 0.011677 -0.006186 0.000000 0.000000 0.000000
# 3 -0.001778 -0.006186 0.012723 0.000000 0.000000 0.000000
# 4 0.000000 0.000000 0.000000 0.087859 0.000000 0.000000
# 5 0.000000 0.000000 0.000000 0.000000 -0.208900 0.000000
# 6 0.000000 0.000000 0.000000 0.000000 0.000000 0.032690
#
#
# Mechanical properties :
#
#
# Convention : Reuss Voigt Hill
#
# Bulk Modulus (GPa) = 104.85429 109.32214 107.08821
# Shear Modulus (GPa) = -149.08599 24.38185 -62.35207
#
# Velocity S-wave (km/s) = -8.22180 3.32492 -5.31709
# Velocity P-wave (km/s) = 6.52595 8.01926 3.29549
#
# Compressibility (1/GPa) = 0.00953704
#
# Stress axis : x y z
#
# Youngs Moduli (GPa) = 161.66030 85.64022 78.59603
#
# Poissons Ratio (x) = 0.21927 0.13977
# Poissons Ratio (y) = 0.41391 0.48617
# Poissons Ratio (z) = 0.28749 0.52974
#
# Static dielectric constant tensor:
#      x y z
#    x 1.763730 0.000000 0.000000 
#    y 0.000000 1.950750 0.000000 
#    z 0.000000 0.000000 1.901040 
# 
# From -- ./inp_files/1297.got.cif
#   From: 2010.05.17/outbox.cif.g08.bks.cpg/sg27_1_cif.got.tgz:1297.got - 2010.06.04 01:11:05.
