data_PCOD9339854
_publ_section_title
;
Structure prediction by ZEFSAII (Michael W. Deem and Ramdas Pophale) SiO2 
 PCOD9339854
Probable space group: P M A 2
;
_chemical_formula_sum "Si O2"
_cell_formula_units_Z 20
_cell_length_a 10.174848
_cell_length_b 7.508711
_cell_length_c 12.773619
_cell_angle_alpha 90.000000
_cell_angle_beta 90.000000
_cell_angle_gamma 90.000000
_cell_volume 975.904403
_symmetry_space_group_name_H-M "P M A 2"
_symmetry_group_IT_number 28
_symmetry_cell_setting 'orthorhombic'
loop_
_space_group_symop_operation_xyz
x,y,z
-x,-y,z
1/2-x,y,z
1/2+x,-y,z
loop_
_atom_site_type_symbol
_atom_site_label
_atom_site_fract_x
_atom_site_fract_y
_atom_site_fract_z
Si Si1 0.250000 0.302832 0.394140
Si Si2 0.500000 0.000000 0.075906
Si Si3 0.597043 0.340239 0.946429
Si Si4 0.982966 0.214012 0.495569
Si Si5 0.250000 0.686119 0.339205
Si Si6 0.250000 0.023944 0.212320
Si Si7 0.402277 0.832738 0.723964
O O1 0.121175 0.300392 0.465663
O O2 0.250000 0.476040 0.320752
O O3 0.250000 0.129108 0.321372
O O4 0.444614 0.839454 0.006150
O O5 0.619295 0.933209 0.148171
O O6 0.500000 0.500000 0.975109
O O7 0.750000 0.381296 0.968108
O O8 0.584178 0.296133 0.822880
O O9 0.876313 0.268250 0.409802
O O10 0.935900 0.256006 0.612698
O O11 0.000000 0.000000 0.491616
O O12 0.250000 0.813884 0.239543
O O13 0.250000 0.894526 0.720170
O O14 0.500000 0.000000 0.737273
#
# Coordination Sequence:
#
# PCOD9339854 Si02
#       7
#     2   2   4   4   2   2   4
#     4  12  26  42  71  99 132 185 227 278 339 400
#     4  12  26  48  74  96 136 180 230 296 352 402
#     4  11  26  47  73 107 140 178 228 282 347 415
#     4  11  21  42  67  99 138 182 222 271 332 402
#     4  12  24  44  67  97 136 173 229 276 335 412
#     4  12  26  46  70  98 134 176 232 296 350 396
#     4  10  22  40  69 103 139 184 224 268 335 410
#
# _framework density 20.493808999999999
#
# number of rings (size 3 to 8) (size 9 to 14) (size 15 to 20)
#    0.000    0.800    5.000    1.800    5.600    4.000 
#    0.000    0.000    0.000    0.000    0.000    0.000 
#    0.000    0.000    0.000    0.000    0.000    0.000 
#
# Total GULP energy -111897.855419 kJ/mol
# GULP energy per Si atom -5594.892771 kJ/mol
# Density = 2.044716 g / cm^3
# Si number density = 20.493809 Si / 1000 Ang^3
#
#
#
# Elastic Constant Matrix: (Units=GPa)
#
#
# Indices 1 2 3 4 5 6 
#
# 1 170.1057 24.9265 33.2385 0.0000 0.0000 0.0000
# 2 24.9265 77.4782 0.7332 0.0000 0.0000 0.0000
# 3 33.2385 0.7332 57.9429 0.0000 0.0000 0.0000
# 4 0.0000 0.0000 0.0000 5.1475 0.0000 0.0000
# 5 0.0000 0.0000 0.0000 0.0000 31.6986 0.0000
# 6 0.0000 0.0000 0.0000 0.0000 0.0000 77.0628
#
#
#
# Elastic Compliance Matrix: (Units=1/GPa)
#
#
# Indices 1 2 3 4 5 6 
#
# 1 0.006979 -0.002208 -0.003976 0.000000 0.000000 0.000000
# 2 -0.002208 0.013607 0.001094 0.000000 0.000000 0.000000
# 3 -0.003976 0.001094 0.019525 0.000000 0.000000 0.000000
# 4 0.000000 0.000000 0.000000 0.194270 0.000000 0.000000
# 5 0.000000 0.000000 0.000000 0.000000 0.031547 0.000000
# 6 0.000000 0.000000 0.000000 0.000000 0.000000 0.012976
#
#
# Mechanical properties :
#
#
# Convention : Reuss Voigt Hill
#
# Bulk Modulus (GPa) = 33.40805 47.03591 40.22198
# Shear Modulus (GPa) = 16.71903 39.22368 27.97135
#
# Velocity S-wave (km/s) = 2.85934 4.37959 3.69842
# Velocity P-wave (km/s) = 5.21900 6.96962 6.15685
#
# Compressibility (1/GPa) = 0.02993291
#
# Stress axis : x y z
#
# Youngs Moduli (GPa) = 143.28665 73.49290 51.21622
#
# Poissons Ratio (x) = 0.16225 0.20361
# Poissons Ratio (y) = 0.31633 -0.05604
# Poissons Ratio (z) = 0.56964 -0.08042
#
# Static dielectric constant tensor:
#      x y z
#    x 1.701460 0.000000 0.000000 
#    y 0.000000 1.721000 0.000000 
#    z 0.000000 0.000000 1.703010 
# 
# From -- ./inp_files/4641.got.cif
#   From: 2010.05.17/outbox.cif.g08.bks.cpg/sg28_3_cif.got.tgz:4641.got - 2010.06.04 01:15:21.
