data_PCOD9339132
_publ_section_title
;
Structure prediction by ZEFSAII (Michael W. Deem and Ramdas Pophale) SiO2 
 PCOD9339132
Probable space group: P C C 2
;
_chemical_formula_sum "Si O2"
_cell_formula_units_Z 32
_cell_length_a 8.375616
_cell_length_b 11.267026
_cell_length_c 15.148254
_cell_angle_alpha 90.000000
_cell_angle_beta 90.000000
_cell_angle_gamma 90.000000
_cell_volume 1429.514724
_symmetry_space_group_name_H-M "P C C 2"
_symmetry_group_IT_number 27
_symmetry_cell_setting 'orthorhombic'
loop_
_space_group_symop_operation_xyz
x,y,z
-x,-y,z
-x,y,1/2+z
x,-y,1/2+z
loop_
_atom_site_type_symbol
_atom_site_label
_atom_site_fract_x
_atom_site_fract_y
_atom_site_fract_z
Si Si1 0.251547 0.723978 0.140430
Si Si2 0.103582 0.316106 0.065184
Si Si3 0.656867 0.932280 0.411573
Si Si4 0.261517 0.537634 0.427011
Si Si5 0.809201 0.481785 0.723993
Si Si6 0.569124 0.308237 0.974892
Si Si7 0.827537 0.051147 0.564068
Si Si8 0.813265 0.964298 0.740219
O O1 0.279130 0.596861 0.185112
O O2 0.216538 0.827492 0.212108
O O3 0.079212 0.709091 0.092131
O O4 0.396380 0.748548 0.071850
O O5 0.196680 0.375791 0.149824
O O6 0.173546 0.187912 0.039713
O O7 0.117863 0.400221 0.979809
O O8 0.623882 0.793108 0.407136
O O9 0.500000 0.000000 0.442407
O O10 0.780498 0.963249 0.487310
O O11 0.716322 0.994495 0.324162
O O12 0.240684 0.488638 0.327337
O O13 0.315585 0.421127 0.478537
O O14 0.403066 0.634922 0.442265
O O15 0.000000 0.500000 0.726785
O O16 0.741380 0.035612 0.656868
O O17 0.000000 0.000000 0.588908
O O18 0.000000 0.000000 0.759127
#
# Coordination Sequence:
#
# PCOD9339132 Si02
#       8
#     4   4   4   4   4   4   4   4
#     4  11  22  46  72  99 140 176 235 290 344 416
#     4  11  22  44  74 100 135 177 233 291 352 412
#     4  12  27  44  68 103 139 190 234 283 346 430
#     4  11  26  46  69 100 139 188 226 289 354 412
#     4  10  25  41  69 106 131 177 234 290 344 409
#     4  11  25  48  66  96 142 184 233 280 347 421
#     4  11  22  45  70 102 135 183 229 293 354 407
#     4  11  24  45  70 105 141 180 233 295 355 404
#
# _framework density 22.385218999999999
#
# number of rings (size 3 to 8) (size 9 to 14) (size 15 to 20)
#    0.000    1.000    5.000    1.125    7.000    0.500 
#    6.750    0.000    0.000    0.000    0.000    0.000 
#    0.000    0.000    0.000    0.000    0.000    0.000 
#
# Total GULP energy -178399.426272 kJ/mol
# GULP energy per Si atom -5574.982071 kJ/mol
# Density = 2.233427 g / cm^3
# Si number density = 22.385219 Si / 1000 Ang^3
#
#
#
# Elastic Constant Matrix: (Units=GPa)
#
#
# Indices 1 2 3 4 5 6 
#
# 1 19.4471 19.2086 3.2295 0.0000 0.0000 0.0000
# 2 19.2086 130.1351 9.0368 0.0000 0.0000 0.0000
# 3 3.2295 9.0368 77.3802 0.0000 0.0000 0.0000
# 4 0.0000 0.0000 0.0000 41.3017 0.0000 0.0000
# 5 0.0000 0.0000 0.0000 0.0000 -500.7755 0.0000
# 6 0.0000 0.0000 0.0000 0.0000 0.0000 25.8609
#
#
#
# Elastic Compliance Matrix: (Units=1/GPa)
#
#
# Indices 1 2 3 4 5 6 
#
# 1 0.060368 -0.008807 -0.001491 0.000000 0.000000 0.000000
# 2 -0.008807 0.009032 -0.000687 0.000000 0.000000 0.000000
# 3 -0.001491 -0.000687 0.013066 0.000000 0.000000 0.000000
# 4 0.000000 0.000000 0.000000 0.024212 0.000000 0.000000
# 5 0.000000 0.000000 0.000000 0.000000 -0.001997 0.000000
# 6 0.000000 0.000000 0.000000 0.000000 0.000000 0.038668
#
#
# Mechanical properties :
#
#
# Convention : Reuss Voigt Hill
#
# Bulk Modulus (GPa) = 16.53019 32.21247 24.37133
# Shear Modulus (GPa) = 26.95627 -73.69010 -23.36691
#
# Velocity S-wave (km/s) = 3.47392 -5.74374 -3.23438
# Velocity P-wave (km/s) = 4.84678 5.43747 1.74281
#
# Compressibility (1/GPa) = 0.06049538
#
# Stress axis : x y z
#
# Youngs Moduli (GPa) = 16.56496 110.71713 76.53632
#
# Poissons Ratio (x) = 0.97510 0.11412
# Poissons Ratio (y) = 0.14589 0.05260
# Poissons Ratio (z) = 0.02470 0.07609
#
# Static dielectric constant tensor:
#      x y z
#    x 2.014400 0.000000 0.000000 
#    y 0.000000 1.830310 0.000000 
#    z 0.000000 0.000000 1.865860 
# 
# From -- ./inp_files/3431.got.cif
#   From: 2010.05.17/outbox.cif.g08.bks.cpg/sg27_2_cif.got.tgz:3431.got - 2010.06.04 01:11:05.
