data_PCOD9339160
_publ_section_title
;
Structure prediction by ZEFSAII (Michael W. Deem and Ramdas Pophale) SiO2 
 PCOD9339160
Probable space group: P C C 2
;
_chemical_formula_sum "Si O2"
_cell_formula_units_Z 32
_cell_length_a 16.582050
_cell_length_b 6.315216
_cell_length_c 14.299620
_cell_angle_alpha 90.000000
_cell_angle_beta 90.000000
_cell_angle_gamma 90.000000
_cell_volume 1497.445160
_symmetry_space_group_name_H-M "P C C 2"
_symmetry_group_IT_number 27
_symmetry_cell_setting 'orthorhombic'
loop_
_space_group_symop_operation_xyz
x,y,z
-x,-y,z
-x,y,1/2+z
x,-y,1/2+z
loop_
_atom_site_type_symbol
_atom_site_label
_atom_site_fract_x
_atom_site_fract_y
_atom_site_fract_z
Si Si1 0.166023 0.390614 0.150280
Si Si2 0.580171 0.630787 0.986081
Si Si3 0.697471 0.237637 0.995191
Si Si4 0.080171 0.130788 0.306470
Si Si5 0.866243 0.425162 0.956008
Si Si6 0.197470 0.262362 0.797360
Si Si7 0.633757 0.925162 0.836543
Si Si8 0.333976 0.890613 0.642271
O O1 0.103420 0.276605 0.219032
O O2 0.184710 0.613919 0.200662
O O3 0.250000 0.250001 0.146276
O O4 0.124562 0.441403 0.050955
O O5 0.500000 0.500000 0.001687
O O6 0.652943 0.461329 0.984586
O O7 0.571941 0.772852 0.891806
O O8 0.603421 0.776604 0.073519
O O9 0.791269 0.273055 0.978988
O O10 0.662523 0.088510 0.914989
O O11 0.684711 0.113918 0.091889
O O12 0.071940 0.272853 0.400745
O O13 0.152943 0.961330 0.307965
O O14 0.000000 0.000000 0.290864
O O15 0.837477 0.588511 0.877563
O O16 0.291269 0.226945 0.813563
O O17 0.624562 0.058597 0.741596
#
# Coordination Sequence:
#
# PCOD9339160 Si02
#       8
#     4   4   4   4   4   4   4   4
#     4  11  23  39  71 102 129 176 243 285 331 418
#     4  11  26  44  65  98 146 177 221 297 352 397
#     4  11  21  40  69  97 132 171 236 282 335 410
#     4  11  26  44  65  98 146 177 221 297 352 397
#     4  11  21  39  69  99 127 180 232 278 344 420
#     4  11  21  40  69  97 132 171 236 282 335 410
#     4  11  21  39  69  99 127 180 232 278 344 420
#     4  11  23  39  71 102 129 176 243 285 331 418
#
# _framework density 21.369729
#
# number of rings (size 3 to 8) (size 9 to 14) (size 15 to 20)
#    0.000    1.000    5.000    2.250    0.000    4.000 
#    0.000    7.500    0.000    0.000    0.000    0.000 
#    0.000    0.000    0.000    0.000    0.000    0.000 
#
# Total GULP energy -178677.457617 kJ/mol
# GULP energy per Si atom -5583.670551 kJ/mol
# Density = 2.132109 g / cm^3
# Si number density = 21.369729 Si / 1000 Ang^3
#
#
#
# Elastic Constant Matrix: (Units=GPa)
#
#
# Indices 1 2 3 4 5 6 
#
# 1 54.2615 20.7404 30.5443 0.0000 0.0000 0.0000
# 2 20.7404 74.4020 53.1213 0.0000 0.0000 0.0000
# 3 30.5443 53.1213 165.5951 0.0000 0.0000 0.0000
# 4 0.0000 0.0000 0.0000 56.1586 0.0000 0.0000
# 5 0.0000 0.0000 0.0000 0.0000 12.5156 0.0000
# 6 0.0000 0.0000 0.0000 0.0000 0.0000 41.7567
#
#
#
# Elastic Compliance Matrix: (Units=1/GPa)
#
#
# Indices 1 2 3 4 5 6 
#
# 1 0.021487 -0.004099 -0.002648 0.000000 0.000000 0.000000
# 2 -0.004099 0.018215 -0.005087 0.000000 0.000000 0.000000
# 3 -0.002648 -0.005087 0.008159 0.000000 0.000000 0.000000
# 4 0.000000 0.000000 0.000000 0.017807 0.000000 0.000000
# 5 0.000000 0.000000 0.000000 0.000000 0.079900 0.000000
# 6 0.000000 0.000000 0.000000 0.000000 0.000000 0.023948
#
#
# Mechanical properties :
#
#
# Convention : Reuss Voigt Hill
#
# Bulk Modulus (GPa) = 41.33528 55.89672 48.61600
# Shear Modulus (GPa) = 24.84482 34.74304 29.79393
#
# Velocity S-wave (km/s) = 3.41342 4.03650 3.73797
# Velocity P-wave (km/s) = 5.90932 6.92374 6.43655
#
# Compressibility (1/GPa) = 0.02419241
#
# Stress axis : x y z
#
# Youngs Moduli (GPa) = 46.54033 54.89902 122.55994
#
# Poissons Ratio (x) = 0.22502 0.32459
# Poissons Ratio (y) = 0.19076 0.62349
# Poissons Ratio (z) = 0.12326 0.27929
#
# Static dielectric constant tensor:
#      x y z
#    x 1.778880 0.000000 0.000000 
#    y 0.000000 1.799170 0.000000 
#    z 0.000000 0.000000 1.797200 
# 
# From -- ./inp_files/3171.got.cif
#   From: 2010.05.17/outbox.cif.g08.bks.cpg/sg27_2_cif.got.tgz:3171.got - 2010.06.04 01:11:05.
