data_PCOD9339268
_publ_section_title
;
Structure prediction by ZEFSAII (Michael W. Deem and Ramdas Pophale) SiO2 
 PCOD9339268
Probable space group: P M A 2
;
_chemical_formula_sum "Si O2"
_cell_formula_units_Z 28
_cell_length_a 8.639305
_cell_length_b 9.203808
_cell_length_c 18.829379
_cell_angle_alpha 90.000000
_cell_angle_beta 90.000000
_cell_angle_gamma 90.000000
_cell_volume 1497.208741
_symmetry_space_group_name_H-M "P M A 2"
_symmetry_group_IT_number 28
_symmetry_cell_setting 'orthorhombic'
loop_
_space_group_symop_operation_xyz
x,y,z
-x,-y,z
1/2-x,y,z
1/2+x,-y,z
loop_
_atom_site_type_symbol
_atom_site_label
_atom_site_fract_x
_atom_site_fract_y
_atom_site_fract_z
Si Si1 0.564843 0.835613 0.439020
Si Si2 0.564155 0.337872 0.022976
Si Si3 0.064396 0.164184 0.889511
Si Si4 0.435278 0.164716 0.732052
Si Si5 0.065257 0.834522 0.587077
Si Si6 0.063516 0.837721 0.163021
Si Si7 0.936488 0.337357 0.304483
O O1 0.750000 0.841140 0.440646
O O2 0.502211 0.772677 0.513878
O O3 0.504753 0.742711 0.373153
O O4 0.500000 0.000000 0.431887
O O5 0.500000 0.500000 0.027679
O O6 0.750000 0.341533 0.022185
O O7 0.512913 0.246109 0.091959
O O8 0.504545 0.260364 0.951974
O O9 0.250000 0.158302 0.895323
O O10 0.026688 0.224403 0.810363
O O11 0.000000 0.000000 0.895239
O O12 0.250000 0.160240 0.723939
O O13 0.508334 0.233698 0.661342
O O14 0.500000 0.000000 0.734734
O O15 0.250000 0.838277 0.584660
O O16 0.000000 0.000000 0.588014
O O17 0.250000 0.843753 0.162199
O O18 0.017090 0.750270 0.233564
O O19 0.000000 0.000000 0.164361
O O20 0.750000 0.338789 0.308793
O O21 0.000000 0.500000 0.300428
#
# Coordination Sequence:
#
# PCOD9339268 Si02
#       7
#     4   4   4   4   4   4   4
#     4  11  21  35  55  81 112 147 187 232 279 328
#     4  11  23  39  58  82 112 148 187 228 276 330
#     4  10  20  34  54  81 112 147 187 232 279 329
#     4   9  16  27  45  72 106 141 179 225 277 327
#     4  10  17  27  46  74 107 142 181 227 278 328
#     4  10  23  40  61  87 114 144 181 226 274 325
#     4  11  23  40  59  83 113 147 186 226 274 329
#
# _framework density 18.701467000000001
#
# number of rings (size 3 to 8) (size 9 to 14) (size 15 to 20)
#    0.000    1.714    0.000    7.286    0.000    6.286 
#    0.000    0.000    0.000    0.857    0.000    2.000 
#    0.000    0.000    0.000    0.000    0.000    0.000 
#
# Total GULP energy -156355.835991 kJ/mol
# GULP energy per Si atom -5584.137000 kJ/mol
# Density = 1.865890 g / cm^3
# Si number density = 18.701467 Si / 1000 Ang^3
#
#
#
# Elastic Constant Matrix: (Units=GPa)
#
#
# Indices 1 2 3 4 5 6 
#
# 1 110.5888 39.3299 78.4025 0.0000 0.0000 0.0000
# 2 39.3299 103.6939 90.1927 0.0000 0.0000 0.0000
# 3 78.4025 90.1927 232.3539 0.0000 0.0000 0.0000
# 4 0.0000 0.0000 0.0000 -10.8444 0.0000 0.0000
# 5 0.0000 0.0000 0.0000 0.0000 31.7109 0.0000
# 6 0.0000 0.0000 0.0000 0.0000 0.0000 28.5548
#
#
#
# Elastic Compliance Matrix: (Units=1/GPa)
#
#
# Indices 1 2 3 4 5 6 
#
# 1 0.012051 -0.001561 -0.003460 0.000000 0.000000 0.000000
# 2 -0.001561 0.014762 -0.005203 0.000000 0.000000 0.000000
# 3 -0.003460 -0.005203 0.007491 0.000000 0.000000 0.000000
# 4 0.000000 0.000000 0.000000 -0.092213 0.000000 0.000000
# 5 0.000000 0.000000 0.000000 0.000000 0.031535 0.000000
# 6 0.000000 0.000000 0.000000 0.000000 0.000000 0.035020
#
#
# Mechanical properties :
#
#
# Convention : Reuss Voigt Hill
#
# Bulk Modulus (GPa) = 72.17903 95.83188 84.00545
# Shear Modulus (GPa) = 148.30883 25.79834 87.05359
#
# Velocity S-wave (km/s) = 8.91490 3.71817 6.83009
# Velocity P-wave (km/s) = 12.02691 8.35388 10.35456
#
# Compressibility (1/GPa) = 0.01385444
#
# Stress axis : x y z
#
# Youngs Moduli (GPa) = 82.98127 67.74313 133.49028
#
# Poissons Ratio (x) = 0.10574 0.46193
# Poissons Ratio (y) = 0.12953 0.69459
# Poissons Ratio (z) = 0.28715 0.35249
#
# Static dielectric constant tensor:
#      x y z
#    x 1.627750 0.000000 0.000000 
#    y 0.000000 1.605850 0.000000 
#    z 0.000000 0.000000 1.689450 
# 
# From -- ./inp_files/6847.got.cif
#   From: 2010.05.17/outbox.cif.g08.bks.cpg/sg28_4_cif.got.tgz:6847.got - 2010.06.04 01:15:21.
