data_PCOD9339951
_publ_section_title
;
Structure prediction by ZEFSAII (Michael W. Deem and Ramdas Pophale) SiO2 
 PCOD9339951
Probable space group: P M A 2
;
_chemical_formula_sum "Si O2"
_cell_formula_units_Z 16
_cell_length_a 26.793954
_cell_length_b 5.092192
_cell_length_c 5.094821
_cell_angle_alpha 90.000000
_cell_angle_beta 90.000000
_cell_angle_gamma 90.000000
_cell_volume 695.137164
_symmetry_space_group_name_H-M "P M A 2"
_symmetry_group_IT_number 28
_symmetry_cell_setting 'orthorhombic'
loop_
_space_group_symop_operation_xyz
x,y,z
-x,-y,z
1/2-x,y,z
1/2+x,-y,z
loop_
_atom_site_type_symbol
_atom_site_label
_atom_site_fract_x
_atom_site_fract_y
_atom_site_fract_z
Si Si1 0.058253 0.023507 0.365450
Si Si2 0.892234 0.491590 0.112285
Si Si3 0.358074 0.895525 0.723862
Si Si4 0.691644 0.852896 0.238369
O O1 0.070992 0.267339 0.176348
O O2 0.080547 0.761182 0.233522
O O3 0.091043 0.039460 0.630369
O O4 0.000000 0.000000 0.415232
O O5 0.841335 0.588499 0.253394
O O6 0.875304 0.392575 0.823522
O O7 0.321776 0.957687 0.480847
O O8 0.329970 0.015609 0.974526
O O9 0.750000 0.802627 0.223059
#
# Coordination Sequence:
#
# PCOD9339951 Si02
#       4
#     4   4   4   4
#     4  11  26  49  78 113 154 207 257 317 396 463
#     4  11  24  49  76 109 158 193 256 323 372 468
#     4  11  24  49  75 107 156 192 254 320 375 466
#     4  11  26  47  78 112 150 203 255 319 393 460
#
# _framework density 23.017039
#
# number of rings (size 3 to 8) (size 9 to 14) (size 15 to 20)
#    0.000    1.000    5.000    1.500    7.000    3.000 
#    4.500    0.000    0.000    0.000    0.000    0.000 
#    0.000    0.000    0.000    0.000    0.000    0.000 
#
# Total GULP energy -89342.279527 kJ/mol
# GULP energy per Si atom -5583.892470 kJ/mol
# Density = 2.296465 g / cm^3
# Si number density = 23.017039 Si / 1000 Ang^3
#
#
#
# Elastic Constant Matrix: (Units=GPa)
#
#
# Indices 1 2 3 4 5 6 
#
# 1 214.7040 33.6111 37.6360 0.0000 0.0000 0.0000
# 2 33.6111 158.4030 49.1814 0.0000 0.0000 0.0000
# 3 37.6360 49.1814 161.9555 0.0000 0.0000 0.0000
# 4 0.0000 0.0000 0.0000 39.9191 0.0000 0.0000
# 5 0.0000 0.0000 0.0000 0.0000 24.5200 0.0000
# 6 0.0000 0.0000 0.0000 0.0000 0.0000 25.2831
#
#
#
# Elastic Compliance Matrix: (Units=1/GPa)
#
#
# Indices 1 2 3 4 5 6 
#
# 1 0.004938 -0.000763 -0.000916 0.000000 0.000000 0.000000
# 2 -0.000763 0.007088 -0.001975 0.000000 0.000000 0.000000
# 3 -0.000916 -0.001975 0.006987 0.000000 0.000000 0.000000
# 4 0.000000 0.000000 0.000000 0.025051 0.000000 0.000000
# 5 0.000000 0.000000 0.000000 0.000000 0.040783 0.000000
# 6 0.000000 0.000000 0.000000 0.000000 0.000000 0.039552
#
#
# Mechanical properties :
#
#
# Convention : Reuss Voigt Hill
#
# Bulk Modulus (GPa) = 85.43579 86.21328 85.82453
# Shear Modulus (GPa) = 36.87083 45.58670 41.22876
#
# Velocity S-wave (km/s) = 4.00671 4.45518 4.23688
# Velocity P-wave (km/s) = 7.65533 8.00015 7.82964
#
# Compressibility (1/GPa) = 0.01170470
#
# Stress axis : x y z
#
# Youngs Moduli (GPa) = 202.52831 141.07896 143.12116
#
# Poissons Ratio (x) = 0.10770 0.13104
# Poissons Ratio (y) = 0.15461 0.28268
# Poissons Ratio (z) = 0.18543 0.27864
#
# Static dielectric constant tensor:
#      x y z
#    x 1.802860 0.000000 0.000000 
#    y 0.000000 1.945180 0.000000 
#    z 0.000000 0.000000 1.946700 
# 
# From -- ./inp_files/1644.got.cif
#   From: 2010.05.17/outbox.cif.g08.bks.cpg/sg28_1_cif.got.tgz:1644.got - 2010.06.04 01:15:21.
