data_PCOD9339593
_publ_section_title
;
Structure prediction by ZEFSAII (Michael W. Deem and Ramdas Pophale) SiO2 
 PCOD9339593
Probable space group: P M A 2
;
_chemical_formula_sum "Si O2"
_cell_formula_units_Z 28
_cell_length_a 8.408442
_cell_length_b 18.664236
_cell_length_c 9.738110
_cell_angle_alpha 90.000000
_cell_angle_beta 90.000000
_cell_angle_gamma 90.000000
_cell_volume 1528.271190
_symmetry_space_group_name_H-M "P M A 2"
_symmetry_group_IT_number 28
_symmetry_cell_setting 'orthorhombic'
loop_
_space_group_symop_operation_xyz
x,y,z
-x,-y,z
1/2-x,y,z
1/2+x,-y,z
loop_
_atom_site_type_symbol
_atom_site_label
_atom_site_fract_x
_atom_site_fract_y
_atom_site_fract_z
Si Si1 0.069423 0.212788 0.727920
Si Si2 0.442385 0.079833 0.163218
Si Si3 0.558347 0.419371 0.723558
Si Si4 0.561043 0.077504 0.850322
Si Si5 0.060831 0.698788 0.500493
Si Si6 0.566021 0.311979 0.949789
Si Si7 0.438722 0.241890 0.226740
O O1 0.250000 0.232287 0.764120
O O2 0.035394 0.131355 0.756218
O O3 0.029473 0.236676 0.575745
O O4 0.949204 0.253851 0.828594
O O5 0.250000 0.077308 0.157146
O O6 0.487889 0.156914 0.232271
O O7 0.500000 0.000000 0.213194
O O8 0.512095 0.087919 0.009477
O O9 0.500000 0.500000 0.711396
O O10 0.750000 0.418289 0.727839
O O11 0.511022 0.370957 0.590885
O O12 0.503485 0.381935 0.866856
O O13 0.750000 0.085394 0.836631
O O14 0.500000 0.000000 0.812588
O O15 0.250000 0.705509 0.516505
O O16 0.017914 0.707998 0.342140
O O17 0.750000 0.323243 0.987487
O O18 0.478208 0.277850 0.079626
O O19 0.250000 0.242784 0.246214
#
# Coordination Sequence:
#
# PCOD9339593 Si02
#       7
#     4   4   4   4   4   4   4
#     4  11  20  34  54  79 108 141 185 233 279 333
#     4  10  20  33  51  78 111 146 191 237 286 338
#     4   9  20  38  61  88 114 144 184 228 279 343
#     4  11  20  31  50  76 107 143 186 235 290 336
#     4  10  22  39  58  82 113 150 190 229 281 342
#     4  10  20  35  57  84 112 145 184 227 277 331
#     4  11  22  36  56  85 116 149 193 240 284 335
#
# _framework density 18.321356000000002
#
# number of rings (size 3 to 8) (size 9 to 14) (size 15 to 20)
#    0.000    1.714    1.429    6.000    0.000    5.143 
#    0.000    1.429    0.000    1.714    0.000    0.000 
#    0.000    0.000    0.000    0.000    0.000    0.000 
#
# Total GULP energy -156016.795685 kJ/mol
# GULP energy per Si atom -5572.028417 kJ/mol
# Density = 1.827966 g / cm^3
# Si number density = 18.321356 Si / 1000 Ang^3
#
#
#
# Elastic Constant Matrix: (Units=GPa)
#
#
# Indices 1 2 3 4 5 6 
#
# 1 53.5240 15.2267 5.7518 0.0000 0.0000 0.0000
# 2 15.2267 115.0708 33.8936 0.0000 0.0000 0.0000
# 3 5.7518 33.8936 66.4163 0.0000 0.0000 0.0000
# 4 0.0000 0.0000 0.0000 21.8047 0.0000 0.0000
# 5 0.0000 0.0000 0.0000 0.0000 32.3589 0.0000
# 6 0.0000 0.0000 0.0000 0.0000 0.0000 27.5522
#
#
#
# Elastic Compliance Matrix: (Units=1/GPa)
#
#
# Indices 1 2 3 4 5 6 
#
# 1 0.019425 -0.002442 -0.000436 0.000000 0.000000 0.000000
# 2 -0.002442 0.010535 -0.005165 0.000000 0.000000 0.000000
# 3 -0.000436 -0.005165 0.017730 0.000000 0.000000 0.000000
# 4 0.000000 0.000000 0.000000 0.045862 0.000000 0.000000
# 5 0.000000 0.000000 0.000000 0.000000 0.030903 0.000000
# 6 0.000000 0.000000 0.000000 0.000000 0.000000 0.036295
#
#
# Mechanical properties :
#
#
# Convention : Reuss Voigt Hill
#
# Bulk Modulus (GPa) = 31.64143 38.30616 34.97379
# Shear Modulus (GPa) = 26.68532 28.35242 27.51887
#
# Velocity S-wave (km/s) = 3.82057 3.93810 3.87978
# Velocity P-wave (km/s) = 6.06383 6.45225 6.26106
#
# Compressibility (1/GPa) = 0.03160414
#
# Stress axis : x y z
#
# Youngs Moduli (GPa) = 51.48071 94.92503 56.40197
#
# Poissons Ratio (x) = 0.23180 0.02460
# Poissons Ratio (y) = 0.12571 0.29129
# Poissons Ratio (z) = 0.02245 0.49025
#
# Static dielectric constant tensor:
#      x y z
#    x 1.621660 0.000000 0.000000 
#    y 0.000000 1.645230 0.000000 
#    z 0.000000 0.000000 1.614520 
# 
# From -- ./inp_files/2632.got.cif
#   From: 2010.05.17/outbox.cif.g08.bks.cpg/sg28_2_cif.got.tgz:2632.got - 2010.06.04 01:15:21.
