data_PCOD9339396
_publ_section_title
;
Structure prediction by ZEFSAII (Michael W. Deem and Ramdas Pophale) SiO2 
 PCOD9339396
Probable space group: P M A 2
;
_chemical_formula_sum "Si O2"
_cell_formula_units_Z 32
_cell_length_a 9.247554
_cell_length_b 14.688555
_cell_length_c 12.557935
_cell_angle_alpha 90.000000
_cell_angle_beta 90.000000
_cell_angle_gamma 90.000000
_cell_volume 1705.784566
_symmetry_space_group_name_H-M "P M A 2"
_symmetry_group_IT_number 28
_symmetry_cell_setting 'orthorhombic'
loop_
_space_group_symop_operation_xyz
x,y,z
-x,-y,z
1/2-x,y,z
1/2+x,-y,z
loop_
_atom_site_type_symbol
_atom_site_label
_atom_site_fract_x
_atom_site_fract_y
_atom_site_fract_z
Si Si1 0.585190 0.867503 0.456140
Si Si2 0.418222 0.584140 0.600118
Si Si3 0.422648 0.704570 0.189910
Si Si4 0.580010 0.268054 0.780152
Si Si5 0.423323 0.597637 0.971795
Si Si6 0.914991 0.654674 0.401054
Si Si7 0.578083 0.089658 0.242838
Si Si8 0.922742 0.907310 0.702686
O O1 0.750000 0.900641 0.435194
O O2 0.588232 0.758561 0.443657
O O3 0.477038 0.900954 0.364925
O O4 0.544625 0.892647 0.576387
O O5 0.500000 0.500000 0.654074
O O6 0.250000 0.562965 0.588597
O O7 0.432490 0.673333 0.672236
O O8 0.492707 0.600756 0.487114
O O9 0.250000 0.699317 0.210853
O O10 0.509240 0.659319 0.286779
O O11 0.459115 0.812861 0.188747
O O12 0.453676 0.651605 0.081246
O O13 0.750000 0.244818 0.795186
O O14 0.535134 0.335264 0.875279
O O15 0.486178 0.178040 0.766615
O O16 0.500000 0.500000 0.968049
O O17 0.250000 0.583637 0.964442
O O18 0.750000 0.621645 0.394084
O O19 0.750000 0.078413 0.238979
O O20 0.500000 0.000000 0.197536
O O21 0.750000 0.912612 0.713137
O O22 0.000000 0.000000 0.736538
#
# Coordination Sequence:
#
# PCOD9339396 Si02
#       8
#     4   4   4   4   4   4   4   4
#     4   9  18  32  51  78 112 152 192 231 276 331
#     4  11  22  35  55  83 115 151 190 232 289 352
#     4   9  20  38  58  82 115 153 191 235 289 346
#     4  10  22  40  61  85 115 151 191 241 293 345
#     4  10  22  42  66  89 113 145 192 244 296 350
#     4  10  19  34  55  82 117 152 189 235 285 340
#     4  10  19  31  51  79 112 152 192 232 279 334
#     4  11  22  36  56  84 118 156 196 238 287 342
#
# _framework density 18.759696000000002
#
# number of rings (size 3 to 8) (size 9 to 14) (size 15 to 20)
#    0.000    2.000    1.250    2.250    0.000    5.000 
#    0.000    1.875    0.000    1.500    0.000    0.000 
#    0.000    0.000    0.000    0.000    0.000    0.000 
#
# Total GULP energy -178671.535057 kJ/mol
# GULP energy per Si atom -5583.485471 kJ/mol
# Density = 1.871700 g / cm^3
# Si number density = 18.759696 Si / 1000 Ang^3
#
#
#
# Elastic Constant Matrix: (Units=GPa)
#
#
# Indices 1 2 3 4 5 6 
#
# 1 88.7141 70.3770 52.6342 0.0000 0.0000 0.0000
# 2 70.3770 134.3880 58.0425 0.0000 0.0000 0.0000
# 3 52.6342 58.0425 93.7208 0.0000 0.0000 0.0000
# 4 0.0000 0.0000 0.0000 16.2379 0.0000 0.0000
# 5 0.0000 0.0000 0.0000 0.0000 18.0685 0.0000
# 6 0.0000 0.0000 0.0000 0.0000 0.0000 36.6864
#
#
#
# Elastic Compliance Matrix: (Units=1/GPa)
#
#
# Indices 1 2 3 4 5 6 
#
# 1 0.022394 -0.008594 -0.007254 0.000000 0.000000 0.000000
# 2 -0.008594 0.013457 -0.003507 0.000000 0.000000 0.000000
# 3 -0.007254 -0.003507 0.016916 0.000000 0.000000 0.000000
# 4 0.000000 0.000000 0.000000 0.061584 0.000000 0.000000
# 5 0.000000 0.000000 0.000000 0.000000 0.055345 0.000000
# 6 0.000000 0.000000 0.000000 0.000000 0.000000 0.027258
#
#
# Mechanical properties :
#
#
# Convention : Reuss Voigt Hill
#
# Bulk Modulus (GPa) = 71.14711 75.43670 73.29191
# Shear Modulus (GPa) = 20.80302 23.24986 22.02644
#
# Velocity S-wave (km/s) = 3.33366 3.52426 3.43028
# Velocity P-wave (km/s) = 7.26812 7.54056 7.40559
#
# Compressibility (1/GPa) = 0.01405538
#
# Stress axis : x y z
#
# Youngs Moduli (GPa) = 44.65521 74.31279 59.11590
#
# Poissons Ratio (x) = 0.63867 0.42882
# Poissons Ratio (y) = 0.38378 0.20733
# Poissons Ratio (z) = 0.32393 0.26063
#
# Static dielectric constant tensor:
#      x y z
#    x 1.632550 0.000000 0.000000 
#    y 0.000000 1.671070 0.000000 
#    z 0.000000 0.000000 1.626950 
# 
# From -- ./inp_files/5052.got.cif
#   From: 2010.05.17/outbox.cif.g08.bks.cpg/sg28_3_cif.got.tgz:5052.got - 2010.06.04 01:15:21.
