data_PCOD9339165
_publ_section_title
;
Structure prediction by ZEFSAII (Michael W. Deem and Ramdas Pophale) SiO2 
 PCOD9339165
Probable space group: P C C 2
;
_chemical_formula_sum "Si O2"
_cell_formula_units_Z 32
_cell_length_a 14.234877
_cell_length_b 11.183836
_cell_length_c 9.070688
_cell_angle_alpha 90.000000
_cell_angle_beta 90.000000
_cell_angle_gamma 90.000000
_cell_volume 1444.058336
_symmetry_space_group_name_H-M "P C C 2"
_symmetry_group_IT_number 27
_symmetry_cell_setting 'orthorhombic'
loop_
_space_group_symop_operation_xyz
x,y,z
-x,-y,z
-x,y,1/2+z
x,-y,1/2+z
loop_
_atom_site_type_symbol
_atom_site_label
_atom_site_fract_x
_atom_site_fract_y
_atom_site_fract_z
Si Si1 0.728027 0.959294 0.266820
Si Si2 0.659034 0.827311 0.559586
Si Si3 0.576450 0.401714 0.999714
Si Si4 0.695562 0.553926 0.223347
Si Si5 0.919973 0.086377 0.912967
Si Si6 0.010408 0.240741 0.652949
Si Si7 0.197046 0.243495 0.046711
Si Si8 0.192916 0.325821 0.731708
O O1 0.672003 0.891087 0.399277
O O2 0.828536 0.978429 0.351362
O O3 0.763675 0.870910 0.135377
O O4 0.672887 0.067274 0.183779
O O5 0.567828 0.737064 0.555882
O O6 0.741507 0.731576 0.603609
O O7 0.500000 0.500000 0.946408
O O8 0.621274 0.477952 0.131018
O O9 0.645140 0.386943 0.860786
O O10 0.746087 0.648539 0.119894
O O11 0.769555 0.455737 0.275009
O O12 0.969378 0.162741 0.785658
O O13 0.000000 0.000000 0.967564
O O14 0.913095 0.168840 0.055140
O O15 0.914510 0.267165 0.567968
O O16 0.081427 0.341402 0.706462
O O17 0.211158 0.242234 0.872924
#
# Coordination Sequence:
#
# PCOD9339165 Si02
#       8
#     4   4   4   4   4   4   4   4
#     4  11  23  37  63  96 145 189 229 291 350 428
#     4  11  23  40  68 106 143 187 231 282 368 430
#     4  11  24  46  76 110 134 171 235 303 368 461
#     4  11  23  43  72 102 130 178 233 302 367 438
#     4  11  22  33  52  84 130 188 249 287 333 397
#     4  11  22  35  54  86 134 189 247 295 338 404
#     4  11  23  41  61  96 139 192 245 294 351 421
#     4  11  22  41  61  92 142 184 250 298 347 413
#
# _framework density 22.159769000000001
#
# number of rings (size 3 to 8) (size 9 to 14) (size 15 to 20)
#    0.000    1.000    5.000    2.250    3.500    0.500 
#    0.000    1.250    0.000    0.750    0.000    0.000 
#    0.000    0.000    0.000    0.000    0.000    0.000 
#
# Total GULP energy -178206.645149 kJ/mol
# GULP energy per Si atom -5568.957661 kJ/mol
# Density = 2.210933 g / cm^3
# Si number density = 22.159769 Si / 1000 Ang^3
#
#
#
# Elastic Constant Matrix: (Units=GPa)
#
#
# Indices 1 2 3 4 5 6 
#
# 1 38.6477 35.4881 21.4887 0.0000 0.0000 0.0000
# 2 35.4881 92.7847 24.6372 0.0000 0.0000 0.0000
# 3 21.4887 24.6372 117.4397 0.0000 0.0000 0.0000
# 4 0.0000 0.0000 0.0000 39.0495 0.0000 0.0000
# 5 0.0000 0.0000 0.0000 0.0000 8.8966 0.0000
# 6 0.0000 0.0000 0.0000 0.0000 0.0000 32.1766
#
#
#
# Elastic Compliance Matrix: (Units=1/GPa)
#
#
# Indices 1 2 3 4 5 6 
#
# 1 0.042085 -0.014881 -0.004579 0.000000 0.000000 0.000000
# 2 -0.014881 0.016675 -0.000775 0.000000 0.000000 0.000000
# 3 -0.004579 -0.000775 0.009515 0.000000 0.000000 0.000000
# 4 0.000000 0.000000 0.000000 0.025609 0.000000 0.000000
# 5 0.000000 0.000000 0.000000 0.000000 0.112403 0.000000
# 6 0.000000 0.000000 0.000000 0.000000 0.000000 0.031079
#
#
# Mechanical properties :
#
#
# Convention : Reuss Voigt Hill
#
# Bulk Modulus (GPa) = 35.96394 45.78890 40.87642
# Shear Modulus (GPa) = 17.41532 27.17506 22.29519
#
# Velocity S-wave (km/s) = 2.80643 3.50569 3.17537
# Velocity P-wave (km/s) = 5.17359 6.09052 5.65068
#
# Compressibility (1/GPa) = 0.02780563
#
# Stress axis : x y z
#
# Youngs Moduli (GPa) = 23.76160 59.96989 105.09194
#
# Poissons Ratio (x) = 0.89239 0.48119
# Poissons Ratio (y) = 0.35359 0.08149
# Poissons Ratio (z) = 0.10880 0.04650
#
# Static dielectric constant tensor:
#      x y z
#    x 1.996810 0.000000 0.000000 
#    y 0.000000 1.891820 0.000000 
#    z 0.000000 0.000000 1.805900 
# 
# From -- ./inp_files/1624.got.cif
#   From: 2010.05.17/outbox.cif.g08.bks.cpg/sg27_1_cif.got.tgz:1624.got - 2010.06.04 01:11:05.
