data_PCOD9339684
_publ_section_title
;
Structure prediction by ZEFSAII (Michael W. Deem and Ramdas Pophale) SiO2 
 PCOD9339684
Probable space group: P M A 2
;
_chemical_formula_sum "Si O2"
_cell_formula_units_Z 20
_cell_length_a 8.695405
_cell_length_b 9.329221
_cell_length_c 13.150265
_cell_angle_alpha 90.000000
_cell_angle_beta 90.000000
_cell_angle_gamma 90.000000
_cell_volume 1066.767314
_symmetry_space_group_name_H-M "P M A 2"
_symmetry_group_IT_number 28
_symmetry_cell_setting 'orthorhombic'
loop_
_space_group_symop_operation_xyz
x,y,z
-x,-y,z
1/2-x,y,z
1/2+x,-y,z
loop_
_atom_site_type_symbol
_atom_site_label
_atom_site_fract_x
_atom_site_fract_y
_atom_site_fract_z
Si Si1 0.065631 0.659009 0.549700
Si Si2 0.434928 0.340448 0.331583
Si Si3 0.064711 0.159238 0.135521
Si Si4 0.934921 0.660166 0.936810
Si Si5 0.565452 0.159849 0.748652
O O1 0.250000 0.649623 0.541805
O O2 0.025382 0.764152 0.641838
O O3 0.000000 0.500000 0.570219
O O4 0.997583 0.706840 0.441412
O O5 0.500000 0.500000 0.313265
O O6 0.250000 0.347558 0.334915
O O7 0.482849 0.236468 0.240170
O O8 0.250000 0.151994 0.135231
O O9 0.017980 0.255515 0.039125
O O10 0.000000 0.000000 0.127445
O O11 0.750000 0.655109 0.932885
O O12 0.000000 0.500000 0.937593
O O13 0.997502 0.746265 0.840054
O O14 0.750000 0.156206 0.757297
O O15 0.500000 0.000000 0.753062
#
# Coordination Sequence:
#
# PCOD9339684 Si02
#       5
#     4   4   4   4   4
#     4  10  21  37  58  84 113 148 190 234 281 333
#     4  10  20  36  58  84 113 147 189 233 279 332
#     4  10  23  39  57  84 116 150 187 231 282 336
#     4  11  23  40  62  87 115 149 191 235 283 339
#     4  11  24  40  59  85 117 152 190 235 287 340
#
# _framework density 18.748232000000002
#
# number of rings (size 3 to 8) (size 9 to 14) (size 15 to 20)
#    0.000    1.600    0.000    5.400    0.000   10.400 
#    0.000    4.000    0.000    0.000    0.000    0.000 
#    0.000    0.000    0.000    0.000    0.000    0.000 
#
# Total GULP energy -111816.267482 kJ/mol
# GULP energy per Si atom -5590.813374 kJ/mol
# Density = 1.870556 g / cm^3
# Si number density = 18.748232 Si / 1000 Ang^3
#
#
#
# Elastic Constant Matrix: (Units=GPa)
#
#
# Indices 1 2 3 4 5 6 
#
# 1 57.1172 55.2131 65.1468 0.0000 0.0000 0.0000
# 2 55.2131 177.4946 141.6305 0.0000 0.0000 0.0000
# 3 65.1468 141.6305 196.1446 0.0000 0.0000 0.0000
# 4 0.0000 0.0000 0.0000 -836.1668 0.0000 0.0000
# 5 0.0000 0.0000 0.0000 0.0000 15.7279 0.0000
# 6 0.0000 0.0000 0.0000 0.0000 0.0000 33.7168
#
#
#
# Elastic Compliance Matrix: (Units=1/GPa)
#
#
# Indices 1 2 3 4 5 6 
#
# 1 0.028909 -0.003141 -0.007334 0.000000 0.000000 0.000000
# 2 -0.003141 0.013634 -0.008802 0.000000 0.000000 0.000000
# 3 -0.007334 -0.008802 0.013890 0.000000 0.000000 0.000000
# 4 0.000000 0.000000 0.000000 -0.001196 0.000000 0.000000
# 5 0.000000 0.000000 0.000000 0.000000 0.063581 0.000000
# 6 0.000000 0.000000 0.000000 0.000000 0.000000 0.029659
#
#
# Mechanical properties :
#
#
# Convention : Reuss Voigt Hill
#
# Bulk Modulus (GPa) = 55.92832 106.08191 81.00511
# Shear Modulus (GPa) = 25.90816 -146.09336 -60.09260
#
# Velocity S-wave (km/s) = 3.72142 -8.83702 -5.66763
# Velocity P-wave (km/s) = 6.95423 6.88613 0.68650
#
# Compressibility (1/GPa) = 0.01788003
#
# Stress axis : x y z
#
# Youngs Moduli (GPa) = 34.59170 73.34464 71.99579
#
# Poissons Ratio (x) = 0.23034 0.52801
# Poissons Ratio (y) = 0.10864 0.63369
# Poissons Ratio (z) = 0.25369 0.64557
#
# Static dielectric constant tensor:
#      x y z
#    x 1.633260 0.000000 0.000000 
#    y 0.000000 1.623670 0.000000 
#    z 0.000000 0.000000 1.641050 
# 
# From -- ./inp_files/4558.got.cif
#   From: 2010.05.17/outbox.cif.g08.bks.cpg/sg28_3_cif.got.tgz:4558.got - 2010.06.04 01:15:21.
