data_PCOD9339958
_publ_section_title
;
Structure prediction by ZEFSAII (Michael W. Deem and Ramdas Pophale) SiO2 
 PCOD9339958
Probable space group: P M A 2
;
_chemical_formula_sum "Si O2"
_cell_formula_units_Z 24
_cell_length_a 20.312096
_cell_length_b 9.807032
_cell_length_c 5.904290
_cell_angle_alpha 90.000000
_cell_angle_beta 90.000000
_cell_angle_gamma 90.000000
_cell_volume 1176.142689
_symmetry_space_group_name_H-M "P M A 2"
_symmetry_group_IT_number 28
_symmetry_cell_setting 'orthorhombic'
loop_
_space_group_symop_operation_xyz
x,y,z
-x,-y,z
1/2-x,y,z
1/2+x,-y,z
loop_
_atom_site_type_symbol
_atom_site_label
_atom_site_fract_x
_atom_site_fract_y
_atom_site_fract_z
Si Si1 0.250000 0.691125 0.493971
Si Si2 0.954740 0.174064 0.700136
Si Si3 0.114030 0.570133 0.602983
Si Si4 0.500000 0.000000 0.313336
Si Si5 0.750000 0.148505 0.000246
Si Si6 0.079584 0.318025 0.918282
Si Si7 0.120865 0.037983 0.980874
Si Si8 0.500000 0.500000 0.269870
O O1 0.184968 0.597219 0.498974
O O2 0.250000 0.768510 0.245577
O O3 0.250000 0.774589 0.744768
O O4 0.901966 0.293045 0.742402
O O5 0.981980 0.133571 0.456181
O O6 0.018196 0.229851 0.828092
O O7 0.918970 0.035655 0.777624
O O8 0.105770 0.432611 0.745811
O O9 0.053624 0.572400 0.427409
O O10 0.433327 0.026253 0.177468
O O11 0.814149 0.051437 0.011597
O O12 0.133086 0.199774 0.958429
O O13 0.045864 0.401062 0.121534
#
# Coordination Sequence:
#
# PCOD9339958 Si02
#       8
#     2   4   4   2   2   4   4   2
#     4  12  30  51  79 108 150 211 258 310 373 475
#     4  12  21  42  68 106 140 182 246 305 369 435
#     4  12  26  44  72 105 146 196 247 310 371 456
#     4  12  22  38  76 104 140 184 256 306 374 440
#     4  12  30  53  75 110 154 201 260 310 385 453
#     4  12  24  42  70 110 144 182 246 315 382 435
#     4  12  26  43  73 107 145 195 244 318 372 454
#     4  12  24  42  74 108 148 192 244 316 378 452
#
# _framework density 20.405687
#
# number of rings (size 3 to 8) (size 9 to 14) (size 15 to 20)
#    0.000    0.000    8.333    2.000    4.667    0.667 
#    0.000    0.833    0.000    0.000    0.000    0.000 
#    0.000    0.000    0.000    0.000    0.000    0.000 
#
# Total GULP energy -133699.762946 kJ/mol
# GULP energy per Si atom -5570.823456 kJ/mol
# Density = 2.035924 g / cm^3
# Si number density = 20.405687 Si / 1000 Ang^3
#
#
#
# Elastic Constant Matrix: (Units=GPa)
#
#
# Indices 1 2 3 4 5 6 
#
# 1 135.8040 46.6934 31.7136 0.0000 0.0000 0.0000
# 2 46.6934 128.1483 39.3903 0.0000 0.0000 0.0000
# 3 31.7136 39.3903 79.7696 0.0000 0.0000 0.0000
# 4 0.0000 0.0000 0.0000 -23.1833 0.0000 0.0000
# 5 0.0000 0.0000 0.0000 0.0000 4.3508 0.0000
# 6 0.0000 0.0000 0.0000 0.0000 0.0000 36.4054
#
#
#
# Elastic Compliance Matrix: (Units=1/GPa)
#
#
# Indices 1 2 3 4 5 6 
#
# 1 0.008746 -0.002497 -0.002244 0.000000 0.000000 0.000000
# 2 -0.002497 0.009913 -0.003902 0.000000 0.000000 0.000000
# 3 -0.002244 -0.003902 0.015355 0.000000 0.000000 0.000000
# 4 0.000000 0.000000 0.000000 -0.043134 0.000000 0.000000
# 5 0.000000 0.000000 0.000000 0.000000 0.229842 0.000000
# 6 0.000000 0.000000 0.000000 0.000000 0.000000 0.027468
#
#
# Mechanical properties :
#
#
# Convention : Reuss Voigt Hill
#
# Bulk Modulus (GPa) = 59.78218 64.36853 62.07536
# Shear Modulus (GPa) = 18.44660 18.57622 18.51141
#
# Velocity S-wave (km/s) = 3.00991 3.02047 3.01519
# Velocity P-wave (km/s) = 6.43738 6.61643 6.52752
#
# Compressibility (1/GPa) = 0.01672739
#
# Stress axis : x y z
#
# Youngs Moduli (GPa) = 114.33574 100.88003 65.12454
#
# Poissons Ratio (x) = 0.25190 0.14615
# Poissons Ratio (y) = 0.28550 0.25413
# Poissons Ratio (z) = 0.25658 0.39365
#
# Static dielectric constant tensor:
#      x y z
#    x 1.719080 0.000000 0.000000 
#    y 0.000000 2.106030 0.000000 
#    z 0.000000 0.000000 1.836430 
# 
# From -- ./inp_files/1586.got.cif
#   From: 2010.05.17/outbox.cif.g08.bks.cpg/sg28_1_cif.got.tgz:1586.got - 2010.06.04 01:15:21.
