data_PCOD9339138
_publ_section_title
;
Structure prediction by ZEFSAII (Michael W. Deem and Ramdas Pophale) SiO2 
 PCOD9339138
Probable space group: P C C 2
;
_chemical_formula_sum "Si O2"
_cell_formula_units_Z 30
_cell_length_a 13.088197
_cell_length_b 7.947949
_cell_length_c 11.973793
_cell_angle_alpha 90.000000
_cell_angle_beta 90.000000
_cell_angle_gamma 90.000000
_cell_volume 1245.565702
_symmetry_space_group_name_H-M "P C C 2"
_symmetry_group_IT_number 27
_symmetry_cell_setting 'orthorhombic'
loop_
_space_group_symop_operation_xyz
x,y,z
-x,-y,z
-x,y,1/2+z
x,-y,1/2+z
loop_
_atom_site_type_symbol
_atom_site_label
_atom_site_fract_x
_atom_site_fract_y
_atom_site_fract_z
Si Si1 0.633134 0.760941 0.878210
Si Si2 0.500000 0.500000 0.114041
Si Si3 0.740258 0.931314 0.669882
Si Si4 0.074375 0.760437 0.294796
Si Si5 0.170009 0.229223 0.022411
Si Si6 0.582512 0.207948 0.987609
Si Si7 0.356050 0.388725 0.281254
Si Si8 0.120850 0.385575 0.226057
O O1 0.672871 0.890578 0.782650
O O2 0.613793 0.578858 0.820525
O O3 0.726011 0.720736 0.960675
O O4 0.535482 0.826609 0.948910
O O5 0.576933 0.394045 0.041301
O O6 0.435927 0.362855 0.182341
O O7 0.844096 0.829930 0.704467
O O8 0.656978 0.886915 0.572694
O O9 0.792813 0.095842 0.615369
O O10 0.101065 0.829007 0.417735
O O11 0.094094 0.560467 0.285353
O O12 0.953407 0.763451 0.269591
O O13 0.112283 0.374534 0.091461
O O14 0.634953 0.242928 0.870562
O O15 0.240984 0.382470 0.244588
#
# Coordination Sequence:
#
# PCOD9339138 Si02
#       8
#     4   2   4   4   4   4   4   4
#     4  11  22  44  66 103 148 181 250 300 356 467
#     4  12  18  36  64 108 146 194 232 304 378 444
#     4  11  25  46  69  99 152 200 239 298 381 471
#     4  10  25  49  74 108 142 181 264 320 366 461
#     4  11  26  47  70 102 152 198 234 308 394 445
#     4  12  22  37  71 102 146 195 237 305 379 436
#     4  12  21  36  67 111 139 177 244 307 367 444
#     4  11  24  44  77 107 135 184 247 331 373 427
#
# _framework density 24.085439999999998
#
# number of rings (size 3 to 8) (size 9 to 14) (size 15 to 20)
#    0.000    0.800    6.667    0.800    1.867    6.400 
#    0.000    5.333    0.000    0.000    0.000    0.000 
#    0.000    0.000    0.000    0.000    0.000    0.000 
#
# Total GULP energy -167146.629186 kJ/mol
# GULP energy per Si atom -5571.554306 kJ/mol
# Density = 2.403062 g / cm^3
# Si number density = 24.085440 Si / 1000 Ang^3
#
#
#
# Elastic Constant Matrix: (Units=GPa)
#
#
# Indices 1 2 3 4 5 6 
#
# 1 122.9675 25.1015 28.9172 0.0000 0.0000 0.0000
# 2 25.1015 72.6017 36.9647 0.0000 0.0000 0.0000
# 3 28.9172 36.9647 88.1979 0.0000 0.0000 0.0000
# 4 0.0000 0.0000 0.0000 16.7851 0.0000 0.0000
# 5 0.0000 0.0000 0.0000 0.0000 57.4253 0.0000
# 6 0.0000 0.0000 0.0000 0.0000 0.0000 32.4026
#
#
#
# Elastic Compliance Matrix: (Units=1/GPa)
#
#
# Indices 1 2 3 4 5 6 
#
# 1 0.009047 -0.002057 -0.002104 0.000000 0.000000 0.000000
# 2 -0.002057 0.017978 -0.006860 0.000000 0.000000 0.000000
# 3 -0.002104 -0.006860 0.014903 0.000000 0.000000 0.000000
# 4 0.000000 0.000000 0.000000 0.059577 0.000000 0.000000
# 5 0.000000 0.000000 0.000000 0.000000 0.017414 0.000000
# 6 0.000000 0.000000 0.000000 0.000000 0.000000 0.030862
#
#
# Mechanical properties :
#
#
# Convention : Reuss Voigt Hill
#
# Bulk Modulus (GPa) = 50.28772 51.74821 51.01796
# Shear Modulus (GPa) = 28.01891 34.17487 31.09689
#
# Velocity S-wave (km/s) = 3.41444 3.77092 3.59710
# Velocity P-wave (km/s) = 6.03893 6.36331 6.20324
#
# Compressibility (1/GPa) = 0.01988557
#
# Stress axis : x y z
#
# Youngs Moduli (GPa) = 110.53541 55.62440 67.09918
#
# Poissons Ratio (x) = 0.11439 0.14119
# Poissons Ratio (y) = 0.22732 0.46033
# Poissons Ratio (z) = 0.23260 0.38160
#
# Static dielectric constant tensor:
#      x y z
#    x 1.930660 0.000000 0.000000 
#    y 0.000000 2.110410 0.000000 
#    z 0.000000 0.000000 1.931740 
# 
# From -- ./inp_files/2753.got.cif
#   From: 2010.05.17/outbox.cif.g08.bks.cpg/sg27_2_cif.got.tgz:2753.got - 2010.06.04 01:11:05.
