data_PCOD9339799
_publ_section_title
;
Structure prediction by ZEFSAII (Michael W. Deem and Ramdas Pophale) SiO2 
 PCOD9339799
Probable space group: P M A 2
;
_chemical_formula_sum "Si O2"
_cell_formula_units_Z 32
_cell_length_a 8.777272
_cell_length_b 15.709085
_cell_length_c 11.968961
_cell_angle_alpha 90.000000
_cell_angle_beta 90.000000
_cell_angle_gamma 90.000000
_cell_volume 1650.315195
_symmetry_space_group_name_H-M "P M A 2"
_symmetry_group_IT_number 28
_symmetry_cell_setting 'orthorhombic'
loop_
_space_group_symop_operation_xyz
x,y,z
-x,-y,z
1/2-x,y,z
1/2+x,-y,z
loop_
_atom_site_type_symbol
_atom_site_label
_atom_site_fract_x
_atom_site_fract_y
_atom_site_fract_z
Si Si1 0.431205 0.143822 0.539540
Si Si2 0.431622 0.911363 0.304275
Si Si3 0.431111 0.669232 0.539540
Si Si4 0.568248 0.407857 0.781138
Si Si5 0.069904 0.246939 0.906595
Si Si6 0.431752 0.592143 0.297942
Si Si7 0.568378 0.088637 0.774805
Si Si8 0.069904 0.246939 0.172485
O O1 0.250000 0.132322 0.539541
O O2 0.502952 0.103982 0.428405
O O3 0.474402 0.243735 0.539540
O O4 0.502955 0.103982 0.650674
O O5 0.250000 0.915375 0.308136
O O6 0.485447 0.831908 0.230309
O O7 0.500000 0.000000 0.260897
O O8 0.250000 0.691244 0.539539
O O9 0.462962 0.616741 0.651754
O O10 0.462964 0.616741 0.427325
O O11 0.500000 0.500000 0.806349
O O12 0.750000 0.408452 0.796677
O O13 0.494788 0.334108 0.855771
O O14 0.250000 0.240762 0.881775
O O15 0.985449 0.168092 0.848770
O O16 0.048811 0.245124 0.039540
O O17 0.500000 0.500000 0.272730
O O18 0.250000 0.591548 0.282403
O O19 0.505212 0.665892 0.223308
O O20 0.750000 0.084625 0.770945
O O21 0.500000 0.000000 0.818183
O O22 0.250000 0.240761 0.197305
#
# Coordination Sequence:
#
# PCOD9339799 Si02
#       8
#     4   4   4   4   4   4   4   4
#     4  12  23  38  65  97 132 170 208 256 317 378
#     4  12  25  43  67  96 131 168 212 260 316 381
#     4  10  21  38  62  95 130 168 207 256 315 380
#     4  11  23  40  65  95 131 169 213 261 317 381
#     4  11  25  45  67  93 126 166 216 268 320 379
#     4  11  23  40  65  95 131 169 213 261 317 381
#     4  12  25  43  67  96 131 168 212 260 316 381
#     4  11  25  45  67  93 126 166 216 268 320 379
#
# _framework density 19.390236000000002
#
# number of rings (size 3 to 8) (size 9 to 14) (size 15 to 20)
#    0.000    0.750    2.500    5.625    0.000    4.000 
#    0.000    0.000    0.000    0.000    0.000    0.000 
#    0.000    0.000    0.000    0.000    0.000    0.000 
#
# Total GULP energy -179152.090411 kJ/mol
# GULP energy per Si atom -5598.502825 kJ/mol
# Density = 1.934610 g / cm^3
# Si number density = 19.390236 Si / 1000 Ang^3
#
#
#
# Elastic Constant Matrix: (Units=GPa)
#
#
# Indices 1 2 3 4 5 6 
#
# 1 158.7707 92.3858 72.6349 0.0000 0.0000 0.0000
# 2 92.3858 181.3995 52.3145 0.0000 0.0000 0.0000
# 3 72.6349 52.3145 76.8618 0.0000 0.0000 0.0000
# 4 0.0000 0.0000 0.0000 -7.4363 0.0000 0.0000
# 5 0.0000 0.0000 0.0000 0.0000 65.6640 0.0000
# 6 0.0000 0.0000 0.0000 0.0000 0.0000 39.3830
#
#
#
# Elastic Compliance Matrix: (Units=1/GPa)
#
#
# Indices 1 2 3 4 5 6 
#
# 1 0.012907 -0.003802 -0.009609 0.000000 0.000000 0.000000
# 2 -0.003802 0.007979 -0.001838 0.000000 0.000000 0.000000
# 3 -0.009609 -0.001838 0.023342 0.000000 0.000000 0.000000
# 4 0.000000 0.000000 0.000000 -0.134475 0.000000 0.000000
# 5 0.000000 0.000000 0.000000 0.000000 0.015229 0.000000
# 6 0.000000 0.000000 0.000000 0.000000 0.000000 0.025392
#
#
# Mechanical properties :
#
#
# Convention : Reuss Voigt Hill
#
# Bulk Modulus (GPa) = 72.83489 94.63360 83.73425
# Shear Modulus (GPa) = -343.59880 32.83524 -155.38178
#
# Velocity S-wave (km/s) = -13.32616 4.11955 -8.96147
# Velocity P-wave (km/s) = 14.11163 8.45803 7.98748
#
# Compressibility (1/GPa) = 0.01372968
#
# Stress axis : x y z
#
# Youngs Moduli (GPa) = 77.47841 125.32724 42.84134
#
# Poissons Ratio (x) = 0.47651 0.41167
# Poissons Ratio (y) = 0.29458 0.07873
# Poissons Ratio (z) = 0.74450 0.23032
#
# Static dielectric constant tensor:
#      x y z
#    x 1.647700 0.000000 0.000000 
#    y 0.000000 1.652980 0.000000 
#    z 0.000000 0.000000 1.656450 
# 
# From -- ./inp_files/5094.got.cif
#   From: 2010.05.17/outbox.cif.g08.bks.cpg/sg28_3_cif.got.tgz:5094.got - 2010.06.04 01:15:21.
