data_PCOD9339622
_publ_section_title
;
Structure prediction by ZEFSAII (Michael W. Deem and Ramdas Pophale) SiO2 
 PCOD9339622
Probable space group: P M A 2
;
_chemical_formula_sum "Si O2"
_cell_formula_units_Z 16
_cell_length_a 8.775804
_cell_length_b 9.315705
_cell_length_c 10.761127
_cell_angle_alpha 90.000000
_cell_angle_beta 90.000000
_cell_angle_gamma 90.000000
_cell_volume 879.752276
_symmetry_space_group_name_H-M "P M A 2"
_symmetry_group_IT_number 28
_symmetry_cell_setting 'orthorhombic'
loop_
_space_group_symop_operation_xyz
x,y,z
-x,-y,z
1/2-x,y,z
1/2+x,-y,z
loop_
_atom_site_type_symbol
_atom_site_label
_atom_site_fract_x
_atom_site_fract_y
_atom_site_fract_z
Si Si1 0.567665 0.839611 0.168960
Si Si2 0.932787 0.160884 0.639971
Si Si3 0.567806 0.160958 0.915923
Si Si4 0.432740 0.341241 0.413704
O O1 0.750000 0.850576 0.160375
O O2 0.526632 0.745950 0.288681
O O3 0.500000 0.000000 0.183063
O O4 0.503705 0.773710 0.040346
O O5 0.750000 0.152745 0.628474
O O6 0.968156 0.220435 0.778824
O O7 0.001702 0.257662 0.532289
O O8 0.000000 0.000000 0.630360
O O9 0.750000 0.154762 0.929122
O O10 0.500000 0.000000 0.913161
O O11 0.500000 0.500000 0.408553
O O12 0.250000 0.346771 0.422083
#
# Coordination Sequence:
#
# PCOD9339622 Si02
#       4
#     4   4   4   4
#     4  10  20  34  55  82 108 138 176 218 265 316
#     4  10  20  35  57  84 111 141 179 221 266 317
#     4   9  17  30  52  81 109 137 171 215 264 312
#     4  11  24  39  55  77 107 144 183 224 270 319
#
# _framework density 18.186937
#
# number of rings (size 3 to 8) (size 9 to 14) (size 15 to 20)
#    0.000    2.000    0.000    5.250    0.000    9.000 
#    0.000    1.250    0.000    3.000    0.000    0.000 
#    0.000    0.000    0.000    0.000    0.000    0.000 
#
# Total GULP energy -89283.659835 kJ/mol
# GULP energy per Si atom -5580.228740 kJ/mol
# Density = 1.814554 g / cm^3
# Si number density = 18.186937 Si / 1000 Ang^3
#
#
#
# Elastic Constant Matrix: (Units=GPa)
#
#
# Indices 1 2 3 4 5 6 
#
# 1 72.9870 38.8833 82.4730 0.0000 0.0000 0.0000
# 2 38.8833 82.3653 85.4148 0.0000 0.0000 0.0000
# 3 82.4730 85.4148 231.0515 0.0000 0.0000 0.0000
# 4 0.0000 0.0000 0.0000 -0.1986 0.0000 0.0000
# 5 0.0000 0.0000 0.0000 0.0000 36.6180 0.0000
# 6 0.0000 0.0000 0.0000 0.0000 0.0000 20.6705
#
#
#
# Elastic Compliance Matrix: (Units=1/GPa)
#
#
# Indices 1 2 3 4 5 6 
#
# 1 0.023719 -0.003920 -0.007017 0.000000 0.000000 0.000000
# 2 -0.003920 0.020337 -0.006119 0.000000 0.000000 0.000000
# 3 -0.007017 -0.006119 0.009095 0.000000 0.000000 0.000000
# 4 0.000000 0.000000 0.000000 -5.036332 0.000000 0.000000
# 5 0.000000 0.000000 0.000000 0.000000 0.027309 0.000000
# 6 0.000000 0.000000 0.000000 0.000000 0.000000 0.048378
#
#
# Mechanical properties :
#
#
# Convention : Reuss Voigt Hill
#
# Bulk Modulus (GPa) = 52.52637 88.88290 70.70463
# Shear Modulus (GPa) = -1.02732 23.39352 11.18310
#
# Velocity S-wave (km/s) = -0.75239 3.59037 2.48240
# Velocity P-wave (km/s) = 5.30936 8.13422 6.86858
#
# Compressibility (1/GPa) = 0.01903806
#
# Stress axis : x y z
#
# Youngs Moduli (GPa) = 42.16108 49.17105 109.95380
#
# Poissons Ratio (x) = 0.19277 0.77154
# Poissons Ratio (y) = 0.16529 0.67279
# Poissons Ratio (z) = 0.29584 0.30087
#
# Static dielectric constant tensor:
#      x y z
#    x 1.607210 0.000000 0.000000 
#    y 0.000000 1.576850 0.000000 
#    z 0.000000 0.000000 1.668790 
# 
# From -- ./inp_files/2100.got.cif
#   From: 2010.05.17/outbox.cif.g08.bks.cpg/sg28_2_cif.got.tgz:2100.got - 2010.06.04 01:15:21.
