data_PCOD9339316
_publ_section_title
;
Structure prediction by ZEFSAII (Michael W. Deem and Ramdas Pophale) SiO2 
 PCOD9339316
Probable space group: P M A 2
;
_chemical_formula_sum "Si O2"
_cell_formula_units_Z 28
_cell_length_a 8.635730
_cell_length_b 9.396005
_cell_length_c 19.179734
_cell_angle_alpha 90.000000
_cell_angle_beta 90.000000
_cell_angle_gamma 90.000000
_cell_volume 1556.269745
_symmetry_space_group_name_H-M "P M A 2"
_symmetry_group_IT_number 28
_symmetry_cell_setting 'orthorhombic'
loop_
_space_group_symop_operation_xyz
x,y,z
-x,-y,z
1/2-x,y,z
1/2+x,-y,z
loop_
_atom_site_type_symbol
_atom_site_label
_atom_site_fract_x
_atom_site_fract_y
_atom_site_fract_z
Si Si1 0.565205 0.338745 0.308580
Si Si2 0.435089 0.838049 0.881648
Si Si3 0.436439 0.160289 0.736979
Si Si4 0.936635 0.659780 0.602926
Si Si5 0.063718 0.660842 0.154495
Si Si6 0.934796 0.839701 0.026412
Si Si7 0.435324 0.338281 0.450254
O O1 0.500000 0.500000 0.307284
O O2 0.750000 0.345043 0.314179
O O3 0.524945 0.279376 0.232065
O O4 0.499506 0.269909 0.379221
O O5 0.250000 0.840508 0.881791
O O6 0.498006 0.775420 0.809203
O O7 0.500000 0.000000 0.881526
O O8 0.498202 0.775857 0.954078
O O9 0.250000 0.156386 0.740930
O O10 0.486170 0.247596 0.668885
O O11 0.500000 0.000000 0.730956
O O12 0.750000 0.652992 0.603958
O O13 0.980775 0.720881 0.526413
O O14 0.000000 0.500000 0.608656
O O15 0.250000 0.658709 0.148109
O O16 0.000000 0.500000 0.150753
O O17 0.990310 0.751304 0.092788
O O18 0.750000 0.844801 0.022118
O O19 0.000000 0.000000 0.032804
O O20 0.500000 0.500000 0.451451
O O21 0.250000 0.342942 0.445568
#
# Coordination Sequence:
#
# PCOD9339316 Si02
#       7
#     4   4   4   4   4   4   4
#     4   9  16  26  43  67  95 126 161 200 239 283
#     4  10  18  31  51  74  97 125 163 203 242 287
#     4  10  19  33  51  73  98 126 162 201 242 289
#     4   9  19  32  48  71 100 129 160 200 244 289
#     4  10  20  34  51  75 105 134 166 205 250 297
#     4  11  21  35  55  77 101 131 166 205 248 294
#     4   9  15  25  42  65  92 123 159 198 239 283
#
# _framework density 17.991738999999999
#
# number of rings (size 3 to 8) (size 9 to 14) (size 15 to 20)
#    0.000    2.286    0.000    6.857    0.000    3.429 
#    0.000    0.714    0.000    2.571    0.000    4.000 
#    0.000    0.000    0.000    0.000    0.000    0.000 
#
# Total GULP energy -156028.763271 kJ/mol
# GULP energy per Si atom -5572.455831 kJ/mol
# Density = 1.795079 g / cm^3
# Si number density = 17.991739 Si / 1000 Ang^3
#
#
#
# Elastic Constant Matrix: (Units=GPa)
#
#
# Indices 1 2 3 4 5 6 
#
# 1 101.9616 15.5635 71.0266 0.0000 0.0000 0.0000
# 2 15.5635 26.4774 49.3893 0.0000 0.0000 0.0000
# 3 71.0266 49.3893 236.8940 0.0000 0.0000 0.0000
# 4 0.0000 0.0000 0.0000 41.6943 0.0000 0.0000
# 5 0.0000 0.0000 0.0000 0.0000 34.5217 0.0000
# 6 0.0000 0.0000 0.0000 0.0000 0.0000 13.8886
#
#
#
# Elastic Compliance Matrix: (Units=1/GPa)
#
#
# Indices 1 2 3 4 5 6 
#
# 1 0.012402 -0.000579 -0.003598 0.000000 0.000000 0.000000
# 2 -0.000579 0.061830 -0.012717 0.000000 0.000000 0.000000
# 3 -0.003598 -0.012717 0.007951 0.000000 0.000000 0.000000
# 4 0.000000 0.000000 0.000000 0.023984 0.000000 0.000000
# 5 0.000000 0.000000 0.000000 0.000000 0.028967 0.000000
# 6 0.000000 0.000000 0.000000 0.000000 0.000000 0.072002
#
#
# Mechanical properties :
#
#
# Convention : Reuss Voigt Hill
#
# Bulk Modulus (GPa) = 20.66296 70.81020 45.73658
# Shear Modulus (GPa) = 19.45097 33.31115 26.38106
#
# Velocity S-wave (km/s) = 3.29158 4.30754 3.83337
# Velocity P-wave (km/s) = 5.09467 8.01139 6.71335
#
# Compressibility (1/GPa) = 0.04839578
#
# Stress axis : x y z
#
# Youngs Moduli (GPa) = 80.63087 16.17335 125.76480
#
# Poissons Ratio (x) = 0.00936 0.45247
# Poissons Ratio (y) = 0.04669 1.59937
# Poissons Ratio (z) = 0.29009 0.20568
#
# Static dielectric constant tensor:
#      x y z
#    x 1.601330 0.000000 0.000000 
#    y 0.000000 1.585430 0.000000 
#    z 0.000000 0.000000 1.702230 
# 
# From -- ./inp_files/6907.got.cif
#   From: 2010.05.17/outbox.cif.g08.bks.cpg/sg28_4_cif.got.tgz:6907.got - 2010.06.04 01:15:21.
