data_PCOD9339491
_publ_section_title
;
Structure prediction by ZEFSAII (Michael W. Deem and Ramdas Pophale) SiO2 
 PCOD9339491
Probable space group: P M A 2
;
_chemical_formula_sum "Si O2"
_cell_formula_units_Z 32
_cell_length_a 15.437315
_cell_length_b 8.688424
_cell_length_c 14.070992
_cell_angle_alpha 90.000000
_cell_angle_beta 90.000000
_cell_angle_gamma 90.000000
_cell_volume 1887.285003
_symmetry_space_group_name_H-M "P M A 2"
_symmetry_group_IT_number 28
_symmetry_cell_setting 'orthorhombic'
loop_
_space_group_symop_operation_xyz
x,y,z
-x,-y,z
1/2-x,y,z
1/2+x,-y,z
loop_
_atom_site_type_symbol
_atom_site_label
_atom_site_fract_x
_atom_site_fract_y
_atom_site_fract_z
Si Si1 0.153131 0.613770 0.696720
Si Si2 0.651542 0.683607 0.828630
Si Si3 0.414345 0.404919 0.531213
Si Si4 0.346869 0.613770 0.196720
Si Si5 0.985156 0.820886 0.190842
Si Si6 0.085655 0.404919 0.031214
Si Si7 0.848458 0.683607 0.328630
Si Si8 0.985156 0.820886 0.690842
O O1 0.250000 0.678867 0.701232
O O2 0.143683 0.482209 0.776787
O O3 0.139722 0.522126 0.597466
O O4 0.076529 0.735473 0.708103
O O5 0.750000 0.738541 0.812560
O O6 0.580095 0.790029 0.778400
O O7 0.633661 0.657891 0.939335
O O8 0.500000 0.500000 0.501250
O O9 0.366338 0.342109 0.439335
O O10 0.443419 0.266563 0.600506
O O11 0.250000 0.678868 0.201232
O O12 0.423471 0.735473 0.208103
O O13 0.360278 0.522126 0.097466
O O14 0.356317 0.482209 0.276787
O O15 0.943418 0.733437 0.100506
O O16 0.919905 0.790029 0.278401
O O17 0.000000 0.000000 0.174599
O O18 0.000000 0.500000 0.001251
O O19 0.750000 0.738541 0.312560
O O20 0.000000 0.000000 0.674599
#
# Coordination Sequence:
#
# PCOD9339491 Si02
#       8
#     4   4   4   4   4   4   4   4
#     4   9  18  33  53  75  98 130 172 213 251 292
#     4  10  19  33  55  77  98 129 171 214 250 291
#     4   9  17  32  53  75  99 131 170 211 250 291
#     4   9  18  33  53  75  98 130 172 213 251 292
#     4  10  21  34  50  75 108 138 163 200 251 306
#     4   9  17  32  53  75  99 131 170 211 250 291
#     4  10  19  33  55  77  98 129 171 214 250 291
#     4  10  21  34  50  75 108 138 163 200 251 306
#
# _framework density 16.955573999999999
#
# number of rings (size 3 to 8) (size 9 to 14) (size 15 to 20)
#    0.000    2.500    0.000    4.500    0.000    3.000 
#    0.000    0.000    0.000    0.000    0.000    0.000 
#    0.000    0.000    0.000    0.000    0.000    0.000 
#
# Total GULP energy -178453.052621 kJ/mol
# GULP energy per Si atom -5576.657894 kJ/mol
# Density = 1.691698 g / cm^3
# Si number density = 16.955574 Si / 1000 Ang^3
#
#
#
# Elastic Constant Matrix: (Units=GPa)
#
#
# Indices 1 2 3 4 5 6 
#
# 1 123.3258 45.2800 34.9446 0.0000 0.0000 0.0000
# 2 45.2800 73.4624 11.4792 0.0000 0.0000 0.0000
# 3 34.9446 11.4792 67.5927 0.0000 0.0000 0.0000
# 4 0.0000 0.0000 0.0000 5.5270 0.0000 0.0000
# 5 0.0000 0.0000 0.0000 0.0000 21.1507 0.0000
# 6 0.0000 0.0000 0.0000 0.0000 0.0000 8.5604
#
#
#
# Elastic Compliance Matrix: (Units=1/GPa)
#
#
# Indices 1 2 3 4 5 6 
#
# 1 0.011960 -0.006580 -0.005066 0.000000 0.000000 0.000000
# 2 -0.006580 0.017604 0.000412 0.000000 0.000000 0.000000
# 3 -0.005066 0.000412 0.017343 0.000000 0.000000 0.000000
# 4 0.000000 0.000000 0.000000 0.180931 0.000000 0.000000
# 5 0.000000 0.000000 0.000000 0.000000 0.047280 0.000000
# 6 0.000000 0.000000 0.000000 0.000000 0.000000 0.116817
#
#
# Mechanical properties :
#
#
# Convention : Reuss Voigt Hill
#
# Bulk Modulus (GPa) = 40.91663 49.75429 45.33546
# Shear Modulus (GPa) = 11.83296 18.55942 15.19619
#
# Velocity S-wave (km/s) = 2.64461 3.31205 2.99697
# Velocity P-wave (km/s) = 5.78872 6.63580 6.22668
#
# Compressibility (1/GPa) = 0.02443994
#
# Stress axis : x y z
#
# Youngs Moduli (GPa) = 83.61256 56.80585 57.65896
#
# Poissons Ratio (x) = 0.37379 0.29208
# Poissons Ratio (y) = 0.55019 -0.02377
# Poissons Ratio (z) = 0.42355 -0.02342
#
# Static dielectric constant tensor:
#      x y z
#    x 1.596370 0.000000 0.000000 
#    y 0.000000 1.523980 0.000000 
#    z 0.000000 0.000000 1.563880 
# 
# From -- ./inp_files/6568.got.cif
#   From: 2010.05.17/outbox.cif.g08.bks.cpg/sg28_4_cif.got.tgz:6568.got - 2010.06.04 01:15:21.
