data_PCOD9339143
_publ_section_title
;
Structure prediction by ZEFSAII (Michael W. Deem and Ramdas Pophale) SiO2 
 PCOD9339143
Probable space group: P C C 2
;
_chemical_formula_sum "Si O2"
_cell_formula_units_Z 12
_cell_length_a 5.021207
_cell_length_b 5.021167
_cell_length_c 18.147346
_cell_angle_alpha 90.000000
_cell_angle_beta 90.000000
_cell_angle_gamma 90.000000
_cell_volume 457.536674
_symmetry_space_group_name_H-M "P C C 2"
_symmetry_group_IT_number 27
_symmetry_cell_setting 'orthorhombic'
loop_
_space_group_symop_operation_xyz
x,y,z
-x,-y,z
-x,y,1/2+z
x,-y,1/2+z
loop_
_atom_site_type_symbol
_atom_site_label
_atom_site_fract_x
_atom_site_fract_y
_atom_site_fract_z
Si Si1 0.000000 0.000000 0.814680
Si Si2 0.000000 0.000000 0.064680
Si Si3 0.250397 0.693987 0.184427
Si Si4 0.693987 0.749603 0.444934
O O1 0.164812 0.801499 0.866887
O O2 0.801498 0.835190 0.762473
O O3 0.229423 0.928108 0.123909
O O4 0.071890 0.770576 0.005452
O O5 0.500000 0.500000 0.182167
O O6 0.000000 0.500000 0.169545
O O7 0.500000 0.500000 0.447194
O O8 0.500000 0.000000 0.459816
#
# Coordination Sequence:
#
# PCOD9339143 Si02
#       4
#     2   2   4   4
#     4  10  28  46  72 122 160 222 280 350 420 502
#     4  10  26  46  74 120 160 218 270 348 412 500
#     4  11  27  47  81 114 166 216 278 342 419 495
#     4  11  27  47  81 114 166 216 278 342 419 495
#
# _framework density 26.227406999999999
#
# number of rings (size 3 to 8) (size 9 to 14) (size 15 to 20)
#    0.000    1.333    0.000    1.000   18.667    5.333 
#    0.000    0.000    0.000    0.000    0.000    0.000 
#    0.000    0.000    0.000    0.000    0.000    0.000 
#
# Total GULP energy -67123.961353 kJ/mol
# GULP energy per Si atom -5593.663446 kJ/mol
# Density = 2.616771 g / cm^3
# Si number density = 26.227407 Si / 1000 Ang^3
#
#
#
# Elastic Constant Matrix: (Units=GPa)
#
#
# Indices 1 2 3 4 5 6 
#
# 1 217.8419 117.1184 82.7683 0.0000 0.0000 0.0000
# 2 117.1184 217.8434 82.7700 0.0000 0.0000 0.0000
# 3 82.7683 82.7700 221.0659 0.0000 0.0000 0.0000
# 4 0.0000 0.0000 0.0000 -10.7309 0.0000 0.0000
# 5 0.0000 0.0000 0.0000 0.0000 -10.7264 0.0000
# 6 0.0000 0.0000 0.0000 0.0000 0.0000 85.1952
#
#
#
# Elastic Compliance Matrix: (Units=1/GPa)
#
#
# Indices 1 2 3 4 5 6 
#
# 1 0.006796 -0.003132 -0.001372 0.000000 0.000000 0.000000
# 2 -0.003132 0.006796 -0.001372 0.000000 0.000000 0.000000
# 3 -0.001372 -0.001372 0.005551 0.000000 0.000000 0.000000
# 4 0.000000 0.000000 0.000000 -0.093189 0.000000 0.000000
# 5 0.000000 0.000000 0.000000 0.000000 -0.093228 0.000000
# 6 0.000000 0.000000 0.000000 0.000000 0.000000 0.011738
#
#
# Mechanical properties :
#
#
# Convention : Reuss Voigt Hill
#
# Bulk Modulus (GPa) = 135.30224 135.78495 135.54359
# Shear Modulus (GPa) = -35.38004 37.68722 1.15359
#
# Velocity S-wave (km/s) = -3.67682 3.79481 0.66392
# Velocity P-wave (km/s) = 5.80300 8.43121 7.23741
#
# Compressibility (1/GPa) = 0.00739086
#
# Stress axis : x y z
#
# Youngs Moduli (GPa) = 147.15244 147.15262 180.16122
#
# Poissons Ratio (x) = 0.46094 0.24709
# Poissons Ratio (y) = 0.46094 0.24711
# Poissons Ratio (z) = 0.20182 0.20183
#
# Static dielectric constant tensor:
#      x y z
#    x 2.059500 0.000000 0.000000 
#    y 0.000000 2.059490 0.000000 
#    z 0.000000 0.000000 2.054610 
# 
# From -- ./inp_files/3822.got.cif
#   From: 2010.05.17/outbox.cif.g08.bks.cpg/sg27_2_cif.got.tgz:3822.got - 2010.06.04 01:11:05.
