data_PCOD9339320
_publ_section_title
;
Structure prediction by ZEFSAII (Michael W. Deem and Ramdas Pophale) SiO2 
 PCOD9339320
Probable space group: P M A 2
;
_chemical_formula_sum "Si O2"
_cell_formula_units_Z 28
_cell_length_a 8.614727
_cell_length_b 9.289322
_cell_length_c 19.257868
_cell_angle_alpha 90.000000
_cell_angle_beta 90.000000
_cell_angle_gamma 90.000000
_cell_volume 1541.110368
_symmetry_space_group_name_H-M "P M A 2"
_symmetry_group_IT_number 28
_symmetry_cell_setting 'orthorhombic'
loop_
_space_group_symop_operation_xyz
x,y,z
-x,-y,z
1/2-x,y,z
1/2+x,-y,z
loop_
_atom_site_type_symbol
_atom_site_label
_atom_site_fract_x
_atom_site_fract_y
_atom_site_fract_z
Si Si1 0.936411 0.664227 0.327720
Si Si2 0.436895 0.336861 0.177768
Si Si3 0.935115 0.162262 0.896057
Si Si4 0.062840 0.336919 0.025972
Si Si5 0.436355 0.837897 0.607981
Si Si6 0.935677 0.338046 0.471200
Si Si7 0.064739 0.163958 0.751991
O O1 0.750000 0.660969 0.331997
O O2 0.983534 0.728756 0.252484
O O3 0.000000 0.500000 0.326808
O O4 0.002293 0.728313 0.398893
O O5 0.500000 0.500000 0.177728
O O6 0.250000 0.343100 0.178205
O O7 0.482284 0.275217 0.102537
O O8 0.750000 0.157815 0.892347
O O9 0.000872 0.227407 0.823919
O O10 0.000000 0.000000 0.901587
O O11 0.991673 0.248999 0.962800
O O12 0.250000 0.337461 0.020881
O O13 0.000000 0.500000 0.022839
O O14 0.250000 0.842407 0.613325
O O15 0.481323 0.750024 0.539498
O O16 0.503878 0.772655 0.679490
O O17 0.500000 0.000000 0.601495
O O18 0.750000 0.344018 0.467544
O O19 0.000000 0.500000 0.476781
O O20 0.750000 0.838833 0.752916
O O21 0.000000 0.000000 0.751545
#
# Coordination Sequence:
#
# PCOD9339320 Si02
#       7
#     4   4   4   4   4   4   4
#     4   9  15  25  43  67  94 126 162 199 239 282
#     4   8  15  26  43  67  95 126 161 200 239 283
#     4  11  21  35  54  76 101 131 167 206 248 294
#     4  10  19  33  51  75 105 134 166 205 250 297
#     4  10  20  34  52  74  98 126 162 201 242 289
#     4  10  20  32  48  72 101 130 161 199 243 289
#     4  10  18  31  52  75  97 125 162 202 243 288
#
# _framework density 18.168718999999999
#
# number of rings (size 3 to 8) (size 9 to 14) (size 15 to 20)
#    0.000    2.286    0.000    6.857    0.000    3.429 
#    0.000    0.714    0.000    2.571    0.000    2.000 
#    0.000    0.000    0.000    0.000    0.000    0.000 
#
# Total GULP energy -156010.906966 kJ/mol
# GULP energy per Si atom -5571.818106 kJ/mol
# Density = 1.812737 g / cm^3
# Si number density = 18.168719 Si / 1000 Ang^3
#
#
#
# Elastic Constant Matrix: (Units=GPa)
#
#
# Indices 1 2 3 4 5 6 
#
# 1 92.1678 15.2343 68.2107 0.0000 0.0000 0.0000
# 2 15.2343 23.4096 47.0232 0.0000 0.0000 0.0000
# 3 68.2107 47.0232 247.0175 0.0000 0.0000 0.0000
# 4 0.0000 0.0000 0.0000 63.7263 0.0000 0.0000
# 5 0.0000 0.0000 0.0000 0.0000 43.1598 0.0000
# 6 0.0000 0.0000 0.0000 0.0000 0.0000 13.6265
#
#
#
# Elastic Compliance Matrix: (Units=1/GPa)
#
#
# Indices 1 2 3 4 5 6 
#
# 1 0.013702 -0.002132 -0.003378 0.000000 0.000000 0.000000
# 2 -0.002132 0.069497 -0.012641 0.000000 0.000000 0.000000
# 3 -0.003378 -0.012641 0.007387 0.000000 0.000000 0.000000
# 4 0.000000 0.000000 0.000000 0.015692 0.000000 0.000000
# 5 0.000000 0.000000 0.000000 0.000000 0.023170 0.000000
# 6 0.000000 0.000000 0.000000 0.000000 0.000000 0.073386
#
#
# Mechanical properties :
#
#
# Convention : Reuss Voigt Hill
#
# Bulk Modulus (GPa) = 18.42124 69.28127 43.85126
# Shear Modulus (GPa) = 19.43778 39.57765 29.50771
#
# Velocity S-wave (km/s) = 3.27440 4.67233 4.03438
# Velocity P-wave (km/s) = 4.94536 8.20503 6.77418
#
# Compressibility (1/GPa) = 0.05428516
#
# Stress axis : x y z
#
# Youngs Moduli (GPa) = 72.98233 14.38907 135.36500
#
# Poissons Ratio (x) = 0.03068 0.45723
# Poissons Ratio (y) = 0.15559 1.71116
# Poissons Ratio (z) = 0.24652 0.18189
#
# Static dielectric constant tensor:
#      x y z
#    x 1.606890 0.000000 0.000000 
#    y 0.000000 1.597820 0.000000 
#    z 0.000000 0.000000 1.711870 
# 
# From -- ./inp_files/6900.got.cif
#   From: 2010.05.17/outbox.cif.g08.bks.cpg/sg28_4_cif.got.tgz:6900.got - 2010.06.04 01:15:21.
