data_PCOD9339662
_publ_section_title
;
Structure prediction by ZEFSAII (Michael W. Deem and Ramdas Pophale) SiO2 
 PCOD9339662
Probable space group: P M A 2
;
_chemical_formula_sum "Si O2"
_cell_formula_units_Z 32
_cell_length_a 16.909851
_cell_length_b 8.859403
_cell_length_c 11.122725
_cell_angle_alpha 90.000000
_cell_angle_beta 90.000000
_cell_angle_gamma 90.000000
_cell_volume 1666.308609
_symmetry_space_group_name_H-M "P M A 2"
_symmetry_group_IT_number 28
_symmetry_cell_setting 'orthorhombic'
loop_
_space_group_symop_operation_xyz
x,y,z
-x,-y,z
1/2-x,y,z
1/2+x,-y,z
loop_
_atom_site_type_symbol
_atom_site_label
_atom_site_fract_x
_atom_site_fract_y
_atom_site_fract_z
Si Si1 0.158755 0.979731 0.655360
Si Si2 0.075428 0.277386 0.666288
Si Si3 0.071793 0.605653 0.053060
Si Si4 0.985924 0.836130 0.220237
Si Si5 0.042949 0.837472 0.851197
Si Si6 0.655436 0.494272 0.488477
Si Si7 0.657717 0.630561 0.220870
Si Si8 0.939994 0.185931 0.479713
O O1 0.250000 0.938590 0.655018
O O2 0.108468 0.886603 0.753268
O O3 0.116714 0.944872 0.528606
O O4 0.145042 0.155703 0.680309
O O5 0.112120 0.422474 0.600357
O O6 0.025018 0.267954 0.789405
O O7 0.010267 0.214675 0.573256
O O8 0.134070 0.493759 0.118735
O O9 0.000000 0.500000 0.009499
O O10 0.037004 0.705949 0.160030
O O11 0.085497 0.732787 0.950935
O O12 0.896765 0.777814 0.207149
O O13 0.018495 0.842902 0.354581
O O14 0.000000 0.000000 0.164679
O O15 0.000000 0.000000 0.883698
O O16 0.750000 0.488232 0.507734
O O17 0.641730 0.572822 0.357946
O O18 0.615549 0.332015 0.476947
O O19 0.750000 0.662971 0.211116
#
# Coordination Sequence:
#
# PCOD9339662 Si02
#       8
#     4   4   4   4   4   4   4   4
#     4  10  21  37  56  85 123 157 196 250 308 357
#     4  10  20  35  59  82 117 155 201 241 297 362
#     4  10  21  38  63  87 117 156 209 253 299 359
#     4  11  21  37  60  85 116 159 208 250 301 362
#     4   9  20  38  60  88 119 160 211 258 299 361
#     4  11  21  34  54  84 123 157 192 246 310 362
#     4  10  22  39  58  88 125 159 199 255 317 368
#     4  11  20  34  53  83 115 153 196 245 290 363
#
# _framework density 19.204125999999999
#
# number of rings (size 3 to 8) (size 9 to 14) (size 15 to 20)
#    0.000    1.750    2.500    3.375    0.000    2.500 
#    0.000    1.250    0.000   22.500    0.000    0.000 
#    0.000    0.000    0.000    0.000    0.000    0.000 
#
# Total GULP energy -178299.493426 kJ/mol
# GULP energy per Si atom -5571.859170 kJ/mol
# Density = 1.916042 g / cm^3
# Si number density = 19.204126 Si / 1000 Ang^3
#
#
#
# Elastic Constant Matrix: (Units=GPa)
#
#
# Indices 1 2 3 4 5 6 
#
# 1 95.2941 29.1038 15.7831 0.0000 0.0000 0.0000
# 2 29.1038 77.0876 13.8969 0.0000 0.0000 0.0000
# 3 15.7831 13.8969 72.0477 0.0000 0.0000 0.0000
# 4 0.0000 0.0000 0.0000 39.6868 0.0000 0.0000
# 5 0.0000 0.0000 0.0000 0.0000 12.1846 0.0000
# 6 0.0000 0.0000 0.0000 0.0000 0.0000 23.6683
#
#
#
# Elastic Compliance Matrix: (Units=1/GPa)
#
#
# Indices 1 2 3 4 5 6 
#
# 1 0.012090 -0.004234 -0.001832 0.000000 0.000000 0.000000
# 2 -0.004234 0.014923 -0.001951 0.000000 0.000000 0.000000
# 3 -0.001832 -0.001951 0.014657 0.000000 0.000000 0.000000
# 4 0.000000 0.000000 0.000000 0.025197 0.000000 0.000000
# 5 0.000000 0.000000 0.000000 0.000000 0.082071 0.000000
# 6 0.000000 0.000000 0.000000 0.000000 0.000000 0.042251
#
#
# Mechanical properties :
#
#
# Convention : Reuss Voigt Hill
#
# Bulk Modulus (GPa) = 39.00714 40.22188 39.61451
# Shear Modulus (GPa) = 23.17302 27.48432 25.32867
#
# Velocity S-wave (km/s) = 3.47748 3.78718 3.63563
# Velocity P-wave (km/s) = 6.03985 6.33352 6.18843
#
# Compressibility (1/GPa) = 0.02563633
#
# Stress axis : x y z
#
# Youngs Moduli (GPa) = 82.70977 67.01250 68.22565
#
# Poissons Ratio (x) = 0.28376 0.12498
# Poissons Ratio (y) = 0.35023 0.13309
# Poissons Ratio (z) = 0.15151 0.13072
#
# Static dielectric constant tensor:
#      x y z
#    x 1.640640 0.000000 0.000000 
#    y 0.000000 1.680920 0.000000 
#    z 0.000000 0.000000 1.726040 
# 
# From -- ./inp_files/5644.got.cif
#   From: 2010.05.17/outbox.cif.g08.bks.cpg/sg28_3_cif.got.tgz:5644.got - 2010.06.04 01:15:21.
