data_PCOD9339641
_publ_section_title
;
Structure prediction by ZEFSAII (Michael W. Deem and Ramdas Pophale) SiO2 
 PCOD9339641
Probable space group: P M A 2
;
_chemical_formula_sum "Si O2"
_cell_formula_units_Z 32
_cell_length_a 8.490175
_cell_length_b 9.365469
_cell_length_c 21.326042
_cell_angle_alpha 90.000000
_cell_angle_beta 90.000000
_cell_angle_gamma 90.000000
_cell_volume 1695.728943
_symmetry_space_group_name_H-M "P M A 2"
_symmetry_group_IT_number 28
_symmetry_cell_setting 'orthorhombic'
loop_
_space_group_symop_operation_xyz
x,y,z
-x,-y,z
1/2-x,y,z
1/2+x,-y,z
loop_
_atom_site_type_symbol
_atom_site_label
_atom_site_fract_x
_atom_site_fract_y
_atom_site_fract_z
Si Si1 0.440366 0.338332 0.784740
Si Si2 0.940273 0.838219 0.662250
Si Si3 0.440489 0.160973 0.906996
Si Si4 0.940378 0.661620 0.027345
Si Si5 0.439366 0.161029 0.287041
Si Si6 0.562254 0.162384 0.421423
Si Si7 0.059932 0.339378 0.167016
Si Si8 0.060808 0.338570 0.539448
O O1 0.500000 0.500000 0.783029
O O2 0.250000 0.341610 0.784492
O O3 0.492471 0.248714 0.723862
O O4 0.491714 0.256319 0.847716
O O5 0.750000 0.841669 0.662593
O O6 0.991030 0.753302 0.599981
O O7 0.000000 0.000000 0.662545
O O8 0.250000 0.158670 0.907074
O O9 0.500000 0.000000 0.901711
O O10 0.494278 0.235995 0.971450
O O11 0.750000 0.658040 0.026091
O O12 0.990074 0.710120 0.097286
O O13 0.000000 0.500000 0.017905
O O14 0.250000 0.161774 0.289293
O O15 0.503080 0.216210 0.353618
O O16 0.494282 0.247306 0.226071
O O17 0.500000 0.000000 0.281431
O O18 0.750000 0.158256 0.421706
O O19 0.500643 0.260913 0.477198
O O20 0.500000 0.000000 0.429465
O O21 0.250000 0.339124 0.167799
O O22 0.000000 0.500000 0.173980
O O23 0.250000 0.340276 0.538316
O O24 0.000000 0.500000 0.543694
#
# Coordination Sequence:
#
# PCOD9339641 Si02
#       8
#     4   4   4   4   4   4   4   4
#     4  10  21  37  56  82 111 143 181 223 267 316
#     4  10  22  38  58  83 112 144 182 223 267 318
#     4  10  21  35  53  78 110 142 179 222 266 316
#     4   9  18  34  53  76 104 138 178 221 266 317
#     4  10  20  35  54  78 107 140 178 222 268 321
#     4  11  22  38  59  82 109 143 181 224 271 325
#     4   9  19  34  53  76 105 138 176 220 267 318
#     4  11  23  39  58  83 112 144 182 225 271 323
#
# _framework density 18.870941999999999
#
# number of rings (size 3 to 8) (size 9 to 14) (size 15 to 20)
#    0.000    2.000    0.000    4.125    0.000    5.500 
#    0.000    1.250    0.000    0.000    0.000    0.000 
#    0.000    0.000    0.000    0.000    0.000    0.000 
#
# Total GULP energy -178722.241049 kJ/mol
# GULP energy per Si atom -5585.070033 kJ/mol
# Density = 1.882799 g / cm^3
# Si number density = 18.870942 Si / 1000 Ang^3
#
#
#
# Elastic Constant Matrix: (Units=GPa)
#
#
# Indices 1 2 3 4 5 6 
#
# 1 37.5530 25.6239 39.2702 0.0000 0.0000 0.0000
# 2 25.6239 148.0227 125.9660 0.0000 0.0000 0.0000
# 3 39.2702 125.9660 225.6946 0.0000 0.0000 0.0000
# 4 0.0000 0.0000 0.0000 42.2896 0.0000 0.0000
# 5 0.0000 0.0000 0.0000 0.0000 -11.0601 0.0000
# 6 0.0000 0.0000 0.0000 0.0000 0.0000 36.3069
#
#
#
# Elastic Compliance Matrix: (Units=1/GPa)
#
#
# Indices 1 2 3 4 5 6 
#
# 1 0.032740 -0.001561 -0.004825 0.000000 0.000000 0.000000
# 2 -0.001561 0.012942 -0.006951 0.000000 0.000000 0.000000
# 3 -0.004825 -0.006951 0.009150 0.000000 0.000000 0.000000
# 4 0.000000 0.000000 0.000000 0.023646 0.000000 0.000000
# 5 0.000000 0.000000 0.000000 0.000000 -0.090415 0.000000
# 6 0.000000 0.000000 0.000000 0.000000 0.000000 0.027543
#
#
# Mechanical properties :
#
#
# Convention : Reuss Voigt Hill
#
# Bulk Modulus (GPa) = 35.51638 88.11005 61.81322
# Shear Modulus (GPa) = 96.77186 28.20129 62.48658
#
# Velocity S-wave (km/s) = 7.16884 3.86998 5.76060
# Velocity P-wave (km/s) = 9.34797 8.17075 8.77911
#
# Compressibility (1/GPa) = 0.02815602
#
# Stress axis : x y z
#
# Youngs Moduli (GPa) = 30.54334 77.27068 109.28879
#
# Poissons Ratio (x) = 0.12065 0.52735
# Poissons Ratio (y) = 0.04769 0.75970
# Poissons Ratio (z) = 0.14738 0.53713
#
# Static dielectric constant tensor:
#      x y z
#    x 1.641380 0.000000 0.000000 
#    y 0.000000 1.616140 0.000000 
#    z 0.000000 0.000000 1.670400 
# 
# From -- ./inp_files/7160.got.cif
#   From: 2010.05.17/outbox.cif.g08.bks.cpg/sg28_4_cif.got.tgz:7160.got - 2010.06.04 01:15:21.
