data_PCOD9339016
_publ_section_title
;
Structure prediction by ZEFSAII (Michael W. Deem and Ramdas Pophale) SiO2 
 PCOD9339016
Probable space group: P C C 2
;
_chemical_formula_sum "Si O2"
_cell_formula_units_Z 18
_cell_length_a 7.541510
_cell_length_b 9.532591
_cell_length_c 9.418467
_cell_angle_alpha 90.000000
_cell_angle_beta 90.000000
_cell_angle_gamma 90.000000
_cell_volume 677.094820
_symmetry_space_group_name_H-M "P C C 2"
_symmetry_group_IT_number 27
_symmetry_cell_setting 'orthorhombic'
loop_
_space_group_symop_operation_xyz
x,y,z
-x,-y,z
-x,y,1/2+z
x,-y,1/2+z
loop_
_atom_site_type_symbol
_atom_site_label
_atom_site_fract_x
_atom_site_fract_y
_atom_site_fract_z
Si Si1 0.662145 0.829228 0.916180
Si Si2 0.996829 0.837285 0.531061
Si Si3 0.175070 0.424995 0.187680
Si Si4 0.663374 0.652061 0.472938
Si Si5 0.500000 0.000000 0.161137
O O1 0.539516 0.702373 0.972241
O O2 0.577891 0.885978 0.770668
O O3 0.872547 0.822654 0.893285
O O4 0.636688 0.933823 0.049721
O O5 0.800102 0.781320 0.498582
O O6 0.099164 0.719960 0.624377
O O7 0.000000 0.000000 0.575967
O O8 0.306475 0.397732 0.314033
O O9 0.000000 0.500000 0.249070
O O10 0.265424 0.533606 0.079019
#
# Coordination Sequence:
#
# PCOD9339016 Si02
#       5
#     4   4   4   4   2
#     4  11  24  43  68 102 140 183 230 287 354 417
#     4  11  24  42  72 105 137 180 231 290 355 416
#     4  10  23  46  70 101 142 188 234 288 353 418
#     4  11  25  46  70  99 144 185 233 290 344 418
#     4  10  22  42  64 100 146 172 224 296 350 416
#
# _framework density 26.584166
#
# number of rings (size 3 to 8) (size 9 to 14) (size 15 to 20)
#    0.000    1.333    0.000    6.000    0.000    8.889 
#    0.000    6.667    0.000    0.000    0.000    0.000 
#    0.000    0.000    0.000    0.000    0.000    0.000 
#
# Total GULP energy -100786.863231 kJ/mol
# GULP energy per Si atom -5599.270179 kJ/mol
# Density = 2.652366 g / cm^3
# Si number density = 26.584166 Si / 1000 Ang^3
#
#
#
# Elastic Constant Matrix: (Units=GPa)
#
#
# Indices 1 2 3 4 5 6 
#
# 1 115.1376 65.5807 -0.4740 0.0000 0.0000 0.0000
# 2 65.5807 179.0430 43.0566 0.0000 0.0000 0.0000
# 3 -0.4740 43.0566 111.4534 0.0000 0.0000 0.0000
# 4 0.0000 0.0000 0.0000 34.9115 0.0000 0.0000
# 5 0.0000 0.0000 0.0000 0.0000 24.4934 0.0000
# 6 0.0000 0.0000 0.0000 0.0000 0.0000 57.0989
#
#
#
# Elastic Compliance Matrix: (Units=1/GPa)
#
#
# Indices 1 2 3 4 5 6 
#
# 1 0.011299 -0.004575 0.001816 0.000000 0.000000 0.000000
# 2 -0.004575 0.008010 -0.003114 0.000000 0.000000 0.000000
# 3 0.001816 -0.003114 0.010183 0.000000 0.000000 0.000000
# 4 0.000000 0.000000 0.000000 0.028644 0.000000 0.000000
# 5 0.000000 0.000000 0.000000 0.000000 0.040827 0.000000
# 6 0.000000 0.000000 0.000000 0.000000 0.000000 0.017513
#
#
# Mechanical properties :
#
#
# Convention : Reuss Voigt Hill
#
# Bulk Modulus (GPa) = 56.35499 69.10674 62.73086
# Shear Modulus (GPa) = 37.27505 43.13214 40.20359
#
# Velocity S-wave (km/s) = 3.74859 4.03237 3.89307
# Velocity P-wave (km/s) = 6.32303 6.90882 6.62241
#
# Compressibility (1/GPa) = 0.01774466
#
# Stress axis : x y z
#
# Youngs Moduli (GPa) = 88.50608 124.84605 98.20283
#
# Poissons Ratio (x) = 0.57119 -0.17829
# Poissons Ratio (y) = 0.40493 0.30579
# Poissons Ratio (z) = -0.16068 0.38875
#
# Static dielectric constant tensor:
#      x y z
#    x 2.219770 0.000000 0.000000 
#    y 0.000000 2.191140 0.000000 
#    z 0.000000 0.000000 2.011610 
# 
# From -- ./inp_files/2265.got.cif
#   From: 2010.05.17/outbox.cif.g08.bks.cpg/sg27_2_cif.got.tgz:2265.got - 2010.06.04 01:11:05.
