data_PCOD9339377
_publ_section_title
;
Structure prediction by ZEFSAII (Michael W. Deem and Ramdas Pophale) SiO2 
 PCOD9339377
Probable space group: P M A 2
;
_chemical_formula_sum "Si O2"
_cell_formula_units_Z 32
_cell_length_a 8.577147
_cell_length_b 14.705235
_cell_length_c 16.166145
_cell_angle_alpha 90.000000
_cell_angle_beta 90.000000
_cell_angle_gamma 90.000000
_cell_volume 2039.019093
_symmetry_space_group_name_H-M "P M A 2"
_symmetry_group_IT_number 28
_symmetry_cell_setting 'orthorhombic'
loop_
_space_group_symop_operation_xyz
x,y,z
-x,-y,z
1/2-x,y,z
1/2+x,-y,z
loop_
_atom_site_type_symbol
_atom_site_label
_atom_site_fract_x
_atom_site_fract_y
_atom_site_fract_z
Si Si1 0.062693 0.290140 0.237560
Si Si2 0.938212 0.283635 0.558860
Si Si3 0.562254 0.397147 0.898871
Si Si4 0.937644 0.902422 0.303683
Si Si5 0.062501 0.603419 0.080456
Si Si6 0.436475 0.097818 0.495930
Si Si7 0.061216 0.603121 0.717972
Si Si8 0.437367 0.602234 0.396518
O O1 0.250000 0.292915 0.237683
O O2 0.012054 0.185610 0.252019
O O3 0.000727 0.334635 0.153811
O O4 0.002038 0.347997 0.315439
O O5 0.750000 0.280292 0.559688
O O6 0.991218 0.334431 0.642065
O O7 0.985836 0.342177 0.478406
O O8 0.001689 0.182388 0.547891
O O9 0.500000 0.500000 0.898539
O O10 0.750000 0.398148 0.899022
O O11 0.513313 0.359804 0.809042
O O12 0.514200 0.360393 0.988912
O O13 0.750000 0.905481 0.303107
O O14 0.987747 0.889602 0.399701
O O15 0.000000 0.000000 0.275177
O O16 0.250000 0.600165 0.084504
O O17 0.000000 0.500000 0.089461
O O18 0.250000 0.096800 0.497261
O O19 0.500000 0.000000 0.523386
O O20 0.250000 0.599254 0.715809
O O21 0.000000 0.500000 0.708781
O O22 0.500000 0.500000 0.400604
O O23 0.250000 0.600782 0.392892
#
# Coordination Sequence:
#
# PCOD9339377 Si02
#       8
#     4   4   4   4   4   4   4   4
#     4  11  21  34  48  67  93 123 157 192 232 276
#     4  10  20  32  47  69  95 125 159 192 232 276
#     4   8  15  28  46  66  91 120 154 193 234 275
#     4   9  19  33  50  69  89 116 150 191 234 275
#     4  10  19  31  47  69  94 125 159 194 234 276
#     4  10  19  33  51  70  92 120 155 196 238 279
#     4   9  17  30  47  69  96 126 158 194 232 275
#     4  11  22  33  45  63  92 129 162 192 223 266
#
# _framework density 15.693822000000001
#
# number of rings (size 3 to 8) (size 9 to 14) (size 15 to 20)
#    0.000    2.250    1.250    2.250    0.000    3.000 
#    0.000    0.000    0.000    0.000    0.000    0.875 
#    0.000    2.000    0.000    0.000    0.000    0.000 
#
# Total GULP energy -178392.462894 kJ/mol
# GULP energy per Si atom -5574.764465 kJ/mol
# Density = 1.565810 g / cm^3
# Si number density = 15.693822 Si / 1000 Ang^3
#
#
#
# Elastic Constant Matrix: (Units=GPa)
#
#
# Indices 1 2 3 4 5 6 
#
# 1 23.4781 25.2242 30.3345 0.0000 0.0000 0.0000
# 2 25.2242 127.0321 80.7297 0.0000 0.0000 0.0000
# 3 30.3345 80.7297 157.2928 0.0000 0.0000 0.0000
# 4 0.0000 0.0000 0.0000 6.1304 0.0000 0.0000
# 5 0.0000 0.0000 0.0000 0.0000 420.9872 0.0000
# 6 0.0000 0.0000 0.0000 0.0000 0.0000 25.4511
#
#
#
# Elastic Compliance Matrix: (Units=1/GPa)
#
#
# Indices 1 2 3 4 5 6 
#
# 1 0.060464 -0.006820 -0.008160 0.000000 0.000000 0.000000
# 2 -0.006820 0.012452 -0.005076 0.000000 0.000000 0.000000
# 3 -0.008160 -0.005076 0.010536 0.000000 0.000000 0.000000
# 4 0.000000 0.000000 0.000000 0.163121 0.000000 0.000000
# 5 0.000000 0.000000 0.000000 0.000000 0.002375 0.000000
# 6 0.000000 0.000000 0.000000 0.000000 0.000000 0.039291
#
#
# Mechanical properties :
#
#
# Convention : Reuss Voigt Hill
#
# Bulk Modulus (GPa) = 23.07340 64.48664 43.78002
# Shear Modulus (GPa) = 14.58589 101.94806 58.26698
#
# Velocity S-wave (km/s) = 3.05192 8.06856 6.09983
# Velocity P-wave (km/s) = 5.21086 11.31291 8.80724
#
# Compressibility (1/GPa) = 0.04333995
#
# Stress axis : x y z
#
# Youngs Moduli (GPa) = 16.53886 80.30973 94.90991
#
# Poissons Ratio (x) = 0.54772 0.77449
# Poissons Ratio (y) = 0.11280 0.48172
# Poissons Ratio (z) = 0.13496 0.40761
#
# Static dielectric constant tensor:
#      x y z
#    x 1.490570 0.000000 0.000000 
#    y 0.000000 1.492840 0.000000 
#    z 0.000000 0.000000 1.547510 
# 
# From -- ./inp_files/6392.got.cif
#   From: 2010.05.17/outbox.cif.g08.bks.cpg/sg28_4_cif.got.tgz:6392.got - 2010.06.04 01:15:21.
