data_PCOD9339360
_publ_section_title
;
Structure prediction by ZEFSAII (Michael W. Deem and Ramdas Pophale) SiO2 
 PCOD9339360
Probable space group: P M A 2
;
_chemical_formula_sum "Si O2"
_cell_formula_units_Z 24
_cell_length_a 8.861307
_cell_length_b 13.640170
_cell_length_c 11.791253
_cell_angle_alpha 90.000000
_cell_angle_beta 90.000000
_cell_angle_gamma 90.000000
_cell_volume 1425.205612
_symmetry_space_group_name_H-M "P M A 2"
_symmetry_group_IT_number 28
_symmetry_cell_setting 'orthorhombic'
loop_
_space_group_symop_operation_xyz
x,y,z
-x,-y,z
1/2-x,y,z
1/2+x,-y,z
loop_
_atom_site_type_symbol
_atom_site_label
_atom_site_fract_x
_atom_site_fract_y
_atom_site_fract_z
Si Si1 0.570029 0.605304 0.951950
Si Si2 0.580427 0.404856 0.588133
Si Si3 0.920100 0.244918 0.785364
Si Si4 0.432333 0.892408 0.587785
Si Si5 0.068678 0.395318 0.217229
Si Si6 0.428990 0.265266 0.418711
O O1 0.500000 0.500000 0.915733
O O2 0.750000 0.597779 0.940880
O O3 0.512918 0.699659 0.882226
O O4 0.529786 0.617794 0.084889
O O5 0.500000 0.500000 0.634267
O O6 0.750000 0.423392 0.544968
O O7 0.591435 0.326490 0.687299
O O8 0.472800 0.359833 0.493226
O O9 0.750000 0.222164 0.826029
O O10 0.980817 0.153880 0.710268
O O11 0.250000 0.892617 0.587282
O O12 0.488611 0.823402 0.484149
O O13 0.500000 0.000000 0.575188
O O14 0.250000 0.403163 0.226560
O O15 0.023283 0.301718 0.293606
O O16 0.000000 0.500000 0.254637
O O17 0.250000 0.246710 0.420327
#
# Coordination Sequence:
#
# PCOD9339360 Si02
#       6
#     4   4   4   4   4   4
#     4  10  19  31  48  71 101 136 171 203 237 280
#     4  10  19  29  42  65  97 128 160 198 241 290
#     4   9  19  33  48  69  96 125 159 199 241 289
#     4  10  21  37  56  77  99 123 157 202 253 303
#     4   9  19  32  47  71 102 136 170 203 237 279
#     4  10  19  32  50  71  97 128 163 201 243 291
#
# _framework density 16.839675
#
# number of rings (size 3 to 8) (size 9 to 14) (size 15 to 20)
#    0.000    2.333    0.000    4.000    0.000    8.667 
#    0.000    0.000    0.000    1.000    0.000    2.333 
#    0.000    0.000    0.000    0.000    0.000    0.000 
#
# Total GULP energy -133648.981543 kJ/mol
# GULP energy per Si atom -5568.707564 kJ/mol
# Density = 1.680135 g / cm^3
# Si number density = 16.839675 Si / 1000 Ang^3
#
#
#
# Elastic Constant Matrix: (Units=GPa)
#
#
# Indices 1 2 3 4 5 6 
#
# 1 43.8228 36.0757 28.7847 0.0000 0.0000 0.0000
# 2 36.0757 92.2505 50.1418 0.0000 0.0000 0.0000
# 3 28.7847 50.1418 85.2361 0.0000 0.0000 0.0000
# 4 0.0000 0.0000 0.0000 23.8274 0.0000 0.0000
# 5 0.0000 0.0000 0.0000 0.0000 21.0806 0.0000
# 6 0.0000 0.0000 0.0000 0.0000 0.0000 22.2593
#
#
#
# Elastic Compliance Matrix: (Units=1/GPa)
#
#
# Indices 1 2 3 4 5 6 
#
# 1 0.035382 -0.010793 -0.005600 0.000000 0.000000 0.000000
# 2 -0.010793 0.019228 -0.007666 0.000000 0.000000 0.000000
# 3 -0.005600 -0.007666 0.018133 0.000000 0.000000 0.000000
# 4 0.000000 0.000000 0.000000 0.041968 0.000000 0.000000
# 5 0.000000 0.000000 0.000000 0.000000 0.047437 0.000000
# 6 0.000000 0.000000 0.000000 0.000000 0.000000 0.044925
#
#
# Mechanical properties :
#
#
# Convention : Reuss Voigt Hill
#
# Bulk Modulus (GPa) = 40.60878 50.14599 45.37738
# Shear Modulus (GPa) = 18.98258 20.52060 19.75159
#
# Velocity S-wave (km/s) = 3.36110 3.49461 3.42851
# Velocity P-wave (km/s) = 6.26338 6.79163 6.53285
#
# Compressibility (1/GPa) = 0.02462522
#
# Stress axis : x y z
#
# Youngs Moduli (GPa) = 28.26278 52.00838 55.14838
#
# Poissons Ratio (x) = 0.56133 0.30881
# Poissons Ratio (y) = 0.30504 0.42278
# Poissons Ratio (z) = 0.15826 0.39871
#
# Static dielectric constant tensor:
#      x y z
#    x 1.590220 0.000000 0.000000 
#    y 0.000000 1.594900 0.000000 
#    z 0.000000 0.000000 1.599790 
# 
# From -- ./inp_files/4684.got.cif
#   From: 2010.05.17/outbox.cif.g08.bks.cpg/sg28_3_cif.got.tgz:4684.got - 2010.06.04 01:15:21.
