data_PCOD9339005
_publ_section_title
;
Structure prediction by ZEFSAII (Michael W. Deem and Ramdas Pophale) SiO2 
 PCOD9339005
Probable space group: P C C 2
;
_chemical_formula_sum "Si O2"
_cell_formula_units_Z 22
_cell_length_a 13.933512
_cell_length_b 8.450029
_cell_length_c 8.712975
_cell_angle_alpha 90.000000
_cell_angle_beta 90.000000
_cell_angle_gamma 90.000000
_cell_volume 1025.853308
_symmetry_space_group_name_H-M "P C C 2"
_symmetry_group_IT_number 27
_symmetry_cell_setting 'orthorhombic'
loop_
_space_group_symop_operation_xyz
x,y,z
-x,-y,z
-x,y,1/2+z
x,-y,1/2+z
loop_
_atom_site_type_symbol
_atom_site_label
_atom_site_fract_x
_atom_site_fract_y
_atom_site_fract_z
Si Si1 0.871855 0.652878 0.379080
Si Si2 0.594116 0.911719 0.552207
Si Si3 0.579118 0.373754 0.243303
Si Si4 0.719853 0.146649 0.760082
Si Si5 0.292720 0.574035 0.517966
Si Si6 0.000000 0.500000 0.618795
O O1 0.823713 0.824254 0.345069
O O2 0.791035 0.528591 0.440018
O O3 0.921306 0.580113 0.228168
O O4 0.952314 0.634670 0.511397
O O5 0.545047 0.786002 0.667159
O O6 0.647229 0.841699 0.403323
O O7 0.500000 0.000000 0.492789
O O8 0.674891 0.006559 0.653415
O O9 0.500000 0.500000 0.291899
O O10 0.648580 0.341528 0.383814
O O11 0.639663 0.454170 0.108451
O O12 0.728101 0.293684 0.643850
#
# Coordination Sequence:
#
# PCOD9339005 Si02
#       6
#     4   4   4   4   4   2
#     4  11  21  42  70 111 129 172 221 301 365 419
#     4  12  27  45  65  97 146 202 242 279 341 419
#     4  12  24  40  65 100 142 186 244 293 334 400
#     4  12  25  45  68 100 145 188 238 289 352 423
#     4  12  22  41  68 100 136 178 236 295 347 408
#     4  10  22  40  76 108 138 156 228 310 362 434
#
# _framework density 21.445561000000001
#
# number of rings (size 3 to 8) (size 9 to 14) (size 15 to 20)
#    0.000    0.364    5.455    3.273    0.000    4.364 
#    0.000    1.818    0.000    3.273    0.000    0.000 
#    0.000    0.000    0.000    0.000    0.000    0.000 
#
# Total GULP energy -122725.269323 kJ/mol
# GULP energy per Si atom -5578.421333 kJ/mol
# Density = 2.139675 g / cm^3
# Si number density = 21.445561 Si / 1000 Ang^3
#
#
#
# Elastic Constant Matrix: (Units=GPa)
#
#
# Indices 1 2 3 4 5 6 
#
# 1 87.8732 14.1585 28.2981 0.0000 0.0000 0.0000
# 2 14.1585 35.1732 6.3743 0.0000 0.0000 0.0000
# 3 28.2981 6.3743 107.3608 0.0000 0.0000 0.0000
# 4 0.0000 0.0000 0.0000 25.2243 0.0000 0.0000
# 5 0.0000 0.0000 0.0000 0.0000 40.5137 0.0000
# 6 0.0000 0.0000 0.0000 0.0000 0.0000 36.9053
#
#
#
# Elastic Compliance Matrix: (Units=1/GPa)
#
#
# Indices 1 2 3 4 5 6 
#
# 1 0.013168 -0.004723 -0.003191 0.000000 0.000000 0.000000
# 2 -0.004723 0.030434 -0.000562 0.000000 0.000000 0.000000
# 3 -0.003191 -0.000562 0.010189 0.000000 0.000000 0.000000
# 4 0.000000 0.000000 0.000000 0.039644 0.000000 0.000000
# 5 0.000000 0.000000 0.000000 0.000000 0.024683 0.000000
# 6 0.000000 0.000000 0.000000 0.000000 0.000000 0.027096
#
#
# Mechanical properties :
#
#
# Convention : Reuss Voigt Hill
#
# Bulk Modulus (GPa) = 27.14423 36.45211 31.79817
# Shear Modulus (GPa) = 28.66233 32.63374 30.64804
#
# Velocity S-wave (km/s) = 3.65980 3.90513 3.78446
# Velocity P-wave (km/s) = 5.52663 6.11292 5.82715
#
# Compressibility (1/GPa) = 0.03684024
#
# Stress axis : x y z
#
# Youngs Moduli (GPa) = 75.93926 32.85843 98.14770
#
# Poissons Ratio (x) = 0.15518 0.31314
# Poissons Ratio (y) = 0.35863 0.05517
# Poissons Ratio (z) = 0.24229 0.01847
#
# Static dielectric constant tensor:
#      x y z
#    x 1.868740 0.000000 0.000000 
#    y 0.000000 1.834770 0.000000 
#    z 0.000000 0.000000 1.804470 
# 
# From -- ./inp_files/1106.got.cif
#   From: 2010.05.17/outbox.cif.g08.bks.cpg/sg27_1_cif.got.tgz:1106.got - 2010.06.04 01:11:05.
