data_PCOD9339244
_publ_section_title
;
Structure prediction by ZEFSAII (Michael W. Deem and Ramdas Pophale) SiO2 
 PCOD9339244
Probable space group: P M A 2
;
_chemical_formula_sum "Si O2"
_cell_formula_units_Z 28
_cell_length_a 20.323261
_cell_length_b 9.762446
_cell_length_c 7.293916
_cell_angle_alpha 90.000000
_cell_angle_beta 90.000000
_cell_angle_gamma 90.000000
_cell_volume 1447.147493
_symmetry_space_group_name_H-M "P M A 2"
_symmetry_group_IT_number 28
_symmetry_cell_setting 'orthorhombic'
loop_
_space_group_symop_operation_xyz
x,y,z
-x,-y,z
1/2-x,y,z
1/2+x,-y,z
loop_
_atom_site_type_symbol
_atom_site_label
_atom_site_fract_x
_atom_site_fract_y
_atom_site_fract_z
Si Si1 0.965526 0.360350 0.638850
Si Si2 0.553312 0.880730 0.722844
Si Si3 0.823544 0.268542 0.559112
Si Si4 0.636552 0.176151 0.166700
Si Si5 0.933022 0.909793 0.297534
Si Si6 0.321740 0.973731 0.826219
Si Si7 0.992718 0.339565 0.200569
O O1 0.886448 0.347420 0.644679
O O2 0.979258 0.338515 0.421199
O O3 0.000000 0.500000 0.690056
O O4 0.007809 0.250510 0.751361
O O5 0.576891 0.874869 0.510988
O O6 0.500000 0.000000 0.743369
O O7 0.617427 0.922172 0.836652
O O8 0.750000 0.320783 0.601935
O O9 0.831228 0.253135 0.339311
O O10 0.828993 0.115312 0.641371
O O11 0.571385 0.264195 0.119767
O O12 0.619208 0.021490 0.233234
O O13 0.675110 0.142924 0.982675
O O14 0.946709 0.768750 0.187195
O O15 0.000000 0.000000 0.287696
O O16 0.250000 0.040508 0.831349
O O17 0.000000 0.500000 0.148015
#
# Coordination Sequence:
#
# PCOD9339244 Si02
#       7
#     4   4   4   4   4   4   4
#     4   9  17  32  56  84 109 141 180 222 265 324
#     4  10  16  32  54  77 107 136 174 219 267 313
#     4  10  19  35  55  79 109 141 176 225 272 316
#     4  10  18  32  52  76 103 140 181 219 268 322
#     4   8  14  27  48  75 103 133 168 215 266 311
#     4  11  22  33  52  81 106 137 181 227 268 320
#     4   8  15  28  50  79 110 137 175 223 267 316
#
# _framework density 19.348407999999999
#
# number of rings (size 3 to 8) (size 9 to 14) (size 15 to 20)
#    0.000    2.571    2.857    2.143    0.000    1.714 
#    0.000    1.429    0.000    0.000    0.000    2.000 
#    0.000    0.000    0.000    0.000    0.000    0.000 
#
# Total GULP energy -155885.211941 kJ/mol
# GULP energy per Si atom -5567.328998 kJ/mol
# Density = 1.930437 g / cm^3
# Si number density = 19.348408 Si / 1000 Ang^3
#
#
#
# Elastic Constant Matrix: (Units=GPa)
#
#
# Indices 1 2 3 4 5 6 
#
# 1 147.0598 59.2220 25.8662 0.0000 0.0000 0.0000
# 2 59.2220 114.4365 7.1715 0.0000 0.0000 0.0000
# 3 25.8662 7.1715 58.1546 0.0000 0.0000 0.0000
# 4 0.0000 0.0000 0.0000 21.5887 0.0000 0.0000
# 5 0.0000 0.0000 0.0000 0.0000 11.9307 0.0000
# 6 0.0000 0.0000 0.0000 0.0000 0.0000 17.3437
#
#
#
# Elastic Compliance Matrix: (Units=1/GPa)
#
#
# Indices 1 2 3 4 5 6 
#
# 1 0.009267 -0.004573 -0.003558 0.000000 0.000000 0.000000
# 2 -0.004573 0.011063 0.000670 0.000000 0.000000 0.000000
# 3 -0.003558 0.000670 0.018696 0.000000 0.000000 0.000000
# 4 0.000000 0.000000 0.000000 0.046320 0.000000 0.000000
# 5 0.000000 0.000000 0.000000 0.000000 0.083817 0.000000
# 6 0.000000 0.000000 0.000000 0.000000 0.000000 0.057658
#
#
# Mechanical properties :
#
#
# Convention : Reuss Voigt Hill
#
# Bulk Modulus (GPa) = 41.48804 56.01891 48.75347
# Shear Modulus (GPa) = 20.01772 25.33203 22.67488
#
# Velocity S-wave (km/s) = 3.22000 3.62229 3.42705
# Velocity P-wave (km/s) = 5.94253 6.81984 6.39625
#
# Compressibility (1/GPa) = 0.02410333
#
# Stress axis : x y z
#
# Youngs Moduli (GPa) = 107.90585 90.39093 53.48878
#
# Poissons Ratio (x) = 0.41335 0.19031
# Poissons Ratio (y) = 0.49345 -0.03582
# Poissons Ratio (z) = 0.38393 -0.06054
#
# Static dielectric constant tensor:
#      x y z
#    x 1.693070 0.000000 0.000000 
#    y 0.000000 1.527680 0.000000 
#    z 0.000000 0.000000 1.751830 
# 
# From -- ./inp_files/4015.got.cif
#   From: 2010.05.17/outbox.cif.g08.bks.cpg/sg28_3_cif.got.tgz:4015.got - 2010.06.04 01:15:21.
