data_PCOD9339583
_publ_section_title
;
Structure prediction by ZEFSAII (Michael W. Deem and Ramdas Pophale) SiO2 
 PCOD9339583
Probable space group: P M A 2
;
_chemical_formula_sum "Si O2"
_cell_formula_units_Z 24
_cell_length_a 8.512385
_cell_length_b 9.629324
_cell_length_c 16.463720
_cell_angle_alpha 90.000000
_cell_angle_beta 90.000000
_cell_angle_gamma 90.000000
_cell_volume 1349.506650
_symmetry_space_group_name_H-M "P M A 2"
_symmetry_group_IT_number 28
_symmetry_cell_setting 'orthorhombic'
loop_
_space_group_symop_operation_xyz
x,y,z
-x,-y,z
1/2-x,y,z
1/2+x,-y,z
loop_
_atom_site_type_symbol
_atom_site_label
_atom_site_fract_x
_atom_site_fract_y
_atom_site_fract_z
Si Si1 0.438623 0.159134 0.522350
Si Si2 0.438724 0.343281 0.018837
Si Si3 0.939527 0.841443 0.347044
Si Si4 0.061379 0.656759 0.844417
Si Si5 0.938017 0.157426 0.692376
Si Si6 0.940036 0.842432 0.169889
O O1 0.250000 0.158016 0.526785
O O2 0.488226 0.220819 0.434494
O O3 0.504354 0.219013 0.606187
O O4 0.500000 0.000000 0.521403
O O5 0.500000 0.500000 0.028588
O O6 0.250000 0.345431 0.017341
O O7 0.499255 0.291526 0.931496
O O8 0.493190 0.249653 0.094165
O O9 0.750000 0.843359 0.347687
O O10 0.989550 0.784442 0.258982
O O11 0.000000 0.000000 0.346945
O O12 0.250000 0.653985 0.846891
O O13 0.010067 0.751950 0.769276
O O14 0.000000 0.500000 0.833937
O O15 0.750000 0.152677 0.690950
O O16 0.000000 0.000000 0.699587
O O17 0.750000 0.845397 0.168663
O O18 0.000000 0.000000 0.162648
#
# Coordination Sequence:
#
# PCOD9339583 Si02
#       6
#     4   4   4   4   4   4
#     4   9  15  24  42  66  93 125 156 189 229 272
#     4  10  20  34  52  71  93 124 159 194 233 280
#     4   8  14  25  41  64  93 123 154 187 226 272
#     4  10  21  36  53  71  92 122 159 196 235 282
#     4  10  20  32  48  72  99 125 155 193 235 278
#     4   9  18  31  48  72  99 125 155 193 235 276
#
# _framework density 17.784278
#
# number of rings (size 3 to 8) (size 9 to 14) (size 15 to 20)
#    0.000    2.667    0.000    4.000    0.000    5.333 
#    0.000    3.333    0.000    1.000    0.000    4.667 
#    0.000    0.000    0.000    0.000    0.000    0.000 
#
# Total GULP energy -133644.387650 kJ/mol
# GULP energy per Si atom -5568.516152 kJ/mol
# Density = 1.774380 g / cm^3
# Si number density = 17.784278 Si / 1000 Ang^3
#
#
#
# Elastic Constant Matrix: (Units=GPa)
#
#
# Indices 1 2 3 4 5 6 
#
# 1 31.8234 10.1691 35.0585 0.0000 0.0000 0.0000
# 2 10.1691 31.6422 66.1943 0.0000 0.0000 0.0000
# 3 35.0585 66.1943 241.1290 0.0000 0.0000 0.0000
# 4 0.0000 0.0000 0.0000 -27.7881 0.0000 0.0000
# 5 0.0000 0.0000 0.0000 0.0000 9.1416 0.0000
# 6 0.0000 0.0000 0.0000 0.0000 0.0000 8.3598
#
#
#
# Elastic Compliance Matrix: (Units=1/GPa)
#
#
# Indices 1 2 3 4 5 6 
#
# 1 0.037447 -0.001515 -0.005029 0.000000 0.000000 0.000000
# 2 -0.001515 0.074297 -0.020176 0.000000 0.000000 0.000000
# 3 -0.005029 -0.020176 0.010417 0.000000 0.000000 0.000000
# 4 0.000000 0.000000 0.000000 -0.035987 0.000000 0.000000
# 5 0.000000 0.000000 0.000000 0.000000 0.109390 0.000000
# 6 0.000000 0.000000 0.000000 0.000000 0.000000 0.119620
#
#
# Mechanical properties :
#
#
# Convention : Reuss Voigt Hill
#
# Bulk Modulus (GPa) = 14.55121 58.60425 36.57773
# Shear Modulus (GPa) = 12.77038 10.82082 11.79560
#
# Velocity S-wave (km/s) = 2.68259 2.46935 2.57818
# Velocity P-wave (km/s) = 4.21840 6.41519 5.42907
#
# Compressibility (1/GPa) = 0.06872280
#
# Stress axis : x y z
#
# Youngs Moduli (GPa) = 26.70407 13.45956 95.99824
#
# Poissons Ratio (x) = 0.02039 0.48275
# Poissons Ratio (y) = 0.04045 1.93682
# Poissons Ratio (z) = 0.13429 0.27155
#
# Static dielectric constant tensor:
#      x y z
#    x 1.602250 0.000000 0.000000 
#    y 0.000000 1.569270 0.000000 
#    z 0.000000 0.000000 1.685290 
# 
# From -- ./inp_files/6687.got.cif
#   From: 2010.05.17/outbox.cif.g08.bks.cpg/sg28_4_cif.got.tgz:6687.got - 2010.06.04 01:15:21.
