data_PCOD9339666
_publ_section_title
;
Structure prediction by ZEFSAII (Michael W. Deem and Ramdas Pophale) SiO2 
 PCOD9339666
Probable space group: P M A 2
;
_chemical_formula_sum "Si O2"
_cell_formula_units_Z 32
_cell_length_a 7.389661
_cell_length_b 14.324757
_cell_length_c 13.764209
_cell_angle_alpha 90.000000
_cell_angle_beta 90.000000
_cell_angle_gamma 90.000000
_cell_volume 1457.011694
_symmetry_space_group_name_H-M "P M A 2"
_symmetry_group_IT_number 28
_symmetry_cell_setting 'orthorhombic'
loop_
_space_group_symop_operation_xyz
x,y,z
-x,-y,z
1/2-x,y,z
1/2+x,-y,z
loop_
_atom_site_type_symbol
_atom_site_label
_atom_site_fract_x
_atom_site_fract_y
_atom_site_fract_z
Si Si1 0.533694 0.110098 0.388000
Si Si2 0.528613 0.208330 0.583832
Si Si3 0.466132 0.609233 0.675189
Si Si4 0.033964 0.889159 0.994217
Si Si5 0.033868 0.609233 0.100811
Si Si6 0.528613 0.208330 0.192168
Si Si7 0.465593 0.611409 0.888000
Si Si8 0.033964 0.889159 0.781784
O O1 0.750000 0.123068 0.388000
O O2 0.464608 0.157928 0.486585
O O3 0.464608 0.157928 0.289415
O O4 0.500000 0.000000 0.388000
O O5 0.750000 0.203965 0.582451
O O6 0.473573 0.316419 0.595477
O O7 0.467547 0.157515 0.682882
O O8 0.500000 0.500000 0.657869
O O9 0.250000 0.617506 0.681181
O O10 0.536190 0.640050 0.782227
O O11 0.250000 0.873681 0.992725
O O12 0.965425 0.856312 0.888000
O O13 0.967547 0.842485 0.093118
O O14 0.000000 0.000000 0.999330
O O15 0.250000 0.617506 0.094819
O O16 0.973573 0.683581 0.180522
O O17 0.000000 0.500000 0.118131
O O18 0.963810 0.640050 0.993773
O O19 0.750000 0.203965 0.193549
O O20 0.500000 0.500000 0.888000
O O21 0.250000 0.630354 0.888000
O O22 0.250000 0.873681 0.783275
O O23 0.000000 0.000000 0.776670
#
# Coordination Sequence:
#
# PCOD9339666 Si02
#       8
#     4   4   4   4   4   4   4   4
#     4  10  20  36  55  74  96 124 161 202 241 284
#     4   9  18  31  50  72  94 125 162 195 235 286
#     4   9  17  30  47  69  96 126 160 196 234 278
#     4   9  17  29  46  68  94 122 153 191 237 287
#     4   9  17  30  47  69  96 126 160 196 234 278
#     4   9  18  31  50  72  94 125 162 195 235 286
#     4   8  14  24  42  64  89 120 154 190 227 268
#     4   9  17  29  46  68  94 122 153 191 237 287
#
# _framework density 21.962761
#
# number of rings (size 3 to 8) (size 9 to 14) (size 15 to 20)
#    0.000    3.000    0.000    0.750    1.750    0.000 
#    0.000    3.125    0.000    0.000    0.000    0.000 
#    0.000    0.000    0.000    0.000    0.000    0.000 
#
# Total GULP energy -178522.742300 kJ/mol
# GULP energy per Si atom -5578.835697 kJ/mol
# Density = 2.191277 g / cm^3
# Si number density = 21.962761 Si / 1000 Ang^3
#
#
#
# Elastic Constant Matrix: (Units=GPa)
#
#
# Indices 1 2 3 4 5 6 
#
# 1 77.8220 -4.1972 11.6159 0.0000 0.0000 0.0000
# 2 -4.1972 150.4569 125.5921 0.0000 0.0000 0.0000
# 3 11.6159 125.5921 213.4030 0.0000 0.0000 0.0000
# 4 0.0000 0.0000 0.0000 43.2926 0.0000 0.0000
# 5 0.0000 0.0000 0.0000 0.0000 -3.5988 0.0000
# 6 0.0000 0.0000 0.0000 0.0000 0.0000 13.9594
#
#
#
# Elastic Compliance Matrix: (Units=1/GPa)
#
#
# Indices 1 2 3 4 5 6 
#
# 1 0.013228 0.001907 -0.001842 0.000000 0.000000 0.000000
# 2 0.001907 0.013339 -0.007954 0.000000 0.000000 0.000000
# 3 -0.001842 -0.007954 0.009467 0.000000 0.000000 0.000000
# 4 0.000000 0.000000 0.000000 0.023099 0.000000 0.000000
# 5 0.000000 0.000000 0.000000 0.000000 -0.277870 0.000000
# 6 0.000000 0.000000 0.000000 0.000000 0.000000 0.071636
#
#
# Mechanical properties :
#
#
# Convention : Reuss Voigt Hill
#
# Bulk Modulus (GPa) = 49.37035 78.63372 64.00203
# Shear Modulus (GPa) = -40.13830 31.30871 -4.41479
#
# Velocity S-wave (km/s) = -4.27964 3.77972 -1.41933
# Velocity P-wave (km/s) = 1.37567 7.41143 5.14961
#
# Compressibility (1/GPa) = 0.02025507
#
# Stress axis : x y z
#
# Youngs Moduli (GPa) = 75.59931 74.96621 105.62458
#
# Poissons Ratio (x) = -0.14294 0.19458
# Poissons Ratio (y) = -0.14415 0.84017
# Poissons Ratio (z) = 0.13926 0.59630
#
# Static dielectric constant tensor:
#      x y z
#    x 1.874050 0.000000 0.000000 
#    y 0.000000 1.802570 0.000000 
#    z 0.000000 0.000000 1.802140 
# 
# From -- ./inp_files/5073.got.cif
#   From: 2010.05.17/outbox.cif.g08.bks.cpg/sg28_3_cif.got.tgz:5073.got - 2010.06.04 01:15:21.
