data_PCOD9339079
_publ_section_title
;
Structure prediction by ZEFSAII (Michael W. Deem and Ramdas Pophale) SiO2 
 PCOD9339079
Probable space group: P C C 2
;
_chemical_formula_sum "Si O2"
_cell_formula_units_Z 30
_cell_length_a 8.291263
_cell_length_b 8.058796
_cell_length_c 18.181698
_cell_angle_alpha 90.000000
_cell_angle_beta 90.000000
_cell_angle_gamma 90.000000
_cell_volume 1214.857372
_symmetry_space_group_name_H-M "P C C 2"
_symmetry_group_IT_number 27
_symmetry_cell_setting 'orthorhombic'
loop_
_space_group_symop_operation_xyz
x,y,z
-x,-y,z
-x,y,1/2+z
x,-y,1/2+z
loop_
_atom_site_type_symbol
_atom_site_label
_atom_site_fract_x
_atom_site_fract_y
_atom_site_fract_z
Si Si1 0.247482 0.382652 0.436180
Si Si2 0.000000 0.500000 0.548827
Si Si3 0.765603 0.305837 0.224675
Si Si4 0.316970 0.965454 0.730008
Si Si5 0.473330 0.177556 0.011239
Si Si6 0.738430 0.751259 0.888612
Si Si7 0.708864 0.634938 0.135530
Si Si8 0.937763 0.781676 0.314338
O O1 0.106709 0.385583 0.496366
O O2 0.381002 0.261853 0.467472
O O3 0.290821 0.574954 0.427573
O O4 0.188961 0.337011 0.354393
O O5 0.301655 0.462226 0.680950
O O6 0.680891 0.277958 0.304598
O O7 0.118003 0.387934 0.097010
O O8 0.955266 0.303115 0.249280
O O9 0.733494 0.130287 0.185070
O O10 0.306882 0.791091 0.688986
O O11 0.170184 0.937155 0.788445
O O12 0.500000 0.000000 0.755384
O O13 0.412077 0.312872 0.070298
O O14 0.500000 0.000000 0.049995
O O15 0.348159 0.130059 0.945572
O O16 0.925164 0.797679 0.877127
#
# Coordination Sequence:
#
# PCOD9339079 Si02
#       8
#     4   2   4   4   4   4   4   4
#     4  12  23  46  81 112 157 199 272 338 420 502
#     4  12  24  44  82 110 146 218 272 330 408 490
#     4  10  26  49  81 112 156 211 273 346 413 489
#     4  12  28  46  74 114 161 211 265 337 418 494
#     4  12  29  48  79 117 168 220 269 346 427 511
#     4  10  23  48  77 116 148 205 273 345 418 479
#     4  12  27  53  75 112 164 217 274 334 410 508
#     4  10  23  44  80 119 152 200 276 355 414 490
#
# _framework density 24.694257
#
# number of rings (size 3 to 8) (size 9 to 14) (size 15 to 20)
#    0.800    0.000    2.667    2.800    5.600    3.733 
#    2.400    3.333    0.000    0.000    0.000    0.000 
#    0.000    0.000    0.000    0.000    0.000    0.000 
#
# Total GULP energy -167508.612146 kJ/mol
# GULP energy per Si atom -5583.620405 kJ/mol
# Density = 2.463805 g / cm^3
# Si number density = 24.694257 Si / 1000 Ang^3
#
#
#
# Elastic Constant Matrix: (Units=GPa)
#
#
# Indices 1 2 3 4 5 6 
#
# 1 137.1136 61.2445 46.0567 0.0000 0.0000 0.0000
# 2 61.2445 188.2781 55.8861 0.0000 0.0000 0.0000
# 3 46.0567 55.8861 97.9939 0.0000 0.0000 0.0000
# 4 0.0000 0.0000 0.0000 35.8614 0.0000 0.0000
# 5 0.0000 0.0000 0.0000 0.0000 32.2516 0.0000
# 6 0.0000 0.0000 0.0000 0.0000 0.0000 36.8506
#
#
#
# Elastic Compliance Matrix: (Units=1/GPa)
#
#
# Indices 1 2 3 4 5 6 
#
# 1 0.009290 -0.002078 -0.003181 0.000000 0.000000 0.000000
# 2 -0.002078 0.006858 -0.002935 0.000000 0.000000 0.000000
# 3 -0.003181 -0.002935 0.013374 0.000000 0.000000 0.000000
# 4 0.000000 0.000000 0.000000 0.027885 0.000000 0.000000
# 5 0.000000 0.000000 0.000000 0.000000 0.031006 0.000000
# 6 0.000000 0.000000 0.000000 0.000000 0.000000 0.027137
#
#
# Mechanical properties :
#
#
# Convention : Reuss Voigt Hill
#
# Bulk Modulus (GPa) = 76.13659 83.30668 79.72163
# Shear Modulus (GPa) = 36.67972 38.33929 37.50950
#
# Velocity S-wave (km/s) = 3.85821 3.94453 3.90161
# Velocity P-wave (km/s) = 7.12365 7.38608 7.25605
#
# Compressibility (1/GPa) = 0.01313429
#
# Stress axis : x y z
#
# Youngs Moduli (GPa) = 107.64473 145.81026 74.77381
#
# Poissons Ratio (x) = 0.30293 0.23788
# Poissons Ratio (y) = 0.22364 0.21945
# Poissons Ratio (z) = 0.34245 0.42793
#
# Static dielectric constant tensor:
#      x y z
#    x 2.054070 0.000000 0.000000 
#    y 0.000000 2.045820 0.000000 
#    z 0.000000 0.000000 1.998150 
# 
# From -- ./inp_files/4796.got.cif
#   From: 2010.05.17/outbox.cif.g08.bks.cpg/sg27_3_cif.got.tgz:4796.got - 2010.06.04 01:11:05.
