data_PCOD9339830
_publ_section_title
;
Structure prediction by ZEFSAII (Michael W. Deem and Ramdas Pophale) SiO2 
 PCOD9339830
Probable space group: P M A 2
;
_chemical_formula_sum "Si O2"
_cell_formula_units_Z 20
_cell_length_a 16.435185
_cell_length_b 7.105140
_cell_length_c 7.497952
_cell_angle_alpha 90.000000
_cell_angle_beta 90.000000
_cell_angle_gamma 90.000000
_cell_volume 875.568024
_symmetry_space_group_name_H-M "P M A 2"
_symmetry_group_IT_number 28
_symmetry_cell_setting 'orthorhombic'
loop_
_space_group_symop_operation_xyz
x,y,z
-x,-y,z
1/2-x,y,z
1/2+x,-y,z
loop_
_atom_site_type_symbol
_atom_site_label
_atom_site_fract_x
_atom_site_fract_y
_atom_site_fract_z
Si Si1 0.343907 0.927623 0.513350
Si Si2 0.116098 0.312823 0.370549
Si Si3 0.339817 0.521310 0.032950
Si Si4 0.545596 0.179983 0.193260
Si Si5 0.591774 0.423003 0.671223
O O1 0.250000 0.874727 0.531696
O O2 0.381324 0.888775 0.317891
O O3 0.414976 0.661968 0.071971
O O4 0.394676 0.802690 0.655265
O O5 0.154196 0.351548 0.175644
O O6 0.122891 0.504374 0.479761
O O7 0.022838 0.265126 0.323799
O O8 0.148032 0.153229 0.504774
O O9 0.250000 0.606669 0.055643
O O10 0.354650 0.482742 0.825967
O O11 0.500000 0.000000 0.106989
O O12 0.500000 0.500000 0.691746
#
# Coordination Sequence:
#
# PCOD9339830 Si02
#       5
#     4   4   4   4   4
#     4  11  23  41  69 102 139 180 226 290 355 409
#     4  11  23  46  72 100 138 185 236 287 353 430
#     4  12  25  43  71 104 142 184 233 300 363 418
#     4  10  21  42  69  96 129 182 231 275 346 424
#     4  12  24  44  73 100 141 188 238 285 352 431
#
# _framework density 22.842314999999999
#
# number of rings (size 3 to 8) (size 9 to 14) (size 15 to 20)
#    0.000    0.800    4.000    3.600    0.000    2.400 
#   10.800    0.000    0.000    0.000    0.000    0.000 
#    0.000    0.000    0.000    0.000    0.000    0.000 
#
# Total GULP energy -111572.367157 kJ/mol
# GULP energy per Si atom -5578.618358 kJ/mol
# Density = 2.279032 g / cm^3
# Si number density = 22.842315 Si / 1000 Ang^3
#
#
#
# Elastic Constant Matrix: (Units=GPa)
#
#
# Indices 1 2 3 4 5 6 
#
# 1 137.0954 33.6084 18.9781 0.0000 0.0000 0.0000
# 2 33.6084 106.6730 22.1860 0.0000 0.0000 0.0000
# 3 18.9781 22.1860 74.3829 0.0000 0.0000 0.0000
# 4 0.0000 0.0000 0.0000 20.6344 0.0000 0.0000
# 5 0.0000 0.0000 0.0000 0.0000 11.6885 0.0000
# 6 0.0000 0.0000 0.0000 0.0000 0.0000 26.2894
#
#
#
# Elastic Compliance Matrix: (Units=1/GPa)
#
#
# Indices 1 2 3 4 5 6 
#
# 1 0.008036 -0.002245 -0.001381 0.000000 0.000000 0.000000
# 2 -0.002245 0.010621 -0.002595 0.000000 0.000000 0.000000
# 3 -0.001381 -0.002595 0.014570 0.000000 0.000000 0.000000
# 4 0.000000 0.000000 0.000000 0.048463 0.000000 0.000000
# 5 0.000000 0.000000 0.000000 0.000000 0.085554 0.000000
# 6 0.000000 0.000000 0.000000 0.000000 0.000000 0.038038
#
#
# Mechanical properties :
#
#
# Convention : Reuss Voigt Hill
#
# Bulk Modulus (GPa) = 48.10910 51.96627 50.03768
# Shear Modulus (GPa) = 22.25662 27.94771 25.10216
#
# Velocity S-wave (km/s) = 3.12486 3.50166 3.31861
# Velocity P-wave (km/s) = 5.84181 6.25685 6.05289
#
# Compressibility (1/GPa) = 0.02078609
#
# Stress axis : x y z
#
# Youngs Moduli (GPa) = 124.44682 94.14969 68.63255
#
# Poissons Ratio (x) = 0.21132 0.09476
# Poissons Ratio (y) = 0.27932 0.17813
# Poissons Ratio (z) = 0.17183 0.24435
#
# Static dielectric constant tensor:
#      x y z
#    x 1.864180 0.000000 0.000000 
#    y 0.000000 1.969530 0.000000 
#    z 0.000000 0.000000 1.862770 
# 
# From -- ./inp_files/1057.got.cif
#   From: 2010.05.17/outbox.cif.g08.bks.cpg/sg28_1_cif.got.tgz:1057.got - 2010.06.04 01:15:21.
