data_PCOD9339824
_publ_section_title
;
Structure prediction by ZEFSAII (Michael W. Deem and Ramdas Pophale) SiO2 
 PCOD9339824
Probable space group: P M A 2
;
_chemical_formula_sum "Si O2"
_cell_formula_units_Z 32
_cell_length_a 31.934564
_cell_length_b 8.962846
_cell_length_c 5.232379
_cell_angle_alpha 90.000000
_cell_angle_beta 90.000000
_cell_angle_gamma 90.000000
_cell_volume 1497.635478
_symmetry_space_group_name_H-M "P M A 2"
_symmetry_group_IT_number 28
_symmetry_cell_setting 'orthorhombic'
loop_
_space_group_symop_operation_xyz
x,y,z
-x,-y,z
1/2-x,y,z
1/2+x,-y,z
loop_
_atom_site_type_symbol
_atom_site_label
_atom_site_fract_x
_atom_site_fract_y
_atom_site_fract_z
Si Si1 0.542366 0.411771 0.431840
Si Si2 0.994255 0.150831 0.754505
Si Si3 0.797701 0.311973 0.786795
Si Si4 0.882328 0.957787 0.387822
Si Si5 0.076412 0.791004 0.076672
Si Si6 0.412025 0.216714 0.896880
Si Si7 0.202371 0.896041 0.286550
Si Si8 0.881325 0.459257 0.768467
O O1 0.500000 0.500000 0.451214
O O2 0.531192 0.267963 0.594750
O O3 0.548963 0.353752 0.149715
O O4 0.587117 0.469833 0.526510
O O5 0.037980 0.219313 0.844908
O O6 0.000000 0.000000 0.595036
O O7 0.959633 0.102832 0.964610
O O8 0.750000 0.368510 0.810072
O O9 0.800161 0.208220 0.536493
O O10 0.831633 0.442141 0.744435
O O11 0.805086 0.207197 0.036448
O O12 0.892883 0.889016 0.667081
O O13 0.901100 0.121354 0.307038
O O14 0.833148 0.979833 0.329998
O O15 0.902078 0.852090 0.172074
O O16 0.108645 0.704832 0.893798
O O17 0.393095 0.383782 0.899143
O O18 0.250000 0.954472 0.266368
#
# Coordination Sequence:
#
# PCOD9339824 Si02
#       8
#     4   4   4   4   4   4   4   4
#     4  11  24  39  63  91 129 177 229 272 329 391
#     4  11  23  41  57  91 125 175 225 276 320 390
#     4  10  21  40  72 103 129 167 218 273 332 396
#     4  12  25  46  65 100 127 177 220 272 331 400
#     4  11  25  38  69  87 131 177 231 278 329 388
#     4  12  28  42  65  94 140 176 218 271 344 382
#     4  10  21  41  72 103 130 164 219 278 325 395
#     4  11  25  43  62  99 134 177 220 285 331 408
#
# _framework density 21.367017000000001
#
# number of rings (size 3 to 8) (size 9 to 14) (size 15 to 20)
#    0.000    1.000    3.750    2.250    7.000    0.500 
#    0.000    1.250    0.000    0.000    0.000    0.000 
#    0.000    0.000    0.000    0.000    0.000    0.000 
#
# Total GULP energy -178362.766418 kJ/mol
# GULP energy per Si atom -5573.836451 kJ/mol
# Density = 2.131838 g / cm^3
# Si number density = 21.367017 Si / 1000 Ang^3
#
#
#
# Elastic Constant Matrix: (Units=GPa)
#
#
# Indices 1 2 3 4 5 6 
#
# 1 149.5435 15.0321 9.1167 0.0000 0.0000 0.0000
# 2 15.0321 50.3813 -0.5419 0.0000 0.0000 0.0000
# 3 9.1167 -0.5419 74.7766 0.0000 0.0000 0.0000
# 4 0.0000 0.0000 0.0000 24.5912 0.0000 0.0000
# 5 0.0000 0.0000 0.0000 0.0000 -19.1108 0.0000
# 6 0.0000 0.0000 0.0000 0.0000 0.0000 -8.3778
#
#
#
# Elastic Compliance Matrix: (Units=1/GPa)
#
#
# Indices 1 2 3 4 5 6 
#
# 1 0.006949 -0.002083 -0.000862 0.000000 0.000000 0.000000
# 2 -0.002083 0.020474 0.000402 0.000000 0.000000 0.000000
# 3 -0.000862 0.000402 0.013481 0.000000 0.000000 0.000000
# 4 0.000000 0.000000 0.000000 0.040665 0.000000 0.000000
# 5 0.000000 0.000000 0.000000 0.000000 -0.052326 0.000000
# 6 0.000000 0.000000 0.000000 0.000000 0.000000 -0.119363
#
#
# Mechanical properties :
#
#
# Convention : Reuss Voigt Hill
#
# Bulk Modulus (GPa) = 27.91794 35.76835 31.84315
# Shear Modulus (GPa) = -68.40455 16.16014 -26.12221
#
# Velocity S-wave (km/s) = -5.66424 2.75310 -3.50029
# Velocity P-wave (km/s) = 5.44829 5.18482 1.18352
#
# Compressibility (1/GPa) = 0.03581926
#
# Stress axis : x y z
#
# Youngs Moduli (GPa) = 143.90711 48.84158 74.17727
#
# Poissons Ratio (x) = 0.10172 0.06396
# Poissons Ratio (y) = 0.29970 -0.02984
# Poissons Ratio (z) = 0.12409 -0.01965
#
# Static dielectric constant tensor:
#      x y z
#    x 2.044790 0.000000 0.000000 
#    y 0.000000 1.911430 0.000000 
#    z 0.000000 0.000000 1.872430 
# 
# From -- ./inp_files/1926.got.cif
#   From: 2010.05.17/outbox.cif.g08.bks.cpg/sg28_1_cif.got.tgz:1926.got - 2010.06.04 01:15:21.
