data_PCOD9339109
_publ_section_title
;
Structure prediction by ZEFSAII (Michael W. Deem and Ramdas Pophale) SiO2 
 PCOD9339109
Probable space group: P C C 2
;
_chemical_formula_sum "Si O2"
_cell_formula_units_Z 24
_cell_length_a 8.376626
_cell_length_b 13.908093
_cell_length_c 9.061070
_cell_angle_alpha 90.000000
_cell_angle_beta 90.000000
_cell_angle_gamma 90.000000
_cell_volume 1055.640873
_symmetry_space_group_name_H-M "P C C 2"
_symmetry_group_IT_number 27
_symmetry_cell_setting 'orthorhombic'
loop_
_space_group_symop_operation_xyz
x,y,z
-x,-y,z
-x,y,1/2+z
x,-y,1/2+z
loop_
_atom_site_type_symbol
_atom_site_label
_atom_site_fract_x
_atom_site_fract_y
_atom_site_fract_z
Si Si1 0.500000 0.000000 0.418020
Si Si2 0.282616 0.423005 0.880951
Si Si3 0.000000 0.000000 0.845818
Si Si4 0.106901 0.195722 0.508426
Si Si5 0.309175 0.921472 0.175792
Si Si6 0.001163 0.685690 0.759005
Si Si7 0.000000 0.500000 0.555079
Si Si8 0.500000 0.500000 0.619777
O O1 0.443648 0.919171 0.301979
O O2 0.640125 0.983172 0.533661
O O3 0.169716 0.332262 0.841317
O O4 0.367499 0.456758 0.730674
O O5 0.416428 0.422685 0.009573
O O6 0.153379 0.498698 0.948080
O O7 0.046787 0.904010 0.937460
O O8 0.847149 0.968337 0.748930
O O9 0.268850 0.178219 0.598127
O O10 0.992369 0.230063 0.638952
O O11 0.116662 0.278890 0.387657
O O12 0.021957 0.590905 0.661423
#
# Coordination Sequence:
#
# PCOD9339109 Si02
#       8
#     2   4   2   4   4   4   2   2
#     4  10  24  42  74 108 150 198 242 292 398 450
#     4  11  23  44  73 107 144 199 238 303 368 438
#     4  12  24  44  80 106 148 192 252 318 372 434
#     4  12  26  42  72 113 145 182 255 309 366 437
#     4  11  23  44  73 107 144 199 239 305 372 446
#     4  12  26  42  72 113 144 186 251 313 363 434
#     4  12  24  44  80 106 150 188 254 312 362 424
#     4  10  24  42  74 108 150 198 242 290 392 444
#
# _framework density 22.735002999999999
#
# number of rings (size 3 to 8) (size 9 to 14) (size 15 to 20)
#    0.000    0.667    6.667    1.000    0.000    0.000 
#    0.000    1.667    0.000    0.000    0.000    0.000 
#    0.000    0.000    0.000    0.000    0.000    0.000 
#
# Total GULP energy -133797.183808 kJ/mol
# GULP energy per Si atom -5574.882659 kJ/mol
# Density = 2.268326 g / cm^3
# Si number density = 22.735003 Si / 1000 Ang^3
#
#
#
# Elastic Constant Matrix: (Units=GPa)
#
#
# Indices 1 2 3 4 5 6 
#
# 1 78.9419 25.2749 54.1773 0.0000 0.0000 0.0000
# 2 25.2749 93.4682 56.3894 0.0000 0.0000 0.0000
# 3 54.1773 56.3894 189.1137 0.0000 0.0000 0.0000
# 4 0.0000 0.0000 0.0000 35.0476 0.0000 0.0000
# 5 0.0000 0.0000 0.0000 0.0000 51.7210 0.0000
# 6 0.0000 0.0000 0.0000 0.0000 0.0000 24.1130
#
#
#
# Elastic Compliance Matrix: (Units=1/GPa)
#
#
# Indices 1 2 3 4 5 6 
#
# 1 0.016042 -0.001909 -0.004027 0.000000 0.000000 0.000000
# 2 -0.001909 0.013273 -0.003411 0.000000 0.000000 0.000000
# 3 -0.004027 -0.003411 0.007458 0.000000 0.000000 0.000000
# 4 0.000000 0.000000 0.000000 0.028533 0.000000 0.000000
# 5 0.000000 0.000000 0.000000 0.000000 0.019334 0.000000
# 6 0.000000 0.000000 0.000000 0.000000 0.000000 0.041471
#
#
# Mechanical properties :
#
#
# Convention : Reuss Voigt Hill
#
# Bulk Modulus (GPa) = 55.30692 70.35635 62.83163
# Shear Modulus (GPa) = 33.14969 37.22180 35.18575
#
# Velocity S-wave (km/s) = 3.82264 4.05063 3.93828
# Velocity P-wave (km/s) = 6.62291 7.27256 6.95533
#
# Compressibility (1/GPa) = 0.01808092
#
# Stress axis : x y z
#
# Youngs Moduli (GPa) = 62.33603 75.34255 134.07714
#
# Poissons Ratio (x) = 0.14381 0.53987
# Poissons Ratio (y) = 0.11898 0.45731
# Poissons Ratio (z) = 0.25100 0.25698
#
# Static dielectric constant tensor:
#      x y z
#    x 1.955690 0.000000 0.000000 
#    y 0.000000 1.915690 0.000000 
#    z 0.000000 0.000000 1.888450 
# 
# From -- ./inp_files/1171.got.cif
#   From: 2010.05.17/outbox.cif.g08.bks.cpg/sg27_1_cif.got.tgz:1171.got - 2010.06.04 01:11:05.
