data_PCOD9339551
_publ_section_title
;
Structure prediction by ZEFSAII (Michael W. Deem and Ramdas Pophale) SiO2 
 PCOD9339551
Probable space group: P M A 2
;
_chemical_formula_sum "Si O2"
_cell_formula_units_Z 28
_cell_length_a 14.979739
_cell_length_b 10.800593
_cell_length_c 8.941880
_cell_angle_alpha 90.000000
_cell_angle_beta 90.000000
_cell_angle_gamma 90.000000
_cell_volume 1446.707339
_symmetry_space_group_name_H-M "P M A 2"
_symmetry_group_IT_number 28
_symmetry_cell_setting 'orthorhombic'
loop_
_space_group_symop_operation_xyz
x,y,z
-x,-y,z
1/2-x,y,z
1/2+x,-y,z
loop_
_atom_site_type_symbol
_atom_site_label
_atom_site_fract_x
_atom_site_fract_y
_atom_site_fract_z
Si Si1 0.851507 0.233773 0.522020
Si Si2 0.354987 0.185722 0.818116
Si Si3 0.642889 0.095760 0.810891
Si Si4 0.471639 0.691047 0.954450
Si Si5 0.006186 0.648814 0.304262
Si Si6 0.899724 0.472588 0.705583
Si Si7 0.347446 0.294355 0.519671
O O1 0.750000 0.209101 0.474563
O O2 0.882765 0.126615 0.637367
O O3 0.913418 0.278340 0.386603
O O4 0.855998 0.354131 0.629149
O O5 0.250000 0.215016 0.853864
O O6 0.430998 0.277701 0.881643
O O7 0.362838 0.185498 0.637747
O O8 0.374267 0.044352 0.862023
O O9 0.750000 0.116624 0.818263
O O10 0.589278 0.191384 0.913078
O O11 0.420102 0.575017 0.874601
O O12 0.486225 0.673015 0.128676
O O13 0.000000 0.500000 0.321912
O O14 0.919253 0.696659 0.391160
O O15 0.849402 0.589825 0.637064
O O16 0.000000 0.500000 0.648968
O O17 0.250000 0.286856 0.451738
#
# Coordination Sequence:
#
# PCOD9339551 Si02
#       7
#     4   4   4   4   4   4   4
#     4  10  19  35  60  85 113 152 193 239 287 336
#     4  10  21  39  63  88 112 150 202 251 293 342
#     4   9  20  40  64  87 112 148 205 256 287 336
#     4  11  23  36  59  84 121 159 193 241 295 348
#     4  12  24  37  53  87 128 156 185 234 295 364
#     4  11  17  35  57  81 112 149 193 240 279 335
#     4  11  21  37  62  86 116 156 197 242 298 350
#
# _framework density 19.354296000000001
#
# number of rings (size 3 to 8) (size 9 to 14) (size 15 to 20)
#    0.000    1.429    4.286    2.143    0.000    1.714 
#    0.000    2.857    0.000    3.429    0.000    0.000 
#    0.000    0.000    0.000    0.000    0.000    0.000 
#
# Total GULP energy -155920.069972 kJ/mol
# GULP energy per Si atom -5568.573928 kJ/mol
# Density = 1.931024 g / cm^3
# Si number density = 19.354296 Si / 1000 Ang^3
#
#
#
# Elastic Constant Matrix: (Units=GPa)
#
#
# Indices 1 2 3 4 5 6 
#
# 1 90.5535 3.5209 50.3170 0.0000 0.0000 0.0000
# 2 3.5209 47.6605 9.4067 0.0000 0.0000 0.0000
# 3 50.3170 9.4067 136.8386 0.0000 0.0000 0.0000
# 4 0.0000 0.0000 0.0000 7.2470 0.0000 0.0000
# 5 0.0000 0.0000 0.0000 0.0000 -2.6300 0.0000
# 6 0.0000 0.0000 0.0000 0.0000 0.0000 19.1080
#
#
#
# Elastic Compliance Matrix: (Units=1/GPa)
#
#
# Indices 1 2 3 4 5 6 
#
# 1 0.013879 -0.000018 -0.005102 0.000000 0.000000 0.000000
# 2 -0.000018 0.021270 -0.001455 0.000000 0.000000 0.000000
# 3 -0.005102 -0.001455 0.009284 0.000000 0.000000 0.000000
# 4 0.000000 0.000000 0.000000 0.137989 0.000000 0.000000
# 5 0.000000 0.000000 0.000000 0.000000 -0.380224 0.000000
# 6 0.000000 0.000000 0.000000 0.000000 0.000000 0.052334
#
#
# Mechanical properties :
#
#
# Convention : Reuss Voigt Hill
#
# Bulk Modulus (GPa) = 31.96777 44.61577 38.29177
# Shear Modulus (GPa) = -41.02130 18.86551 -11.07790
#
# Velocity S-wave (km/s) = -4.60879 3.12548 -2.39503
# Velocity P-wave (km/s) = 3.43049 6.01057 3.48989
#
# Compressibility (1/GPa) = 0.03128151
#
# Stress axis : x y z
#
# Youngs Moduli (GPa) = 72.05127 47.01377 107.71143
#
# Poissons Ratio (x) = 0.00086 0.54957
# Poissons Ratio (y) = 0.00132 0.15677
# Poissons Ratio (z) = 0.36762 0.06843
#
# Static dielectric constant tensor:
#      x y z
#    x 1.701730 0.000000 0.000000 
#    y 0.000000 1.825650 0.000000 
#    z 0.000000 0.000000 1.652140 
# 
# From -- ./inp_files/3438.got.cif
#   From: 2010.05.17/outbox.cif.g08.bks.cpg/sg28_2_cif.got.tgz:3438.got - 2010.06.04 01:15:21.
