data_PCOD9339893
_publ_section_title
;
Structure prediction by ZEFSAII (Michael W. Deem and Ramdas Pophale) SiO2 
 PCOD9339893
Probable space group: P M A 2
;
_chemical_formula_sum "Si O2"
_cell_formula_units_Z 28
_cell_length_a 21.823578
_cell_length_b 10.743177
_cell_length_c 5.083300
_cell_angle_alpha 90.000000
_cell_angle_beta 90.000000
_cell_angle_gamma 90.000000
_cell_volume 1191.802871
_symmetry_space_group_name_H-M "P M A 2"
_symmetry_group_IT_number 28
_symmetry_cell_setting 'orthorhombic'
loop_
_space_group_symop_operation_xyz
x,y,z
-x,-y,z
1/2-x,y,z
1/2+x,-y,z
loop_
_atom_site_type_symbol
_atom_site_label
_atom_site_fract_x
_atom_site_fract_y
_atom_site_fract_z
Si Si1 0.615073 0.001805 0.204050
Si Si2 0.321719 0.545548 0.333840
Si Si3 0.250000 0.046221 0.179404
Si Si4 0.250000 0.195441 0.676723
Si Si5 0.955254 0.766825 0.116141
Si Si6 0.924604 0.266233 0.395002
Si Si7 0.547071 0.098265 0.731009
Si Si8 0.354143 0.385428 0.832532
O O1 0.686757 0.018063 0.250105
O O2 0.593138 0.860386 0.261100
O O3 0.583754 0.112208 0.377693
O O4 0.600485 0.031033 0.899781
O O5 0.250000 0.571996 0.392198
O O6 0.366297 0.663393 0.293991
O O7 0.325755 0.461436 0.075256
O O8 0.353260 0.472553 0.576582
O O9 0.250000 0.167748 0.367650
O O10 0.250000 0.077705 0.870816
O O11 0.309540 0.273001 0.755782
O O12 0.917579 0.671467 0.937492
O O13 0.007653 0.702450 0.294265
O O14 0.995008 0.863006 0.950659
O O15 0.930098 0.248101 0.704353
O O16 0.500000 0.000000 0.587074
#
# Coordination Sequence:
#
# PCOD9339893 Si02
#       8
#     4   4   2   2   4   4   4   4
#     4  10  23  42  68 108 146 184 234 296 369 437
#     4  12  28  50  73 102 143 199 245 298 365 444
#     4  12  26  40  74 115 141 184 240 305 363 437
#     4  12  24  46  72 103 145 180 248 301 369 425
#     4  10  23  43  72 106 138 183 240 304 367 429
#     4  11  25  43  70 102 146 193 237 292 367 450
#     4   9  20  42  67  99 144 187 228 283 364 431
#     4  12  26  49  76 102 144 189 248 309 367 426
#
# _framework density 23.493818000000001
#
# number of rings (size 3 to 8) (size 9 to 14) (size 15 to 20)
#    0.000    1.143    2.857    3.000    9.000    0.571 
#    1.286    0.000    0.000    0.000    0.000    0.000 
#    0.000    0.000    0.000    0.000    0.000    0.000 
#
# Total GULP energy -155983.251027 kJ/mol
# GULP energy per Si atom -5570.830394 kJ/mol
# Density = 2.344035 g / cm^3
# Si number density = 23.493818 Si / 1000 Ang^3
#
#
#
# Elastic Constant Matrix: (Units=GPa)
#
#
# Indices 1 2 3 4 5 6 
#
# 1 141.4398 35.8219 13.0352 0.0000 0.0000 0.0000
# 2 35.8219 39.1314 17.3437 0.0000 0.0000 0.0000
# 3 13.0352 17.3437 65.1503 0.0000 0.0000 0.0000
# 4 0.0000 0.0000 0.0000 -454.2266 0.0000 0.0000
# 5 0.0000 0.0000 0.0000 0.0000 -18.0158 0.0000
# 6 0.0000 0.0000 0.0000 0.0000 0.0000 -16.8754
#
#
#
# Elastic Compliance Matrix: (Units=1/GPa)
#
#
# Indices 1 2 3 4 5 6 
#
# 1 0.009216 -0.008639 0.000456 0.000000 0.000000 0.000000
# 2 -0.008639 0.037071 -0.008140 0.000000 0.000000 0.000000
# 3 0.000456 -0.008140 0.017425 0.000000 0.000000 0.000000
# 4 0.000000 0.000000 0.000000 -0.002202 0.000000 0.000000
# 5 0.000000 0.000000 0.000000 0.000000 -0.055507 0.000000
# 6 0.000000 0.000000 0.000000 0.000000 0.000000 -0.059258
#
#
# Mechanical properties :
#
#
# Convention : Reuss Voigt Hill
#
# Bulk Modulus (GPa) = 32.18994 42.01368 37.10181
# Shear Modulus (GPa) = -487.64162 -85.85550 -286.74856
#
# Velocity S-wave (km/s) = -14.42263 -6.05171 -11.05973
# Velocity P-wave (km/s) = 16.23633 5.55961 12.13523
#
# Compressibility (1/GPa) = 0.03106561
#
# Stress axis : x y z
#
# Youngs Moduli (GPa) = 108.50701 26.97545 57.38889
#
# Poissons Ratio (x) = 0.23303 -0.02615
# Poissons Ratio (y) = 0.93734 0.46716
# Poissons Ratio (z) = -0.04945 0.21959
#
# Static dielectric constant tensor:
#      x y z
#    x 2.026410 0.000000 0.000000 
#    y 0.000000 2.259930 0.000000 
#    z 0.000000 0.000000 2.070360 
# 
# From -- ./inp_files/1407.got.cif
#   From: 2010.05.17/outbox.cif.g08.bks.cpg/sg28_1_cif.got.tgz:1407.got - 2010.06.04 01:15:21.
