data_PCOD9339686
_publ_section_title
;
Structure prediction by ZEFSAII (Michael W. Deem and Ramdas Pophale) SiO2 
 PCOD9339686
Probable space group: P M A 2
;
_chemical_formula_sum "Si O2"
_cell_formula_units_Z 28
_cell_length_a 8.644418
_cell_length_b 9.307464
_cell_length_c 18.380856
_cell_angle_alpha 90.000000
_cell_angle_beta 90.000000
_cell_angle_gamma 90.000000
_cell_volume 1478.879731
_symmetry_space_group_name_H-M "P M A 2"
_symmetry_group_IT_number 28
_symmetry_cell_setting 'orthorhombic'
loop_
_space_group_symop_operation_xyz
x,y,z
-x,-y,z
1/2-x,y,z
1/2+x,-y,z
loop_
_atom_site_type_symbol
_atom_site_label
_atom_site_fract_x
_atom_site_fract_y
_atom_site_fract_z
Si Si1 0.564218 0.659887 0.931580
Si Si2 0.064135 0.840091 0.064047
Si Si3 0.063554 0.160717 0.789804
Si Si4 0.063479 0.841096 0.230046
Si Si5 0.935978 0.161101 0.510092
Si Si6 0.063421 0.659450 0.367594
Si Si7 0.563897 0.661342 0.646515
O O1 0.500000 0.500000 0.922831
O O2 0.750000 0.655684 0.932803
O O3 0.514209 0.758501 0.863440
O O4 0.503040 0.730978 0.005498
O O5 0.250000 0.842391 0.059428
O O6 0.018847 0.802575 0.147266
O O7 0.000000 0.000000 0.049274
O O8 0.250000 0.153797 0.790047
O O9 0.016499 0.253457 0.719526
O O10 0.000000 0.000000 0.786315
O O11 0.250000 0.847394 0.232287
O O12 0.010774 0.730558 0.291707
O O13 0.000000 0.000000 0.245622
O O14 0.750000 0.157390 0.513784
O O15 0.982191 0.239295 0.434973
O O16 0.000360 0.253043 0.577164
O O17 0.000000 0.000000 0.512679
O O18 0.250000 0.653090 0.366778
O O19 0.000000 0.500000 0.376925
O O20 0.500000 0.500000 0.647495
O O21 0.750000 0.657198 0.643545
#
# Coordination Sequence:
#
# PCOD9339686 Si02
#       7
#     4   4   4   4   4   4   4
#     4  11  23  39  58  83 114 149 189 233 284 336
#     4  10  20  36  58  84 114 148 188 233 281 335
#     4  10  23  40  60  85 113 148 189 232 278 332
#     4   9  19  36  57  82 111 145 186 230 277 331
#     4  11  23  39  60  86 115 149 190 234 281 334
#     4  10  22  38  56  81 113 148 187 231 280 333
#     4  11  23  40  61  87 118 151 188 231 281 333
#
# _framework density 18.933252
#
# number of rings (size 3 to 8) (size 9 to 14) (size 15 to 20)
#    0.000    1.714    0.000    3.857    0.000    8.571 
#    0.000    1.429    0.000    0.000    0.000    0.000 
#    0.000    0.000    0.000    0.000    0.000    0.000 
#
# Total GULP energy -156514.870193 kJ/mol
# GULP energy per Si atom -5589.816793 kJ/mol
# Density = 1.889016 g / cm^3
# Si number density = 18.933252 Si / 1000 Ang^3
#
#
#
# Elastic Constant Matrix: (Units=GPa)
#
#
# Indices 1 2 3 4 5 6 
#
# 1 39.0536 43.4536 41.9426 0.0000 0.0000 0.0000
# 2 43.4536 196.1547 116.8224 0.0000 0.0000 0.0000
# 3 41.9426 116.8224 149.6035 0.0000 0.0000 0.0000
# 4 0.0000 0.0000 0.0000 830.4527 0.0000 0.0000
# 5 0.0000 0.0000 0.0000 0.0000 29.8970 0.0000
# 6 0.0000 0.0000 0.0000 0.0000 0.0000 41.0081
#
#
#
# Elastic Compliance Matrix: (Units=1/GPa)
#
#
# Indices 1 2 3 4 5 6 
#
# 1 0.038163 -0.003892 -0.007660 0.000000 0.000000 0.000000
# 2 -0.003892 0.009927 -0.006661 0.000000 0.000000 0.000000
# 3 -0.007660 -0.006661 0.014033 0.000000 0.000000 0.000000
# 4 0.000000 0.000000 0.000000 0.001204 0.000000 0.000000
# 5 0.000000 0.000000 0.000000 0.000000 0.033448 0.000000
# 6 0.000000 0.000000 0.000000 0.000000 0.000000 0.024385
#
#
# Mechanical properties :
#
#
# Convention : Reuss Voigt Hill
#
# Bulk Modulus (GPa) = 38.91414 87.69435 63.30424
# Shear Modulus (GPa) = 30.09279 192.44445 111.26862
#
# Velocity S-wave (km/s) = 3.99107 10.09278 7.67440
# Velocity P-wave (km/s) = 6.46809 13.49953 10.58474
#
# Compressibility (1/GPa) = 0.02569760
#
# Stress axis : x y z
#
# Youngs Moduli (GPa) = 26.20324 100.73477 71.26015
#
# Poissons Ratio (x) = 0.39207 0.54586
# Poissons Ratio (y) = 0.10199 0.47464
# Poissons Ratio (z) = 0.20072 0.67096
#
# Static dielectric constant tensor:
#      x y z
#    x 1.642750 0.000000 0.000000 
#    y 0.000000 1.603740 0.000000 
#    z 0.000000 0.000000 1.655310 
# 
# From -- ./inp_files/6825.got.cif
#   From: 2010.05.17/outbox.cif.g08.bks.cpg/sg28_4_cif.got.tgz:6825.got - 2010.06.04 01:15:21.
