data_PCOD9339663
_publ_section_title
;
Structure prediction by ZEFSAII (Michael W. Deem and Ramdas Pophale) SiO2 
 PCOD9339663
Probable space group: P M A 2
;
_chemical_formula_sum "Si O2"
_cell_formula_units_Z 24
_cell_length_a 8.656396
_cell_length_b 14.377700
_cell_length_c 10.481326
_cell_angle_alpha 90.000000
_cell_angle_beta 90.000000
_cell_angle_gamma 90.000000
_cell_volume 1304.496032
_symmetry_space_group_name_H-M "P M A 2"
_symmetry_group_IT_number 28
_symmetry_cell_setting 'orthorhombic'
loop_
_space_group_symop_operation_xyz
x,y,z
-x,-y,z
1/2-x,y,z
1/2+x,-y,z
loop_
_atom_site_type_symbol
_atom_site_label
_atom_site_fract_x
_atom_site_fract_y
_atom_site_fract_z
Si Si1 0.564160 0.103425 0.204620
Si Si2 0.064242 0.787456 0.949225
Si Si3 0.564827 0.601704 0.353951
Si Si4 0.565407 0.895122 0.704620
Si Si5 0.935758 0.212544 0.460015
Si Si6 0.935173 0.601704 0.055292
O O1 0.750000 0.100059 0.204620
O O2 0.515762 0.157613 0.331840
O O3 0.500000 0.000000 0.204621
O O4 0.515763 0.157612 0.077400
O O5 0.250000 0.788375 0.940392
O O6 0.993837 0.839727 0.828380
O O7 0.005530 0.682592 0.968707
O O8 0.500000 0.500000 0.386636
O O9 0.750000 0.601904 0.362680
O O10 0.494470 0.682593 0.440535
O O11 0.522071 0.619431 0.204621
O O12 0.750000 0.899278 0.704620
O O13 0.506162 0.839728 0.580860
O O14 0.500000 0.000000 0.704622
O O15 0.750000 0.211624 0.468847
O O16 0.750000 0.601904 0.046563
O O17 0.000000 0.500000 0.022607
#
# Coordination Sequence:
#
# PCOD9339663 Si02
#       6
#     4   4   4   4   4   4
#     4  10  22  36  57  86 117 150 195 248 300 354
#     4  11  22  40  62  89 121 160 203 251 304 361
#     4  10  20  35  59  91 125 162 201 248 302 360
#     4  12  26  44  63  88 121 164 208 250 304 366
#     4  11  22  40  62  89 121 160 203 251 304 361
#     4  10  20  35  59  91 125 162 201 248 302 360
#
# _framework density 18.397908999999999
#
# number of rings (size 3 to 8) (size 9 to 14) (size 15 to 20)
#    0.000    1.333    1.667    4.500    0.000    6.667 
#    0.000    0.833    0.000    0.000    0.000    0.000 
#    0.000    0.000    0.000    0.000    0.000    0.000 
#
# Total GULP energy -134186.454390 kJ/mol
# GULP energy per Si atom -5591.102266 kJ/mol
# Density = 1.835603 g / cm^3
# Si number density = 18.397909 Si / 1000 Ang^3
#
#
#
# Elastic Constant Matrix: (Units=GPa)
#
#
# Indices 1 2 3 4 5 6 
#
# 1 90.1937 65.9798 61.3821 0.0000 0.0000 0.0000
# 2 65.9798 196.4276 101.6276 0.0000 0.0000 0.0000
# 3 61.3821 101.6276 155.2536 0.0000 0.0000 0.0000
# 4 0.0000 0.0000 0.0000 29.3408 0.0000 0.0000
# 5 0.0000 0.0000 0.0000 0.0000 21.9983 0.0000
# 6 0.0000 0.0000 0.0000 0.0000 0.0000 40.9576
#
#
#
# Elastic Compliance Matrix: (Units=1/GPa)
#
#
# Indices 1 2 3 4 5 6 
#
# 1 0.016447 -0.003266 -0.004364 0.000000 0.000000 0.000000
# 2 -0.003266 0.008347 -0.004172 0.000000 0.000000 0.000000
# 3 -0.004364 -0.004172 0.010898 0.000000 0.000000 0.000000
# 4 0.000000 0.000000 0.000000 0.034082 0.000000 0.000000
# 5 0.000000 0.000000 0.000000 0.000000 0.045458 0.000000
# 6 0.000000 0.000000 0.000000 0.000000 0.000000 0.024415
#
#
# Mechanical properties :
#
#
# Convention : Reuss Voigt Hill
#
# Bulk Modulus (GPa) = 82.74551 99.98376 91.36464
# Shear Modulus (GPa) = 29.88962 32.65170 31.27066
#
# Velocity S-wave (km/s) = 4.03503 4.21735 4.12720
# Velocity P-wave (km/s) = 8.17201 8.84182 8.51351
#
# Compressibility (1/GPa) = 0.01208525
#
# Stress axis : x y z
#
# Youngs Moduli (GPa) = 60.80128 119.80648 91.76217
#
# Poissons Ratio (x) = 0.39135 0.40049
# Poissons Ratio (y) = 0.19861 0.38286
# Poissons Ratio (z) = 0.26536 0.49987
#
# Static dielectric constant tensor:
#      x y z
#    x 1.613510 0.000000 0.000000 
#    y 0.000000 1.607780 0.000000 
#    z 0.000000 0.000000 1.616780 
# 
# From -- ./inp_files/2477.got.cif
#   From: 2010.05.17/outbox.cif.g08.bks.cpg/sg28_2_cif.got.tgz:2477.got - 2010.06.04 01:15:21.
