data_PCOD9339609
_publ_section_title
;
Structure prediction by ZEFSAII (Michael W. Deem and Ramdas Pophale) SiO2 
 PCOD9339609
Probable space group: P M A 2
;
_chemical_formula_sum "Si O2"
_cell_formula_units_Z 32
_cell_length_a 8.666234
_cell_length_b 9.609377
_cell_length_c 21.360886
_cell_angle_alpha 90.000000
_cell_angle_beta 90.000000
_cell_angle_gamma 90.000000
_cell_volume 1778.872846
_symmetry_space_group_name_H-M "P M A 2"
_symmetry_group_IT_number 28
_symmetry_cell_setting 'orthorhombic'
loop_
_space_group_symop_operation_xyz
x,y,z
-x,-y,z
1/2-x,y,z
1/2+x,-y,z
loop_
_atom_site_type_symbol
_atom_site_label
_atom_site_fract_x
_atom_site_fract_y
_atom_site_fract_z
Si Si1 0.435713 0.654653 0.633180
Si Si2 0.934758 0.842889 0.021575
Si Si3 0.564297 0.343767 0.271048
Si Si4 0.435132 0.655693 0.773250
Si Si5 0.565151 0.843672 0.382634
Si Si6 0.063859 0.845292 0.517412
Si Si7 0.065074 0.156405 0.883644
Si Si8 0.434450 0.843193 0.151243
O O1 0.500000 0.500000 0.625342
O O2 0.250000 0.648704 0.632046
O O3 0.480710 0.704516 0.702997
O O4 0.485062 0.750976 0.575851
O O5 0.750000 0.846354 0.026880
O O6 0.004247 0.782619 0.085288
O O7 0.975887 0.784349 0.952999
O O8 0.000000 0.000000 0.020367
O O9 0.500000 0.500000 0.268303
O O10 0.750000 0.347403 0.275811
O O11 0.495704 0.260101 0.329806
O O12 0.522745 0.255699 0.208899
O O13 0.500000 0.500000 0.780425
O O14 0.250000 0.652434 0.776622
O O15 0.499825 0.752298 0.827624
O O16 0.250000 0.150467 0.382624
O O17 0.504041 0.797583 0.450849
O O18 0.500000 0.000000 0.371683
O O19 0.250000 0.848005 0.513490
O O20 0.000000 0.000000 0.527269
O O21 0.250000 0.150610 0.880089
O O22 0.000000 0.000000 0.879389
O O23 0.250000 0.854268 0.148162
O O24 0.500000 0.000000 0.159798
#
# Coordination Sequence:
#
# PCOD9339609 Si02
#       8
#     4   4   4   4   4   4   4   4
#     4   9  20  36  55  78 105 139 179 219 264 318
#     4   9  17  30  51  77 106 137 174 217 264 315
#     4  11  24  40  57  81 111 144 180 222 269 317
#     4  10  20  36  55  77 106 142 182 224 268 320
#     4  11  22  38  60  84 110 143 181 221 264 316
#     4  10  20  36  56  81 111 140 175 220 266 316
#     4  10  20  34  53  80 109 141 179 223 271 319
#     4  10  20  34  56  82 107 138 178 218 263 317
#
# _framework density 17.988921000000001
#
# number of rings (size 3 to 8) (size 9 to 14) (size 15 to 20)
#    0.000    2.000    0.000    5.250    0.000    7.000 
#    0.000    3.125    0.000    1.500    0.000    0.000 
#    0.000    0.000    0.000    0.000    0.000    0.000 
#
# Total GULP energy -178588.293784 kJ/mol
# GULP energy per Si atom -5580.884181 kJ/mol
# Density = 1.794798 g / cm^3
# Si number density = 17.988921 Si / 1000 Ang^3
#
#
#
# Elastic Constant Matrix: (Units=GPa)
#
#
# Indices 1 2 3 4 5 6 
#
# 1 76.7500 39.1201 70.8892 0.0000 0.0000 0.0000
# 2 39.1201 78.9620 104.3418 0.0000 0.0000 0.0000
# 3 70.8892 104.3418 225.6979 0.0000 0.0000 0.0000
# 4 0.0000 0.0000 0.0000 -65.4028 0.0000 0.0000
# 5 0.0000 0.0000 0.0000 0.0000 36.6504 0.0000
# 6 0.0000 0.0000 0.0000 0.0000 0.0000 26.0133
#
#
#
# Elastic Compliance Matrix: (Units=1/GPa)
#
#
# Indices 1 2 3 4 5 6 
#
# 1 0.018807 -0.003885 -0.004111 0.000000 0.000000 0.000000
# 2 -0.003885 0.033351 -0.014198 0.000000 0.000000 0.000000
# 3 -0.004111 -0.014198 0.012286 0.000000 0.000000 0.000000
# 4 0.000000 0.000000 0.000000 -0.015290 0.000000 0.000000
# 5 0.000000 0.000000 0.000000 0.000000 0.027285 0.000000
# 6 0.000000 0.000000 0.000000 0.000000 0.000000 0.038442
#
#
# Mechanical properties :
#
#
# Convention : Reuss Voigt Hill
#
# Bulk Modulus (GPa) = 49.86332 90.01245 69.93788
# Shear Modulus (GPa) = 30.12914 10.58943 20.35928
#
# Velocity S-wave (km/s) = 4.09696 2.42887 3.36783
# Velocity P-wave (km/s) = 7.08232 7.61658 7.35430
#
# Compressibility (1/GPa) = 0.02005482
#
# Stress axis : x y z
#
# Youngs Moduli (GPa) = 53.17307 29.98450 81.39625
#
# Poissons Ratio (x) = 0.11650 0.33459
# Poissons Ratio (y) = 0.20660 1.15565
# Poissons Ratio (z) = 0.21858 0.42572
#
# Static dielectric constant tensor:
#      x y z
#    x 1.602830 0.000000 0.000000 
#    y 0.000000 1.577500 0.000000 
#    z 0.000000 0.000000 1.645170 
# 
# From -- ./inp_files/7046.got.cif
#   From: 2010.05.17/outbox.cif.g08.bks.cpg/sg28_4_cif.got.tgz:7046.got - 2010.06.04 01:15:21.
