data_PCOD9339158
_publ_section_title
;
Structure prediction by ZEFSAII (Michael W. Deem and Ramdas Pophale) SiO2 
 PCOD9339158
Probable space group: P C C 2
;
_chemical_formula_sum "Si O2"
_cell_formula_units_Z 24
_cell_length_a 13.770905
_cell_length_b 4.967270
_cell_length_c 16.699001
_cell_angle_alpha 90.000000
_cell_angle_beta 90.000000
_cell_angle_gamma 90.000000
_cell_volume 1142.275179
_symmetry_space_group_name_H-M "P C C 2"
_symmetry_group_IT_number 27
_symmetry_cell_setting 'orthorhombic'
loop_
_space_group_symop_operation_xyz
x,y,z
-x,-y,z
-x,y,1/2+z
x,-y,1/2+z
loop_
_atom_site_type_symbol
_atom_site_label
_atom_site_fract_x
_atom_site_fract_y
_atom_site_fract_z
Si Si1 0.500000 0.000000 0.189410
Si Si2 0.936167 0.750101 0.926107
Si Si3 0.277488 0.957831 0.219578
Si Si4 0.500000 0.500000 0.073825
Si Si5 0.223805 0.537125 0.812491
Si Si6 0.682596 0.488870 0.470323
Si Si7 0.221618 0.010060 0.535327
O O1 0.605314 0.027680 0.231765
O O2 0.517913 0.746790 0.132209
O O3 0.864534 0.604324 0.861333
O O4 0.000000 0.500000 0.955512
O O5 0.876754 0.887997 0.998698
O O6 0.000000 0.000000 0.891854
O O7 0.221255 0.160293 0.279559
O O8 0.244812 0.019206 0.128824
O O9 0.247333 0.654227 0.238629
O O10 0.412224 0.575025 0.016446
O O11 0.311709 0.528940 0.876156
O O12 0.700088 0.177036 0.489783
O O13 0.765695 0.682222 0.507726
#
# Coordination Sequence:
#
# PCOD9339158 Si02
#       7
#     2   4   4   2   4   4   4
#     4  12  24  38  64  96 134 178 218 260 316 376
#     4  11  23  45  70  94 124 170 226 280 335 404
#     4  12  23  42  63  98 137 173 211 263 327 388
#     4  12  20  38  62  94 122 176 232 268 288 378
#     4  11  25  41  64  95 133 172 207 272 341 386
#     4  11  21  39  62  91 125 173 223 259 313 378
#     4  11  22  41  66  93 125 167 218 266 324 391
#
# _framework density 21.0107
#
# number of rings (size 3 to 8) (size 9 to 14) (size 15 to 20)
#    0.000    0.667    3.333    7.000    0.000    1.333 
#    0.000    5.000    0.000    0.000    0.000    0.000 
#    0.000    0.000    0.000    0.000    0.000    0.000 
#
# Total GULP energy -133934.671317 kJ/mol
# GULP energy per Si atom -5580.611305 kJ/mol
# Density = 2.096288 g / cm^3
# Si number density = 21.010700 Si / 1000 Ang^3
#
#
#
# Elastic Constant Matrix: (Units=GPa)
#
#
# Indices 1 2 3 4 5 6 
#
# 1 94.6575 14.7626 4.0513 0.0000 0.0000 0.0000
# 2 14.7626 92.1121 1.0881 0.0000 0.0000 0.0000
# 3 4.0513 1.0881 64.2698 0.0000 0.0000 0.0000
# 4 0.0000 0.0000 0.0000 -175.0902 0.0000 0.0000
# 5 0.0000 0.0000 0.0000 0.0000 238.0757 0.0000
# 6 0.0000 0.0000 0.0000 0.0000 0.0000 29.8057
#
#
#
# Elastic Compliance Matrix: (Units=1/GPa)
#
#
# Indices 1 2 3 4 5 6 
#
# 1 0.010863 -0.001733 -0.000655 0.000000 0.000000 0.000000
# 2 -0.001733 0.011135 -0.000079 0.000000 0.000000 0.000000
# 3 -0.000655 -0.000079 0.015602 0.000000 0.000000 0.000000
# 4 0.000000 0.000000 0.000000 -0.005711 0.000000 0.000000
# 5 0.000000 0.000000 0.000000 0.000000 0.004200 0.000000
# 6 0.000000 0.000000 0.000000 0.000000 0.000000 0.033551
#
#
# Mechanical properties :
#
#
# Convention : Reuss Voigt Hill
#
# Bulk Modulus (GPa) = 30.61464 32.31594 31.46529
# Shear Modulus (GPa) = 58.50468 33.96741 46.23604
#
# Velocity S-wave (km/s) = 5.28258 4.02515 4.69614
# Velocity P-wave (km/s) = 7.19792 6.08412 6.66433
#
# Compressibility (1/GPa) = 0.03266411
#
# Stress axis : x y z
#
# Youngs Moduli (GPa) = 92.05764 89.80654 64.09412
#
# Poissons Ratio (x) = 0.15565 0.04201
# Poissons Ratio (y) = 0.15955 0.00508
# Poissons Ratio (z) = 0.06033 0.00712
#
# Static dielectric constant tensor:
#      x y z
#    x 1.831050 0.000000 0.000000 
#    y 0.000000 2.382200 0.000000 
#    z 0.000000 0.000000 1.720420 
# 
# From -- ./inp_files/3087.got.cif
#   From: 2010.05.17/outbox.cif.g08.bks.cpg/sg27_2_cif.got.tgz:3087.got - 2010.06.04 01:11:05.
