data_PCOD9339896
_publ_section_title
;
Structure prediction by ZEFSAII (Michael W. Deem and Ramdas Pophale) SiO2 
 PCOD9339896
Probable space group: P M A 2
;
_chemical_formula_sum "Si O2"
_cell_formula_units_Z 32
_cell_length_a 8.562021
_cell_length_b 14.975475
_cell_length_c 12.524502
_cell_angle_alpha 90.000000
_cell_angle_beta 90.000000
_cell_angle_gamma 90.000000
_cell_volume 1605.895797
_symmetry_space_group_name_H-M "P M A 2"
_symmetry_group_IT_number 28
_symmetry_cell_setting 'orthorhombic'
loop_
_space_group_symop_operation_xyz
x,y,z
-x,-y,z
1/2-x,y,z
1/2+x,-y,z
loop_
_atom_site_type_symbol
_atom_site_label
_atom_site_fract_x
_atom_site_fract_y
_atom_site_fract_z
Si Si1 0.064951 0.594414 0.203050
Si Si2 0.063726 0.211384 0.253578
Si Si3 0.936061 0.407612 0.738601
Si Si4 0.067091 0.087949 0.839708
Si Si5 0.432602 0.366511 0.972944
Si Si6 0.562984 0.214985 0.666418
Si Si7 0.937589 0.101496 0.454676
Si Si8 0.067387 0.820218 0.027828
O O1 0.250000 0.598726 0.216685
O O2 0.000000 0.500000 0.245013
O O3 0.989997 0.684398 0.252605
O O4 0.023793 0.597258 0.076394
O O5 0.250000 0.208871 0.241409
O O6 0.010461 0.155690 0.355889
O O7 0.982129 0.168102 0.149652
O O8 0.750000 0.412500 0.748734
O O9 0.974734 0.320139 0.668897
O O10 0.000000 0.500000 0.693001
O O11 0.005280 0.396242 0.858051
O O12 0.250000 0.081109 0.859061
O O13 0.027323 0.170197 0.763786
O O14 0.000000 0.000000 0.783414
O O15 0.971690 0.099685 0.949134
O O16 0.250000 0.388018 0.983313
O O17 0.462371 0.260897 0.983793
O O18 0.750000 0.206821 0.685761
O O19 0.525804 0.159850 0.560148
O O20 0.750000 0.098470 0.443210
O O21 0.000000 0.000000 0.461409
O O22 0.250000 0.796401 0.021223
#
# Coordination Sequence:
#
# PCOD9339896 Si02
#       8
#     4   4   4   4   4   4   4   4
#     4  11  21  36  58  88 126 169 211 258 307 368
#     4  11  23  41  64  93 125 162 208 259 313 374
#     4  11  22  37  58  87 124 166 209 256 307 366
#     4  12  24  38  60  90 125 163 205 251 309 377
#     4  11  20  33  54  85 122 166 211 254 302 365
#     4  10  23  43  66  90 124 163 207 260 313 369
#     4  11  24  45  70  96 121 158 208 262 318 376
#     4  11  21  37  59  87 125 165 203 251 310 370
#
# _framework density 19.926573999999999
#
# number of rings (size 3 to 8) (size 9 to 14) (size 15 to 20)
#    0.000    1.000    1.250    8.625    0.000    3.000 
#    0.000    3.125    0.000    1.500    0.000    0.000 
#    0.000    0.000    0.000    0.000    0.000    0.000 
#
# Total GULP energy -178880.417574 kJ/mol
# GULP energy per Si atom -5590.013049 kJ/mol
# Density = 1.988122 g / cm^3
# Si number density = 19.926574 Si / 1000 Ang^3
#
#
#
# Elastic Constant Matrix: (Units=GPa)
#
#
# Indices 1 2 3 4 5 6 
#
# 1 87.7876 32.9533 36.2571 0.0000 0.0000 0.0000
# 2 32.9533 129.0198 45.8460 0.0000 0.0000 0.0000
# 3 36.2571 45.8460 80.4852 0.0000 0.0000 0.0000
# 4 0.0000 0.0000 0.0000 10.7804 0.0000 0.0000
# 5 0.0000 0.0000 0.0000 0.0000 116.1798 0.0000
# 6 0.0000 0.0000 0.0000 0.0000 0.0000 35.1502
#
#
#
# Elastic Compliance Matrix: (Units=1/GPa)
#
#
# Indices 1 2 3 4 5 6 
#
# 1 0.014289 -0.001708 -0.005464 0.000000 0.000000 0.000000
# 2 -0.001708 0.009922 -0.004882 0.000000 0.000000 0.000000
# 3 -0.005464 -0.004882 0.017667 0.000000 0.000000 0.000000
# 4 0.000000 0.000000 0.000000 0.092761 0.000000 0.000000
# 5 0.000000 0.000000 0.000000 0.000000 0.008607 0.000000
# 6 0.000000 0.000000 0.000000 0.000000 0.000000 0.028449
#
#
# Mechanical properties :
#
#
# Convention : Reuss Voigt Hill
#
# Bulk Modulus (GPa) = 56.27654 58.60061 57.43858
# Shear Modulus (GPa) = 24.78597 44.57115 34.67856
#
# Velocity S-wave (km/s) = 3.53067 4.73458 4.17624
# Velocity P-wave (km/s) = 6.70255 7.70457 7.22096
#
# Compressibility (1/GPa) = 0.01776939
#
# Stress axis : x y z
#
# Youngs Moduli (GPa) = 69.98406 100.78742 56.60227
#
# Poissons Ratio (x) = 0.17215 0.30928
# Poissons Ratio (y) = 0.11953 0.27635
# Poissons Ratio (z) = 0.38239 0.49207
#
# Static dielectric constant tensor:
#      x y z
#    x 1.661820 0.000000 0.000000 
#    y 0.000000 1.803820 0.000000 
#    z 0.000000 0.000000 1.684330 
# 
# From -- ./inp_files/5002.got.cif
#   From: 2010.05.17/outbox.cif.g08.bks.cpg/sg28_3_cif.got.tgz:5002.got - 2010.06.04 01:15:21.
