data_PCOD9339395
_publ_section_title
;
Structure prediction by ZEFSAII (Michael W. Deem and Ramdas Pophale) SiO2 
 PCOD9339395
Probable space group: P M A 2
;
_chemical_formula_sum "Si O2"
_cell_formula_units_Z 32
_cell_length_a 9.512576
_cell_length_b 29.951349
_cell_length_c 5.473721
_cell_angle_alpha 90.000000
_cell_angle_beta 90.000000
_cell_angle_gamma 90.000000
_cell_volume 1559.542392
_symmetry_space_group_name_H-M "P M A 2"
_symmetry_group_IT_number 28
_symmetry_cell_setting 'orthorhombic'
loop_
_space_group_symop_operation_xyz
x,y,z
-x,-y,z
1/2-x,y,z
1/2+x,-y,z
loop_
_atom_site_type_symbol
_atom_site_label
_atom_site_fract_x
_atom_site_fract_y
_atom_site_fract_z
Si Si1 0.408661 0.322736 0.442020
Si Si2 0.920476 0.098726 0.696352
Si Si3 0.094075 0.630657 0.782213
Si Si4 0.079657 0.747241 0.175570
Si Si5 0.094484 0.536499 0.504767
Si Si6 0.080536 0.799281 0.679601
Si Si7 0.096144 0.413214 0.173857
Si Si8 0.079370 0.952960 0.196201
O O1 0.250000 0.306226 0.501443
O O2 0.532334 0.326460 0.642869
O O3 0.481223 0.295572 0.223121
O O4 0.390444 0.375123 0.380648
O O5 0.750000 0.100190 0.696371
O O6 0.972045 0.149805 0.692938
O O7 0.959406 0.073333 0.445780
O O8 0.959543 0.073866 0.948318
O O9 0.250000 0.640342 0.883698
O O10 0.109847 0.584856 0.627306
O O11 0.977252 0.615010 0.967249
O O12 0.250000 0.738426 0.175290
O O13 0.047518 0.777028 0.418048
O O14 0.040715 0.771828 0.923050
O O15 0.250000 0.518472 0.462737
O O16 0.000000 0.500000 0.643313
O O17 0.006597 0.548431 0.263584
O O18 0.250000 0.801124 0.688417
O O19 0.250000 0.429421 0.104702
O O20 0.250000 0.958630 0.195851
O O21 0.000000 0.000000 0.194739
#
# Coordination Sequence:
#
# PCOD9339395 Si02
#       8
#     4   4   4   4   4   4   4   4
#     4  10  22  38  55  78 109 145 181 223 277 338
#     4   9  17  31  52  76 105 143 184 231 281 335
#     4  10  21  37  58  82 108 140 182 228 277 331
#     4  10  20  34  55  83 109 140 183 237 287 336
#     4  10  21  37  56  80 109 142 179 224 271 326
#     4   9  18  33  54  81 109 140 187 236 284 337
#     4  10  21  37  57  80 108 144 181 221 274 334
#     4  10  19  31  51  78 107 142 184 230 282 335
#
# _framework density 20.518839
#
# number of rings (size 3 to 8) (size 9 to 14) (size 15 to 20)
#    0.000    2.250    0.000    2.625    1.750    6.500 
#    0.000    1.250    0.000    4.500    0.000    0.000 
#    0.000    0.000    0.000    0.000    0.000    0.000 
#
# Total GULP energy -178268.612298 kJ/mol
# GULP energy per Si atom -5570.894134 kJ/mol
# Density = 2.047214 g / cm^3
# Si number density = 20.518839 Si / 1000 Ang^3
#
#
#
# Elastic Constant Matrix: (Units=GPa)
#
#
# Indices 1 2 3 4 5 6 
#
# 1 95.8155 26.8047 18.8463 0.0000 0.0000 0.0000
# 2 26.8047 117.5409 47.0942 0.0000 0.0000 0.0000
# 3 18.8463 47.0942 107.4127 0.0000 0.0000 0.0000
# 4 0.0000 0.0000 0.0000 22.3165 0.0000 0.0000
# 5 0.0000 0.0000 0.0000 0.0000 12.2084 0.0000
# 6 0.0000 0.0000 0.0000 0.0000 0.0000 16.1151
#
#
#
# Elastic Compliance Matrix: (Units=1/GPa)
#
#
# Indices 1 2 3 4 5 6 
#
# 1 0.011241 -0.002151 -0.001029 0.000000 0.000000 0.000000
# 2 -0.002151 0.010732 -0.004328 0.000000 0.000000 0.000000
# 3 -0.001029 -0.004328 0.011388 0.000000 0.000000 0.000000
# 4 0.000000 0.000000 0.000000 0.044810 0.000000 0.000000
# 5 0.000000 0.000000 0.000000 0.000000 0.081911 0.000000
# 6 0.000000 0.000000 0.000000 0.000000 0.000000 0.062054
#
#
# Mechanical properties :
#
#
# Convention : Reuss Voigt Hill
#
# Bulk Modulus (GPa) = 54.51180 56.25104 55.38142
# Shear Modulus (GPa) = 20.55352 25.32958 22.94155
#
# Velocity S-wave (km/s) = 3.16838 3.51729 3.34739
# Velocity P-wave (km/s) = 6.32529 6.63091 6.47990
#
# Compressibility (1/GPa) = 0.01834465
#
# Stress axis : x y z
#
# Youngs Moduli (GPa) = 88.96061 93.17652 87.81120
#
# Poissons Ratio (x) = 0.20043 0.09037
# Poissons Ratio (y) = 0.19136 0.38005
# Poissons Ratio (z) = 0.09156 0.40327
#
# Static dielectric constant tensor:
#      x y z
#    x 1.768230 0.000000 0.000000 
#    y 0.000000 1.777120 0.000000 
#    z 0.000000 0.000000 1.819140 
# 
# From -- ./inp_files/233.got.cif
#   From: 2010.05.17/outbox.cif.g08.bks.cpg/sg28_1_cif.got.tgz:233.got - 2010.06.04 01:15:21.
