data_PCOD9339940
_publ_section_title
;
Structure prediction by ZEFSAII (Michael W. Deem and Ramdas Pophale) SiO2 
 PCOD9339940
Probable space group: P M A 2
;
_chemical_formula_sum "Si O2"
_cell_formula_units_Z 14
_cell_length_a 9.925980
_cell_length_b 9.449207
_cell_length_c 6.000628
_cell_angle_alpha 90.000000
_cell_angle_beta 90.000000
_cell_angle_gamma 90.000000
_cell_volume 562.814740
_symmetry_space_group_name_H-M "P M A 2"
_symmetry_group_IT_number 28
_symmetry_cell_setting 'orthorhombic'
loop_
_space_group_symop_operation_xyz
x,y,z
-x,-y,z
1/2-x,y,z
1/2+x,-y,z
loop_
_atom_site_type_symbol
_atom_site_label
_atom_site_fract_x
_atom_site_fract_y
_atom_site_fract_z
Si Si1 0.750000 0.626540 0.324481
Si Si2 0.519704 0.308646 0.061307
Si Si3 0.750000 0.400477 0.736256
Si Si4 0.000000 0.000000 0.836757
Si Si5 0.750000 0.938113 0.521791
Si Si6 0.250000 0.785265 0.363901
O O1 0.618174 0.627692 0.163088
O O2 0.750000 0.516579 0.535571
O O3 0.750000 0.779349 0.440093
O O4 0.619834 0.289280 0.267568
O O5 0.611857 0.392789 0.879914
O O6 0.502674 0.146861 0.974738
O O7 0.750000 0.246762 0.622332
O O8 0.877285 0.972633 0.670916
O O9 0.750000 0.048743 0.317110
#
# Coordination Sequence:
#
# PCOD9339940 Si02
#       6
#     2   4   2   2   2   2
#     4  12  28  50  81 127 157 213 278 332 392 491
#     4  11  25  51  82 115 161 213 267 332 406 478
#     4  11  27  56  78 109 170 215 262 325 416 474
#     4  12  22  46  80 122 158 206 264 336 404 464
#     4  12  23  43  81 121 156 201 267 337 396 473
#     4  11  22  51  78 111 157 215 253 324 420 470
#
# _framework density 24.874969
#
# number of rings (size 3 to 8) (size 9 to 14) (size 15 to 20)
#    0.000    0.571    2.857    5.143    0.000    1.143 
#   15.429    2.857    0.000    0.000    0.000    0.000 
#    0.000    0.000    0.000    0.000    0.000    0.000 
#
# Total GULP energy -78295.001040 kJ/mol
# GULP energy per Si atom -5592.500074 kJ/mol
# Density = 2.481835 g / cm^3
# Si number density = 24.874969 Si / 1000 Ang^3
#
#
#
# Elastic Constant Matrix: (Units=GPa)
#
#
# Indices 1 2 3 4 5 6 
#
# 1 238.5691 68.9898 94.6494 0.0000 0.0000 0.0000
# 2 68.9898 213.7701 90.4239 0.0000 0.0000 0.0000
# 3 94.6494 90.4239 127.9829 0.0000 0.0000 0.0000
# 4 0.0000 0.0000 0.0000 75.6369 0.0000 0.0000
# 5 0.0000 0.0000 0.0000 0.0000 152.7583 0.0000
# 6 0.0000 0.0000 0.0000 0.0000 0.0000 23.5589
#
#
#
# Elastic Compliance Matrix: (Units=1/GPa)
#
#
# Indices 1 2 3 4 5 6 
#
# 1 0.005933 -0.000084 -0.004329 0.000000 0.000000 0.000000
# 2 -0.000084 0.006673 -0.004653 0.000000 0.000000 0.000000
# 3 -0.004329 -0.004653 0.014302 0.000000 0.000000 0.000000
# 4 0.000000 0.000000 0.000000 0.013221 0.000000 0.000000
# 5 0.000000 0.000000 0.000000 0.000000 0.006546 0.000000
# 6 0.000000 0.000000 0.000000 0.000000 0.000000 0.042447
#
#
# Mechanical properties :
#
#
# Convention : Reuss Voigt Hill
#
# Bulk Modulus (GPa) = 113.92207 120.93869 117.43038
# Shear Modulus (GPa) = 45.38066 72.14141 58.76103
#
# Velocity S-wave (km/s) = 4.27588 5.39116 4.86558
# Velocity P-wave (km/s) = 8.38301 9.35291 8.88121
#
# Compressibility (1/GPa) = 0.00877793
#
# Stress axis : x y z
#
# Youngs Moduli (GPa) = 168.54153 149.85625 69.91966
#
# Poissons Ratio (x) = 0.01256 0.30266
# Poissons Ratio (y) = 0.01413 0.32532
# Poissons Ratio (z) = 0.72957 0.69724
#
# Static dielectric constant tensor:
#      x y z
#    x 1.900010 0.000000 0.000000 
#    y 0.000000 2.097050 0.000000 
#    z 0.000000 0.000000 1.981840 
# 
# From -- ./inp_files/316.got.cif
#   From: 2010.05.17/outbox.cif.g08.bks.cpg/sg28_1_cif.got.tgz:316.got - 2010.06.04 01:15:21.
