data_PCOD9339020
_publ_section_title
;
Structure prediction by ZEFSAII (Michael W. Deem and Ramdas Pophale) SiO2 
 PCOD9339020
Probable space group: P C C 2
;
_chemical_formula_sum "Si O2"
_cell_formula_units_Z 28
_cell_length_a 7.484155
_cell_length_b 5.588773
_cell_length_c 29.575591
_cell_angle_alpha 90.000000
_cell_angle_beta 90.000000
_cell_angle_gamma 90.000000
_cell_volume 1237.065443
_symmetry_space_group_name_H-M "P C C 2"
_symmetry_group_IT_number 27
_symmetry_cell_setting 'orthorhombic'
loop_
_space_group_symop_operation_xyz
x,y,z
-x,-y,z
-x,y,1/2+z
x,-y,1/2+z
loop_
_atom_site_type_symbol
_atom_site_label
_atom_site_fract_x
_atom_site_fract_y
_atom_site_fract_z
Si Si1 0.893087 0.245069 0.735630
Si Si2 0.689271 0.861534 0.327541
Si Si3 0.710377 0.728900 0.143059
Si Si4 0.500000 0.500000 0.880648
Si Si5 0.809093 0.862446 0.509416
Si Si6 0.303474 0.226246 0.607663
Si Si7 0.000000 0.500000 0.456919
Si Si8 0.249522 0.127309 0.918432
O O1 0.802717 0.171194 0.782914
O O2 0.748261 0.292231 0.696164
O O3 0.000000 0.500000 0.739757
O O4 0.000000 0.000000 0.722954
O O5 0.649491 0.600076 0.347549
O O6 0.500000 0.000000 0.318314
O O7 0.771643 0.992259 0.371117
O O8 0.780885 0.485931 0.119020
O O9 0.501942 0.749734 0.128847
O O10 0.785247 0.987647 0.128139
O O11 0.422209 0.290813 0.910593
O O12 0.729125 0.991246 0.465607
O O13 0.850585 0.600336 0.490020
O O14 0.696312 0.829944 0.554415
O O15 0.000000 0.000000 0.519013
O O16 0.922770 0.291058 0.426727
#
# Coordination Sequence:
#
# PCOD9339020 Si02
#       8
#     4   4   4   2   4   4   2   4
#     4  12  29  49  77 116 146 189 247 314 378 456
#     4  10  25  46  72 106 147 197 249 302 371 448
#     4  10  24  48  70 105 139 186 241 307 374 439
#     4  10  22  44  68 100 140 200 242 298 354 436
#     4  10  23  41  66 104 146 190 244 300 359 436
#     4  10  23  45  74 104 138 194 241 298 368 443
#     4  10  22  42  66  96 148 196 238 300 358 426
#     4  10  22  44  66 105 144 197 239 300 362 435
#
# _framework density 22.634209999999999
#
# number of rings (size 3 to 8) (size 9 to 14) (size 15 to 20)
#    0.000    1.714    0.000    1.714   10.000    5.714 
#   14.143    0.000    0.000    0.000    0.000    0.000 
#    0.000    0.000    0.000    0.000    0.000    0.000 
#
# Total GULP energy -156292.938204 kJ/mol
# GULP energy per Si atom -5581.890650 kJ/mol
# Density = 2.258269 g / cm^3
# Si number density = 22.634210 Si / 1000 Ang^3
#
#
#
# Elastic Constant Matrix: (Units=GPa)
#
#
# Indices 1 2 3 4 5 6 
#
# 1 81.7563 24.6687 71.9806 0.0000 0.0000 0.0000
# 2 24.6687 155.8004 70.0350 0.0000 0.0000 0.0000
# 3 71.9806 70.0350 227.0072 0.0000 0.0000 0.0000
# 4 0.0000 0.0000 0.0000 -10.4777 0.0000 0.0000
# 5 0.0000 0.0000 0.0000 0.0000 50.7392 0.0000
# 6 0.0000 0.0000 0.0000 0.0000 0.0000 14.5792
#
#
#
# Elastic Compliance Matrix: (Units=1/GPa)
#
#
# Indices 1 2 3 4 5 6 
#
# 1 0.016982 -0.000312 -0.005289 0.000000 0.000000 0.000000
# 2 -0.000312 0.007458 -0.002202 0.000000 0.000000 0.000000
# 3 -0.005289 -0.002202 0.006761 0.000000 0.000000 0.000000
# 4 0.000000 0.000000 0.000000 -0.095441 0.000000 0.000000
# 5 0.000000 0.000000 0.000000 0.000000 0.019709 0.000000
# 6 0.000000 0.000000 0.000000 0.000000 0.000000 0.068591
#
#
# Mechanical properties :
#
#
# Convention : Reuss Voigt Hill
#
# Bulk Modulus (GPa) = 64.11659 88.65920 76.38790
# Shear Modulus (GPa) = 111.45312 30.82677 71.13995
#
# Velocity S-wave (km/s) = 7.02481 3.69447 5.61235
# Velocity P-wave (km/s) = 9.70495 7.57986 8.70748
#
# Compressibility (1/GPa) = 0.01559659
#
# Stress axis : x y z
#
# Youngs Moduli (GPa) = 58.88717 134.09073 147.89816
#
# Poissons Ratio (x) = 0.04177 0.78216
# Poissons Ratio (y) = 0.01834 0.32567
# Poissons Ratio (z) = 0.31143 0.29527
#
# Static dielectric constant tensor:
#      x y z
#    x 1.887490 0.000000 0.000000 
#    y 0.000000 1.925240 0.000000 
#    z 0.000000 0.000000 1.812000 
# 
# From -- ./inp_files/5281.got.cif
#   From: 2010.05.17/outbox.cif.g08.bks.cpg/sg27_3_cif.got.tgz:5281.got - 2010.06.04 01:11:05.
