data_PCOD9339111
_publ_section_title
;
Structure prediction by ZEFSAII (Michael W. Deem and Ramdas Pophale) SiO2 
 PCOD9339111
Probable space group: P C C 2
;
_chemical_formula_sum "Si O2"
_cell_formula_units_Z 26
_cell_length_a 12.233053
_cell_length_b 12.233052
_cell_length_c 8.184701
_cell_angle_alpha 90.000000
_cell_angle_beta 90.000000
_cell_angle_gamma 90.000000
_cell_volume 1224.820644
_symmetry_space_group_name_H-M "P C C 2"
_symmetry_group_IT_number 27
_symmetry_cell_setting 'orthorhombic'
loop_
_space_group_symop_operation_xyz
x,y,z
-x,-y,z
-x,y,1/2+z
x,-y,1/2+z
loop_
_atom_site_type_symbol
_atom_site_label
_atom_site_fract_x
_atom_site_fract_y
_atom_site_fract_z
Si Si1 0.365781 0.625732 0.209250
Si Si2 0.357367 0.090325 0.243198
Si Si3 0.590325 0.857367 0.867518
Si Si4 0.000000 0.000000 0.649542
Si Si5 0.500000 0.500000 0.961174
Si Si6 0.874268 0.134219 0.901467
Si Si7 0.000000 0.500000 0.805358
Si Si8 0.871748 0.371748 0.055358
O O1 0.372040 0.744703 0.288768
O O2 0.399824 0.540084 0.349850
O O3 0.248071 0.612325 0.128744
O O4 0.457467 0.599962 0.071994
O O5 0.459266 0.135424 0.348572
O O6 0.244703 0.127960 0.321949
O O7 0.364576 0.959266 0.262145
O O8 0.374055 0.125945 0.055358
O O9 0.040084 0.899824 0.760866
O O10 0.900038 0.957467 0.538723
O O11 0.887675 0.251929 0.981973
O O12 0.959238 0.599756 0.695158
O O13 0.900244 0.459238 0.915558
#
# Coordination Sequence:
#
# PCOD9339111 Si02
#       8
#     4   4   4   2   2   4   2   4
#     4  11  24  43  69  99 132 178 216 277 336 387
#     4  11  24  41  66  99 139 176 220 266 325 403
#     4  11  24  41  66  99 139 176 220 266 325 403
#     4  10  24  44  66  96 138 168 230 270 324 404
#     4  10  24  44  66  96 138 168 230 270 324 404
#     4  11  24  43  69  99 132 178 216 277 336 387
#     4  10  24  50  68  98 128 166 236 278 324 394
#     4  11  24  44  74  95 130 174 220 281 336 384
#
# _framework density 21.227598
#
# number of rings (size 3 to 8) (size 9 to 14) (size 15 to 20)
#    0.000    1.231    0.000    5.538    8.615    0.000 
#   11.077    0.000    0.000    0.000    0.000    0.000 
#    0.000    0.000    0.000    0.000    0.000    0.000 
#
# Total GULP energy -145401.561416 kJ/mol
# GULP energy per Si atom -5592.367747 kJ/mol
# Density = 2.117928 g / cm^3
# Si number density = 21.227598 Si / 1000 Ang^3
#
#
#
# Elastic Constant Matrix: (Units=GPa)
#
#
# Indices 1 2 3 4 5 6 
#
# 1 121.1018 56.8406 79.3615 0.0000 0.0000 0.0000
# 2 56.8406 121.1018 79.3615 0.0000 0.0000 0.0000
# 3 79.3615 79.3615 157.4886 0.0000 0.0000 0.0000
# 4 0.0000 0.0000 0.0000 5.9392 0.0000 0.0000
# 5 0.0000 0.0000 0.0000 0.0000 5.9387 0.0000
# 6 0.0000 0.0000 0.0000 0.0000 0.0000 19.4282
#
#
#
# Elastic Compliance Matrix: (Units=1/GPa)
#
#
# Indices 1 2 3 4 5 6 
#
# 1 0.012885 -0.002677 -0.005144 0.000000 0.000000 0.000000
# 2 -0.002677 0.012885 -0.005144 0.000000 0.000000 0.000000
# 3 -0.005144 -0.005144 0.011534 0.000000 0.000000 0.000000
# 4 0.000000 0.000000 0.000000 0.168373 0.000000 0.000000
# 5 0.000000 0.000000 0.000000 0.000000 0.168386 0.000000
# 6 0.000000 0.000000 0.000000 0.000000 0.000000 0.051472
#
#
# Mechanical properties :
#
#
# Convention : Reuss Voigt Hill
#
# Bulk Modulus (GPa) = 87.91866 92.31327 90.11597
# Shear Modulus (GPa) = 10.98285 18.53646 14.75966
#
# Velocity S-wave (km/s) = 2.27708 2.95824 2.63972
# Velocity P-wave (km/s) = 6.95848 7.43304 7.19967
#
# Compressibility (1/GPa) = 0.01137415
#
# Stress axis : x y z
#
# Youngs Moduli (GPa) = 77.61002 77.61002 86.69875
#
# Poissons Ratio (x) = 0.20773 0.44600
# Poissons Ratio (y) = 0.20773 0.44600
# Poissons Ratio (z) = 0.39924 0.39924
#
# Static dielectric constant tensor:
#      x y z
#    x 1.744490 0.000000 0.000000 
#    y 0.000000 1.744490 0.000000 
#    z 0.000000 0.000000 1.794450 
# 
# From -- ./inp_files/1423.got.cif
#   From: 2010.05.17/outbox.cif.g08.bks.cpg/sg27_1_cif.got.tgz:1423.got - 2010.06.04 01:11:05.
