data_PCOD9339934
_publ_section_title
;
Structure prediction by ZEFSAII (Michael W. Deem and Ramdas Pophale) SiO2 
 PCOD9339934
Probable space group: P M A 2
;
_chemical_formula_sum "Si O2"
_cell_formula_units_Z 20
_cell_length_a 8.991838
_cell_length_b 15.335642
_cell_length_c 7.356346
_cell_angle_alpha 90.000000
_cell_angle_beta 90.000000
_cell_angle_gamma 90.000000
_cell_volume 1014.407808
_symmetry_space_group_name_H-M "P M A 2"
_symmetry_group_IT_number 28
_symmetry_cell_setting 'orthorhombic'
loop_
_space_group_symop_operation_xyz
x,y,z
-x,-y,z
1/2-x,y,z
1/2+x,-y,z
loop_
_atom_site_type_symbol
_atom_site_label
_atom_site_fract_x
_atom_site_fract_y
_atom_site_fract_z
Si Si1 0.428565 0.724083 0.055420
Si Si2 0.572748 0.405174 0.382926
Si Si3 0.421751 0.911053 0.657068
Si Si4 0.080569 0.912852 0.100075
Si Si5 0.572224 0.729017 0.661550
O O1 0.250000 0.732286 0.018832
O O2 0.451172 0.644985 0.192458
O O3 0.477490 0.816336 0.145817
O O4 0.514655 0.713786 0.867168
O O5 0.500000 0.500000 0.380967
O O6 0.750000 0.410739 0.414238
O O7 0.497599 0.345036 0.535334
O O8 0.250000 0.906411 0.600426
O O9 0.508966 0.823860 0.604726
O O10 0.500000 0.000000 0.595951
O O11 0.422711 0.913297 0.878695
O O12 0.250000 0.918364 0.160434
O O13 0.000000 0.000000 0.162505
O O14 0.750000 0.728653 0.654589
#
# Coordination Sequence:
#
# PCOD9339934 Si02
#       5
#     4   4   4   4   4
#     4   9  20  39  61  84 115 155 194 237 291 345
#     4  11  24  43  64  85 113 148 192 247 301 353
#     4   9  16  29  51  81 117 155 196 238 283 337
#     4   8  14  26  47  77 110 145 183 223 272 328
#     4  11  22  37  60  89 121 157 196 237 287 349
#
# _framework density 19.715935000000002
#
# number of rings (size 3 to 8) (size 9 to 14) (size 15 to 20)
#    0.000    2.400    0.000    4.200    0.000    7.200 
#    0.000    3.000    0.000    2.400    0.000    0.000 
#    0.000    0.000    0.000    0.000    0.000    0.000 
#
# Total GULP energy -111708.101905 kJ/mol
# GULP energy per Si atom -5585.405095 kJ/mol
# Density = 1.967106 g / cm^3
# Si number density = 19.715935 Si / 1000 Ang^3
#
#
#
# Elastic Constant Matrix: (Units=GPa)
#
#
# Indices 1 2 3 4 5 6 
#
# 1 148.7398 114.5828 61.9430 0.0000 0.0000 0.0000
# 2 114.5828 227.4020 70.0164 0.0000 0.0000 0.0000
# 3 61.9430 70.0164 87.6914 0.0000 0.0000 0.0000
# 4 0.0000 0.0000 0.0000 35.2456 0.0000 0.0000
# 5 0.0000 0.0000 0.0000 0.0000 -2.1568 0.0000
# 6 0.0000 0.0000 0.0000 0.0000 0.0000 40.6478
#
#
#
# Elastic Compliance Matrix: (Units=1/GPa)
#
#
# Indices 1 2 3 4 5 6 
#
# 1 0.012460 -0.004732 -0.005024 0.000000 0.000000 0.000000
# 2 -0.004732 0.007628 -0.002748 0.000000 0.000000 0.000000
# 3 -0.005024 -0.002748 0.017146 0.000000 0.000000 0.000000
# 4 0.000000 0.000000 0.000000 0.028372 0.000000 0.000000
# 5 0.000000 0.000000 0.000000 0.000000 -0.463654 0.000000
# 6 0.000000 0.000000 0.000000 0.000000 0.000000 0.024602
#
#
# Mechanical properties :
#
#
# Convention : Reuss Voigt Hill
#
# Bulk Modulus (GPa) = 81.78138 106.32420 94.05279
# Shear Modulus (GPa) = -14.51957 29.23341 7.35692
#
# Velocity S-wave (km/s) = -2.71668 3.85480 1.93379
# Velocity P-wave (km/s) = 5.63288 8.59405 7.26592
#
# Compressibility (1/GPa) = 0.01222772
#
# Stress axis : x y z
#
# Youngs Moduli (GPa) = 80.25414 131.09927 58.32146
#
# Poissons Ratio (x) = 0.62033 0.29299
# Poissons Ratio (y) = 0.37974 0.16027
# Poissons Ratio (z) = 0.40317 0.36026
#
# Static dielectric constant tensor:
#      x y z
#    x 1.661180 0.000000 0.000000 
#    y 0.000000 1.678480 0.000000 
#    z 0.000000 0.000000 1.723680 
# 
# From -- ./inp_files/2378.got.cif
#   From: 2010.05.17/outbox.cif.g08.bks.cpg/sg28_2_cif.got.tgz:2378.got - 2010.06.04 01:15:21.
