data_PCOD9339985
_publ_section_title
;
Structure prediction by ZEFSAII (Michael W. Deem and Ramdas Pophale) SiO2 
 PCOD9339985
Probable space group: P C A 21
;
_chemical_formula_sum "Si O2"
_cell_formula_units_Z 32
_cell_length_a 32.201558
_cell_length_b 7.232762
_cell_length_c 5.457550
_cell_angle_alpha 90.000000
_cell_angle_beta 90.000000
_cell_angle_gamma 90.000000
_cell_volume 1271.097259
_symmetry_space_group_name_H-M "P C A 21"
_symmetry_group_IT_number 29
_symmetry_cell_setting 'orthorhombic'
loop_
_space_group_symop_operation_xyz
x,y,z
-x,-y,1/2+z
1/2-x,y,1/2+z
1/2+x,-y,z
loop_
_atom_site_type_symbol
_atom_site_label
_atom_site_fract_x
_atom_site_fract_y
_atom_site_fract_z
Si Si1 0.488209 0.932942 0.492780
Si Si2 0.630794 0.964992 0.501394
Si Si3 0.480973 0.446631 0.145671
Si Si4 0.148736 0.627082 0.995620
Si Si5 0.257236 0.506210 0.530798
Si Si6 0.773692 0.083935 0.022486
Si Si7 0.607392 0.981083 0.000137
Si Si8 0.106384 0.609769 0.496737
O O1 0.513633 0.771925 0.629373
O O2 0.438317 0.929667 0.499335
O O3 0.498748 0.084530 0.706084
O O4 0.679739 0.006999 0.506612
O O5 0.616437 0.873636 0.249517
O O6 0.607319 0.164975 0.496852
O O7 0.615601 0.871973 0.750667
O O8 0.486444 0.495667 0.431182
O O9 0.438698 0.531197 0.045569
O O10 0.196418 0.582454 0.031063
O O11 0.140346 0.848724 0.995117
O O12 0.124072 0.556721 0.232528
O O13 0.133948 0.557894 0.731782
O O14 0.250310 0.399918 0.280282
O O15 0.227608 0.688936 0.526165
O O16 0.751662 0.033387 0.277837
#
# Coordination Sequence:
#
# PCOD9339985 Si02
#       8
#     4   4   4   4   4   4   4   4
#     4  12  26  43  61  86 120 156 194 252 315 363
#     4  10  17  28  46  72 102 141 182 225 275 336
#     4  12  23  40  64  89 113 150 203 250 293 353
#     4  10  18  29  46  73 105 143 182 227 278 336
#     4  10  16  24  38  62 100 147 176 207 268 343
#     4  10  16  23  36  61 100 145 172 205 268 342
#     4  10  18  32  49  67  95 138 184 220 270 342
#     4  10  18  29  46  70  99 132 177 228 271 323
#
# _framework density 25.175097000000001
#
# number of rings (size 3 to 8) (size 9 to 14) (size 15 to 20)
#    0.000    1.500    0.000   12.750    0.000    0.000 
#    0.000    0.000    0.000    0.000    0.000    0.000 
#    0.000    0.000    0.000  274.500    0.000    0.000 
#
# Total GULP energy -178952.072431 kJ/mol
# GULP energy per Si atom -5592.252263 kJ/mol
# Density = 2.511780 g / cm^3
# Si number density = 25.175097 Si / 1000 Ang^3
#
#
#
# Elastic Constant Matrix: (Units=GPa)
#
#
# Indices 1 2 3 4 5 6 
#
# 1 89.7737 -18.6320 50.3631 0.0000 0.0000 0.0000
# 2 -18.6320 48.8399 -4.7944 0.0000 0.0000 0.0000
# 3 50.3631 -4.7944 237.0296 0.0000 0.0000 0.0000
# 4 0.0000 0.0000 0.0000 12.1365 0.0000 0.0000
# 5 0.0000 0.0000 0.0000 0.0000 177.6892 0.0000
# 6 0.0000 0.0000 0.0000 0.0000 0.0000 -9.0885
#
#
#
# Elastic Compliance Matrix: (Units=1/GPa)
#
#
# Indices 1 2 3 4 5 6 
#
# 1 0.013754 0.004970 -0.002822 0.000000 0.000000 0.000000
# 2 0.004970 0.022312 -0.000605 0.000000 0.000000 0.000000
# 3 -0.002822 -0.000605 0.004806 0.000000 0.000000 0.000000
# 4 0.000000 0.000000 0.000000 0.082396 0.000000 0.000000
# 5 0.000000 0.000000 0.000000 0.000000 0.005628 0.000000
# 6 0.000000 0.000000 0.000000 0.000000 0.000000 -0.110029
#
#
# Mechanical properties :
#
#
# Convention : Reuss Voigt Hill
#
# Bulk Modulus (GPa) = 22.74883 47.72408 35.23646
# Shear Modulus (GPa) = 164.29605 59.39452 111.84528
#
# Velocity S-wave (km/s) = 8.08721 4.86249 6.67259
# Velocity P-wave (km/s) = 9.81121 7.10796 8.56688
#
# Compressibility (1/GPa) = 0.04395830
#
# Stress axis : x y z
#
# Youngs Moduli (GPa) = 72.70813 44.81961 208.06400
#
# Poissons Ratio (x) = -0.22275 0.58711
# Poissons Ratio (y) = -0.36135 0.12581
# Poissons Ratio (z) = 0.20517 0.02710
#
# Static dielectric constant tensor:
#      x y z
#    x 1.714520 0.000000 0.000000 
#    y 0.000000 2.005850 0.000000 
#    z 0.000000 0.000000 2.135860 
# 
# From -- ./inp_files/925.got.cif
#   From: 2010.05.17/outbox.cif.g08.bks.cpg/sg29_1_cif.got.tgz:925.got - 2010.06.04 01:19:37.
