data_PCOD9339401
_publ_section_title
;
Structure prediction by ZEFSAII (Michael W. Deem and Ramdas Pophale) SiO2 
 PCOD9339401
Probable space group: P M A 2
;
_chemical_formula_sum "Si O2"
_cell_formula_units_Z 32
_cell_length_a 8.683945
_cell_length_b 9.318622
_cell_length_c 22.086612
_cell_angle_alpha 90.000000
_cell_angle_beta 90.000000
_cell_angle_gamma 90.000000
_cell_volume 1787.301671
_symmetry_space_group_name_H-M "P M A 2"
_symmetry_group_IT_number 28
_symmetry_cell_setting 'orthorhombic'
loop_
_space_group_symop_operation_xyz
x,y,z
-x,-y,z
1/2-x,y,z
1/2+x,-y,z
loop_
_atom_site_type_symbol
_atom_site_label
_atom_site_fract_x
_atom_site_fract_y
_atom_site_fract_z
Si Si1 0.065409 0.337710 0.439680
Si Si2 0.434994 0.161478 0.203782
Si Si3 0.934999 0.161310 0.684373
Si Si4 0.064543 0.838024 0.816375
Si Si5 0.934768 0.163304 0.947250
Si Si6 0.433912 0.162200 0.070068
Si Si7 0.066460 0.661300 0.315370
Si Si8 0.934410 0.660900 0.573006
O O1 0.250000 0.342041 0.433565
O O2 0.993664 0.272473 0.378941
O O3 0.026238 0.276561 0.506093
O O4 0.000000 0.500000 0.441410
O O5 0.250000 0.655610 0.316370
O O6 0.472886 0.222741 0.136526
O O7 0.506554 0.251806 0.257888
O O8 0.500000 0.000000 0.206767
O O9 0.750000 0.157320 0.681343
O O10 0.980756 0.224122 0.750856
O O11 0.999480 0.249615 0.628371
O O12 0.000000 0.000000 0.681382
O O13 0.250000 0.845486 0.816784
O O14 0.019398 0.772252 0.881578
O O15 0.000000 0.000000 0.816214
O O16 0.750000 0.157622 0.951180
O O17 0.000000 0.000000 0.946131
O O18 0.999033 0.231487 0.008988
O O19 0.250000 0.155314 0.064700
O O20 0.500000 0.000000 0.071491
O O21 0.750000 0.842287 0.209141
O O22 0.000000 0.500000 0.311625
O O23 0.750000 0.655041 0.576819
O O24 0.000000 0.500000 0.576087
#
# Coordination Sequence:
#
# PCOD9339401 Si02
#       8
#     4   4   4   4   4   4   4   4
#     4   9  17  31  51  73  97 123 156 198 240 283
#     4  10  20  34  50  71 101 133 164 199 242 290
#     4  10  19  32  49  70 100 133 164 200 243 290
#     4   8  15  25  38  59  87 121 156 192 235 279
#     4   9  14  21  35  56  84 116 153 193 232 276
#     4   9  16  25  39  60  88 121 155 192 234 279
#     4  11  21  34  54  77 100 127 161 199 239 285
#     4  10  20  34  53  76  99 126 161 199 240 286
#
# _framework density 17.904084999999998
#
# number of rings (size 3 to 8) (size 9 to 14) (size 15 to 20)
#    0.000    2.500    0.000    4.875    0.000    4.000 
#    0.000    0.625    0.000    3.000    0.000    0.875 
#    0.000    6.000    0.000    0.000    0.000    0.000 
#
# Total GULP energy -178165.894375 kJ/mol
# GULP energy per Si atom -5567.684199 kJ/mol
# Density = 1.786333 g / cm^3
# Si number density = 17.904085 Si / 1000 Ang^3
#
#
#
# Elastic Constant Matrix: (Units=GPa)
#
#
# Indices 1 2 3 4 5 6 
#
# 1 82.6254 14.5333 74.4875 0.0000 0.0000 0.0000
# 2 14.5333 20.7148 45.2343 0.0000 0.0000 0.0000
# 3 74.4875 45.2343 248.1345 0.0000 0.0000 0.0000
# 4 0.0000 0.0000 0.0000 79.3601 0.0000 0.0000
# 5 0.0000 0.0000 0.0000 0.0000 31.3856 0.0000
# 6 0.0000 0.0000 0.0000 0.0000 0.0000 18.7476
#
#
#
# Elastic Compliance Matrix: (Units=1/GPa)
#
#
# Indices 1 2 3 4 5 6 
#
# 1 0.016614 -0.001272 -0.004755 0.000000 0.000000 0.000000
# 2 -0.001272 0.080298 -0.014256 0.000000 0.000000 0.000000
# 3 -0.004755 -0.014256 0.008057 0.000000 0.000000 0.000000
# 4 0.000000 0.000000 0.000000 0.012601 0.000000 0.000000
# 5 0.000000 0.000000 0.000000 0.000000 0.031862 0.000000
# 6 0.000000 0.000000 0.000000 0.000000 0.000000 0.053340
#
#
# Mechanical properties :
#
#
# Convention : Reuss Voigt Hill
#
# Bulk Modulus (GPa) = 15.52767 68.88721 42.20744
# Shear Modulus (GPa) = 18.88184 40.37996 29.63090
#
# Velocity S-wave (km/s) = 3.25100 4.75420 4.07256
# Velocity P-wave (km/s) = 4.77321 8.28829 6.76311
#
# Compressibility (1/GPa) = 0.06440115
#
# Stress axis : x y z
#
# Youngs Moduli (GPa) = 60.19192 12.45361 124.12337
#
# Poissons Ratio (x) = 0.01584 0.59026
# Poissons Ratio (y) = 0.07654 1.76955
# Poissons Ratio (z) = 0.28624 0.17754
#
# Static dielectric constant tensor:
#      x y z
#    x 1.597480 0.000000 0.000000 
#    y 0.000000 1.578350 0.000000 
#    z 0.000000 0.000000 1.709660 
# 
# From -- ./inp_files/7200.got.cif
#   From: 2010.05.17/outbox.cif.g08.bks.cpg/sg28_4_cif.got.tgz:7200.got - 2010.06.04 01:15:21.
