data_PCOD9339458
_publ_section_title
;
Structure prediction by ZEFSAII (Michael W. Deem and Ramdas Pophale) SiO2 
 PCOD9339458
Probable space group: P M A 2
;
_chemical_formula_sum "Si O2"
_cell_formula_units_Z 20
_cell_length_a 8.724192
_cell_length_b 14.109037
_cell_length_c 10.567391
_cell_angle_alpha 90.000000
_cell_angle_beta 90.000000
_cell_angle_gamma 90.000000
_cell_volume 1300.739606
_symmetry_space_group_name_H-M "P M A 2"
_symmetry_group_IT_number 28
_symmetry_cell_setting 'orthorhombic'
loop_
_space_group_symop_operation_xyz
x,y,z
-x,-y,z
1/2-x,y,z
1/2+x,-y,z
loop_
_atom_site_type_symbol
_atom_site_label
_atom_site_fract_x
_atom_site_fract_y
_atom_site_fract_z
Si Si1 0.066476 0.105514 0.162990
Si Si2 0.931007 0.784990 0.668218
Si Si3 0.066981 0.894963 0.434540
Si Si4 0.569174 0.603476 0.810782
Si Si5 0.432609 0.777471 0.931773
O O1 0.250000 0.101904 0.165351
O O2 0.003110 0.136390 0.300070
O O3 0.000000 0.000000 0.141391
O O4 0.007249 0.172992 0.051991
O O5 0.750000 0.805918 0.662648
O O6 0.949753 0.671241 0.687255
O O7 0.015210 0.827435 0.548187
O O8 0.001721 0.822429 0.800876
O O9 0.250000 0.900088 0.425225
O O10 0.000000 0.000000 0.459197
O O11 0.500000 0.500000 0.797623
O O12 0.750000 0.598655 0.837728
O O13 0.485263 0.667787 0.916722
O O14 0.250000 0.784775 0.935258
#
# Coordination Sequence:
#
# PCOD9339458 Si02
#       5
#     4   4   4   4   4
#     4  11  21  35  52  73 103 138 173 208 251 301
#     4   9  19  34  51  76 103 132 169 210 253 296
#     4  11  21  34  52  74 102 138 173 207 251 300
#     4   9  18  32  53  77 103 131 166 207 256 304
#     4  10  19  33  52  77 103 132 170 211 254 298
#
# _framework density 15.375867
#
# number of rings (size 3 to 8) (size 9 to 14) (size 15 to 20)
#    1.200    0.800    0.000    7.200    0.000    0.800 
#    0.000    4.000    0.000    1.200    0.000    5.600 
#    0.000    0.000    0.000    0.000    0.000    0.000 
#
# Total GULP energy -111359.983726 kJ/mol
# GULP energy per Si atom -5567.999186 kJ/mol
# Density = 1.534087 g / cm^3
# Si number density = 15.375867 Si / 1000 Ang^3
#
#
#
# Elastic Constant Matrix: (Units=GPa)
#
#
# Indices 1 2 3 4 5 6 
#
# 1 172.5766 57.1960 71.1128 0.0000 0.0000 0.0000
# 2 57.1960 72.5205 72.2994 0.0000 0.0000 0.0000
# 3 71.1128 72.2994 122.1378 0.0000 0.0000 0.0000
# 4 0.0000 0.0000 0.0000 -17.3067 0.0000 0.0000
# 5 0.0000 0.0000 0.0000 0.0000 29.1515 0.0000
# 6 0.0000 0.0000 0.0000 0.0000 0.0000 27.0423
#
#
#
# Elastic Compliance Matrix: (Units=1/GPa)
#
#
# Indices 1 2 3 4 5 6 
#
# 1 0.008097 -0.004114 -0.002279 0.000000 0.000000 0.000000
# 2 -0.004114 0.035734 -0.018758 0.000000 0.000000 0.000000
# 3 -0.002279 -0.018758 0.020618 0.000000 0.000000 0.000000
# 4 0.000000 0.000000 0.000000 -0.057781 0.000000 0.000000
# 5 0.000000 0.000000 0.000000 0.000000 0.034304 0.000000
# 6 0.000000 0.000000 0.000000 0.000000 0.000000 0.036979
#
#
# Mechanical properties :
#
#
# Convention : Reuss Voigt Hill
#
# Bulk Modulus (GPa) = 70.68121 85.38347 78.03234
# Shear Modulus (GPa) = 37.60290 18.88587 28.24439
#
# Velocity S-wave (km/s) = 4.95064 3.50848 4.29059
# Velocity P-wave (km/s) = 8.87396 8.48905 8.68364
#
# Compressibility (1/GPa) = 0.01414803
#
# Stress axis : x y z
#
# Youngs Moduli (GPa) = 123.50034 27.98440 48.50098
#
# Poissons Ratio (x) = 0.11512 0.11055
# Poissons Ratio (y) = 0.50805 0.90977
# Poissons Ratio (z) = 0.28149 0.52492
#
# Static dielectric constant tensor:
#      x y z
#    x 1.508730 0.000000 0.000000 
#    y 0.000000 1.500840 0.000000 
#    z 0.000000 0.000000 1.497530 
# 
# From -- ./inp_files/2374.got.cif
#   From: 2010.05.17/outbox.cif.g08.bks.cpg/sg28_2_cif.got.tgz:2374.got - 2010.06.04 01:15:21.
