data_PCOD9339433
_publ_section_title
;
Structure prediction by ZEFSAII (Michael W. Deem and Ramdas Pophale) SiO2 
 PCOD9339433
Probable space group: P M A 2
;
_chemical_formula_sum "Si O2"
_cell_formula_units_Z 32
_cell_length_a 8.894901
_cell_length_b 14.865264
_cell_length_c 12.557345
_cell_angle_alpha 90.000000
_cell_angle_beta 90.000000
_cell_angle_gamma 90.000000
_cell_volume 1660.395591
_symmetry_space_group_name_H-M "P M A 2"
_symmetry_group_IT_number 28
_symmetry_cell_setting 'orthorhombic'
loop_
_space_group_symop_operation_xyz
x,y,z
-x,-y,z
1/2-x,y,z
1/2+x,-y,z
loop_
_atom_site_type_symbol
_atom_site_label
_atom_site_fract_x
_atom_site_fract_y
_atom_site_fract_z
Si Si1 0.421634 0.654957 0.147900
Si Si2 0.072562 0.408051 0.944756
Si Si3 0.430499 0.715721 0.773127
Si Si4 0.428251 0.091670 0.314179
Si Si5 0.570112 0.706129 0.364708
Si Si6 0.070392 0.400359 0.583147
Si Si7 0.923282 0.134316 0.092889
Si Si8 0.569217 0.093100 0.850922
O O1 0.250000 0.621219 0.142482
O O2 0.483321 0.659799 0.267256
O O3 0.421565 0.758037 0.106531
O O4 0.529089 0.602182 0.068135
O O5 0.250000 0.407112 0.929045
O O6 0.000000 0.500000 0.903254
O O7 0.992934 0.328764 0.880574
O O8 0.250000 0.708885 0.770794
O O9 0.501173 0.659905 0.677014
O O10 0.473075 0.820723 0.780221
O O11 0.250000 0.084515 0.321722
O O12 0.474239 0.187691 0.366276
O O13 0.477655 0.099242 0.190367
O O14 0.500000 0.000000 0.358380
O O15 0.750000 0.703947 0.343553
O O16 0.541039 0.652701 0.473022
O O17 0.250000 0.407794 0.597595
O O18 0.000000 0.500000 0.582064
O O19 0.750000 0.102891 0.105903
O O20 0.976963 0.109231 0.974708
O O21 0.750000 0.088060 0.851709
O O22 0.500000 0.000000 0.813333
#
# Coordination Sequence:
#
# PCOD9339433 Si02
#       8
#     4   4   4   4   4   4   4   4
#     4  10  19  35  58  86 123 159 196 243 297 353
#     4  12  24  38  59  87 120 159 199 241 300 363
#     4  11  23  43  64  87 121 156 198 251 302 356
#     4  10  19  32  52  82 117 158 200 243 290 345
#     4   9  21  40  60  85 120 157 199 246 297 358
#     4  11  24  44  68  92 116 150 199 253 306 364
#     4   9  17  32  52  79 116 159 198 239 286 342
#     4  10  21  36  56  84 120 158 198 242 292 349
#
# _framework density 19.272516
#
# number of rings (size 3 to 8) (size 9 to 14) (size 15 to 20)
#    0.000    1.750    1.250    3.375    0.000    5.000 
#    0.000    1.875    0.000    3.000    0.000    0.000 
#    0.000    0.000    0.000    0.000    0.000    0.000 
#
# Total GULP energy -178741.118016 kJ/mol
# GULP energy per Si atom -5585.659938 kJ/mol
# Density = 1.922865 g / cm^3
# Si number density = 19.272516 Si / 1000 Ang^3
#
#
#
# Elastic Constant Matrix: (Units=GPa)
#
#
# Indices 1 2 3 4 5 6 
#
# 1 64.2119 52.9457 48.5266 0.0000 0.0000 0.0000
# 2 52.9457 144.0636 58.9701 0.0000 0.0000 0.0000
# 3 48.5266 58.9701 92.8312 0.0000 0.0000 0.0000
# 4 0.0000 0.0000 0.0000 18.5215 0.0000 0.0000
# 5 0.0000 0.0000 0.0000 0.0000 13.3662 0.0000
# 6 0.0000 0.0000 0.0000 0.0000 0.0000 32.2105
#
#
#
# Elastic Compliance Matrix: (Units=1/GPa)
#
#
# Indices 1 2 3 4 5 6 
#
# 1 0.029192 -0.006057 -0.011412 0.000000 0.000000 0.000000
# 2 -0.006057 0.010637 -0.003591 0.000000 0.000000 0.000000
# 3 -0.011412 -0.003591 0.019019 0.000000 0.000000 0.000000
# 4 0.000000 0.000000 0.000000 0.053991 0.000000 0.000000
# 5 0.000000 0.000000 0.000000 0.000000 0.074815 0.000000
# 6 0.000000 0.000000 0.000000 0.000000 0.000000 0.031046
#
#
# Mechanical properties :
#
#
# Convention : Reuss Voigt Hill
#
# Bulk Modulus (GPa) = 59.78020 69.11017 64.44518
# Shear Modulus (GPa) = 18.76889 22.19727 20.48308
#
# Velocity S-wave (km/s) = 3.12407 3.39744 3.26362
# Velocity P-wave (km/s) = 6.64069 7.16431 6.90747
#
# Compressibility (1/GPa) = 0.01672795
#
# Stress axis : x y z
#
# Youngs Moduli (GPa) = 34.25539 94.00783 52.57896
#
# Poissons Ratio (x) = 0.56943 0.60005
# Poissons Ratio (y) = 0.20749 0.18881
# Poissons Ratio (z) = 0.39093 0.33758
#
# Static dielectric constant tensor:
#      x y z
#    x 1.652330 0.000000 0.000000 
#    y 0.000000 1.688240 0.000000 
#    z 0.000000 0.000000 1.655860 
# 
# From -- ./inp_files/5058.got.cif
#   From: 2010.05.17/outbox.cif.g08.bks.cpg/sg28_3_cif.got.tgz:5058.got - 2010.06.04 01:15:21.
