data_PCOD9339664
_publ_section_title
;
Structure prediction by ZEFSAII (Michael W. Deem and Ramdas Pophale) SiO2 
 PCOD9339664
Probable space group: P M A 2
;
_chemical_formula_sum "Si O2"
_cell_formula_units_Z 32
_cell_length_a 15.257076
_cell_length_b 9.111949
_cell_length_c 10.651857
_cell_angle_alpha 90.000000
_cell_angle_beta 90.000000
_cell_angle_gamma 90.000000
_cell_volume 1480.839251
_symmetry_space_group_name_H-M "P M A 2"
_symmetry_group_IT_number 28
_symmetry_cell_setting 'orthorhombic'
loop_
_space_group_symop_operation_xyz
x,y,z
-x,-y,z
1/2-x,y,z
1/2+x,-y,z
loop_
_atom_site_type_symbol
_atom_site_label
_atom_site_fract_x
_atom_site_fract_y
_atom_site_fract_z
Si Si1 0.849948 0.137863 0.534060
Si Si2 0.519885 0.152813 0.757584
Si Si3 0.407364 0.574110 0.912022
Si Si4 0.353178 0.079581 0.065503
Si Si5 0.851627 0.245901 0.138545
Si Si6 0.650293 0.729301 0.821797
Si Si7 0.913738 0.905927 0.336254
Si Si8 0.461948 0.661365 0.381003
O O1 0.750000 0.147170 0.576110
O O2 0.918015 0.104003 0.644123
O O3 0.886664 0.291032 0.478418
O O4 0.858554 0.013991 0.425105
O O5 0.569823 0.283100 0.829314
O O6 0.424752 0.220393 0.726058
O O7 0.500000 0.000000 0.828480
O O8 0.500000 0.500000 0.949298
O O9 0.356754 0.444802 0.841161
O O10 0.355948 0.631730 0.031825
O O11 0.250000 0.064693 0.045601
O O12 0.370370 0.140035 0.205377
O O13 0.383308 0.909311 0.078055
O O14 0.378479 0.190645 0.953698
O O15 0.750000 0.227763 0.182551
O O16 0.916846 0.296606 0.248163
O O17 0.750000 0.771581 0.790874
O O18 0.954837 0.766860 0.404409
O O19 0.000000 0.000000 0.303395
O O20 0.500000 0.500000 0.384691
#
# Coordination Sequence:
#
# PCOD9339664 Si02
#       8
#     4   4   4   4   4   4   4   4
#     4  11  24  47  71  96 129 175 237 296 340 403
#     4  11  24  43  70  96 130 176 232 282 344 396
#     4  10  23  39  60  92 135 179 220 274 337 404
#     4  10  20  35  60  92 128 174 220 273 334 396
#     4  11  21  36  59  89 131 176 224 277 338 404
#     4  10  23  41  63  98 141 180 226 278 339 416
#     4  10  20  37  64  90 126 170 222 279 339 398
#     4  11  24  39  62  96 135 175 224 278 353 414
#
# _framework density 21.609366999999999
#
# number of rings (size 3 to 8) (size 9 to 14) (size 15 to 20)
#    0.000    1.500    2.500    3.375    5.250    3.500 
#    0.000    1.875    0.000    0.750    0.000    0.000 
#    0.000    0.000    0.000    0.000    0.000    0.000 
#
# Total GULP energy -178557.188787 kJ/mol
# GULP energy per Si atom -5579.912150 kJ/mol
# Density = 2.156018 g / cm^3
# Si number density = 21.609367 Si / 1000 Ang^3
#
#
#
# Elastic Constant Matrix: (Units=GPa)
#
#
# Indices 1 2 3 4 5 6 
#
# 1 103.5255 42.6139 34.4041 0.0000 0.0000 0.0000
# 2 42.6139 126.7862 26.8032 0.0000 0.0000 0.0000
# 3 34.4041 26.8032 56.3875 0.0000 0.0000 0.0000
# 4 0.0000 0.0000 0.0000 17.3910 0.0000 0.0000
# 5 0.0000 0.0000 0.0000 0.0000 26.9899 0.0000
# 6 0.0000 0.0000 0.0000 0.0000 0.0000 17.1926
#
#
#
# Elastic Compliance Matrix: (Units=1/GPa)
#
#
# Indices 1 2 3 4 5 6 
#
# 1 0.013074 -0.003010 -0.006546 0.000000 0.000000 0.000000
# 2 -0.003010 0.009462 -0.002661 0.000000 0.000000 0.000000
# 3 -0.006546 -0.002661 0.022993 0.000000 0.000000 0.000000
# 4 0.000000 0.000000 0.000000 0.057501 0.000000 0.000000
# 5 0.000000 0.000000 0.000000 0.000000 0.037051 0.000000
# 6 0.000000 0.000000 0.000000 0.000000 0.000000 0.058164
#
#
# Mechanical properties :
#
#
# Convention : Reuss Voigt Hill
#
# Bulk Modulus (GPa) = 47.40566 54.92683 51.16625
# Shear Modulus (GPa) = 21.76649 24.50656 23.13652
#
# Velocity S-wave (km/s) = 3.17720 3.37125 3.27566
# Velocity P-wave (km/s) = 5.95354 6.37393 6.16732
#
# Compressibility (1/GPa) = 0.02109453
#
# Stress axis : x y z
#
# Youngs Moduli (GPa) = 76.48759 105.69020 43.49134
#
# Poissons Ratio (x) = 0.31817 0.28469
# Poissons Ratio (y) = 0.23026 0.11572
# Poissons Ratio (z) = 0.50068 0.28121
#
# Static dielectric constant tensor:
#      x y z
#    x 1.810390 0.000000 0.000000 
#    y 0.000000 1.804440 0.000000 
#    z 0.000000 0.000000 1.845060 
# 
# From -- ./inp_files/5583.got.cif
#   From: 2010.05.17/outbox.cif.g08.bks.cpg/sg28_3_cif.got.tgz:5583.got - 2010.06.04 01:15:21.
