data_PCOD9339727
_publ_section_title
;
Structure prediction by ZEFSAII (Michael W. Deem and Ramdas Pophale) SiO2 
 PCOD9339727
Probable space group: P M A 2
;
_chemical_formula_sum "Si O2"
_cell_formula_units_Z 24
_cell_length_a 8.593553
_cell_length_b 9.762381
_cell_length_c 15.301577
_cell_angle_alpha 90.000000
_cell_angle_beta 90.000000
_cell_angle_gamma 90.000000
_cell_volume 1283.703440
_symmetry_space_group_name_H-M "P M A 2"
_symmetry_group_IT_number 28
_symmetry_cell_setting 'orthorhombic'
loop_
_space_group_symop_operation_xyz
x,y,z
-x,-y,z
1/2-x,y,z
1/2+x,-y,z
loop_
_atom_site_type_symbol
_atom_site_label
_atom_site_fract_x
_atom_site_fract_y
_atom_site_fract_z
Si Si1 0.936986 0.149391 0.632640
Si Si2 0.562617 0.346461 0.788488
Si Si3 0.064091 0.346215 0.281656
Si Si4 0.437376 0.848780 0.430994
Si Si5 0.436297 0.149450 0.937377
Si Si6 0.936359 0.149677 0.132610
O O1 0.750000 0.143133 0.634353
O O2 0.987008 0.264213 0.701232
O O3 0.983130 0.176990 0.532182
O O4 0.000000 0.000000 0.657774
O O5 0.500000 0.500000 0.787486
O O6 0.750000 0.347217 0.792484
O O7 0.496644 0.262961 0.870689
O O8 0.250000 0.347627 0.277861
O O9 0.000000 0.500000 0.283043
O O10 0.007722 0.263297 0.366786
O O11 0.997212 0.263621 0.198845
O O12 0.250000 0.848050 0.424326
O O13 0.500000 0.000000 0.407737
O O14 0.250000 0.145910 0.939473
O O15 0.500000 0.000000 0.909993
O O16 0.500892 0.174808 0.034820
O O17 0.750000 0.146229 0.131966
O O18 0.000000 0.000000 0.159746
#
# Coordination Sequence:
#
# PCOD9339727 Si02
#       6
#     4   4   4   4   4   4
#     4   9  20  37  60  86 115 149 193 240 287 339
#     4  11  23  39  57  84 118 156 195 238 289 345
#     4  12  25  41  59  85 118 155 193 237 289 346
#     4  10  20  38  61  88 117 152 194 240 287 339
#     4  11  22  39  62  89 117 151 192 239 287 340
#     4  11  22  40  64  90 117 151 192 238 285 339
#
# _framework density 18.695906999999998
#
# number of rings (size 3 to 8) (size 9 to 14) (size 15 to 20)
#    0.000    1.333    0.000    7.500    0.000    4.667 
#    0.000    5.000    0.000    0.000    0.000    0.000 
#    0.000    0.000    0.000    0.000    0.000    0.000 
#
# Total GULP energy -134230.215079 kJ/mol
# GULP energy per Si atom -5592.925628 kJ/mol
# Density = 1.865335 g / cm^3
# Si number density = 18.695907 Si / 1000 Ang^3
#
#
#
# Elastic Constant Matrix: (Units=GPa)
#
#
# Indices 1 2 3 4 5 6 
#
# 1 148.0234 77.3611 59.9987 0.0000 0.0000 0.0000
# 2 77.3611 205.9053 125.6095 0.0000 0.0000 0.0000
# 3 59.9987 125.6095 118.2011 0.0000 0.0000 0.0000
# 4 0.0000 0.0000 0.0000 -58.2716 0.0000 0.0000
# 5 0.0000 0.0000 0.0000 0.0000 19.0410 0.0000
# 6 0.0000 0.0000 0.0000 0.0000 0.0000 37.9918
#
#
#
# Elastic Compliance Matrix: (Units=1/GPa)
#
#
# Indices 1 2 3 4 5 6 
#
# 1 0.008695 -0.001633 -0.002678 0.000000 0.000000 0.000000
# 2 -0.001633 0.014114 -0.014170 0.000000 0.000000 0.000000
# 3 -0.002678 -0.014170 0.024878 0.000000 0.000000 0.000000
# 4 0.000000 0.000000 0.000000 -0.017161 0.000000 0.000000
# 5 0.000000 0.000000 0.000000 0.000000 0.052518 0.000000
# 6 0.000000 0.000000 0.000000 0.000000 0.000000 0.026321
#
#
# Mechanical properties :
#
#
# Convention : Reuss Voigt Hill
#
# Bulk Modulus (GPa) = 93.24455 110.89649 102.07052
# Shear Modulus (GPa) = 33.35496 13.69630 23.52563
#
# Velocity S-wave (km/s) = 4.22842 2.70956 3.55114
# Velocity P-wave (km/s) = 8.59197 8.32068 8.45741
#
# Compressibility (1/GPa) = 0.01072449
#
# Stress axis : x y z
#
# Youngs Moduli (GPa) = 115.01355 70.84952 40.19642
#
# Poissons Ratio (x) = 0.11569 0.10765
# Poissons Ratio (y) = 0.18781 0.56959
# Poissons Ratio (z) = 0.30801 1.00395
#
# Static dielectric constant tensor:
#      x y z
#    x 1.624430 0.000000 0.000000 
#    y 0.000000 1.603280 0.000000 
#    z 0.000000 0.000000 1.644550 
# 
# From -- ./inp_files/6097.got.cif
#   From: 2010.05.17/outbox.cif.g08.bks.cpg/sg28_4_cif.got.tgz:6097.got - 2010.06.04 01:15:21.
