data_PCOD9339884
_publ_section_title
;
Structure prediction by ZEFSAII (Michael W. Deem and Ramdas Pophale) SiO2 
 PCOD9339884
Probable space group: P M A 2
;
_chemical_formula_sum "Si O2"
_cell_formula_units_Z 24
_cell_length_a 24.636144
_cell_length_b 5.214411
_cell_length_c 8.196494
_cell_angle_alpha 90.000000
_cell_angle_beta 90.000000
_cell_angle_gamma 90.000000
_cell_volume 1052.946047
_symmetry_space_group_name_H-M "P M A 2"
_symmetry_group_IT_number 28
_symmetry_cell_setting 'orthorhombic'
loop_
_space_group_symop_operation_xyz
x,y,z
-x,-y,z
1/2-x,y,z
1/2+x,-y,z
loop_
_atom_site_type_symbol
_atom_site_label
_atom_site_fract_x
_atom_site_fract_y
_atom_site_fract_z
Si Si1 0.940454 0.611148 0.671200
Si Si2 0.250000 0.048939 0.645437
Si Si3 0.159151 0.305115 0.458003
Si Si4 0.861165 0.859379 0.126460
Si Si5 0.750000 0.320837 0.332784
Si Si6 0.250000 0.031536 0.011986
Si Si7 0.082829 0.635839 0.998790
Si Si8 0.500000 0.000000 0.882808
O O1 0.899403 0.617958 0.523122
O O2 0.911582 0.443608 0.810465
O O3 0.000000 0.500000 0.630719
O O4 0.954484 0.878550 0.763661
O O5 0.195880 0.214334 0.609727
O O6 0.250000 0.860317 0.491475
O O7 0.250000 0.934757 0.825993
O O8 0.148292 0.096179 0.318208
O O9 0.196523 0.506220 0.360363
O O10 0.803890 0.802324 0.040611
O O11 0.901642 0.619884 0.098062
O O12 0.880826 0.125802 0.051459
O O13 0.750000 0.175719 0.159588
O O14 0.023244 0.770247 0.993242
#
# Coordination Sequence:
#
# PCOD9339884 Si02
#       8
#     4   2   4   4   2   2   4   2
#     4  10  23  46  77 106 149 203 263 324 383 473
#     4  11  25  43  74 104 146 207 252 319 383 479
#     4  11  25  48  68 111 154 199 258 320 395 462
#     4  12  25  45  74 108 157 195 249 326 382 467
#     4  11  24  49  72 109 163 200 259 326 381 478
#     4  12  25  48  74 113 151 207 259 315 400 461
#     4  11  24  45  73 109 139 205 248 317 383 452
#     4  10  22  48  74 104 150 188 280 316 382 470
#
# _framework density 22.793189000000002
#
# number of rings (size 3 to 8) (size 9 to 14) (size 15 to 20)
#    0.000    1.000    3.333    2.500    2.333    2.000 
#    9.000    0.000    0.000    0.000    0.000    0.000 
#    0.000    0.000    0.000    0.000    0.000    0.000 
#
# Total GULP energy -134012.876859 kJ/mol
# GULP energy per Si atom -5583.869869 kJ/mol
# Density = 2.274131 g / cm^3
# Si number density = 22.793189 Si / 1000 Ang^3
#
#
#
# Elastic Constant Matrix: (Units=GPa)
#
#
# Indices 1 2 3 4 5 6 
#
# 1 113.7089 40.1838 64.9639 0.0000 0.0000 0.0000
# 2 40.1838 120.2119 42.6635 0.0000 0.0000 0.0000
# 3 64.9639 42.6635 152.6247 0.0000 0.0000 0.0000
# 4 0.0000 0.0000 0.0000 22.8421 0.0000 0.0000
# 5 0.0000 0.0000 0.0000 0.0000 32.2623 0.0000
# 6 0.0000 0.0000 0.0000 0.0000 0.0000 9.4885
#
#
#
# Elastic Compliance Matrix: (Units=1/GPa)
#
#
# Indices 1 2 3 4 5 6 
#
# 1 0.012258 -0.002493 -0.004521 0.000000 0.000000 0.000000
# 2 -0.002493 0.009742 -0.001662 0.000000 0.000000 0.000000
# 3 -0.004521 -0.001662 0.008941 0.000000 0.000000 0.000000
# 4 0.000000 0.000000 0.000000 0.043779 0.000000 0.000000
# 5 0.000000 0.000000 0.000000 0.000000 0.030996 0.000000
# 6 0.000000 0.000000 0.000000 0.000000 0.000000 0.105391
#
#
# Mechanical properties :
#
#
# Convention : Reuss Voigt Hill
#
# Bulk Modulus (GPa) = 73.58797 75.79644 74.69220
# Shear Modulus (GPa) = 21.46030 28.83418 25.14724
#
# Velocity S-wave (km/s) = 3.07175 3.56059 3.32517
# Velocity P-wave (km/s) = 6.70343 7.08731 6.89804
#
# Compressibility (1/GPa) = 0.01358918
#
# Stress axis : x y z
#
# Youngs Moduli (GPa) = 81.57782 102.64952 111.84670
#
# Poissons Ratio (x) = 0.25593 0.50563
# Poissons Ratio (y) = 0.20339 0.18588
# Poissons Ratio (z) = 0.36879 0.17060
#
# Static dielectric constant tensor:
#      x y z
#    x 1.933620 0.000000 0.000000 
#    y 0.000000 1.941750 0.000000 
#    z 0.000000 0.000000 1.817580 
# 
# From -- ./inp_files/4198.got.cif
#   From: 2010.05.17/outbox.cif.g08.bks.cpg/sg28_3_cif.got.tgz:4198.got - 2010.06.04 01:15:21.
