data_PCOD9339296
_publ_section_title
;
Structure prediction by ZEFSAII (Michael W. Deem and Ramdas Pophale) SiO2 
 PCOD9339296
Probable space group: P M A 2
;
_chemical_formula_sum "Si O2"
_cell_formula_units_Z 24
_cell_length_a 8.391014
_cell_length_b 16.799992
_cell_length_c 9.498763
_cell_angle_alpha 90.000000
_cell_angle_beta 90.000000
_cell_angle_gamma 90.000000
_cell_volume 1339.030818
_symmetry_space_group_name_H-M "P M A 2"
_symmetry_group_IT_number 28
_symmetry_cell_setting 'orthorhombic'
loop_
_space_group_symop_operation_xyz
x,y,z
-x,-y,z
1/2-x,y,z
1/2+x,-y,z
loop_
_atom_site_type_symbol
_atom_site_label
_atom_site_fract_x
_atom_site_fract_y
_atom_site_fract_z
Si Si1 0.063560 0.663376 0.032940
Si Si2 0.062857 0.182382 0.879672
Si Si3 0.562885 0.586614 0.766650
Si Si4 0.055794 0.757409 0.292622
Si Si5 0.941122 0.085610 0.120359
Si Si6 0.559885 0.255827 0.614397
O O1 0.250000 0.642312 0.036080
O O2 0.004743 0.685146 0.189526
O O3 0.040574 0.747795 0.952875
O O4 0.973480 0.602384 0.932138
O O5 0.250000 0.199387 0.898658
O O6 0.020247 0.190425 0.716112
O O7 0.015622 0.104718 0.967039
O O8 0.500000 0.500000 0.726858
O O9 0.750000 0.592226 0.743377
O O10 0.480725 0.657809 0.679874
O O11 0.250000 0.755774 0.290160
O O12 0.008128 0.841547 0.222471
O O13 0.004290 0.749412 0.453277
O O14 0.750000 0.086561 0.110631
O O15 0.000000 0.000000 0.170410
O O16 0.750000 0.244773 0.618315
#
# Coordination Sequence:
#
# PCOD9339296 Si02
#       6
#     4   4   4   4   4   4
#     4   9  16  31  52  74  97 127 163 203 244 292
#     4  10  18  30  48  73  99 130 167 203 240 291
#     4  11  21  34  51  75 101 131 169 212 255 301
#     4   8  17  32  53  76 102 133 167 202 250 305
#     4  10  19  34  53  76 101 131 168 212 257 301
#     4  10  18  33  54  76 102 136 169 206 250 300
#
# _framework density 17.923411000000002
#
# number of rings (size 3 to 8) (size 9 to 14) (size 15 to 20)
#    0.000    2.333    0.000    7.500    0.000    0.000 
#    0.000   11.667    0.000    2.000    0.000    0.000 
#    0.000    0.000    0.000    0.000    0.000    0.000 
#
# Total GULP energy -133745.037924 kJ/mol
# GULP energy per Si atom -5572.709913 kJ/mol
# Density = 1.788262 g / cm^3
# Si number density = 17.923411 Si / 1000 Ang^3
#
#
#
# Elastic Constant Matrix: (Units=GPa)
#
#
# Indices 1 2 3 4 5 6 
#
# 1 43.8191 4.9714 10.3064 0.0000 0.0000 0.0000
# 2 4.9714 65.5301 28.4135 0.0000 0.0000 0.0000
# 3 10.3064 28.4135 133.4285 0.0000 0.0000 0.0000
# 4 0.0000 0.0000 0.0000 13.3524 0.0000 0.0000
# 5 0.0000 0.0000 0.0000 0.0000 26.6576 0.0000
# 6 0.0000 0.0000 0.0000 0.0000 0.0000 21.7099
#
#
#
# Elastic Compliance Matrix: (Units=1/GPa)
#
#
# Indices 1 2 3 4 5 6 
#
# 1 0.023314 -0.001088 -0.001569 0.000000 0.000000 0.000000
# 2 -0.001088 0.016863 -0.003507 0.000000 0.000000 0.000000
# 3 -0.001569 -0.003507 0.008363 0.000000 0.000000 0.000000
# 4 0.000000 0.000000 0.000000 0.074893 0.000000 0.000000
# 5 0.000000 0.000000 0.000000 0.000000 0.037513 0.000000
# 6 0.000000 0.000000 0.000000 0.000000 0.000000 0.046062
#
#
# Mechanical properties :
#
#
# Convention : Reuss Voigt Hill
#
# Bulk Modulus (GPa) = 27.61599 36.68446 32.15023
# Shear Modulus (GPa) = 21.60701 25.61640 23.61171
#
# Velocity S-wave (km/s) = 3.47583 3.78460 3.63349
# Velocity P-wave (km/s) = 5.61691 6.29360 5.96486
#
# Compressibility (1/GPa) = 0.03621091
#
# Stress axis : x y z
#
# Youngs Moduli (GPa) = 42.89341 59.30027 119.57924
#
# Poissons Ratio (x) = 0.06454 0.18763
# Poissons Ratio (y) = 0.04668 0.41936
# Poissons Ratio (z) = 0.06730 0.20796
#
# Static dielectric constant tensor:
#      x y z
#    x 1.599710 0.000000 0.000000 
#    y 0.000000 1.625560 0.000000 
#    z 0.000000 0.000000 1.653410 
# 
# From -- ./inp_files/2554.got.cif
#   From: 2010.05.17/outbox.cif.g08.bks.cpg/sg28_2_cif.got.tgz:2554.got - 2010.06.04 01:15:21.
