data_PCOD9339953
_publ_section_title
;
Structure prediction by ZEFSAII (Michael W. Deem and Ramdas Pophale) SiO2 
 PCOD9339953
Probable space group: P M A 2
;
_chemical_formula_sum "Si O2"
_cell_formula_units_Z 22
_cell_length_a 15.435109
_cell_length_b 4.937796
_cell_length_c 11.727921
_cell_angle_alpha 90.000000
_cell_angle_beta 90.000000
_cell_angle_gamma 90.000000
_cell_volume 893.848419
_symmetry_space_group_name_H-M "P M A 2"
_symmetry_group_IT_number 28
_symmetry_cell_setting 'orthorhombic'
loop_
_space_group_symop_operation_xyz
x,y,z
-x,-y,z
1/2-x,y,z
1/2+x,-y,z
loop_
_atom_site_type_symbol
_atom_site_label
_atom_site_fract_x
_atom_site_fract_y
_atom_site_fract_z
Si Si1 0.847634 0.311855 0.220040
Si Si2 0.351488 0.063584 0.784265
Si Si3 0.842271 0.700517 0.427530
Si Si4 0.400000 0.573296 0.644500
Si Si5 0.942185 0.238526 0.995225
Si Si6 0.500000 0.000000 0.352477
O O1 0.750000 0.189865 0.224860
O O2 0.842169 0.574905 0.300419
O O3 0.930157 0.163003 0.276988
O O4 0.873753 0.345899 0.088459
O O5 0.250000 0.027839 0.802138
O O6 0.384073 0.879719 0.680365
O O7 0.399956 0.929779 0.891747
O O8 0.367426 0.372642 0.746193
O O9 0.750000 0.847639 0.443601
O O10 0.848968 0.483256 0.528166
O O11 0.933955 0.843643 0.432865
O O12 0.500000 0.500000 0.632457
O O13 0.000000 0.500000 0.961497
O O14 0.000000 0.000000 0.051101
#
# Coordination Sequence:
#
# PCOD9339953 Si02
#       6
#     4   4   4   4   4   2
#     4  11  25  45  70 104 145 192 244 303 368 441
#     4  12  26  46  72 106 146 192 247 309 369 437
#     4  11  26  45  70 105 143 190 240 302 371 440
#     4  12  26  47  72 106 144 195 246 302 371 444
#     4  12  25  47  73 106 145 193 248 302 370 440
#     4  12  22  44  68 104 138 184 242 294 366 440
#
# _framework density 24.612674999999999
#
# number of rings (size 3 to 8) (size 9 to 14) (size 15 to 20)
#    0.000    0.364    0.909    8.727    5.091    0.000 
#    0.000    1.818    0.000    0.000    0.000    0.000 
#    0.000    0.000    0.000    0.000    0.000    0.000 
#
# Total GULP energy -123023.307538 kJ/mol
# GULP energy per Si atom -5591.968524 kJ/mol
# Density = 2.455666 g / cm^3
# Si number density = 24.612675 Si / 1000 Ang^3
#
#
#
# Elastic Constant Matrix: (Units=GPa)
#
#
# Indices 1 2 3 4 5 6 
#
# 1 207.2450 25.2704 18.6246 0.0000 0.0000 0.0000
# 2 25.2704 60.7979 1.2457 0.0000 0.0000 0.0000
# 3 18.6246 1.2457 108.1362 0.0000 0.0000 0.0000
# 4 0.0000 0.0000 0.0000 26.4654 0.0000 0.0000
# 5 0.0000 0.0000 0.0000 0.0000 43.2530 0.0000
# 6 0.0000 0.0000 0.0000 0.0000 0.0000 56.1438
#
#
#
# Elastic Compliance Matrix: (Units=1/GPa)
#
#
# Indices 1 2 3 4 5 6 
#
# 1 0.005162 -0.002128 -0.000865 0.000000 0.000000 0.000000
# 2 -0.002128 0.017329 0.000167 0.000000 0.000000 0.000000
# 3 -0.000865 0.000167 0.009395 0.000000 0.000000 0.000000
# 4 0.000000 0.000000 0.000000 0.037785 0.000000 0.000000
# 5 0.000000 0.000000 0.000000 0.000000 0.023120 0.000000
# 6 0.000000 0.000000 0.000000 0.000000 0.000000 0.017811
#
#
# Mechanical properties :
#
#
# Convention : Reuss Voigt Hill
#
# Bulk Modulus (GPa) = 38.11773 51.82894 44.97334
# Shear Modulus (GPa) = 40.00045 47.24168 43.62107
#
# Velocity S-wave (km/s) = 4.03575 4.38585 4.21444
# Velocity P-wave (km/s) = 6.10221 6.83748 6.48028
#
# Compressibility (1/GPa) = 0.02623451
#
# Stress axis : x y z
#
# Youngs Moduli (GPa) = 193.70884 57.70672 106.44419
#
# Poissons Ratio (x) = 0.12280 0.09203
# Poissons Ratio (y) = 0.41221 -0.01776
# Poissons Ratio (z) = 0.16748 -0.00963
#
# Static dielectric constant tensor:
#      x y z
#    x 1.933340 0.000000 0.000000 
#    y 0.000000 2.001880 0.000000 
#    z 0.000000 0.000000 1.981720 
# 
# From -- ./inp_files/5472.got.cif
#   From: 2010.05.17/outbox.cif.g08.bks.cpg/sg28_3_cif.got.tgz:5472.got - 2010.06.04 01:15:21.
