data_PCOD9339604
_publ_section_title
;
Structure prediction by ZEFSAII (Michael W. Deem and Ramdas Pophale) SiO2 
 PCOD9339604
Probable space group: P M A 2
;
_chemical_formula_sum "Si O2"
_cell_formula_units_Z 24
_cell_length_a 8.579662
_cell_length_b 9.264587
_cell_length_c 16.602203
_cell_angle_alpha 90.000000
_cell_angle_beta 90.000000
_cell_angle_gamma 90.000000
_cell_volume 1319.659725
_symmetry_space_group_name_H-M "P M A 2"
_symmetry_group_IT_number 28
_symmetry_cell_setting 'orthorhombic'
loop_
_space_group_symop_operation_xyz
x,y,z
-x,-y,z
1/2-x,y,z
1/2+x,-y,z
loop_
_atom_site_type_symbol
_atom_site_label
_atom_site_fract_x
_atom_site_fract_y
_atom_site_fract_z
Si Si1 0.436845 0.834843 0.138830
Si Si2 0.062877 0.163463 0.796550
Si Si3 0.436207 0.164176 0.973956
Si Si4 0.438497 0.836661 0.488241
Si Si5 0.562984 0.338759 0.645078
Si Si6 0.438031 0.835805 0.312733
O O1 0.250000 0.839164 0.134675
O O2 0.485669 0.770753 0.225999
O O3 0.500000 0.000000 0.139867
O O4 0.499163 0.766763 0.056042
O O5 0.250000 0.159754 0.791602
O O6 0.020114 0.223551 0.885751
O O7 0.995490 0.255615 0.723924
O O8 0.000000 0.000000 0.790544
O O9 0.250000 0.159535 0.979509
O O10 0.500000 0.000000 0.972695
O O11 0.250000 0.841729 0.489649
O O12 0.491387 0.743572 0.564195
O O13 0.486924 0.775733 0.400024
O O14 0.500000 0.000000 0.495434
O O15 0.500000 0.500000 0.645212
O O16 0.750000 0.339780 0.645175
O O17 0.250000 0.839330 0.312129
O O18 0.500000 0.000000 0.313015
#
# Coordination Sequence:
#
# PCOD9339604 Si02
#       6
#     4   4   4   4   4   4
#     4   9  14  20  34  57  88 122 152 185 226 273
#     4  10  20  34  52  74 100 130 164 202 244 290
#     4   9  16  25  39  61  91 124 155 190 231 276
#     4   9  18  32  50  72  97 126 159 196 238 284
#     4  11  23  37  53  72  96 127 162 203 249 296
#     4   8  14  24  38  60  90 121 152 186 227 275
#
# _framework density 18.186506000000001
#
# number of rings (size 3 to 8) (size 9 to 14) (size 15 to 20)
#    0.000    2.667    0.000    3.500    0.000    5.333 
#    0.000    0.000    0.000    0.000    0.000    1.167 
#    0.000    5.333    0.000    0.000    0.000    0.000 
#
# Total GULP energy -133607.130950 kJ/mol
# GULP energy per Si atom -5566.963790 kJ/mol
# Density = 1.814511 g / cm^3
# Si number density = 18.186506 Si / 1000 Ang^3
#
#
#
# Elastic Constant Matrix: (Units=GPa)
#
#
# Indices 1 2 3 4 5 6 
#
# 1 38.8307 11.5961 47.7259 0.0000 0.0000 0.0000
# 2 11.5961 41.1135 59.9337 0.0000 0.0000 0.0000
# 3 47.7259 59.9337 253.9978 0.0000 0.0000 0.0000
# 4 0.0000 0.0000 0.0000 -4.9415 0.0000 0.0000
# 5 0.0000 0.0000 0.0000 0.0000 27.2476 0.0000
# 6 0.0000 0.0000 0.0000 0.0000 0.0000 14.3304
#
#
#
# Elastic Compliance Matrix: (Units=1/GPa)
#
#
# Indices 1 2 3 4 5 6 
#
# 1 0.033491 -0.000415 -0.006195 0.000000 0.000000 0.000000
# 2 -0.000415 0.037081 -0.008672 0.000000 0.000000 0.000000
# 3 -0.006195 -0.008672 0.007147 0.000000 0.000000 0.000000
# 4 0.000000 0.000000 0.000000 -0.202367 0.000000 0.000000
# 5 0.000000 0.000000 0.000000 0.000000 0.036700 0.000000
# 6 0.000000 0.000000 0.000000 0.000000 0.000000 0.069782
#
#
# Mechanical properties :
#
#
# Convention : Reuss Voigt Hill
#
# Bulk Modulus (GPa) = 21.20650 63.60594 42.40622
# Shear Modulus (GPa) = 177.82868 21.63972 99.73420
#
# Velocity S-wave (km/s) = 9.89913 3.45320 7.41342
# Velocity P-wave (km/s) = 11.93076 7.13790 9.83089
#
# Compressibility (1/GPa) = 0.04715536
#
# Stress axis : x y z
#
# Youngs Moduli (GPa) = 29.85887 26.96775 139.91417
#
# Poissons Ratio (x) = 0.01120 0.86675
# Poissons Ratio (y) = 0.01241 1.21329
# Poissons Ratio (z) = 0.18497 0.23386
#
# Static dielectric constant tensor:
#      x y z
#    x 1.615480 0.000000 0.000000 
#    y 0.000000 1.572050 0.000000 
#    z 0.000000 0.000000 1.727440 
# 
# From -- ./inp_files/6676.got.cif
#   From: 2010.05.17/outbox.cif.g08.bks.cpg/sg28_4_cif.got.tgz:6676.got - 2010.06.04 01:15:21.
