data_PCOD9339154
_publ_section_title
;
Structure prediction by ZEFSAII (Michael W. Deem and Ramdas Pophale) SiO2 
 PCOD9339154
Probable space group: P C C 2
;
_chemical_formula_sum "Si O2"
_cell_formula_units_Z 32
_cell_length_a 17.031885
_cell_length_b 5.349177
_cell_length_c 16.702786
_cell_angle_alpha 90.000000
_cell_angle_beta 90.000000
_cell_angle_gamma 90.000000
_cell_volume 1521.733500
_symmetry_space_group_name_H-M "P C C 2"
_symmetry_group_IT_number 27
_symmetry_cell_setting 'orthorhombic'
loop_
_space_group_symop_operation_xyz
x,y,z
-x,-y,z
-x,y,1/2+z
x,-y,1/2+z
loop_
_atom_site_type_symbol
_atom_site_label
_atom_site_fract_x
_atom_site_fract_y
_atom_site_fract_z
Si Si1 0.285771 0.689014 0.930630
Si Si2 0.707167 0.188990 0.327373
Si Si3 0.420516 0.367019 0.711800
Si Si4 0.311777 0.261976 0.124443
Si Si5 0.167554 0.438804 0.554320
Si Si6 0.419758 0.901553 0.040514
Si Si7 0.049410 0.254464 0.138388
Si Si8 0.818851 0.066828 0.196730
O O1 0.293608 0.425547 0.886229
O O2 0.288962 0.924370 0.871485
O O3 0.200558 0.693846 0.975459
O O4 0.360463 0.732852 0.989569
O O5 0.626327 0.202762 0.275904
O O6 0.787941 0.206324 0.275012
O O7 0.500000 0.500000 0.740165
O O8 0.357617 0.578832 0.688993
O O9 0.437448 0.227365 0.627040
O O10 0.245897 0.419189 0.080958
O O11 0.371207 0.147982 0.061909
O O12 0.263238 0.042505 0.165097
O O13 0.096700 0.637466 0.560600
O O14 0.151961 0.245842 0.626019
O O15 0.500000 0.000000 0.001981
O O16 0.000000 0.500000 0.166375
O O17 0.117243 0.156105 0.199933
O O18 0.000000 0.000000 0.122840
#
# Coordination Sequence:
#
# PCOD9339154 Si02
#       8
#     4   4   4   4   4   4   4   4
#     4  12  27  43  65  98 142 183 231 283 340 406
#     4  12  27  43  65  98 142 183 231 283 340 406
#     4  12  24  39  66  93 130 184 239 299 352 399
#     4  11  18  38  66  95 122 166 242 291 328 388
#     4  11  22  41  74  97 132 178 230 277 326 411
#     4  12  24  39  66  93 130 184 239 299 352 399
#     4  11  24  40  72 117 136 158 212 295 342 390
#     4  11  22  41  74  97 132 178 230 277 326 411
#
# _framework density 21.028649000000001
#
# number of rings (size 3 to 8) (size 9 to 14) (size 15 to 20)
#    0.000    0.500    7.500    1.500    3.500    1.000 
#    0.000    0.000    0.000    4.500    0.000    0.000 
#    0.000    0.000    0.000    0.000    0.000    0.000 
#
# Total GULP energy -178560.919154 kJ/mol
# GULP energy per Si atom -5580.028724 kJ/mol
# Density = 2.098079 g / cm^3
# Si number density = 21.028649 Si / 1000 Ang^3
#
#
#
# Elastic Constant Matrix: (Units=GPa)
#
#
# Indices 1 2 3 4 5 6 
#
# 1 84.5645 22.4083 22.2296 0.0000 0.0000 0.0000
# 2 22.4083 94.5007 25.1601 0.0000 0.0000 0.0000
# 3 22.2296 25.1601 65.0254 0.0000 0.0000 0.0000
# 4 0.0000 0.0000 0.0000 45.1955 0.0000 0.0000
# 5 0.0000 0.0000 0.0000 0.0000 1.1771 0.0000
# 6 0.0000 0.0000 0.0000 0.0000 0.0000 63.0944
#
#
#
# Elastic Compliance Matrix: (Units=1/GPa)
#
#
# Indices 1 2 3 4 5 6 
#
# 1 0.013384 -0.002180 -0.003732 0.000000 0.000000 0.000000
# 2 -0.002180 0.012152 -0.003957 0.000000 0.000000 0.000000
# 3 -0.003732 -0.003957 0.018185 0.000000 0.000000 0.000000
# 4 0.000000 0.000000 0.000000 0.022126 0.000000 0.000000
# 5 0.000000 0.000000 0.000000 0.000000 0.849554 0.000000
# 6 0.000000 0.000000 0.000000 0.000000 0.000000 0.015849
#
#
# Mechanical properties :
#
#
# Convention : Reuss Voigt Hill
#
# Bulk Modulus (GPa) = 41.69419 42.63185 42.16302
# Shear Modulus (GPa) = 5.21386 33.51290 19.36338
#
# Velocity S-wave (km/s) = 1.57632 3.99642 3.03778
# Velocity P-wave (km/s) = 4.81492 6.45077 5.69192
#
# Compressibility (1/GPa) = 0.02398416
#
# Stress axis : x y z
#
# Youngs Moduli (GPa) = 74.71612 82.28866 54.98917
#
# Poissons Ratio (x) = 0.17939 0.20522
# Poissons Ratio (y) = 0.16289 0.21758
# Poissons Ratio (z) = 0.27883 0.32560
#
# Static dielectric constant tensor:
#      x y z
#    x 1.775960 0.000000 0.000000 
#    y 0.000000 1.819030 0.000000 
#    z 0.000000 0.000000 1.869850 
# 
# From -- ./inp_files/3778.got.cif
#   From: 2010.05.17/outbox.cif.g08.bks.cpg/sg27_2_cif.got.tgz:3778.got - 2010.06.04 01:11:05.
