data_PCOD9339266
_publ_section_title
;
Structure prediction by ZEFSAII (Michael W. Deem and Ramdas Pophale) SiO2 
 PCOD9339266
Probable space group: P M A 2
;
_chemical_formula_sum "Si O2"
_cell_formula_units_Z 24
_cell_length_a 8.587548
_cell_length_b 9.581933
_cell_length_c 16.267758
_cell_angle_alpha 90.000000
_cell_angle_beta 90.000000
_cell_angle_gamma 90.000000
_cell_volume 1338.597503
_symmetry_space_group_name_H-M "P M A 2"
_symmetry_group_IT_number 28
_symmetry_cell_setting 'orthorhombic'
loop_
_space_group_symop_operation_xyz
x,y,z
-x,-y,z
1/2-x,y,z
1/2+x,-y,z
loop_
_atom_site_type_symbol
_atom_site_label
_atom_site_fract_x
_atom_site_fract_y
_atom_site_fract_z
Si Si1 0.435694 0.340768 0.631940
Si Si2 0.436858 0.659047 0.800820
Si Si3 0.063649 0.157591 0.311316
Si Si4 0.063873 0.658133 0.459948
Si Si5 0.562292 0.156772 0.135272
Si Si6 0.437583 0.657106 0.981321
O O1 0.500000 0.500000 0.633172
O O2 0.250000 0.343835 0.628995
O O3 0.492324 0.275618 0.718086
O O4 0.503114 0.281312 0.547130
O O5 0.500000 0.500000 0.803560
O O6 0.250000 0.656660 0.793041
O O7 0.480806 0.716679 0.890890
O O8 0.250000 0.155744 0.312369
O O9 0.998632 0.251982 0.384381
O O10 0.003977 0.209101 0.222334
O O11 0.000000 0.000000 0.320533
O O12 0.250000 0.654465 0.460657
O O13 0.000000 0.500000 0.452821
O O14 0.750000 0.154552 0.139498
O O15 0.511664 0.249963 0.058060
O O16 0.500000 0.000000 0.124536
O O17 0.500000 0.500000 0.988706
O O18 0.250000 0.650598 0.982611
#
# Coordination Sequence:
#
# PCOD9339266 Si02
#       6
#     4   4   4   4   4   4
#     4  10  17  27  44  70 101 134 168 206 249 301
#     4   9  15  26  43  67  97 131 165 203 248 298
#     4  11  22  38  57  78 102 135 173 212 256 310
#     4  11  21  35  54  79 107 137 171 214 259 304
#     4  10  20  36  54  75 100 133 172 211 252 304
#     4   9  19  32  50  75 104 132 167 210 254 299
#
# _framework density 17.929214000000002
#
# number of rings (size 3 to 8) (size 9 to 14) (size 15 to 20)
#    0.000    2.000    0.000    8.500    0.000    2.667 
#    0.000    1.667    0.000    1.000    0.000    4.667 
#    0.000    0.000    0.000    0.000    0.000    0.000 
#
# Total GULP energy -133853.703521 kJ/mol
# GULP energy per Si atom -5577.237647 kJ/mol
# Density = 1.788841 g / cm^3
# Si number density = 17.929214 Si / 1000 Ang^3
#
#
#
# Elastic Constant Matrix: (Units=GPa)
#
#
# Indices 1 2 3 4 5 6 
#
# 1 135.9724 22.8194 74.3683 0.0000 0.0000 0.0000
# 2 22.8194 31.7728 64.1874 0.0000 0.0000 0.0000
# 3 74.3683 64.1874 233.2834 0.0000 0.0000 0.0000
# 4 0.0000 0.0000 0.0000 -19.2701 0.0000 0.0000
# 5 0.0000 0.0000 0.0000 0.0000 19.2728 0.0000
# 6 0.0000 0.0000 0.0000 0.0000 0.0000 17.5182
#
#
#
# Elastic Compliance Matrix: (Units=1/GPa)
#
#
# Indices 1 2 3 4 5 6 
#
# 1 0.008939 -0.001493 -0.002439 0.000000 0.000000 0.000000
# 2 -0.001493 0.071112 -0.019090 0.000000 0.000000 0.000000
# 3 -0.002439 -0.019090 0.010317 0.000000 0.000000 0.000000
# 4 0.000000 0.000000 0.000000 -0.051894 0.000000 0.000000
# 5 0.000000 0.000000 0.000000 0.000000 0.051887 0.000000
# 6 0.000000 0.000000 0.000000 0.000000 0.000000 0.057084
#
#
# Mechanical properties :
#
#
# Convention : Reuss Voigt Hill
#
# Bulk Modulus (GPa) = 22.56147 80.41988 51.49068
# Shear Modulus (GPa) = 24.00803 19.48105 21.74454
#
# Velocity S-wave (km/s) = 3.66327 3.29987 3.48631
# Velocity P-wave (km/s) = 5.52301 7.71170 6.70723
#
# Compressibility (1/GPa) = 0.04432334
#
# Stress axis : x y z
#
# Youngs Moduli (GPa) = 111.87087 14.06226 96.92942
#
# Poissons Ratio (x) = 0.02100 0.23639
# Poissons Ratio (y) = 0.16704 1.85042
# Poissons Ratio (z) = 0.27283 0.26845
#
# Static dielectric constant tensor:
#      x y z
#    x 1.598590 0.000000 0.000000 
#    y 0.000000 1.584540 0.000000 
#    z 0.000000 0.000000 1.676650 
# 
# From -- ./inp_files/6668.got.cif
#   From: 2010.05.17/outbox.cif.g08.bks.cpg/sg28_4_cif.got.tgz:6668.got - 2010.06.04 01:15:21.
