data_PCOD9339114
_publ_section_title
;
Structure prediction by ZEFSAII (Michael W. Deem and Ramdas Pophale) SiO2 
 PCOD9339114
Probable space group: P C C 2
;
_chemical_formula_sum "Si O2"
_cell_formula_units_Z 18
_cell_length_a 4.839267
_cell_length_b 9.583341
_cell_length_c 15.472469
_cell_angle_alpha 90.000000
_cell_angle_beta 90.000000
_cell_angle_gamma 90.000000
_cell_volume 717.556574
_symmetry_space_group_name_H-M "P C C 2"
_symmetry_group_IT_number 27
_symmetry_cell_setting 'orthorhombic'
loop_
_space_group_symop_operation_xyz
x,y,z
-x,-y,z
-x,y,1/2+z
x,-y,1/2+z
loop_
_atom_site_type_symbol
_atom_site_label
_atom_site_fract_x
_atom_site_fract_y
_atom_site_fract_z
Si Si1 0.280429 0.594995 0.536100
Si Si2 0.500000 0.000000 0.785423
Si Si3 0.895960 0.135809 0.431583
Si Si4 0.587258 0.289765 0.205402
Si Si5 0.112708 0.645205 0.812997
O O1 0.500000 0.500000 0.484652
O O2 0.227938 0.742503 0.489768
O O3 0.466502 0.643677 0.618687
O O4 0.000000 0.500000 0.551326
O O5 0.281811 0.065281 0.854471
O O6 0.513193 0.130663 0.719256
O O7 0.116598 0.227763 0.379465
O O8 0.000000 0.000000 0.482867
O O9 0.906871 0.313992 0.232034
O O10 0.417175 0.365570 0.279610
O O11 0.000000 0.500000 0.848996
#
# Coordination Sequence:
#
# PCOD9339114 Si02
#       5
#     4   2   4   4   4
#     4  12  28  48  71 105 145 190 235 293 363 430
#     4  10  24  44  74 104 136 186 234 296 348 416
#     4  11  25  46  70 104 148 183 240 287 365 426
#     4  11  23  44  70 100 139 176 238 284 350 413
#     4  11  22  41  73  99 134 182 234 288 339 412
#
# _framework density 25.085132999999999
#
# number of rings (size 3 to 8) (size 9 to 14) (size 15 to 20)
#    0.000    0.889    2.222    4.667    3.111    4.444 
#    8.000    0.000    0.000    0.000    0.000    0.000 
#    0.000    0.000    0.000    0.000    0.000    0.000 
#
# Total GULP energy -100394.010218 kJ/mol
# GULP energy per Si atom -5577.445012 kJ/mol
# Density = 2.502804 g / cm^3
# Si number density = 25.085133 Si / 1000 Ang^3
#
#
#
# Elastic Constant Matrix: (Units=GPa)
#
#
# Indices 1 2 3 4 5 6 
#
# 1 77.2340 39.4734 -2.8723 0.0000 0.0000 0.0000
# 2 39.4734 285.5931 40.7202 0.0000 0.0000 0.0000
# 3 -2.8723 40.7202 65.5083 0.0000 0.0000 0.0000
# 4 0.0000 0.0000 0.0000 40.3264 0.0000 0.0000
# 5 0.0000 0.0000 0.0000 0.0000 12.7370 0.0000
# 6 0.0000 0.0000 0.0000 0.0000 0.0000 42.9225
#
#
#
# Elastic Compliance Matrix: (Units=1/GPa)
#
#
# Indices 1 2 3 4 5 6 
#
# 1 0.014171 -0.002246 0.002018 0.000000 0.000000 0.000000
# 2 -0.002246 0.004198 -0.002708 0.000000 0.000000 0.000000
# 3 0.002018 -0.002708 0.017037 0.000000 0.000000 0.000000
# 4 0.000000 0.000000 0.000000 0.024798 0.000000 0.000000
# 5 0.000000 0.000000 0.000000 0.000000 0.078512 0.000000
# 6 0.000000 0.000000 0.000000 0.000000 0.000000 0.023298
#
#
# Mechanical properties :
#
#
# Convention : Reuss Voigt Hill
#
# Bulk Modulus (GPa) = 33.86101 64.77534 49.31817
# Shear Modulus (GPa) = 28.13251 42.59813 35.36532
#
# Velocity S-wave (km/s) = 3.35249 4.12532 3.75882
# Velocity P-wave (km/s) = 5.33978 6.96917 6.20816
#
# Compressibility (1/GPa) = 0.02953249
#
# Stress axis : x y z
#
# Youngs Moduli (GPa) = 70.56785 238.20453 58.69571
#
# Poissons Ratio (x) = 0.53508 -0.11843
# Poissons Ratio (y) = 0.15852 0.15895
# Poissons Ratio (z) = -0.14238 0.64506
#
# Static dielectric constant tensor:
#      x y z
#    x 2.067700 0.000000 0.000000 
#    y 0.000000 2.011340 0.000000 
#    z 0.000000 0.000000 2.066360 
# 
# From -- ./inp_files/3897.got.cif
#   From: 2010.05.17/outbox.cif.g08.bks.cpg/sg27_2_cif.got.tgz:3897.got - 2010.06.04 01:11:05.
