data_PCOD9339914
_publ_section_title
;
Structure prediction by ZEFSAII (Michael W. Deem and Ramdas Pophale) SiO2 
 PCOD9339914
Probable space group: P M A 2
;
_chemical_formula_sum "Si O2"
_cell_formula_units_Z 28
_cell_length_a 20.912609
_cell_length_b 11.806147
_cell_length_c 5.043286
_cell_angle_alpha 90.000000
_cell_angle_beta 90.000000
_cell_angle_gamma 90.000000
_cell_volume 1245.173878
_symmetry_space_group_name_H-M "P M A 2"
_symmetry_group_IT_number 28
_symmetry_cell_setting 'orthorhombic'
loop_
_space_group_symop_operation_xyz
x,y,z
-x,-y,z
1/2-x,y,z
1/2+x,-y,z
loop_
_atom_site_type_symbol
_atom_site_label
_atom_site_fract_x
_atom_site_fract_y
_atom_site_fract_z
Si Si1 0.960650 0.765477 0.816430
Si Si2 0.180850 0.102767 0.396116
Si Si3 0.572946 0.987668 0.026367
Si Si4 0.321456 0.886230 0.772288
Si Si5 0.892138 0.680239 0.337708
Si Si6 0.074373 0.544373 0.095632
Si Si7 0.594348 0.304731 0.602067
O O1 0.936050 0.894608 0.791572
O O2 0.926960 0.677567 0.620046
O O3 0.032492 0.760733 0.717307
O O4 0.940817 0.733629 0.115709
O O5 0.250000 0.089264 0.259145
O O6 0.167506 0.237762 0.409069
O O7 0.183199 0.009725 0.630474
O O8 0.119459 0.067259 0.235619
O O9 0.500000 0.000000 0.121305
O O10 0.617105 0.095125 0.960106
O O11 0.250000 0.862668 0.879184
O O12 0.345684 0.781134 0.594401
O O13 0.882693 0.557344 0.213516
O O14 0.077893 0.642080 0.318348
O O15 0.000000 0.500000 0.069826
O O16 0.099983 0.594821 0.819999
#
# Coordination Sequence:
#
# PCOD9339914 Si02
#       7
#     4   4   4   4   4   4   4
#     4  11  20  36  62 100 130 161 218 282 339 391
#     4  10  24  44  66  94 132 182 227 280 348 415
#     4  11  22  37  66 100 133 170 224 286 346 406
#     4  11  25  44  65  94 141 189 227 277 350 436
#     4  11  22  39  65  97 129 170 226 282 336 399
#     4  12  23  40  68 100 137 174 228 290 350 398
#     4  12  24  40  65 102 137 182 222 281 349 420
#
# _framework density 22.486820000000002
#
# number of rings (size 3 to 8) (size 9 to 14) (size 15 to 20)
#    0.000    0.857    5.714    1.714    2.000    2.857 
#    0.000    1.429    0.000    0.000    0.000    0.000 
#    0.000    0.000    0.000    0.000    0.000    0.000 
#
# Total GULP energy -155872.928915 kJ/mol
# GULP energy per Si atom -5566.890318 kJ/mol
# Density = 2.243564 g / cm^3
# Si number density = 22.486820 Si / 1000 Ang^3
#
#
#
# Elastic Constant Matrix: (Units=GPa)
#
#
# Indices 1 2 3 4 5 6 
#
# 1 144.6628 41.1324 4.9611 0.0000 0.0000 0.0000
# 2 41.1324 61.9489 8.2791 0.0000 0.0000 0.0000
# 3 4.9611 8.2791 53.2007 0.0000 0.0000 0.0000
# 4 0.0000 0.0000 0.0000 28.7924 0.0000 0.0000
# 5 0.0000 0.0000 0.0000 0.0000 17.7792 0.0000
# 6 0.0000 0.0000 0.0000 0.0000 0.0000 16.1672
#
#
#
# Elastic Compliance Matrix: (Units=1/GPa)
#
#
# Indices 1 2 3 4 5 6 
#
# 1 0.008522 -0.005670 0.000088 0.000000 0.000000 0.000000
# 2 -0.005670 0.020258 -0.002624 0.000000 0.000000 0.000000
# 3 0.000088 -0.002624 0.019197 0.000000 0.000000 0.000000
# 4 0.000000 0.000000 0.000000 0.034731 0.000000 0.000000
# 5 0.000000 0.000000 0.000000 0.000000 0.056245 0.000000
# 6 0.000000 0.000000 0.000000 0.000000 0.000000 0.061854
#
#
# Mechanical properties :
#
#
# Convention : Reuss Voigt Hill
#
# Bulk Modulus (GPa) = 31.68140 40.95085 36.31613
# Shear Modulus (GPa) = 21.95482 26.24374 24.09928
#
# Velocity S-wave (km/s) = 3.12804 3.41995 3.27724
# Velocity P-wave (km/s) = 5.21206 5.81767 5.52318
#
# Compressibility (1/GPa) = 0.03156426
#
# Stress axis : x y z
#
# Youngs Moduli (GPa) = 117.34644 49.36397 52.09180
#
# Poissons Ratio (x) = 0.27989 -0.00457
# Poissons Ratio (y) = 0.66535 0.13668
# Poissons Ratio (z) = -0.01029 0.12952
#
# Static dielectric constant tensor:
#      x y z
#    x 1.858780 0.000000 0.000000 
#    y 0.000000 2.039260 0.000000 
#    z 0.000000 0.000000 1.876480 
# 
# From -- ./inp_files/1388.got.cif
#   From: 2010.05.17/outbox.cif.g08.bks.cpg/sg28_1_cif.got.tgz:1388.got - 2010.06.04 01:15:21.
