data_PCOD9339025
_publ_section_title
;
Structure prediction by ZEFSAII (Michael W. Deem and Ramdas Pophale) SiO2 
 PCOD9339025
Probable space group: P C C 2
;
_chemical_formula_sum "Si O2"
_cell_formula_units_Z 30
_cell_length_a 5.189758
_cell_length_b 12.343711
_cell_length_c 19.471654
_cell_angle_alpha 90.000000
_cell_angle_beta 90.000000
_cell_angle_gamma 90.000000
_cell_volume 1247.371152
_symmetry_space_group_name_H-M "P C C 2"
_symmetry_group_IT_number 27
_symmetry_cell_setting 'orthorhombic'
loop_
_space_group_symop_operation_xyz
x,y,z
-x,-y,z
-x,y,1/2+z
x,-y,1/2+z
loop_
_atom_site_type_symbol
_atom_site_label
_atom_site_fract_x
_atom_site_fract_y
_atom_site_fract_z
Si Si1 0.500000 0.000000 0.226871
Si Si2 0.619154 0.193906 0.474624
Si Si3 0.242368 0.430066 0.920260
Si Si4 0.891131 0.378762 0.639539
Si Si5 0.527853 0.784960 0.674244
Si Si6 0.104508 0.805303 0.058245
Si Si7 0.115675 0.309336 0.783579
Si Si8 0.159157 0.096662 0.845252
O O1 0.376796 0.103820 0.188209
O O2 0.713134 0.048740 0.277453
O O3 0.700039 0.318140 0.459497
O O4 0.335978 0.184572 0.504951
O O5 0.638200 0.135618 0.401611
O O6 0.840204 0.149042 0.526673
O O7 0.500000 0.500000 0.922506
O O8 0.177336 0.395932 0.841692
O O9 0.000000 0.500000 0.946060
O O10 0.614240 0.314411 0.634737
O O11 0.000000 0.500000 0.634097
O O12 0.045235 0.317864 0.579953
O O13 0.953061 0.349330 0.719065
O O14 0.767823 0.836480 0.631250
O O15 0.626867 0.732236 0.744866
O O16 0.003807 0.204175 0.822658
O O17 0.000000 0.000000 0.877572
#
# Coordination Sequence:
#
# PCOD9339025 Si02
#       8
#     2   4   4   4   4   4   4   4
#     4  10  22  44  76 106 136 178 232 294 376 436
#     4  11  25  46  68  95 140 179 239 286 338 420
#     4  11  24  41  64  98 130 179 226 279 352 409
#     4  11  23  40  69 103 140 188 239 289 359 423
#     4  10  22  44  68 103 138 181 230 291 361 423
#     4  11  24  47  66  96 139 185 231 290 339 416
#     4   9  22  37  65  98 140 169 220 295 348 429
#     4  10  22  42  69 101 133 179 226 291 362 423
#
# _framework density 24.050578000000002
#
# number of rings (size 3 to 8) (size 9 to 14) (size 15 to 20)
#    0.000    1.600    1.333    2.000    5.600    3.200 
#    4.800    0.000    0.000    0.000    0.000    0.000 
#    0.000    0.000    0.000    0.000    0.000    0.000 
#
# Total GULP energy -167300.191495 kJ/mol
# GULP energy per Si atom -5576.673050 kJ/mol
# Density = 2.399584 g / cm^3
# Si number density = 24.050578 Si / 1000 Ang^3
#
#
#
# Elastic Constant Matrix: (Units=GPa)
#
#
# Indices 1 2 3 4 5 6 
#
# 1 86.3475 16.4602 10.3353 0.0000 0.0000 0.0000
# 2 16.4602 69.2659 0.1309 0.0000 0.0000 0.0000
# 3 10.3353 0.1309 85.1157 0.0000 0.0000 0.0000
# 4 0.0000 0.0000 0.0000 -19.8799 0.0000 0.0000
# 5 0.0000 0.0000 0.0000 0.0000 32.6352 0.0000
# 6 0.0000 0.0000 0.0000 0.0000 0.0000 17.9608
#
#
#
# Elastic Compliance Matrix: (Units=1/GPa)
#
#
# Indices 1 2 3 4 5 6 
#
# 1 0.012317 -0.002924 -0.001491 0.000000 0.000000 0.000000
# 2 -0.002924 0.015131 0.000332 0.000000 0.000000 0.000000
# 3 -0.001491 0.000332 0.011929 0.000000 0.000000 0.000000
# 4 0.000000 0.000000 0.000000 -0.050302 0.000000 0.000000
# 5 0.000000 0.000000 0.000000 0.000000 0.030642 0.000000
# 6 0.000000 0.000000 0.000000 0.000000 0.000000 0.055677
#
#
# Mechanical properties :
#
#
# Convention : Reuss Voigt Hill
#
# Bulk Modulus (GPa) = 32.04030 32.73133 32.38581
# Shear Modulus (GPa) = 53.21151 20.39674 36.80412
#
# Velocity S-wave (km/s) = 4.70881 2.91534 3.91612
# Velocity P-wave (km/s) = 6.55094 4.99711 5.82606
#
# Compressibility (1/GPa) = 0.03121069
#
# Stress axis : x y z
#
# Youngs Moduli (GPa) = 81.18851 66.08776 83.82751
#
# Poissons Ratio (x) = 0.19325 0.12500
# Poissons Ratio (y) = 0.23741 -0.02781
# Poissons Ratio (z) = 0.12106 -0.02193
#
# Static dielectric constant tensor:
#      x y z
#    x 2.082720 0.000000 0.000000 
#    y 0.000000 1.994750 0.000000 
#    z 0.000000 0.000000 1.951350 
# 
# From -- ./inp_files/4709.got.cif
#   From: 2010.05.17/outbox.cif.g08.bks.cpg/sg27_3_cif.got.tgz:4709.got - 2010.06.04 01:11:05.
