data_PCOD9339232
_publ_section_title
;
Structure prediction by ZEFSAII (Michael W. Deem and Ramdas Pophale) SiO2 
 PCOD9339232
Probable space group: P M A 2
;
_chemical_formula_sum "Si O2"
_cell_formula_units_Z 32
_cell_length_a 8.509402
_cell_length_b 8.928012
_cell_length_c 22.319707
_cell_angle_alpha 90.000000
_cell_angle_beta 90.000000
_cell_angle_gamma 90.000000
_cell_volume 1695.673744
_symmetry_space_group_name_H-M "P M A 2"
_symmetry_group_IT_number 28
_symmetry_cell_setting 'orthorhombic'
loop_
_space_group_symop_operation_xyz
x,y,z
-x,-y,z
1/2-x,y,z
1/2+x,-y,z
loop_
_atom_site_type_symbol
_atom_site_label
_atom_site_fract_x
_atom_site_fract_y
_atom_site_fract_z
Si Si1 0.560067 0.830164 0.593200
Si Si2 0.938975 0.667536 0.472139
Si Si3 0.060009 0.171728 0.723034
Si Si4 0.563186 0.171900 0.105404
Si Si5 0.562851 0.169620 0.354218
Si Si6 0.937042 0.828214 0.229494
Si Si7 0.439903 0.171746 0.851787
Si Si8 0.938850 0.827854 0.981354
O O1 0.750000 0.831814 0.592520
O O2 0.506498 0.744266 0.534082
O O3 0.509529 0.764875 0.658296
O O4 0.500000 0.000000 0.589887
O O5 0.750000 0.672458 0.470320
O O6 0.000000 0.500000 0.471841
O O7 0.004447 0.748514 0.413455
O O8 0.250000 0.170454 0.723254
O O9 0.008541 0.238553 0.787424
O O10 0.000000 0.000000 0.722858
O O11 0.750000 0.167602 0.107291
O O12 0.498561 0.240432 0.167214
O O13 0.506542 0.240888 0.042459
O O14 0.500000 0.000000 0.104608
O O15 0.750000 0.167711 0.351604
O O16 0.498159 0.238471 0.291985
O O17 0.500000 0.000000 0.357658
O O18 0.750000 0.831428 0.229158
O O19 0.000000 0.000000 0.229854
O O20 0.250000 0.168738 0.852113
O O21 0.500000 0.000000 0.851483
O O22 0.487507 0.238326 0.916423
O O23 0.750000 0.829675 0.985581
O O24 0.000000 0.000000 0.979839
#
# Coordination Sequence:
#
# PCOD9339232 Si02
#       8
#     4   4   4   4   4   4   4   4
#     4   9  18  31  50  72  95 121 156 195 236 282
#     4  11  23  38  53  73  98 128 160 196 241 290
#     4   8  13  23  37  56  79 106 139 181 224 266
#     4  10  16  22  31  46  70 103 141 181 221 265
#     4  11  21  35  54  76  99 126 159 198 238 285
#     4  10  17  27  42  61  84 111 145 188 230 272
#     4   8  13  19  29  44  67  98 135 174 215 259
#     4   9  14  19  26  40  63  97 137 175 213 259
#
# _framework density 18.871555000000001
#
# number of rings (size 3 to 8) (size 9 to 14) (size 15 to 20)
#    0.000    2.500    0.000    6.750    0.000    2.500 
#    0.000    0.000    0.000    0.000    0.000    0.000 
#    0.000    0.000    0.000    1.125    0.000   17.750 
#
# Total GULP energy -178166.741895 kJ/mol
# GULP energy per Si atom -5567.710684 kJ/mol
# Density = 1.882860 g / cm^3
# Si number density = 18.871555 Si / 1000 Ang^3
#
#
#
# Elastic Constant Matrix: (Units=GPa)
#
#
# Indices 1 2 3 4 5 6 
#
# 1 95.3531 6.9707 58.6756 0.0000 0.0000 0.0000
# 2 6.9707 17.1300 38.4957 0.0000 0.0000 0.0000
# 3 58.6756 38.4957 270.3070 0.0000 0.0000 0.0000
# 4 0.0000 0.0000 0.0000 -5.0030 0.0000 0.0000
# 5 0.0000 0.0000 0.0000 0.0000 27.7354 0.0000
# 6 0.0000 0.0000 0.0000 0.0000 0.0000 9.5650
#
#
#
# Elastic Compliance Matrix: (Units=1/GPa)
#
#
# Indices 1 2 3 4 5 6 
#
# 1 0.012128 0.001443 -0.002838 0.000000 0.000000 0.000000
# 2 0.001443 0.086026 -0.012565 0.000000 0.000000 0.000000
# 3 -0.002838 -0.012565 0.006105 0.000000 0.000000 0.000000
# 4 0.000000 0.000000 0.000000 -0.199878 0.000000 0.000000
# 5 0.000000 0.000000 0.000000 0.000000 0.036055 0.000000
# 6 0.000000 0.000000 0.000000 0.000000 0.000000 0.104548
#
#
# Mechanical properties :
#
#
# Convention : Reuss Voigt Hill
#
# Bulk Modulus (GPa) = 13.09939 65.67488 39.38714
# Shear Modulus (GPa) = 50.83889 25.03603 37.93746
#
# Velocity S-wave (km/s) = 5.19595 3.64628 4.48850
# Velocity P-wave (km/s) = 6.55390 7.25284 6.91221
#
# Compressibility (1/GPa) = 0.07633941
#
# Stress axis : x y z
#
# Youngs Moduli (GPa) = 82.45154 11.62439 163.80135
#
# Poissons Ratio (x) = -0.01677 0.46490
# Poissons Ratio (y) = -0.11896 2.05809
# Poissons Ratio (z) = 0.23401 0.14606
#
# Static dielectric constant tensor:
#      x y z
#    x 1.611740 0.000000 0.000000 
#    y 0.000000 1.579130 0.000000 
#    z 0.000000 0.000000 1.779420 
# 
# From -- ./inp_files/7218.got.cif
#   From: 2010.05.17/outbox.cif.g08.bks.cpg/sg28_4_cif.got.tgz:7218.got - 2010.06.04 01:15:21.
