data_PCOD9339519
_publ_section_title
;
Structure prediction by ZEFSAII (Michael W. Deem and Ramdas Pophale) SiO2 
 PCOD9339519
Probable space group: P M A 2
;
_chemical_formula_sum "Si O2"
_cell_formula_units_Z 28
_cell_length_a 8.634724
_cell_length_b 9.168613
_cell_length_c 18.909641
_cell_angle_alpha 90.000000
_cell_angle_beta 90.000000
_cell_angle_gamma 90.000000
_cell_volume 1497.046830
_symmetry_space_group_name_H-M "P M A 2"
_symmetry_group_IT_number 28
_symmetry_cell_setting 'orthorhombic'
loop_
_space_group_symop_operation_xyz
x,y,z
-x,-y,z
1/2-x,y,z
1/2+x,-y,z
loop_
_atom_site_type_symbol
_atom_site_label
_atom_site_fract_x
_atom_site_fract_y
_atom_site_fract_z
Si Si1 0.565350 0.335081 0.600980
Si Si2 0.435822 0.336870 0.324237
Si Si3 0.936719 0.665559 0.055805
Si Si4 0.563608 0.666229 0.747884
Si Si5 0.935777 0.837169 0.466955
Si Si6 0.063672 0.335115 0.900646
Si Si7 0.934852 0.162959 0.189954
O O1 0.500000 0.500000 0.594712
O O2 0.750000 0.341753 0.601430
O O3 0.506333 0.270694 0.675938
O O4 0.505132 0.242247 0.535319
O O5 0.500000 0.500000 0.327124
O O6 0.250000 0.339950 0.318131
O O7 0.477183 0.251999 0.396184
O O8 0.504914 0.254220 0.256859
O O9 0.750000 0.662226 0.060823
O O10 0.000000 0.500000 0.061438
O O11 0.005150 0.760679 0.118633
O O12 0.981591 0.725737 0.977488
O O13 0.500000 0.500000 0.749557
O O14 0.750000 0.663745 0.742249
O O15 0.518085 0.732105 0.824601
O O16 0.750000 0.840062 0.472758
O O17 0.000000 0.000000 0.461625
O O18 0.250000 0.341917 0.900060
O O19 0.000000 0.500000 0.900683
O O20 0.750000 0.160196 0.190198
O O21 0.000000 0.000000 0.194426
#
# Coordination Sequence:
#
# PCOD9339519 Si02
#       7
#     4   4   4   4   4   4   4
#     4  11  21  34  54  81 113 149 189 233 280 329
#     4  11  24  42  65  91 117 146 182 225 272 323
#     4  10  19  34  55  82 114 148 188 232 279 329
#     4   9  15  26  45  73 107 142 182 229 280 329
#     4  11  24  41  61  85 114 148 185 226 275 330
#     4   8  15  26  45  73 106 142 180 227 278 327
#     4  12  25  41  60  83 113 149 187 228 277 331
#
# _framework density 18.703489999999999
#
# number of rings (size 3 to 8) (size 9 to 14) (size 15 to 20)
#    0.000    1.714    0.000    6.429    0.000    5.714 
#    0.000    0.000    0.000    0.857    0.000    4.000 
#    0.000    0.000    0.000    0.000    0.000    0.000 
#
# Total GULP energy -156304.747631 kJ/mol
# GULP energy per Si atom -5582.312415 kJ/mol
# Density = 1.866092 g / cm^3
# Si number density = 18.703490 Si / 1000 Ang^3
#
#
#
# Elastic Constant Matrix: (Units=GPa)
#
#
# Indices 1 2 3 4 5 6 
#
# 1 98.1362 45.8029 85.3640 0.0000 0.0000 0.0000
# 2 45.8029 104.5094 92.0785 0.0000 0.0000 0.0000
# 3 85.3640 92.0785 241.6659 0.0000 0.0000 0.0000
# 4 0.0000 0.0000 0.0000 -379.3310 0.0000 0.0000
# 5 0.0000 0.0000 0.0000 0.0000 13.9873 0.0000
# 6 0.0000 0.0000 0.0000 0.0000 0.0000 26.7959
#
#
#
# Elastic Compliance Matrix: (Units=1/GPa)
#
#
# Indices 1 2 3 4 5 6 
#
# 1 0.015280 -0.002922 -0.004284 0.000000 0.000000 0.000000
# 2 -0.002922 0.014963 -0.004669 0.000000 0.000000 0.000000
# 3 -0.004284 -0.004669 0.007430 0.000000 0.000000 0.000000
# 4 0.000000 0.000000 0.000000 -0.002636 0.000000 0.000000
# 5 0.000000 0.000000 0.000000 0.000000 0.071493 0.000000
# 6 0.000000 0.000000 0.000000 0.000000 0.000000 0.037319
#
#
# Mechanical properties :
#
#
# Convention : Reuss Voigt Hill
#
# Bulk Modulus (GPa) = 71.82461 98.97800 85.40131
# Shear Modulus (GPa) = 29.02918 -52.97181 -11.97132
#
# Velocity S-wave (km/s) = 3.94391 -5.32760 -2.53268
# Velocity P-wave (km/s) = 7.69573 3.89743 6.09976
#
# Compressibility (1/GPa) = 0.01392280
#
# Stress axis : x y z
#
# Youngs Moduli (GPa) = 65.44354 66.83272 134.58838
#
# Poissons Ratio (x) = 0.19531 0.57658
# Poissons Ratio (y) = 0.19125 0.62836
# Poissons Ratio (z) = 0.28036 0.31203
#
# Static dielectric constant tensor:
#      x y z
#    x 1.622400 0.000000 0.000000 
#    y 0.000000 1.967660 0.000000 
#    z 0.000000 0.000000 1.689750 
# 
# From -- ./inp_files/6778.got.cif
#   From: 2010.05.17/outbox.cif.g08.bks.cpg/sg28_4_cif.got.tgz:6778.got - 2010.06.04 01:15:21.
