data_PCOD9339967
_publ_section_title
;
Structure prediction by ZEFSAII (Michael W. Deem and Ramdas Pophale) SiO2 
 PCOD9339967
Probable space group: P M A 2
;
_chemical_formula_sum "Si O2"
_cell_formula_units_Z 32
_cell_length_a 17.762409
_cell_length_b 7.284549
_cell_length_c 11.237895
_cell_angle_alpha 90.000000
_cell_angle_beta 90.000000
_cell_angle_gamma 90.000000
_cell_volume 1454.084031
_symmetry_space_group_name_H-M "P M A 2"
_symmetry_group_IT_number 28
_symmetry_cell_setting 'orthorhombic'
loop_
_space_group_symop_operation_xyz
x,y,z
-x,-y,z
1/2-x,y,z
1/2+x,-y,z
loop_
_atom_site_type_symbol
_atom_site_label
_atom_site_fract_x
_atom_site_fract_y
_atom_site_fract_z
Si Si1 0.911192 0.467442 0.312020
Si Si2 0.410246 0.534953 0.571992
Si Si3 0.840956 0.434949 0.812504
Si Si4 0.589556 0.030277 0.306838
Si Si5 0.909739 0.026827 0.563451
Si Si6 0.910192 0.026246 0.819892
Si Si7 0.162920 0.976659 0.063612
Si Si8 0.337162 0.528999 0.070075
O O1 0.885068 0.536821 0.442053
O O2 0.897029 0.249017 0.310218
O O3 0.879140 0.538171 0.187512
O O4 0.000000 0.500000 0.311095
O O5 0.500000 0.500000 0.584656
O O6 0.367742 0.471648 0.690526
O O7 0.397445 0.754295 0.565736
O O8 0.750000 0.406566 0.812310
O O9 0.884480 0.239763 0.815988
O O10 0.861632 0.530619 0.937718
O O11 0.617698 0.957791 0.435021
O O12 0.626821 0.958553 0.186882
O O13 0.500000 0.000000 0.299590
O O14 0.882897 0.951843 0.690910
O O15 0.000000 0.000000 0.561504
O O16 0.876272 0.955986 0.943246
O O17 0.000000 0.000000 0.823841
O O18 0.250000 0.024707 0.059294
O O19 0.157423 0.752758 0.065505
O O20 0.250000 0.482402 0.084227
#
# Coordination Sequence:
#
# PCOD9339967 Si02
#       8
#     4   4   4   4   4   4   4   4
#     4   9  17  28  43  66  90 111 142 183 224 263
#     4   9  17  28  43  67  92 114 145 187 227 267
#     4   9  17  29  44  66  93 120 152 194 234 273
#     4   9  16  28  45  63  84 113 145 178 217 262
#     4   8  15  27  43  64  87 112 143 180 220 264
#     4   9  15  25  42  64  89 118 149 184 227 273
#     4   9  16  26  40  62  89 115 144 183 223 263
#     4   8  15  27  42  60  86 115 144 179 221 263
#
# _framework density 22.006979999999999
#
# number of rings (size 3 to 8) (size 9 to 14) (size 15 to 20)
#    0.000    3.250    0.000    1.500    0.000    1.000 
#    0.000    6.875    0.000    0.750    0.000   35.875 
#    0.000    0.000    0.000    0.000    0.000    0.000 
#
# Total GULP energy -178295.498322 kJ/mol
# GULP energy per Si atom -5571.734323 kJ/mol
# Density = 2.195689 g / cm^3
# Si number density = 22.006980 Si / 1000 Ang^3
#
#
#
# Elastic Constant Matrix: (Units=GPa)
#
#
# Indices 1 2 3 4 5 6 
#
# 1 61.1380 4.8937 89.5199 0.0000 0.0000 0.0000
# 2 4.8937 95.1907 17.8163 0.0000 0.0000 0.0000
# 3 89.5199 17.8163 331.8462 0.0000 0.0000 0.0000
# 4 0.0000 0.0000 0.0000 -0.6764 0.0000 0.0000
# 5 0.0000 0.0000 0.0000 0.0000 50.0470 0.0000
# 6 0.0000 0.0000 0.0000 0.0000 0.0000 9.4549
#
#
#
# Elastic Compliance Matrix: (Units=1/GPa)
#
#
# Indices 1 2 3 4 5 6 
#
# 1 0.027035 -0.000025 -0.007292 0.000000 0.000000 0.000000
# 2 -0.000025 0.010612 -0.000563 0.000000 0.000000 0.000000
# 3 -0.007292 -0.000563 0.005011 0.000000 0.000000 0.000000
# 4 0.000000 0.000000 0.000000 -1.478319 0.000000 0.000000
# 5 0.000000 0.000000 0.000000 0.000000 0.019981 0.000000
# 6 0.000000 0.000000 0.000000 0.000000 0.000000 0.105765
#
#
# Mechanical properties :
#
#
# Convention : Reuss Voigt Hill
#
# Bulk Modulus (GPa) = 37.17725 79.18163 58.17944
# Shear Modulus (GPa) = -3.89048 36.82809 16.46881
#
# Velocity S-wave (km/s) = -1.33104 4.09525 2.73856
# Velocity P-wave (km/s) = 3.81678 7.64328 6.04101
#
# Compressibility (1/GPa) = 0.02689817
#
# Stress axis : x y z
#
# Youngs Moduli (GPa) = 36.98870 94.23400 199.57203
#
# Poissons Ratio (x) = 0.00237 1.45523
# Poissons Ratio (y) = 0.00093 0.11235
# Poissons Ratio (z) = 0.26971 0.05305
#
# Static dielectric constant tensor:
#      x y z
#    x 1.711680 0.000000 0.000000 
#    y 0.000000 1.782570 0.000000 
#    z 0.000000 0.000000 1.890040 
# 
# From -- ./inp_files/5598.got.cif
#   From: 2010.05.17/outbox.cif.g08.bks.cpg/sg28_3_cif.got.tgz:5598.got - 2010.06.04 01:15:21.
