data_PCOD9339021
_publ_section_title
;
Structure prediction by ZEFSAII (Michael W. Deem and Ramdas Pophale) SiO2 
 PCOD9339021
Probable space group: P C C 2
;
_chemical_formula_sum "Si O2"
_cell_formula_units_Z 26
_cell_length_a 5.145358
_cell_length_b 14.881123
_cell_length_c 14.686087
_cell_angle_alpha 90.000000
_cell_angle_beta 90.000000
_cell_angle_gamma 90.000000
_cell_volume 1124.494667
_symmetry_space_group_name_H-M "P C C 2"
_symmetry_group_IT_number 27
_symmetry_cell_setting 'orthorhombic'
loop_
_space_group_symop_operation_xyz
x,y,z
-x,-y,z
-x,y,1/2+z
x,-y,1/2+z
loop_
_atom_site_type_symbol
_atom_site_label
_atom_site_fract_x
_atom_site_fract_y
_atom_site_fract_z
Si Si1 0.097843 0.807207 0.768890
Si Si2 0.512121 0.708598 0.506886
Si Si3 0.370683 0.376007 0.333914
Si Si4 0.757618 0.942070 0.129145
Si Si5 0.000000 0.500000 0.221199
Si Si6 0.979359 0.175682 0.466416
Si Si7 0.743289 0.328506 0.185765
O O1 0.224612 0.716621 0.808191
O O2 0.284937 0.867423 0.707392
O O3 0.992739 0.853987 0.860596
O O4 0.885757 0.765896 0.699915
O O5 0.594201 0.626763 0.441464
O O6 0.235030 0.745508 0.475586
O O7 0.519044 0.681978 0.611937
O O8 0.736817 0.785442 0.494396
O O9 0.218984 0.456574 0.286843
O O10 0.641158 0.358751 0.283763
O O11 0.500000 0.000000 0.113772
O O12 0.867766 0.897596 0.036511
O O13 0.000000 0.000000 0.165222
O O14 0.085610 0.584949 0.160018
#
# Coordination Sequence:
#
# PCOD9339021 Si02
#       7
#     4   4   4   4   2   4   4
#     4  10  23  43  72  97 140 186 240 279 362 430
#     4  11  23  39  75  97 130 182 240 281 345 416
#     4  10  22  42  66  99 133 186 228 290 339 418
#     4  12  27  44  70 107 145 184 231 305 362 423
#     4  10  24  40  60 100 146 176 232 290 352 408
#     4  11  23  45  68 103 133 182 236 289 346 428
#     4  11  21  42  68  98 135 186 232 290 349 425
#
# _framework density 23.121494999999999
#
# number of rings (size 3 to 8) (size 9 to 14) (size 15 to 20)
#    0.000    1.231    3.077    2.308    4.308    1.231 
#    0.000    4.615    0.000    0.000    0.000    0.000 
#    0.000    0.000    0.000    0.000    0.000    0.000 
#
# Total GULP energy -145233.915946 kJ/mol
# GULP energy per Si atom -5585.919844 kJ/mol
# Density = 2.306887 g / cm^3
# Si number density = 23.121495 Si / 1000 Ang^3
#
#
#
# Elastic Constant Matrix: (Units=GPa)
#
#
# Indices 1 2 3 4 5 6 
#
# 1 66.1437 17.7555 -12.8605 0.0000 0.0000 0.0000
# 2 17.7555 59.4058 32.2240 0.0000 0.0000 0.0000
# 3 -12.8605 32.2240 111.1538 0.0000 0.0000 0.0000
# 4 0.0000 0.0000 0.0000 16.4620 0.0000 0.0000
# 5 0.0000 0.0000 0.0000 0.0000 23.2307 0.0000
# 6 0.0000 0.0000 0.0000 0.0000 0.0000 37.0560
#
#
#
# Elastic Compliance Matrix: (Units=1/GPa)
#
#
# Indices 1 2 3 4 5 6 
#
# 1 0.018039 -0.007741 0.004331 0.000000 0.000000 0.000000
# 2 -0.007741 0.023296 -0.007649 0.000000 0.000000 0.000000
# 3 0.004331 -0.007649 0.011715 0.000000 0.000000 0.000000
# 4 0.000000 0.000000 0.000000 0.060746 0.000000 0.000000
# 5 0.000000 0.000000 0.000000 0.000000 0.043046 0.000000
# 6 0.000000 0.000000 0.000000 0.000000 0.000000 0.026986
#
#
# Mechanical properties :
#
#
# Convention : Reuss Voigt Hill
#
# Bulk Modulus (GPa) = 32.32883 34.54905 33.43894
# Shear Modulus (GPa) = 23.12058 28.65537 25.88798
#
# Velocity S-wave (km/s) = 3.16565 3.52424 3.34975
# Velocity P-wave (km/s) = 5.23204 5.61562 5.42722
#
# Compressibility (1/GPa) = 0.03093214
#
# Stress axis : x y z
#
# Youngs Moduli (GPa) = 55.43643 42.92518 85.35884
#
# Poissons Ratio (x) = 0.33228 -0.36971
# Poissons Ratio (y) = 0.42913 0.65294
# Poissons Ratio (z) = -0.24011 0.32835
#
# Static dielectric constant tensor:
#      x y z
#    x 1.943950 0.000000 0.000000 
#    y 0.000000 1.989610 0.000000 
#    z 0.000000 0.000000 1.854790 
# 
# From -- ./inp_files/3093.got.cif
#   From: 2010.05.17/outbox.cif.g08.bks.cpg/sg27_2_cif.got.tgz:3093.got - 2010.06.04 01:11:05.
