data_PCOD9339112
_publ_section_title
;
Structure prediction by ZEFSAII (Michael W. Deem and Ramdas Pophale) SiO2 
 PCOD9339112
Probable space group: P C C 2
;
_chemical_formula_sum "Si O2"
_cell_formula_units_Z 18
_cell_length_a 5.080597
_cell_length_b 5.259010
_cell_length_c 25.811346
_cell_angle_alpha 90.000000
_cell_angle_beta 90.000000
_cell_angle_gamma 90.000000
_cell_volume 689.651042
_symmetry_space_group_name_H-M "P C C 2"
_symmetry_group_IT_number 27
_symmetry_cell_setting 'orthorhombic'
loop_
_space_group_symop_operation_xyz
x,y,z
-x,-y,z
-x,y,1/2+z
x,-y,1/2+z
loop_
_atom_site_type_symbol
_atom_site_label
_atom_site_fract_x
_atom_site_fract_y
_atom_site_fract_z
Si Si1 0.758956 0.828528 0.306820
Si Si2 0.000000 0.500000 0.385043
Si Si3 0.683423 0.249699 0.581738
Si Si4 0.683098 0.247826 0.468904
Si Si5 0.681116 0.748556 0.191923
O O1 0.819028 0.748517 0.247417
O O2 0.773029 0.597711 0.346593
O O3 0.500000 0.000000 0.308205
O O4 0.000000 0.000000 0.323360
O O5 0.109423 0.713799 0.423609
O O6 0.500000 0.500000 0.581974
O O7 0.819741 0.244589 0.525859
O O8 0.833520 0.250411 0.636914
O O9 0.500000 0.000000 0.581907
O O10 0.500000 0.500000 0.467322
O O11 0.500000 0.000000 0.463037
O O12 0.500000 0.500000 0.192195
O O13 0.500000 0.000000 0.191834
#
# Coordination Sequence:
#
# PCOD9339112 Si02
#       5
#     4   2   4   4   4
#     4  11  29  49  74 108 149 197 254 310 379 449
#     4  12  30  44  74 106 154 204 260 314 368 456
#     4   8  15  35  67 100 135 183 233 302 374 447
#     4  10  24  44  72 103 144 193 249 308 378 446
#     4   9  19  39  71 103 142 183 238 305 378 446
#
# _framework density 26.100159000000001
#
# number of rings (size 3 to 8) (size 9 to 14) (size 15 to 20)
#    0.000    2.222    0.000    0.000   12.444    0.000 
#    0.000    1.111   19.556    0.000    0.000    0.000 
#    0.000    0.000    0.000    0.000    0.000    0.000 
#
# Total GULP energy -100774.211555 kJ/mol
# GULP energy per Si atom -5598.567309 kJ/mol
# Density = 2.604075 g / cm^3
# Si number density = 26.100159 Si / 1000 Ang^3
#
#
#
# Elastic Constant Matrix: (Units=GPa)
#
#
# Indices 1 2 3 4 5 6 
#
# 1 78.6482 41.2837 42.0284 0.0000 0.0000 0.0000
# 2 41.2837 189.9994 37.9669 0.0000 0.0000 0.0000
# 3 42.0284 37.9669 309.8894 0.0000 0.0000 0.0000
# 4 0.0000 0.0000 0.0000 34.8611 0.0000 0.0000
# 5 0.0000 0.0000 0.0000 0.0000 46.7567 0.0000
# 6 0.0000 0.0000 0.0000 0.0000 0.0000 53.2180
#
#
#
# Elastic Compliance Matrix: (Units=1/GPa)
#
#
# Indices 1 2 3 4 5 6 
#
# 1 0.015174 -0.002958 -0.001695 0.000000 0.000000 0.000000
# 2 -0.002958 0.005972 -0.000330 0.000000 0.000000 0.000000
# 3 -0.001695 -0.000330 0.003497 0.000000 0.000000 0.000000
# 4 0.000000 0.000000 0.000000 0.028685 0.000000 0.000000
# 5 0.000000 0.000000 0.000000 0.000000 0.021387 0.000000
# 6 0.000000 0.000000 0.000000 0.000000 0.000000 0.018791
#
#
# Mechanical properties :
#
#
# Convention : Reuss Voigt Hill
#
# Bulk Modulus (GPa) = 68.14417 91.23279 79.68848
# Shear Modulus (GPa) = 46.13987 57.45103 51.79545
#
# Velocity S-wave (km/s) = 4.20908 4.69676 4.45959
# Velocity P-wave (km/s) = 7.05601 8.02767 7.55747
#
# Compressibility (1/GPa) = 0.01467477
#
# Stress axis : x y z
#
# Youngs Moduli (GPa) = 65.90359 167.44881 285.92711
#
# Poissons Ratio (x) = 0.49534 0.48479
# Poissons Ratio (y) = 0.19495 0.09449
# Poissons Ratio (z) = 0.11174 0.05534
#
# Static dielectric constant tensor:
#      x y z
#    x 1.686120 0.000000 0.000000 
#    y 0.000000 1.956920 0.000000 
#    z 0.000000 0.000000 2.094290 
# 
# From -- ./inp_files/4910.got.cif
#   From: 2010.05.17/outbox.cif.g08.bks.cpg/sg27_3_cif.got.tgz:4910.got - 2010.06.04 01:11:05.
