data_PCOD9339691
_publ_section_title
;
Structure prediction by ZEFSAII (Michael W. Deem and Ramdas Pophale) SiO2 
 PCOD9339691
Probable space group: P M A 2
;
_chemical_formula_sum "Si O2"
_cell_formula_units_Z 32
_cell_length_a 15.709306
_cell_length_b 8.731473
_cell_length_c 12.310356
_cell_angle_alpha 90.000000
_cell_angle_beta 90.000000
_cell_angle_gamma 90.000000
_cell_volume 1688.554673
_symmetry_space_group_name_H-M "P M A 2"
_symmetry_group_IT_number 28
_symmetry_cell_setting 'orthorhombic'
loop_
_space_group_symop_operation_xyz
x,y,z
-x,-y,z
1/2-x,y,z
1/2+x,-y,z
loop_
_atom_site_type_symbol
_atom_site_label
_atom_site_fract_x
_atom_site_fract_y
_atom_site_fract_z
Si Si1 0.918187 0.611490 0.482710
Si Si2 0.646685 0.156643 0.680406
Si Si3 0.350190 0.815447 0.923274
Si Si4 0.348162 0.185938 0.930789
Si Si5 0.998401 0.317303 0.071681
Si Si6 0.851832 0.804558 0.679009
Si Si7 0.845344 0.305076 0.455896
Si Si8 0.494578 0.817961 0.312573
O O1 0.897876 0.694702 0.594946
O O2 0.846835 0.488496 0.451496
O O3 0.935782 0.736430 0.389878
O O4 0.000000 0.500000 0.489327
O O5 0.750000 0.153544 0.686383
O O6 0.620396 0.216833 0.798851
O O7 0.622572 0.254441 0.575751
O O8 0.619035 0.980838 0.664807
O O9 0.250000 0.772442 0.936135
O O10 0.354592 0.000471 0.934708
O O11 0.414127 0.737585 0.007086
O O12 0.250000 0.225690 0.958239
O O13 0.363973 0.233489 0.805636
O O14 0.418764 0.259293 0.006664
O O15 0.000000 0.500000 0.080036
O O16 0.000284 0.243747 0.190882
O O17 0.750000 0.798842 0.658162
O O18 0.750000 0.245656 0.444262
O O19 0.905854 0.235182 0.365580
O O20 0.500000 0.000000 0.315575
#
# Coordination Sequence:
#
# PCOD9339691 Si02
#       8
#     4   4   4   4   4   4   4   4
#     4  10  21  35  53  82 116 148 182 228 286 339
#     4   8  16  32  56  86 116 148 186 227 273 331
#     4   9  19  38  63  88 116 152 194 236 278 332
#     4   9  20  39  61  86 116 152 195 238 278 331
#     4  12  25  40  59  84 116 151 189 239 294 343
#     4   9  17  33  57  84 114 147 188 232 274 329
#     4  10  20  36  59  86 118 150 182 227 285 342
#     4  11  24  43  61  78 107 148 196 241 278 331
#
# _framework density 18.951118999999998
#
# number of rings (size 3 to 8) (size 9 to 14) (size 15 to 20)
#    0.000    2.250    0.000    4.875    0.000    4.500 
#    0.000    8.750    0.000    0.000    0.000    0.000 
#    0.000    0.000    0.000    0.000    0.000    0.000 
#
# Total GULP energy -178639.163328 kJ/mol
# GULP energy per Si atom -5582.473854 kJ/mol
# Density = 1.890799 g / cm^3
# Si number density = 18.951119 Si / 1000 Ang^3
#
#
#
# Elastic Constant Matrix: (Units=GPa)
#
#
# Indices 1 2 3 4 5 6 
#
# 1 82.3797 47.6281 69.7604 0.0000 0.0000 0.0000
# 2 47.6281 112.2959 85.6914 0.0000 0.0000 0.0000
# 3 69.7604 85.6914 151.3414 0.0000 0.0000 0.0000
# 4 0.0000 0.0000 0.0000 78.4949 0.0000 0.0000
# 5 0.0000 0.0000 0.0000 0.0000 9.8290 0.0000
# 6 0.0000 0.0000 0.0000 0.0000 0.0000 16.6929
#
#
#
# Elastic Compliance Matrix: (Units=1/GPa)
#
#
# Indices 1 2 3 4 5 6 
#
# 1 0.020330 -0.002591 -0.007904 0.000000 0.000000 0.000000
# 2 -0.002591 0.016010 -0.007871 0.000000 0.000000 0.000000
# 3 -0.007904 -0.007871 0.014707 0.000000 0.000000 0.000000
# 4 0.000000 0.000000 0.000000 0.012740 0.000000 0.000000
# 5 0.000000 0.000000 0.000000 0.000000 0.101740 0.000000
# 6 0.000000 0.000000 0.000000 0.000000 0.000000 0.059906
#
#
# Mechanical properties :
#
#
# Convention : Reuss Voigt Hill
#
# Bulk Modulus (GPa) = 69.85249 83.57521 76.71385
# Shear Modulus (GPa) = 18.73105 30.53252 24.63178
#
# Velocity S-wave (km/s) = 3.14727 4.01823 3.60912
# Velocity P-wave (km/s) = 7.08141 8.10706 7.61153
#
# Compressibility (1/GPa) = 0.01431588
#
# Stress axis : x y z
#
# Youngs Moduli (GPa) = 49.18779 62.46067 67.99320
#
# Poissons Ratio (x) = 0.16185 0.53742
# Poissons Ratio (y) = 0.12746 0.53515
# Poissons Ratio (z) = 0.38878 0.49161
#
# Static dielectric constant tensor:
#      x y z
#    x 1.690850 0.000000 0.000000 
#    y 0.000000 1.648260 0.000000 
#    z 0.000000 0.000000 1.630490 
# 
# From -- ./inp_files/5582.got.cif
#   From: 2010.05.17/outbox.cif.g08.bks.cpg/sg28_3_cif.got.tgz:5582.got - 2010.06.04 01:15:21.
