data_PCOD9339772
_publ_section_title
;
Structure prediction by ZEFSAII (Michael W. Deem and Ramdas Pophale) SiO2 
 PCOD9339772
Probable space group: P M A 2
;
_chemical_formula_sum "Si O2"
_cell_formula_units_Z 32
_cell_length_a 17.207535
_cell_length_b 14.258117
_cell_length_c 7.038211
_cell_angle_alpha 90.000000
_cell_angle_beta 90.000000
_cell_angle_gamma 90.000000
_cell_volume 1726.804287
_symmetry_space_group_name_H-M "P M A 2"
_symmetry_group_IT_number 28
_symmetry_cell_setting 'orthorhombic'
loop_
_space_group_symop_operation_xyz
x,y,z
-x,-y,z
1/2-x,y,z
1/2+x,-y,z
loop_
_atom_site_type_symbol
_atom_site_label
_atom_site_fract_x
_atom_site_fract_y
_atom_site_fract_z
Si Si1 0.658859 0.474892 0.863620
Si Si2 0.540081 0.398552 0.559071
Si Si3 0.841776 0.024439 0.678209
Si Si4 0.428119 0.651622 0.137325
Si Si5 0.091824 0.004021 0.267472
Si Si6 0.157241 0.839222 0.006365
Si Si7 0.427343 0.333221 0.871559
Si Si8 0.841706 0.856463 0.981290
O O1 0.750000 0.461308 0.848281
O O2 0.612476 0.420861 0.697009
O O3 0.634816 0.583458 0.854422
O O4 0.625340 0.432024 0.058399
O O5 0.500000 0.500000 0.521354
O O6 0.564230 0.352032 0.362723
O O7 0.479231 0.337123 0.680582
O O8 0.750000 0.030494 0.630241
O O9 0.889732 0.007727 0.488719
O O10 0.851533 0.937460 0.822491
O O11 0.862774 0.117068 0.799860
O O12 0.389672 0.746857 0.059821
O O13 0.512265 0.641872 0.039689
O O14 0.125256 0.099354 0.175817
O O15 0.134542 0.919654 0.156730
O O16 0.000000 0.000000 0.231561
O O17 0.250000 0.823101 0.011588
O O18 0.387478 0.235218 0.916668
O O19 0.750000 0.837676 0.001071
#
# Coordination Sequence:
#
# PCOD9339772 Si02
#       8
#     4   4   4   4   4   4   4   4
#     4  10  21  37  58  84 113 149 191 235 286 340
#     4   9  20  38  57  80 115 153 189 234 287 343
#     4   9  20  39  58  77 108 147 185 229 278 331
#     4  11  21  37  59  84 114 149 190 236 285 340
#     4  11  22  36  57  83 112 146 185 230 280 334
#     4  10  22  38  56  81 112 146 186 231 279 333
#     4  10  21  37  58  84 115 148 187 234 285 341
#     4  10  21  38  59  83 112 146 186 231 278 332
#
# _framework density 18.53134
#
# number of rings (size 3 to 8) (size 9 to 14) (size 15 to 20)
#    0.000    2.000    0.000    5.250    0.000    8.000 
#    0.000    0.000    0.000    4.500    0.000    0.000 
#    0.000    0.000    0.000    0.000    0.000    0.000 
#
# Total GULP energy -178738.688363 kJ/mol
# GULP energy per Si atom -5585.584011 kJ/mol
# Density = 1.848916 g / cm^3
# Si number density = 18.531340 Si / 1000 Ang^3
#
#
#
# Elastic Constant Matrix: (Units=GPa)
#
#
# Indices 1 2 3 4 5 6 
#
# 1 103.0642 41.5280 41.7746 0.0000 0.0000 0.0000
# 2 41.5280 77.6067 36.4472 0.0000 0.0000 0.0000
# 3 41.7746 36.4472 112.4405 0.0000 0.0000 0.0000
# 4 0.0000 0.0000 0.0000 17.4945 0.0000 0.0000
# 5 0.0000 0.0000 0.0000 0.0000 14.2412 0.0000
# 6 0.0000 0.0000 0.0000 0.0000 0.0000 31.2956
#
#
#
# Elastic Compliance Matrix: (Units=1/GPa)
#
#
# Indices 1 2 3 4 5 6 
#
# 1 0.013221 -0.005624 -0.003089 0.000000 0.000000 0.000000
# 2 -0.005624 0.017592 -0.003613 0.000000 0.000000 0.000000
# 3 -0.003089 -0.003613 0.011212 0.000000 0.000000 0.000000
# 4 0.000000 0.000000 0.000000 0.057161 0.000000 0.000000
# 5 0.000000 0.000000 0.000000 0.000000 0.070219 0.000000
# 6 0.000000 0.000000 0.000000 0.000000 0.000000 0.031953
#
#
# Mechanical properties :
#
#
# Convention : Reuss Voigt Hill
#
# Bulk Modulus (GPa) = 57.55919 59.17901 58.36910
# Shear Modulus (GPa) = 21.57031 24.16369 22.86700
#
# Velocity S-wave (km/s) = 3.41543 3.61492 3.51659
# Velocity P-wave (km/s) = 6.83238 7.03047 6.93213
#
# Compressibility (1/GPa) = 0.01737342
#
# Stress axis : x y z
#
# Youngs Moduli (GPa) = 75.63866 56.84530 89.18781
#
# Poissons Ratio (x) = 0.31969 0.27549
# Poissons Ratio (y) = 0.42538 0.32222
# Poissons Ratio (z) = 0.23364 0.20537
#
# Static dielectric constant tensor:
#      x y z
#    x 1.618270 0.000000 0.000000 
#    y 0.000000 1.635860 0.000000 
#    z 0.000000 0.000000 1.623180 
# 
# From -- ./inp_files/1221.got.cif
#   From: 2010.05.17/outbox.cif.g08.bks.cpg/sg28_1_cif.got.tgz:1221.got - 2010.06.04 01:15:21.
