data_PCOD9339280
_publ_section_title
;
Structure prediction by ZEFSAII (Michael W. Deem and Ramdas Pophale) SiO2 
 PCOD9339280
Probable space group: P M A 2
;
_chemical_formula_sum "Si O2"
_cell_formula_units_Z 22
_cell_length_a 7.568943
_cell_length_b 7.421966
_cell_length_c 15.376356
_cell_angle_alpha 90.000000
_cell_angle_beta 90.000000
_cell_angle_gamma 90.000000
_cell_volume 863.788903
_symmetry_space_group_name_H-M "P M A 2"
_symmetry_group_IT_number 28
_symmetry_cell_setting 'orthorhombic'
loop_
_space_group_symop_operation_xyz
x,y,z
-x,-y,z
1/2-x,y,z
1/2+x,-y,z
loop_
_atom_site_type_symbol
_atom_site_label
_atom_site_fract_x
_atom_site_fract_y
_atom_site_fract_z
Si Si1 0.038961 0.785720 0.469990
Si Si2 0.963782 0.217074 0.662382
Si Si3 0.040543 0.787824 0.284637
Si Si4 0.450973 0.296261 0.088487
Si Si5 0.555679 0.198164 0.912956
Si Si6 0.750000 0.659273 0.804805
O O1 0.250000 0.763916 0.468362
O O2 0.981715 0.721370 0.564774
O O3 0.968328 0.714600 0.377129
O O4 0.000000 0.000000 0.469921
O O5 0.750000 0.244663 0.674388
O O6 0.091732 0.311203 0.731092
O O7 0.000000 0.000000 0.667900
O O8 0.250000 0.758988 0.283939
O O9 0.975337 0.723749 0.191525
O O10 0.000000 0.000000 0.285624
O O11 0.500000 0.500000 0.068704
O O12 0.250000 0.251689 0.070278
O O13 0.560895 0.187973 0.017467
O O14 0.750000 0.246595 0.879419
O O15 0.403837 0.327756 0.880653
O O16 0.500000 0.000000 0.879307
#
# Coordination Sequence:
#
# PCOD9339280 Si02
#       6
#     4   4   4   4   4   2
#     4   8  16  28  45  76 116 154 191 227 284 347
#     4  10  18  28  46  76 117 159 193 237 291 349
#     4  10  19  35  59  88 123 159 195 239 291 352
#     4  12  25  44  62  87 116 153 200 246 300 361
#     4  12  24  40  60  88 124 158 198 250 302 353
#     4  12  22  34  52  82 120 154 210 234 310 340
#
# _framework density 25.469187999999999
#
# number of rings (size 3 to 8) (size 9 to 14) (size 15 to 20)
#    0.000    1.455    2.727    3.818    1.273    0.727 
#    0.000    0.000    0.000    0.000    0.000    1.273 
#    5.455    0.000    0.000    0.000    0.000    0.000 
#
# Total GULP energy -122527.752979 kJ/mol
# GULP energy per Si atom -5569.443317 kJ/mol
# Density = 2.541122 g / cm^3
# Si number density = 25.469188 Si / 1000 Ang^3
#
#
#
# Elastic Constant Matrix: (Units=GPa)
#
#
# Indices 1 2 3 4 5 6 
#
# 1 202.8705 4.0132 51.6986 0.0000 0.0000 0.0000
# 2 4.0132 67.1371 3.1110 0.0000 0.0000 0.0000
# 3 51.6986 3.1110 242.8951 0.0000 0.0000 0.0000
# 4 0.0000 0.0000 0.0000 -58.7166 0.0000 0.0000
# 5 0.0000 0.0000 0.0000 0.0000 -88.8263 0.0000
# 6 0.0000 0.0000 0.0000 0.0000 0.0000 15.4383
#
#
#
# Elastic Compliance Matrix: (Units=1/GPa)
#
#
# Indices 1 2 3 4 5 6 
#
# 1 0.005217 -0.000261 -0.001107 0.000000 0.000000 0.000000
# 2 -0.000261 0.014917 -0.000136 0.000000 0.000000 0.000000
# 3 -0.001107 -0.000136 0.004354 0.000000 0.000000 0.000000
# 4 0.000000 0.000000 0.000000 -0.017031 0.000000 0.000000
# 5 0.000000 0.000000 0.000000 0.000000 -0.011258 0.000000
# 6 0.000000 0.000000 0.000000 0.000000 0.000000 0.064774
#
#
# Mechanical properties :
#
#
# Convention : Reuss Voigt Hill
#
# Bulk Modulus (GPa) = 46.55187 70.06091 58.30639
# Shear Modulus (GPa) = 70.28461 3.85107 37.06784
#
# Velocity S-wave (km/s) = 5.25888 1.23099 3.81911
# Velocity P-wave (km/s) = 7.42912 5.43951 6.51077
#
# Compressibility (1/GPa) = 0.02148142
#
# Stress axis : x y z
#
# Youngs Moduli (GPa) = 191.69940 67.03875 229.65542
#
# Poissons Ratio (x) = 0.01747 0.25422
# Poissons Ratio (y) = 0.04994 0.03114
# Poissons Ratio (z) = 0.21220 0.00909
#
# Static dielectric constant tensor:
#      x y z
#    x 1.973290 0.000000 0.000000 
#    y 0.000000 2.003280 0.000000 
#    z 0.000000 0.000000 2.064720 
# 
# From -- ./inp_files/6079.got.cif
#   From: 2010.05.17/outbox.cif.g08.bks.cpg/sg28_4_cif.got.tgz:6079.got - 2010.06.04 01:15:21.
