data_PCOD9339540
_publ_section_title
;
Structure prediction by ZEFSAII (Michael W. Deem and Ramdas Pophale) SiO2 
 PCOD9339540
Probable space group: P M A 2
;
_chemical_formula_sum "Si O2"
_cell_formula_units_Z 24
_cell_length_a 25.111065
_cell_length_b 8.173731
_cell_length_c 5.115514
_cell_angle_alpha 90.000000
_cell_angle_beta 90.000000
_cell_angle_gamma 90.000000
_cell_volume 1049.964827
_symmetry_space_group_name_H-M "P M A 2"
_symmetry_group_IT_number 28
_symmetry_cell_setting 'orthorhombic'
loop_
_space_group_symop_operation_xyz
x,y,z
-x,-y,z
1/2-x,y,z
1/2+x,-y,z
loop_
_atom_site_type_symbol
_atom_site_label
_atom_site_fract_x
_atom_site_fract_y
_atom_site_fract_z
Si Si1 0.981724 0.309994 0.734250
Si Si2 0.187716 0.184877 0.963332
Si Si3 0.973493 0.679889 0.236839
Si Si4 0.857437 0.309300 0.743411
Si Si5 0.686685 0.151338 0.240644
Si Si6 0.354544 0.347363 0.457000
O O1 0.920207 0.304755 0.806294
O O2 0.000000 0.500000 0.692036
O O3 0.991242 0.231456 0.453633
O O4 0.020134 0.239570 0.955499
O O5 0.250000 0.171947 0.895433
O O6 0.180078 0.315593 0.197832
O O7 0.169969 0.017723 0.103013
O O8 0.157176 0.223868 0.695724
O O9 0.914633 0.662280 0.347736
O O10 0.000000 0.500000 0.191924
O O11 0.841266 0.180963 0.517926
O O12 0.845456 0.479836 0.598542
O O13 0.827313 0.283342 0.016028
O O14 0.750000 0.147852 0.286260
#
# Coordination Sequence:
#
# PCOD9339540 Si02
#       6
#     4   4   4   4   4   4
#     4  10  19  34  59  96 127 166 199 263 331 400
#     4  11  26  46  65  91 140 189 216 263 345 408
#     4  10  19  34  59  96 127 166 199 263 331 400
#     4  12  23  39  71 106 125 168 233 283 318 387
#     4  11  26  46  65  91 140 189 216 263 345 408
#     4  12  23  39  71 106 125 168 233 283 318 387
#
# _framework density 22.857911000000001
#
# number of rings (size 3 to 8) (size 9 to 14) (size 15 to 20)
#    0.000    1.000    3.333    5.000    4.667    6.667 
#    0.000    0.000    0.000   15.000    0.000    0.000 
#    0.000    0.000    0.000    0.000    0.000    0.000 
#
# Total GULP energy -134104.645755 kJ/mol
# GULP energy per Si atom -5587.693573 kJ/mol
# Density = 2.280589 g / cm^3
# Si number density = 22.857911 Si / 1000 Ang^3
#
#
#
# Elastic Constant Matrix: (Units=GPa)
#
#
# Indices 1 2 3 4 5 6 
#
# 1 60.7042 15.1466 13.9460 0.0000 0.0000 0.0000
# 2 15.1466 47.6251 5.2697 0.0000 0.0000 0.0000
# 3 13.9460 5.2697 139.0921 0.0000 0.0000 0.0000
# 4 0.0000 0.0000 0.0000 19.3649 0.0000 0.0000
# 5 0.0000 0.0000 0.0000 0.0000 -402.4953 0.0000
# 6 0.0000 0.0000 0.0000 0.0000 0.0000 63.8587
#
#
#
# Elastic Compliance Matrix: (Units=1/GPa)
#
#
# Indices 1 2 3 4 5 6 
#
# 1 0.018248 -0.005625 -0.001617 0.000000 0.000000 0.000000
# 2 -0.005625 0.022819 -0.000301 0.000000 0.000000 0.000000
# 3 -0.001617 -0.000301 0.007363 0.000000 0.000000 0.000000
# 4 0.000000 0.000000 0.000000 0.051640 0.000000 0.000000
# 5 0.000000 0.000000 0.000000 0.000000 -0.002485 0.000000
# 6 0.000000 0.000000 0.000000 0.000000 0.000000 0.015660
#
#
# Mechanical properties :
#
#
# Convention : Reuss Voigt Hill
#
# Bulk Modulus (GPa) = 29.98786 35.12734 32.55760
# Shear Modulus (GPa) = 35.85648 -49.65040 -6.89696
#
# Velocity S-wave (km/s) = 3.96494 -4.66567 -1.73893
# Velocity P-wave (km/s) = 5.84027 3.69101 3.20040
#
# Compressibility (1/GPa) = 0.03334683
#
# Stress axis : x y z
#
# Youngs Moduli (GPa) = 54.80002 43.82222 135.81512
#
# Poissons Ratio (x) = 0.24649 0.21955
# Poissons Ratio (y) = 0.30824 0.04082
# Poissons Ratio (z) = 0.08859 0.01317
#
# Static dielectric constant tensor:
#      x y z
#    x 2.401570 0.000000 0.000000 
#    y 0.000000 4.037190 0.000000 
#    z 0.000000 0.000000 1.922380 
# 
# From -- ./inp_files/1548.got.cif
#   From: 2010.05.17/outbox.cif.g08.bks.cpg/sg28_1_cif.got.tgz:1548.got - 2010.06.04 01:15:21.
