data_PCOD9339704
_publ_section_title
;
Structure prediction by ZEFSAII (Michael W. Deem and Ramdas Pophale) SiO2 
 PCOD9339704
Probable space group: P M A 2
;
_chemical_formula_sum "Si O2"
_cell_formula_units_Z 28
_cell_length_a 8.685315
_cell_length_b 9.929702
_cell_length_c 17.914916
_cell_angle_alpha 90.000000
_cell_angle_beta 90.000000
_cell_angle_gamma 90.000000
_cell_volume 1545.028751
_symmetry_space_group_name_H-M "P M A 2"
_symmetry_group_IT_number 28
_symmetry_cell_setting 'orthorhombic'
loop_
_space_group_symop_operation_xyz
x,y,z
-x,-y,z
1/2-x,y,z
1/2+x,-y,z
loop_
_atom_site_type_symbol
_atom_site_label
_atom_site_fract_x
_atom_site_fract_y
_atom_site_fract_z
Si Si1 0.064945 0.146817 0.747080
Si Si2 0.566053 0.147794 0.496491
Si Si3 0.065070 0.349383 0.617726
Si Si4 0.933907 0.649917 0.200915
Si Si5 0.565852 0.147340 0.321376
Si Si6 0.064792 0.147864 0.919646
Si Si7 0.565836 0.349658 0.041625
O O1 0.250000 0.138371 0.743860
O O2 0.015067 0.263449 0.690567
O O3 0.021814 0.175401 0.833071
O O4 0.000000 0.000000 0.726178
O O5 0.750000 0.145814 0.506223
O O6 0.493139 0.262797 0.547470
O O7 0.532005 0.172518 0.408938
O O8 0.500000 0.000000 0.515975
O O9 0.250000 0.355345 0.616782
O O10 0.000000 0.500000 0.617933
O O11 0.750000 0.644695 0.196471
O O12 0.000000 0.500000 0.212196
O O13 0.988834 0.744371 0.267703
O O14 0.001622 0.699062 0.121661
O O15 0.750000 0.149003 0.311861
O O16 0.500000 0.000000 0.303389
O O17 0.250000 0.148692 0.925410
O O18 0.000000 0.000000 0.937648
O O19 0.993189 0.255161 0.975636
O O20 0.500000 0.500000 0.031122
O O21 0.750000 0.353948 0.043857
#
# Coordination Sequence:
#
# PCOD9339704 Si02
#       7
#     4   4   4   4   4   4   4
#     4   9  20  37  58  82 110 145 184 227 276 331
#     4  10  21  38  60  84 112 147 185 227 276 331
#     4  11  23  38  56  82 114 148 187 231 278 327
#     4  11  22  38  59  83 112 148 187 228 276 330
#     4  10  21  38  59  85 114 145 184 229 277 328
#     4  10  20  37  58  84 114 145 185 230 277 328
#     4  11  22  38  58  82 112 148 187 228 277 331
#
# _framework density 18.122640000000001
#
# number of rings (size 3 to 8) (size 9 to 14) (size 15 to 20)
#    0.000    1.714    0.000    5.571    0.000    6.286 
#    0.000    4.286    0.000    0.000    0.000    0.000 
#    0.000    0.000    0.000    0.000    0.000    0.000 
#
# Total GULP energy -156465.624878 kJ/mol
# GULP energy per Si atom -5588.058031 kJ/mol
# Density = 1.808139 g / cm^3
# Si number density = 18.122640 Si / 1000 Ang^3
#
#
#
# Elastic Constant Matrix: (Units=GPa)
#
#
# Indices 1 2 3 4 5 6 
#
# 1 109.1822 62.3066 64.4794 0.0000 0.0000 0.0000
# 2 62.3066 141.1568 105.3772 0.0000 0.0000 0.0000
# 3 64.4794 105.3772 117.5159 0.0000 0.0000 0.0000
# 4 0.0000 0.0000 0.0000 42.1854 0.0000 0.0000
# 5 0.0000 0.0000 0.0000 0.0000 34.0593 0.0000
# 6 0.0000 0.0000 0.0000 0.0000 0.0000 38.0467
#
#
#
# Elastic Compliance Matrix: (Units=1/GPa)
#
#
# Indices 1 2 3 4 5 6 
#
# 1 0.013629 -0.001311 -0.006303 0.000000 0.000000 0.000000
# 2 -0.001311 0.021556 -0.018610 0.000000 0.000000 0.000000
# 3 -0.006303 -0.018610 0.028655 0.000000 0.000000 0.000000
# 4 0.000000 0.000000 0.000000 0.023705 0.000000 0.000000
# 5 0.000000 0.000000 0.000000 0.000000 0.029361 0.000000
# 6 0.000000 0.000000 0.000000 0.000000 0.000000 0.026283
#
#
# Mechanical properties :
#
#
# Convention : Reuss Voigt Hill
#
# Bulk Modulus (GPa) = 87.77063 92.46458 90.11761
# Shear Modulus (GPa) = 25.07093 31.90440 28.48766
#
# Velocity S-wave (km/s) = 3.72345 4.20035 3.96907
# Velocity P-wave (km/s) = 8.18670 8.64039 8.41660
#
# Compressibility (1/GPa) = 0.01139333
#
# Stress axis : x y z
#
# Youngs Moduli (GPa) = 73.37162 46.39149 34.89733
#
# Poissons Ratio (x) = 0.06080 0.21995
# Poissons Ratio (y) = 0.09616 0.64944
# Poissons Ratio (z) = 0.46246 0.86334
#
# Static dielectric constant tensor:
#      x y z
#    x 1.605330 0.000000 0.000000 
#    y 0.000000 1.585320 0.000000 
#    z 0.000000 0.000000 1.620410 
# 
# From -- ./inp_files/6762.got.cif
#   From: 2010.05.17/outbox.cif.g08.bks.cpg/sg28_4_cif.got.tgz:6762.got - 2010.06.04 01:15:21.
