data_PCOD9339895
_publ_section_title
;
Structure prediction by ZEFSAII (Michael W. Deem and Ramdas Pophale) SiO2 
 PCOD9339895
Probable space group: P M A 2
;
_chemical_formula_sum "Si O2"
_cell_formula_units_Z 32
_cell_length_a 8.591136
_cell_length_b 15.865916
_cell_length_c 12.191658
_cell_angle_alpha 90.000000
_cell_angle_beta 90.000000
_cell_angle_gamma 90.000000
_cell_volume 1661.799087
_symmetry_space_group_name_H-M "P M A 2"
_symmetry_group_IT_number 28
_symmetry_cell_setting 'orthorhombic'
loop_
_space_group_symop_operation_xyz
x,y,z
-x,-y,z
1/2-x,y,z
1/2+x,-y,z
loop_
_atom_site_type_symbol
_atom_site_label
_atom_site_fract_x
_atom_site_fract_y
_atom_site_fract_z
Si Si1 0.437014 0.352111 0.731520
Si Si2 0.563367 0.909248 0.495112
Si Si3 0.561877 0.247843 0.104471
Si Si4 0.438123 0.752157 0.358569
Si Si5 0.563508 0.410534 0.499155
Si Si6 0.436633 0.090752 0.967928
Si Si7 0.563508 0.410534 0.963885
Si Si8 0.438947 0.155056 0.731520
O O1 0.250000 0.356858 0.731520
O O2 0.501355 0.394202 0.621678
O O3 0.501355 0.394203 0.841362
O O4 0.484198 0.253382 0.731520
O O5 0.750000 0.910644 0.495049
O O6 0.505720 0.834004 0.418151
O O7 0.507966 0.888876 0.619546
O O8 0.500000 0.000000 0.460679
O O9 0.750000 0.243482 0.099857
O O10 0.515062 0.251520 0.231520
O O11 0.494280 0.165996 0.044889
O O12 0.513304 0.331908 0.039146
O O13 0.250000 0.756518 0.363183
O O14 0.486696 0.668092 0.423894
O O15 0.500000 0.500000 0.458937
O O16 0.750000 0.412965 0.501307
O O17 0.250000 0.089356 0.967991
O O18 0.492034 0.111124 0.843494
O O19 0.500000 0.000000 0.002361
O O20 0.500000 0.500000 0.004102
O O21 0.750000 0.412965 0.961733
O O22 0.250000 0.153116 0.731520
#
# Coordination Sequence:
#
# PCOD9339895 Si02
#       8
#     4   4   4   4   4   4   4   4
#     4  11  20  37  62  89 122 156 194 241 292 353
#     4  11  22  39  62  91 122 156 195 240 294 353
#     4  10  23  43  63  85 116 155 201 250 295 344
#     4  10  23  43  63  85 116 155 201 250 295 344
#     4  11  23  39  61  90 121 156 196 242 296 354
#     4  11  22  39  62  91 122 156 195 240 294 353
#     4  11  23  39  61  90 121 156 196 242 296 354
#     4   9  19  35  59  89 121 153 189 236 292 349
#
# _framework density 19.256239000000001
#
# number of rings (size 3 to 8) (size 9 to 14) (size 15 to 20)
#    0.000    1.500    2.500    2.625    0.000    2.500 
#    0.000    1.875    0.000    0.000    0.000    0.000 
#    0.000    0.000    0.000    0.000    0.000    0.000 
#
# Total GULP energy -178901.719855 kJ/mol
# GULP energy per Si atom -5590.678745 kJ/mol
# Density = 1.921241 g / cm^3
# Si number density = 19.256239 Si / 1000 Ang^3
#
#
#
# Elastic Constant Matrix: (Units=GPa)
#
#
# Indices 1 2 3 4 5 6 
#
# 1 39.0161 45.0813 37.6097 0.0000 0.0000 0.0000
# 2 45.0813 204.5425 90.0218 0.0000 0.0000 0.0000
# 3 37.6097 90.0218 154.5667 0.0000 0.0000 0.0000
# 4 0.0000 0.0000 0.0000 35.9703 0.0000 0.0000
# 5 0.0000 0.0000 0.0000 0.0000 10.5071 0.0000
# 6 0.0000 0.0000 0.0000 0.0000 0.0000 31.5516
#
#
#
# Elastic Compliance Matrix: (Units=1/GPa)
#
#
# Indices 1 2 3 4 5 6 
#
# 1 0.037975 -0.005786 -0.005870 0.000000 0.000000 0.000000
# 2 -0.005786 0.007456 -0.002934 0.000000 0.000000 0.000000
# 3 -0.005870 -0.002934 0.009607 0.000000 0.000000 0.000000
# 4 0.000000 0.000000 0.000000 0.027801 0.000000 0.000000
# 5 0.000000 0.000000 0.000000 0.000000 0.095173 0.000000
# 6 0.000000 0.000000 0.000000 0.000000 0.000000 0.031694
#
#
# Mechanical properties :
#
#
# Convention : Reuss Voigt Hill
#
# Bulk Modulus (GPa) = 38.67575 82.61676 60.64626
# Shear Modulus (GPa) = 20.20155 30.63332 25.41744
#
# Velocity S-wave (km/s) = 3.24248 3.99284 3.63706
# Velocity P-wave (km/s) = 5.84351 8.01586 7.01430
#
# Compressibility (1/GPa) = 0.02585600
#
# Stress axis : x y z
#
# Youngs Moduli (GPa) = 26.33338 134.12592 104.08963
#
# Poissons Ratio (x) = 0.77606 0.61103
# Poissons Ratio (y) = 0.15237 0.30544
# Poissons Ratio (z) = 0.15458 0.39358
#
# Static dielectric constant tensor:
#      x y z
#    x 1.649280 0.000000 0.000000 
#    y 0.000000 1.655930 0.000000 
#    z 0.000000 0.000000 1.650250 
# 
# From -- ./inp_files/5104.got.cif
#   From: 2010.05.17/outbox.cif.g08.bks.cpg/sg28_3_cif.got.tgz:5104.got - 2010.06.04 01:15:21.
