data_PCOD9339123
_publ_section_title
;
Structure prediction by ZEFSAII (Michael W. Deem and Ramdas Pophale) SiO2 
 PCOD9339123
Probable space group: P C C 2
;
_chemical_formula_sum "Si O2"
_cell_formula_units_Z 24
_cell_length_a 4.891430
_cell_length_b 17.582828
_cell_length_c 11.409847
_cell_angle_alpha 90.000000
_cell_angle_beta 90.000000
_cell_angle_gamma 90.000000
_cell_volume 981.305858
_symmetry_space_group_name_H-M "P C C 2"
_symmetry_group_IT_number 27
_symmetry_cell_setting 'orthorhombic'
loop_
_space_group_symop_operation_xyz
x,y,z
-x,-y,z
-x,y,1/2+z
x,-y,1/2+z
loop_
_atom_site_type_symbol
_atom_site_label
_atom_site_fract_x
_atom_site_fract_y
_atom_site_fract_z
Si Si1 0.300320 0.704487 0.871640
Si Si2 0.038874 0.152047 0.824679
Si Si3 0.425510 0.329499 0.110865
Si Si4 0.239758 0.949708 0.015232
Si Si5 0.898526 0.585259 0.527316
Si Si6 0.454512 0.092926 0.216962
O O1 0.057858 0.765870 0.864044
O O2 0.438191 0.704559 0.742287
O O3 0.176027 0.621083 0.900178
O O4 0.473499 0.716483 0.993194
O O5 0.845064 0.128475 0.714630
O O6 0.356931 0.135439 0.811560
O O7 0.917314 0.089227 0.911443
O O8 0.627113 0.402029 0.103708
O O9 0.122911 0.358739 0.083839
O O10 0.383972 0.889701 0.098421
O O11 0.500000 0.000000 0.977266
O O12 0.000000 0.000000 0.074071
O O13 0.000000 0.500000 0.521096
O O14 0.500000 0.000000 0.225193
#
# Coordination Sequence:
#
# PCOD9339123 Si02
#       6
#     4   4   4   4   4   4
#     4  10  28  44  76 107 157 183 256 292 387 434
#     4  12  25  39  69  96 133 185 219 302 350 433
#     4  10  25  46  72 107 149 195 240 311 362 454
#     4  11  23  41  63  92 126 171 229 285 341 415
#     4  10  24  47  74 108 146 196 248 302 369 440
#     4  11  24  42  64  93 133 177 238 287 353 419
#
# _framework density 24.457208000000001
#
# number of rings (size 3 to 8) (size 9 to 14) (size 15 to 20)
#    1.000    0.333    0.000    5.500    7.000    2.000 
#    3.000    0.000    0.000    0.000    0.000    0.000 
#    0.000    0.000    0.000    0.000    0.000    0.000 
#
# Total GULP energy -133867.269368 kJ/mol
# GULP energy per Si atom -5577.802890 kJ/mol
# Density = 2.440154 g / cm^3
# Si number density = 24.457208 Si / 1000 Ang^3
#
#
#
# Elastic Constant Matrix: (Units=GPa)
#
#
# Indices 1 2 3 4 5 6 
#
# 1 86.0372 4.4086 23.8779 0.0000 0.0000 0.0000
# 2 4.4086 94.9761 27.7853 0.0000 0.0000 0.0000
# 3 23.8779 27.7853 120.3897 0.0000 0.0000 0.0000
# 4 0.0000 0.0000 0.0000 -7.4764 0.0000 0.0000
# 5 0.0000 0.0000 0.0000 0.0000 28.1297 0.0000
# 6 0.0000 0.0000 0.0000 0.0000 0.0000 43.1902
#
#
#
# Elastic Compliance Matrix: (Units=1/GPa)
#
#
# Indices 1 2 3 4 5 6 
#
# 1 0.012302 0.000153 -0.002475 0.000000 0.000000 0.000000
# 2 0.000153 0.011293 -0.002637 0.000000 0.000000 0.000000
# 3 -0.002475 -0.002637 0.009406 0.000000 0.000000 0.000000
# 4 0.000000 0.000000 0.000000 -0.133754 0.000000 0.000000
# 5 0.000000 0.000000 0.000000 0.000000 0.035550 0.000000
# 6 0.000000 0.000000 0.000000 0.000000 0.000000 0.023153
#
#
# Mechanical properties :
#
#
# Convention : Reuss Voigt Hill
#
# Bulk Modulus (GPa) = 43.32161 45.94962 44.63561
# Shear Modulus (GPa) = -204.60592 29.12411 -87.74090
#
# Velocity S-wave (km/s) = -9.15644 3.45457 -5.99609
# Velocity P-wave (km/s) = 9.69719 5.89412 5.44494
#
# Compressibility (1/GPa) = 0.02308317
#
# Stress axis : x y z
#
# Youngs Moduli (GPa) = 81.28762 88.54848 106.31673
#
# Poissons Ratio (x) = -0.01356 0.26316
# Poissons Ratio (y) = -0.01245 0.28033
# Poissons Ratio (z) = 0.20121 0.23348
#
# Static dielectric constant tensor:
#      x y z
#    x 2.058450 0.000000 0.000000 
#    y 0.000000 1.958290 0.000000 
#    z 0.000000 0.000000 2.120500 
# 
# From -- ./inp_files/2043.got.cif
#   From: 2010.05.17/outbox.cif.g08.bks.cpg/sg27_2_cif.got.tgz:2043.got - 2010.06.04 01:11:05.
