data_PCOD9339868
_publ_section_title
;
Structure prediction by ZEFSAII (Michael W. Deem and Ramdas Pophale) SiO2 
 PCOD9339868
Probable space group: P M A 2
;
_chemical_formula_sum "Si O2"
_cell_formula_units_Z 10
_cell_length_a 14.595821
_cell_length_b 5.480530
_cell_length_c 5.069827
_cell_angle_alpha 90.000000
_cell_angle_beta 90.000000
_cell_angle_gamma 90.000000
_cell_volume 405.549834
_symmetry_space_group_name_H-M "P M A 2"
_symmetry_group_IT_number 28
_symmetry_cell_setting 'orthorhombic'
loop_
_space_group_symop_operation_xyz
x,y,z
-x,-y,z
1/2-x,y,z
1/2+x,-y,z
loop_
_atom_site_type_symbol
_atom_site_label
_atom_site_fract_x
_atom_site_fract_y
_atom_site_fract_z
Si Si1 0.651619 0.853265 0.104290
Si Si2 0.400949 0.876300 0.610996
Si Si3 0.000000 0.500000 0.284383
O O1 0.750000 0.729371 0.050825
O O2 0.560496 0.684200 0.106498
O O3 0.652702 0.970292 0.392836
O O4 0.640492 0.074576 0.895918
O O5 0.423846 0.618186 0.478753
O O6 0.500000 0.000000 0.619898
#
# Coordination Sequence:
#
# PCOD9339868 Si02
#       3
#     4   4   2
#     4  11  24  41  66 103 139 177 231 284 336 406
#     4  10  22  42  65  93 133 176 225 283 339 402
#     4  10  24  46  72  98 138 190 228 278 350 412
#
# _framework density 24.657883999999999
#
# number of rings (size 3 to 8) (size 9 to 14) (size 15 to 20)
#    0.000    1.600    0.000    4.800    0.000   17.600 
#    0.000    0.000    0.000    2.400    0.000    0.000 
#    0.000    0.000    0.000    0.000    0.000    0.000 
#
# Total GULP energy -55836.916267 kJ/mol
# GULP energy per Si atom -5583.691627 kJ/mol
# Density = 2.460176 g / cm^3
# Si number density = 24.657884 Si / 1000 Ang^3
#
#
#
# Elastic Constant Matrix: (Units=GPa)
#
#
# Indices 1 2 3 4 5 6 
#
# 1 157.9420 26.1236 38.3003 0.0000 0.0000 0.0000
# 2 26.1236 75.8963 22.3501 0.0000 0.0000 0.0000
# 3 38.3003 22.3501 123.7646 0.0000 0.0000 0.0000
# 4 0.0000 0.0000 0.0000 41.3591 0.0000 0.0000
# 5 0.0000 0.0000 0.0000 0.0000 22.0221 0.0000
# 6 0.0000 0.0000 0.0000 0.0000 0.0000 -0.0050
#
#
#
# Elastic Compliance Matrix: (Units=1/GPa)
#
#
# Indices 1 2 3 4 5 6 
#
# 1 0.007094 -0.001896 -0.001853 0.000000 0.000000 0.000000
# 2 -0.001896 0.014423 -0.002018 0.000000 0.000000 0.000000
# 3 -0.001853 -0.002018 0.009018 0.000000 0.000000 0.000000
# 4 0.000000 0.000000 0.000000 0.024178 0.000000 0.000000
# 5 0.000000 0.000000 0.000000 0.000000 0.045409 0.000000
# 6 0.000000 0.000000 0.000000 0.000000 0.000000**********
#
#
# Mechanical properties :
#
#
# Convention : Reuss Voigt Hill
#
# Bulk Modulus (GPa) = 52.62914 59.01676 55.82295
# Shear Modulus (GPa) = -0.02495 30.73049 15.35277
#
# Velocity S-wave (km/s) = -0.10071 3.53409 2.49796
# Velocity P-wave (km/s) = 4.62348 6.37489 5.56847
#
# Compressibility (1/GPa) = 0.01900088
#
# Stress axis : x y z
#
# Youngs Moduli (GPa) = 140.95576 69.33495 110.89342
#
# Poissons Ratio (x) = 0.13147 0.20549
# Poissons Ratio (y) = 0.26728 0.22375
# Poissons Ratio (z) = 0.26119 0.13990
#
# Static dielectric constant tensor:
#      x y z
#    x -0.579900 0.000000 0.000000 
#    y 0.000000 2.048980 0.000000 
#    z 0.000000 0.000000 1.915570 
# 
# From -- ./inp_files/881.got.cif
#   From: 2010.05.17/outbox.cif.g08.bks.cpg/sg28_1_cif.got.tgz:881.got - 2010.06.04 01:15:21.
