data_PCOD9339507
_publ_section_title
;
Structure prediction by ZEFSAII (Michael W. Deem and Ramdas Pophale) SiO2 
 PCOD9339507
Probable space group: P M A 2
;
_chemical_formula_sum "Si O2"
_cell_formula_units_Z 32
_cell_length_a 8.719945
_cell_length_b 14.617085
_cell_length_c 15.945005
_cell_angle_alpha 90.000000
_cell_angle_beta 90.000000
_cell_angle_gamma 90.000000
_cell_volume 2032.353164
_symmetry_space_group_name_H-M "P M A 2"
_symmetry_group_IT_number 28
_symmetry_cell_setting 'orthorhombic'
loop_
_space_group_symop_operation_xyz
x,y,z
-x,-y,z
1/2-x,y,z
1/2+x,-y,z
loop_
_atom_site_type_symbol
_atom_site_label
_atom_site_fract_x
_atom_site_fract_y
_atom_site_fract_z
Si Si1 0.933623 0.397149 0.263540
Si Si2 0.434265 0.398090 0.583851
Si Si3 0.934148 0.097234 0.678019
Si Si4 0.933127 0.603265 0.903989
Si Si5 0.566383 0.397257 0.076837
Si Si6 0.433863 0.901991 0.482402
Si Si7 0.433349 0.282945 0.416746
Si Si8 0.565257 0.292244 0.744667
O O1 0.750000 0.402785 0.270989
O O2 0.969295 0.359972 0.169633
O O3 0.000000 0.500000 0.271359
O O4 0.000895 0.333832 0.335763
O O5 0.500000 0.500000 0.577695
O O6 0.250000 0.400880 0.592578
O O7 0.472964 0.342057 0.499657
O O8 0.506734 0.348103 0.663966
O O9 0.750000 0.092001 0.679268
O O10 0.980831 0.111095 0.580426
O O11 0.980495 0.186385 0.730315
O O12 0.000000 0.000000 0.706473
O O13 0.750000 0.597793 0.903515
O O14 0.000000 0.500000 0.895495
O O15 0.994002 0.663288 0.827296
O O16 0.991509 0.643064 0.993136
O O17 0.500000 0.500000 0.079541
O O18 0.750000 0.399837 0.066688
O O19 0.250000 0.903142 0.478857
O O20 0.498368 0.817632 0.430020
O O21 0.500000 0.000000 0.455720
O O22 0.250000 0.278140 0.411285
O O23 0.750000 0.297510 0.748357
#
# Coordination Sequence:
#
# PCOD9339507 Si02
#       8
#     4   4   4   4   4   4   4   4
#     4  10  20  33  51  74 102 134 169 208 250 297
#     4  11  23  35  47  66  96 134 171 205 240 286
#     4   9  19  33  52  73  95 126 161 205 251 292
#     4  11  21  33  50  73 100 133 167 206 248 293
#     4   9  17  31  50  72  97 128 164 206 250 293
#     4  10  19  34  53  74  98 128 166 210 256 298
#     4  11  22  34  50  73 100 134 171 207 249 297
#     4  11  21  35  51  71  98 131 167 203 246 294
#
# _framework density 15.745296
#
# number of rings (size 3 to 8) (size 9 to 14) (size 15 to 20)
#    0.000    1.750    1.250    4.875    0.000    5.500 
#    0.000    0.000    0.000    0.000    0.000    0.875 
#    0.000    4.000    0.000    0.000    0.000    0.000 
#
# Total GULP energy -178607.128545 kJ/mol
# GULP energy per Si atom -5581.472767 kJ/mol
# Density = 1.570946 g / cm^3
# Si number density = 15.745296 Si / 1000 Ang^3
#
#
#
# Elastic Constant Matrix: (Units=GPa)
#
#
# Indices 1 2 3 4 5 6 
#
# 1 76.4331 47.4413 62.1149 0.0000 0.0000 0.0000
# 2 47.4413 125.0414 75.5337 0.0000 0.0000 0.0000
# 3 62.1149 75.5337 147.2909 0.0000 0.0000 0.0000
# 4 0.0000 0.0000 0.0000 4.3545 0.0000 0.0000
# 5 0.0000 0.0000 0.0000 0.0000 28.9660 0.0000
# 6 0.0000 0.0000 0.0000 0.0000 0.0000 25.7789
#
#
#
# Elastic Compliance Matrix: (Units=1/GPa)
#
#
# Indices 1 2 3 4 5 6 
#
# 1 0.021087 -0.003808 -0.006940 0.000000 0.000000 0.000000
# 2 -0.003808 0.012274 -0.004689 0.000000 0.000000 0.000000
# 3 -0.006940 -0.004689 0.012120 0.000000 0.000000 0.000000
# 4 0.000000 0.000000 0.000000 0.229645 0.000000 0.000000
# 5 0.000000 0.000000 0.000000 0.000000 0.034523 0.000000
# 6 0.000000 0.000000 0.000000 0.000000 0.000000 0.038791
#
#
# Mechanical properties :
#
#
# Convention : Reuss Voigt Hill
#
# Bulk Modulus (GPa) = 68.45393 79.88278 74.16836
# Shear Modulus (GPa) = 13.01461 22.73159 17.87310
#
# Velocity S-wave (km/s) = 2.87813 3.80374 3.37284
# Velocity P-wave (km/s) = 7.39020 8.37471 7.89781
#
# Compressibility (1/GPa) = 0.01460837
#
# Stress axis : x y z
#
# Youngs Moduli (GPa) = 47.42310 81.46988 82.50697
#
# Poissons Ratio (x) = 0.31027 0.57256
# Poissons Ratio (y) = 0.18061 0.38684
# Poissons Ratio (z) = 0.32910 0.38197
#
# Static dielectric constant tensor:
#      x y z
#    x 1.526350 0.000000 0.000000 
#    y 0.000000 1.499930 0.000000 
#    z 0.000000 0.000000 1.534150 
# 
# From -- ./inp_files/6300.got.cif
#   From: 2010.05.17/outbox.cif.g08.bks.cpg/sg28_4_cif.got.tgz:6300.got - 2010.06.04 01:15:21.
