data_PCOD9339091
_publ_section_title
;
Structure prediction by ZEFSAII (Michael W. Deem and Ramdas Pophale) SiO2 
 PCOD9339091
Probable space group: P C C 2
;
_chemical_formula_sum "Si O2"
_cell_formula_units_Z 26
_cell_length_a 22.549356
_cell_length_b 4.997475
_cell_length_c 8.731517
_cell_angle_alpha 90.000000
_cell_angle_beta 90.000000
_cell_angle_gamma 90.000000
_cell_volume 983.953279
_symmetry_space_group_name_H-M "P C C 2"
_symmetry_group_IT_number 27
_symmetry_cell_setting 'orthorhombic'
loop_
_space_group_symop_operation_xyz
x,y,z
-x,-y,z
-x,y,1/2+z
x,-y,1/2+z
loop_
_atom_site_type_symbol
_atom_site_label
_atom_site_fract_x
_atom_site_fract_y
_atom_site_fract_z
Si Si1 0.500000 0.000000 0.535590
Si Si2 0.078781 0.721776 0.226389
Si Si3 0.000000 0.000000 0.474237
Si Si4 0.227914 0.603963 0.431574
Si Si5 0.844972 0.780919 0.208575
Si Si6 0.605273 0.727128 0.421216
Si Si7 0.500000 0.500000 0.758546
Si Si8 0.316415 0.575308 0.195994
O O1 0.560038 0.972182 0.436510
O O2 0.496513 0.750148 0.647426
O O3 0.097405 0.413594 0.216737
O O4 0.038612 0.803646 0.368935
O O5 0.137162 0.912350 0.234602
O O6 0.043429 0.823600 0.078537
O O7 0.197063 0.362203 0.335687
O O8 0.180687 0.758646 0.536690
O O9 0.275639 0.740469 0.316277
O O10 0.270125 0.502782 0.566405
O O11 0.557345 0.509542 0.366096
O O12 0.655944 0.672214 0.293876
O O13 0.632713 0.701968 0.590699
#
# Coordination Sequence:
#
# PCOD9339091 Si02
#       8
#     2   4   2   4   4   4   2   4
#     4  12  26  46  78 106 142 190 236 286 344 450
#     4  11  24  40  66  96 137 188 229 293 347 420
#     4  10  24  40  60 100 142 180 238 282 354 418
#     4   9  20  40  73 102 138 177 245 292 358 426
#     4  11  22  41  70  97 136 185 238 289 354 418
#     4  11  22  45  75 106 148 185 237 286 368 429
#     4  12  26  46  74 108 140 190 234 288 340 452
#     4   9  20  42  78 102 147 181 233 300 368 422
#
# _framework density 26.424018
#
# number of rings (size 3 to 8) (size 9 to 14) (size 15 to 20)
#    0.000    1.538    1.538    2.769    0.000    3.692 
#    0.000    0.000   50.769    0.000    0.000    0.000 
#    0.000    0.000    0.000    0.000    0.000    0.000 
#
# Total GULP energy -145458.254570 kJ/mol
# GULP energy per Si atom -5594.548253 kJ/mol
# Density = 2.636388 g / cm^3
# Si number density = 26.424018 Si / 1000 Ang^3
#
#
#
# Elastic Constant Matrix: (Units=GPa)
#
#
# Indices 1 2 3 4 5 6 
#
# 1 114.5025 9.1066 57.4117 0.0000 0.0000 0.0000
# 2 9.1066 110.3401 25.7775 0.0000 0.0000 0.0000
# 3 57.4117 25.7775 175.6104 0.0000 0.0000 0.0000
# 4 0.0000 0.0000 0.0000 36.6680 0.0000 0.0000
# 5 0.0000 0.0000 0.0000 0.0000 71.3750 0.0000
# 6 0.0000 0.0000 0.0000 0.0000 0.0000 17.4457
#
#
#
# Elastic Compliance Matrix: (Units=1/GPa)
#
#
# Indices 1 2 3 4 5 6 
#
# 1 0.010446 -0.000067 -0.003405 0.000000 0.000000 0.000000
# 2 -0.000067 0.009385 -0.001356 0.000000 0.000000 0.000000
# 3 -0.003405 -0.001356 0.007007 0.000000 0.000000 0.000000
# 4 0.000000 0.000000 0.000000 0.027272 0.000000 0.000000
# 5 0.000000 0.000000 0.000000 0.000000 0.014011 0.000000
# 6 0.000000 0.000000 0.000000 0.000000 0.000000 0.057321
#
#
# Mechanical properties :
#
#
# Convention : Reuss Voigt Hill
#
# Bulk Modulus (GPa) = 58.19889 65.00495 61.60192
# Shear Modulus (GPa) = 35.50529 45.64154 40.57342
#
# Velocity S-wave (km/s) = 3.66959 4.16056 3.92276
# Velocity P-wave (km/s) = 6.32672 6.90901 6.62427
#
# Compressibility (1/GPa) = 0.01718246
#
# Stress axis : x y z
#
# Youngs Moduli (GPa) = 95.72869 106.55147 142.71950
#
# Poissons Ratio (x) = 0.00710 0.48601
# Poissons Ratio (y) = 0.00637 0.19351
# Poissons Ratio (z) = 0.32599 0.14447
#
# Static dielectric constant tensor:
#      x y z
#    x 2.192210 0.000000 0.000000 
#    y 0.000000 2.044800 0.000000 
#    z 0.000000 0.000000 2.070950 
# 
# From -- ./inp_files/1749.got.cif
#   From: 2010.05.17/outbox.cif.g08.bks.cpg/sg27_1_cif.got.tgz:1749.got - 2010.06.04 01:11:05.
