data_PCOD9339758
_publ_section_title
;
Structure prediction by ZEFSAII (Michael W. Deem and Ramdas Pophale) SiO2 
 PCOD9339758
Probable space group: P M A 2
;
_chemical_formula_sum "Si O2"
_cell_formula_units_Z 28
_cell_length_a 8.471894
_cell_length_b 9.235140
_cell_length_c 19.072402
_cell_angle_alpha 90.000000
_cell_angle_beta 90.000000
_cell_angle_gamma 90.000000
_cell_volume 1492.208085
_symmetry_space_group_name_H-M "P M A 2"
_symmetry_group_IT_number 28
_symmetry_cell_setting 'orthorhombic'
loop_
_space_group_symop_operation_xyz
x,y,z
-x,-y,z
1/2-x,y,z
1/2+x,-y,z
loop_
_atom_site_type_symbol
_atom_site_label
_atom_site_fract_x
_atom_site_fract_y
_atom_site_fract_z
Si Si1 0.559571 0.334246 0.312380
Si Si2 0.058964 0.665088 0.159479
Si Si3 0.060323 0.666341 0.463676
Si Si4 0.059055 0.836772 0.022151
Si Si5 0.940683 0.336473 0.883874
Si Si6 0.562401 0.665080 0.611118
Si Si7 0.939345 0.163358 0.745430
O O1 0.500000 0.500000 0.312227
O O2 0.750000 0.335394 0.312949
O O3 0.508688 0.275349 0.236362
O O4 0.510354 0.269476 0.387837
O O5 0.250000 0.661914 0.158391
O O6 0.004480 0.759883 0.093866
O O7 0.000000 0.500000 0.152608
O O8 0.250000 0.666383 0.467933
O O9 0.000000 0.500000 0.462546
O O10 0.992897 0.727920 0.535906
O O11 0.250000 0.837356 0.022427
O O12 0.006548 0.745900 0.954236
O O13 0.000000 0.000000 0.017900
O O14 0.750000 0.337919 0.883937
O O15 0.993327 0.251053 0.814399
O O16 0.000000 0.500000 0.882982
O O17 0.500000 0.500000 0.616921
O O18 0.750000 0.660569 0.612462
O O19 0.499065 0.757351 0.675750
O O20 0.750000 0.162862 0.744867
O O21 0.000000 0.000000 0.748378
#
# Coordination Sequence:
#
# PCOD9339758 Si02
#       7
#     4   4   4   4   4   4   4
#     4   8  14  24  41  67  98 131 166 210 260 306
#     4   9  17  30  49  74 103 134 172 215 259 306
#     4   9  15  25  43  69 100 133 170 213 263 311
#     4  10  21  36  53  76 106 139 174 211 253 303
#     4  10  22  38  58  83 108 135 170 212 256 304
#     4  11  21  34  53  78 107 139 177 220 265 312
#     4  11  23  39  57  79 107 139 175 213 259 312
#
# _framework density 18.764139
#
# number of rings (size 3 to 8) (size 9 to 14) (size 15 to 20)
#    0.000    2.286    0.000    4.286    0.000    4.000 
#    0.000    0.000    0.000    0.857    0.000    2.000 
#    0.000    0.000    0.000    0.000    0.000    0.000 
#
# Total GULP energy -156142.466373 kJ/mol
# GULP energy per Si atom -5576.516656 kJ/mol
# Density = 1.872143 g / cm^3
# Si number density = 18.764139 Si / 1000 Ang^3
#
#
#
# Elastic Constant Matrix: (Units=GPa)
#
#
# Indices 1 2 3 4 5 6 
#
# 1 41.4179 19.2610 40.3763 0.0000 0.0000 0.0000
# 2 19.2610 101.6662 94.7513 0.0000 0.0000 0.0000
# 3 40.3763 94.7513 247.3491 0.0000 0.0000 0.0000
# 4 0.0000 0.0000 0.0000 -6.8247 0.0000 0.0000
# 5 0.0000 0.0000 0.0000 0.0000 8.6782 0.0000
# 6 0.0000 0.0000 0.0000 0.0000 0.0000 26.1719
#
#
#
# Elastic Compliance Matrix: (Units=1/GPa)
#
#
# Indices 1 2 3 4 5 6 
#
# 1 0.028896 -0.001677 -0.004074 0.000000 0.000000 0.000000
# 2 -0.001677 0.015395 -0.005623 0.000000 0.000000 0.000000
# 3 -0.004074 -0.005623 0.006862 0.000000 0.000000 0.000000
# 4 0.000000 0.000000 0.000000 -0.146527 0.000000 0.000000
# 5 0.000000 0.000000 0.000000 0.000000 0.115232 0.000000
# 6 0.000000 0.000000 0.000000 0.000000 0.000000 0.038209
#
#
# Mechanical properties :
#
#
# Convention : Reuss Voigt Hill
#
# Bulk Modulus (GPa) = 35.20770 77.69006 56.44888
# Shear Modulus (GPa) = 55.38064 21.34139 38.36101
#
# Velocity S-wave (km/s) = 5.43858 3.37612 4.52639
# Velocity P-wave (km/s) = 7.63162 7.52934 7.58065
#
# Compressibility (1/GPa) = 0.02840288
#
# Stress axis : x y z
#
# Youngs Moduli (GPa) = 34.60682 64.95680 145.72735
#
# Poissons Ratio (x) = 0.10894 0.59375
# Poissons Ratio (y) = 0.05804 0.81950
# Poissons Ratio (z) = 0.14100 0.36528
#
# Static dielectric constant tensor:
#      x y z
#    x 1.632610 0.000000 0.000000 
#    y 0.000000 1.595470 0.000000 
#    z 0.000000 0.000000 1.711280 
# 
# From -- ./inp_files/6719.got.cif
#   From: 2010.05.17/outbox.cif.g08.bks.cpg/sg28_4_cif.got.tgz:6719.got - 2010.06.04 01:15:21.
