data_PCOD9339487
_publ_section_title
;
Structure prediction by ZEFSAII (Michael W. Deem and Ramdas Pophale) SiO2 
 PCOD9339487
Probable space group: P M A 2
;
_chemical_formula_sum "Si O2"
_cell_formula_units_Z 32
_cell_length_a 9.014159
_cell_length_b 14.866294
_cell_length_c 12.580298
_cell_angle_alpha 90.000000
_cell_angle_beta 90.000000
_cell_angle_gamma 90.000000
_cell_volume 1685.849728
_symmetry_space_group_name_H-M "P M A 2"
_symmetry_group_IT_number 28
_symmetry_cell_setting 'orthorhombic'
loop_
_space_group_symop_operation_xyz
x,y,z
-x,-y,z
1/2-x,y,z
1/2+x,-y,z
loop_
_atom_site_type_symbol
_atom_site_label
_atom_site_fract_x
_atom_site_fract_y
_atom_site_fract_z
Si Si1 0.071500 0.400396 0.500000
Si Si2 0.077029 0.155839 0.000297
Si Si3 0.074016 0.664064 0.932870
Si Si4 0.425605 0.585955 0.145886
Si Si5 0.076627 0.091506 0.764078
Si Si6 0.573160 0.905626 0.240396
Si Si7 0.072492 0.293832 0.717574
Si Si8 0.427211 0.728136 0.323073
O O1 0.250000 0.407384 0.486333
O O2 0.041014 0.349865 0.611842
O O3 0.000000 0.500000 0.497034
O O4 0.001291 0.334817 0.411732
O O5 0.250000 0.187267 0.003127
O O6 0.064156 0.097199 0.892981
O O7 0.967396 0.237986 0.978679
O O8 0.045415 0.111221 0.113783
O O9 0.250000 0.654874 0.921627
O O10 0.997067 0.657604 0.819546
O O11 0.018924 0.598795 0.025894
O O12 0.500000 0.500000 0.198209
O O13 0.250000 0.572069 0.143523
O O14 0.453923 0.674922 0.212988
O O15 0.250000 0.085906 0.737627
O O16 0.020961 0.188625 0.719953
O O17 0.000000 0.000000 0.726758
O O18 0.750000 0.907183 0.255362
O O19 0.501601 0.824861 0.307715
O O20 0.500000 0.000000 0.269576
O O21 0.250000 0.290155 0.731916
O O22 0.250000 0.735255 0.339950
#
# Coordination Sequence:
#
# PCOD9339487 Si02
#       8
#     4   4   4   4   4   4   4   4
#     4  11  24  44  68  91 115 150 199 254 309 365
#     4   9  18  32  51  78 116 161 200 236 288 348
#     4  10  19  33  54  83 118 154 194 241 293 350
#     4  10  22  36  54  83 117 153 190 237 294 357
#     4   9  17  31  51  80 115 153 193 232 281 338
#     4  11  22  36  58  88 122 163 205 248 300 357
#     4   9  21  40  59  82 117 155 194 243 297 358
#     4  11  23  42  63  87 121 155 199 253 303 359
#
# _framework density 18.981525000000001
#
# number of rings (size 3 to 8) (size 9 to 14) (size 15 to 20)
#    0.000    2.000    1.250    3.000    0.000    7.000 
#    0.000    3.125    0.000    1.500    0.000    0.000 
#    0.000    0.000    0.000    0.000    0.000    0.000 
#
# Total GULP energy -178522.217239 kJ/mol
# GULP energy per Si atom -5578.819289 kJ/mol
# Density = 1.893832 g / cm^3
# Si number density = 18.981525 Si / 1000 Ang^3
#
#
#
# Elastic Constant Matrix: (Units=GPa)
#
#
# Indices 1 2 3 4 5 6 
#
# 1 47.2348 67.1860 60.8117 0.0000 0.0000 0.0000
# 2 67.1860 142.1019 61.2442 0.0000 0.0000 0.0000
# 3 60.8117 61.2442 101.6903 0.0000 0.0000 0.0000
# 4 0.0000 0.0000 0.0000 15.5801 0.0000 0.0000
# 5 0.0000 0.0000 0.0000 0.0000 23.4596 0.0000
# 6 0.0000 0.0000 0.0000 0.0000 0.0000 31.1817
#
#
#
# Elastic Compliance Matrix: (Units=1/GPa)
#
#
# Indices 1 2 3 4 5 6 
#
# 1 0.502032 -0.145821 -0.212397 0.000000 0.000000 0.000000
# 2 -0.145821 0.051860 0.055969 0.000000 0.000000 0.000000
# 3 -0.212397 0.055969 0.103141 0.000000 0.000000 0.000000
# 4 0.000000 0.000000 0.000000 0.064185 0.000000 0.000000
# 5 0.000000 0.000000 0.000000 0.000000 0.042626 0.000000
# 6 0.000000 0.000000 0.000000 0.000000 0.000000 0.032070
#
#
# Mechanical properties :
#
#
# Convention : Reuss Voigt Hill
#
# Bulk Modulus (GPa) = 19.03505 74.39010 46.71258
# Shear Modulus (GPa) = 3.52628 20.82994 12.17811
#
# Velocity S-wave (km/s) = 1.36447 3.31627 2.53569
# Velocity P-wave (km/s) = 3.54010 7.34434 5.76505
#
# Compressibility (1/GPa) = 0.05253467
#
# Stress axis : x y z
#
# Youngs Moduli (GPa) = 1.99190 19.28283 9.69546
#
# Poissons Ratio (x) = 2.81184 2.05929
# Poissons Ratio (y) = 0.29046 -0.54265
# Poissons Ratio (z) = 0.42307 -1.07924
#
# Static dielectric constant tensor:
#      x y z
#    x 1.634560 0.000000 0.000000 
#    y 0.000000 1.674900 0.000000 
#    z 0.000000 0.000000 1.671790 
# 
# From -- ./inp_files/5064.got.cif
#   From: 2010.05.17/outbox.cif.g08.bks.cpg/sg28_3_cif.got.tgz:5064.got - 2010.06.04 01:15:21.
