data_PCOD9339375
_publ_section_title
;
Structure prediction by ZEFSAII (Michael W. Deem and Ramdas Pophale) SiO2 
 PCOD9339375
Probable space group: P M A 2
;
_chemical_formula_sum "Si O2"
_cell_formula_units_Z 28
_cell_length_a 8.870249
_cell_length_b 15.575471
_cell_length_c 13.032537
_cell_angle_alpha 90.000000
_cell_angle_beta 90.000000
_cell_angle_gamma 90.000000
_cell_volume 1800.553236
_symmetry_space_group_name_H-M "P M A 2"
_symmetry_group_IT_number 28
_symmetry_cell_setting 'orthorhombic'
loop_
_space_group_symop_operation_xyz
x,y,z
-x,-y,z
1/2-x,y,z
1/2+x,-y,z
loop_
_atom_site_type_symbol
_atom_site_label
_atom_site_fract_x
_atom_site_fract_y
_atom_site_fract_z
Si Si1 0.575824 0.088868 0.904690
Si Si2 0.568739 0.594759 0.314270
Si Si3 0.068820 0.266812 0.149196
Si Si4 0.422592 0.912420 0.154232
Si Si5 0.430935 0.404329 0.541914
Si Si6 0.930669 0.404012 0.751785
Si Si7 0.930994 0.729512 0.909502
O O1 0.750000 0.094177 0.872201
O O2 0.486478 0.175415 0.877191
O O3 0.500000 0.000000 0.869046
O O4 0.574442 0.085702 0.029412
O O5 0.500000 0.500000 0.304374
O O6 0.750000 0.586488 0.308072
O O7 0.516317 0.657959 0.224585
O O8 0.535731 0.631613 0.428463
O O9 0.250000 0.263610 0.153015
O O10 0.006308 0.174776 0.183412
O O11 0.027571 0.281518 0.029959
O O12 0.250000 0.909807 0.187053
O O13 0.500000 0.000000 0.190098
O O14 0.500000 0.500000 0.537238
O O15 0.250000 0.407599 0.555770
O O16 0.507844 0.366689 0.643275
O O17 0.750000 0.409639 0.750348
O O18 0.000000 0.500000 0.763283
O O19 0.989523 0.342712 0.841639
O O20 0.750000 0.723648 0.900199
#
# Coordination Sequence:
#
# PCOD9339375 Si02
#       7
#     4   4   4   4   4   4   4
#     4   9  16  27  43  64  89 118 152 188 226 265
#     4   9  18  31  47  67  91 119 150 186 225 265
#     4   9  18  31  45  65  94 124 152 183 221 267
#     4   9  16  26  42  63  87 117 151 187 224 262
#     4   9  16  29  48  67  86 110 146 189 230 267
#     4  11  21  33  48  66  90 119 153 191 229 269
#     4  10  19  31  46  66  94 125 155 186 223 269
#
# _framework density 15.550776000000001
#
# number of rings (size 3 to 8) (size 9 to 14) (size 15 to 20)
#    0.000    2.571    0.000    3.857    0.000    5.714 
#    0.000    1.429    0.000    0.000    0.000    1.000 
#    0.000    2.286    0.000    0.000    0.000    0.000 
#
# Total GULP energy -155948.669347 kJ/mol
# GULP energy per Si atom -5569.595334 kJ/mol
# Density = 1.551538 g / cm^3
# Si number density = 15.550776 Si / 1000 Ang^3
#
#
#
# Elastic Constant Matrix: (Units=GPa)
#
#
# Indices 1 2 3 4 5 6 
#
# 1 76.2173 44.1484 43.6047 0.0000 0.0000 0.0000
# 2 44.1484 107.2081 63.5962 0.0000 0.0000 0.0000
# 3 43.6047 63.5962 83.2335 0.0000 0.0000 0.0000
# 4 0.0000 0.0000 0.0000 -1.4564 0.0000 0.0000
# 5 0.0000 0.0000 0.0000 0.0000 17.5853 0.0000
# 6 0.0000 0.0000 0.0000 0.0000 0.0000 28.1843
#
#
#
# Elastic Compliance Matrix: (Units=1/GPa)
#
#
# Indices 1 2 3 4 5 6 
#
# 1 0.019466 -0.003597 -0.007450 0.000000 0.000000 0.000000
# 2 -0.003597 0.017725 -0.011659 0.000000 0.000000 0.000000
# 3 -0.007450 -0.011659 0.024825 0.000000 0.000000 0.000000
# 4 0.000000 0.000000 0.000000 -0.686628 0.000000 0.000000
# 5 0.000000 0.000000 0.000000 0.000000 0.056866 0.000000
# 6 0.000000 0.000000 0.000000 0.000000 0.000000 0.035481
#
#
# Mechanical properties :
#
#
# Convention : Reuss Voigt Hill
#
# Bulk Modulus (GPa) = 60.22080 63.26194 61.74137
# Shear Modulus (GPa) = -10.38809 16.54995 3.08093
#
# Velocity S-wave (km/s) = -2.58739 3.26583 1.40908
# Velocity P-wave (km/s) = 5.46655 7.41553 6.51434
#
# Compressibility (1/GPa) = 0.01660556
#
# Stress axis : x y z
#
# Youngs Moduli (GPa) = 51.37201 56.41804 40.28185
#
# Poissons Ratio (x) = 0.20293 0.30008
# Poissons Ratio (y) = 0.18478 0.46963
# Poissons Ratio (z) = 0.38270 0.65776
#
# Static dielectric constant tensor:
#      x y z
#    x 1.521170 0.000000 0.000000 
#    y 0.000000 1.501460 0.000000 
#    z 0.000000 0.000000 1.534210 
# 
# From -- ./inp_files/6361.got.cif
#   From: 2010.05.17/outbox.cif.g08.bks.cpg/sg28_4_cif.got.tgz:6361.got - 2010.06.04 01:15:21.
