data_PCOD9339517
_publ_section_title
;
Structure prediction by ZEFSAII (Michael W. Deem and Ramdas Pophale) SiO2 
 PCOD9339517
Probable space group: P M A 2
;
_chemical_formula_sum "Si O2"
_cell_formula_units_Z 32
_cell_length_a 8.079366
_cell_length_b 20.058849
_cell_length_c 10.523705
_cell_angle_alpha 90.000000
_cell_angle_beta 90.000000
_cell_angle_gamma 90.000000
_cell_volume 1705.500916
_symmetry_space_group_name_H-M "P M A 2"
_symmetry_group_IT_number 28
_symmetry_cell_setting 'orthorhombic'
loop_
_space_group_symop_operation_xyz
x,y,z
-x,-y,z
1/2-x,y,z
1/2+x,-y,z
loop_
_atom_site_type_symbol
_atom_site_label
_atom_site_fract_x
_atom_site_fract_y
_atom_site_fract_z
Si Si1 0.553178 0.708360 0.078540
Si Si2 0.050570 0.713021 0.571260
Si Si3 0.447273 0.426148 0.666385
Si Si4 0.050071 0.926532 0.212054
Si Si5 0.553242 0.210964 0.323098
Si Si6 0.551239 0.072700 0.918668
Si Si7 0.550546 0.573779 0.958117
Si Si8 0.048923 0.786802 0.826377
O O1 0.750000 0.706736 0.099469
O O2 0.473255 0.744070 0.198704
O O3 0.492263 0.633561 0.047765
O O4 0.515561 0.749882 0.951370
O O5 0.250000 0.716939 0.570382
O O6 0.986102 0.751163 0.446795
O O7 0.991394 0.749761 0.699473
O O8 0.005808 0.635384 0.581846
O O9 0.500000 0.500000 0.624359
O O10 0.250000 0.424445 0.671159
O O11 0.510622 0.416775 0.812287
O O12 0.250000 0.923756 0.209489
O O13 0.987865 0.863266 0.292089
O O14 0.991424 0.919961 0.065106
O O15 0.000000 0.000000 0.257827
O O16 0.750000 0.203430 0.342618
O O17 0.750000 0.074388 0.923139
O O18 0.496484 0.136058 0.837147
O O19 0.500000 0.000000 0.871621
O O20 0.500000 0.500000 0.999391
O O21 0.750000 0.577195 0.954148
O O22 0.250000 0.784390 0.829225
#
# Coordination Sequence:
#
# PCOD9339517 Si02
#       8
#     4   4   4   4   4   4   4   4
#     4  11  21  34  54  82 109 137 177 223 270 316
#     4  10  21  36  57  81 108 145 185 222 269 322
#     4  10  19  34  55  80 111 141 178 224 267 319
#     4   9  17  31  51  74 103 137 176 220 265 317
#     4  10  21  38  55  78 110 145 183 222 266 322
#     4   9  17  30  49  75 105 137 175 219 270 318
#     4   9  19  33  51  79 109 137 172 218 267 315
#     4  10  19  34  55  79 106 139 178 220 268 323
#
# _framework density 18.762817999999999
#
# number of rings (size 3 to 8) (size 9 to 14) (size 15 to 20)
#    0.000    2.250    2.500    0.750    0.000    3.000 
#    0.000    1.250    0.000    1.500    0.000    0.000 
#    0.000    0.000    0.000    0.000    0.000    0.000 
#
# Total GULP energy -178516.452736 kJ/mol
# GULP energy per Si atom -5578.639148 kJ/mol
# Density = 1.872011 g / cm^3
# Si number density = 18.762818 Si / 1000 Ang^3
#
#
#
# Elastic Constant Matrix: (Units=GPa)
#
#
# Indices 1 2 3 4 5 6 
#
# 1 7.6726 1.4405 -1.5490 0.0000 0.0000 0.0000
# 2 1.4405 179.6809 61.3640 0.0000 0.0000 0.0000
# 3 -1.5490 61.3640 84.8218 0.0000 0.0000 0.0000
# 4 0.0000 0.0000 0.0000 26.3116 0.0000 0.0000
# 5 0.0000 0.0000 0.0000 0.0000 6.7983 0.0000
# 6 0.0000 0.0000 0.0000 0.0000 0.0000 26.4546
#
#
#
# Elastic Compliance Matrix: (Units=1/GPa)
#
#
# Indices 1 2 3 4 5 6 
#
# 1 0.131651 -0.002492 0.004207 0.000000 0.000000 0.000000
# 2 -0.002492 0.007439 -0.005427 0.000000 0.000000 0.000000
# 3 0.004207 -0.005427 0.015792 0.000000 0.000000 0.000000
# 4 0.000000 0.000000 0.000000 0.038006 0.000000 0.000000
# 5 0.000000 0.000000 0.000000 0.000000 0.147095 0.000000
# 6 0.000000 0.000000 0.000000 0.000000 0.000000 0.037801
#
#
# Mechanical properties :
#
#
# Convention : Reuss Voigt Hill
#
# Bulk Modulus (GPa) = 6.78157 43.85404 25.31781
# Shear Modulus (GPa) = 11.51113 25.97423 18.74268
#
# Velocity S-wave (km/s) = 2.47960 3.72472 3.16401
# Velocity P-wave (km/s) = 3.43803 6.47469 5.18371
#
# Compressibility (1/GPa) = 0.14745838
#
# Stress axis : x y z
#
# Youngs Moduli (GPa) = 7.59581 134.42934 63.32128
#
# Poissons Ratio (x) = 0.33504 -0.26641
# Poissons Ratio (y) = 0.01893 0.34365
# Poissons Ratio (z) = -0.03196 0.72956
#
# Static dielectric constant tensor:
#      x y z
#    x 1.666990 0.000000 0.000000 
#    y 0.000000 1.665010 0.000000 
#    z 0.000000 0.000000 1.632250 
# 
# From -- ./inp_files/5200.got.cif
#   From: 2010.05.17/outbox.cif.g08.bks.cpg/sg28_3_cif.got.tgz:5200.got - 2010.06.04 01:15:21.
