data_PCOD9339035
_publ_section_title
;
Structure prediction by ZEFSAII (Michael W. Deem and Ramdas Pophale) SiO2 
 PCOD9339035
Probable space group: P C C 2
;
_chemical_formula_sum "Si O2"
_cell_formula_units_Z 32
_cell_length_a 12.133698
_cell_length_b 8.421320
_cell_length_c 14.787374
_cell_angle_alpha 90.000000
_cell_angle_beta 90.000000
_cell_angle_gamma 90.000000
_cell_volume 1510.999807
_symmetry_space_group_name_H-M "P C C 2"
_symmetry_group_IT_number 27
_symmetry_cell_setting 'orthorhombic'
loop_
_space_group_symop_operation_xyz
x,y,z
-x,-y,z
-x,y,1/2+z
x,-y,1/2+z
loop_
_atom_site_type_symbol
_atom_site_label
_atom_site_fract_x
_atom_site_fract_y
_atom_site_fract_z
Si Si1 0.981499 0.689477 0.763090
Si Si2 0.946843 0.171378 0.948809
Si Si3 0.228273 0.597636 0.178317
Si Si4 0.582312 0.366969 0.706518
Si Si5 0.697732 0.812838 0.520059
Si Si6 0.334453 0.179723 0.036638
Si Si7 0.496108 0.191964 0.385069
Si Si8 0.898053 0.673309 0.081038
O O1 0.850501 0.698979 0.743703
O O2 0.000000 0.500000 0.779506
O O3 0.027595 0.790504 0.845074
O O4 0.047147 0.739977 0.672834
O O5 0.818663 0.178569 0.974591
O O6 0.000000 0.000000 0.972563
O O7 0.011613 0.305450 0.004657
O O8 0.304603 0.465612 0.226541
O O9 0.295719 0.708133 0.110206
O O10 0.145603 0.497511 0.113461
O O11 0.500000 0.500000 0.672205
O O12 0.606746 0.250225 0.624478
O O13 0.525734 0.280681 0.791184
O O14 0.606640 0.758558 0.448453
O O15 0.662710 0.991184 0.543031
O O16 0.209264 0.237213 0.044240
O O17 0.395033 0.231086 0.943964
O O18 0.500000 0.000000 0.371232
#
# Coordination Sequence:
#
# PCOD9339035 Si02
#       8
#     4   4   4   4   4   4   4   4
#     4  10  24  40  62  98 139 179 227 280 338 402
#     4  12  25  39  65 101 134 187 229 279 339 405
#     4  10  23  41  66 100 136 182 226 280 345 406
#     4  11  25  44  71 101 130 178 230 281 348 408
#     4  11  23  42  68  97 136 179 228 278 349 401
#     4  10  23  46  70  93 135 178 227 285 338 408
#     4  10  25  44  65  99 133 173 224 284 344 409
#     4  10  22  44  64  96 137 182 230 277 339 403
#
# _framework density 21.17803
#
# number of rings (size 3 to 8) (size 9 to 14) (size 15 to 20)
#    0.000    1.500    2.500    0.750    7.000    7.500 
#    0.000    0.000    0.000    0.000    0.000    0.000 
#    0.000    0.000    0.000    0.000    0.000    0.000 
#
# Total GULP energy -178781.779006 kJ/mol
# GULP energy per Si atom -5586.930594 kJ/mol
# Density = 2.112983 g / cm^3
# Si number density = 21.178030 Si / 1000 Ang^3
#
#
#
# Elastic Constant Matrix: (Units=GPa)
#
#
# Indices 1 2 3 4 5 6 
#
# 1 86.0016 29.3410 51.2256 0.0000 0.0000 0.0000
# 2 29.3410 48.2165 32.4227 0.0000 0.0000 0.0000
# 3 51.2256 32.4227 106.3880 0.0000 0.0000 0.0000
# 4 0.0000 0.0000 0.0000 22.6817 0.0000 0.0000
# 5 0.0000 0.0000 0.0000 0.0000 28.6988 0.0000
# 6 0.0000 0.0000 0.0000 0.0000 0.0000 35.0923
#
#
#
# Elastic Compliance Matrix: (Units=1/GPa)
#
#
# Indices 1 2 3 4 5 6 
#
# 1 0.017724 -0.006348 -0.006600 0.000000 0.000000 0.000000
# 2 -0.006348 0.028359 -0.005586 0.000000 0.000000 0.000000
# 3 -0.006600 -0.005586 0.014280 0.000000 0.000000 0.000000
# 4 0.000000 0.000000 0.000000 0.044088 0.000000 0.000000
# 5 0.000000 0.000000 0.000000 0.000000 0.034845 0.000000
# 6 0.000000 0.000000 0.000000 0.000000 0.000000 0.028496
#
#
# Mechanical properties :
#
#
# Convention : Reuss Voigt Hill
#
# Bulk Modulus (GPa) = 42.92646 51.84275 47.38460
# Shear Modulus (GPa) = 23.51555 25.80233 24.65894
#
# Velocity S-wave (km/s) = 3.33584 3.49428 3.41598
# Velocity P-wave (km/s) = 5.92878 6.38848 6.16292
#
# Compressibility (1/GPa) = 0.02329566
#
# Stress axis : x y z
#
# Youngs Moduli (GPa) = 56.41944 35.26216 70.02928
#
# Poissons Ratio (x) = 0.22384 0.46217
# Poissons Ratio (y) = 0.35814 0.39120
# Poissons Ratio (z) = 0.37235 0.19698
#
# Static dielectric constant tensor:
#      x y z
#    x 1.827600 0.000000 0.000000 
#    y 0.000000 1.794460 0.000000 
#    z 0.000000 0.000000 1.738290 
# 
# From -- ./inp_files/3459.got.cif
#   From: 2010.05.17/outbox.cif.g08.bks.cpg/sg27_2_cif.got.tgz:3459.got - 2010.06.04 01:11:05.
