data_PCOD9339086
_publ_section_title
;
Structure prediction by ZEFSAII (Michael W. Deem and Ramdas Pophale) SiO2 
 PCOD9339086
Probable space group: P C C 2
;
_chemical_formula_sum "Si O2"
_cell_formula_units_Z 24
_cell_length_a 14.392874
_cell_length_b 5.502039
_cell_length_c 13.554131
_cell_angle_alpha 90.000000
_cell_angle_beta 90.000000
_cell_angle_gamma 90.000000
_cell_volume 1073.353722
_symmetry_space_group_name_H-M "P C C 2"
_symmetry_group_IT_number 27
_symmetry_cell_setting 'orthorhombic'
loop_
_space_group_symop_operation_xyz
x,y,z
-x,-y,z
-x,y,1/2+z
x,-y,1/2+z
loop_
_atom_site_type_symbol
_atom_site_label
_atom_site_fract_x
_atom_site_fract_y
_atom_site_fract_z
Si Si1 0.445963 0.257653 0.287270
Si Si2 0.706035 0.946973 0.155996
Si Si3 0.813530 0.400990 0.521846
Si Si4 0.000000 0.000000 0.253560
Si Si5 0.335089 0.213818 0.476228
Si Si6 0.805269 0.097561 0.339280
Si Si7 0.000000 0.500000 0.128319
O O1 0.500000 0.500000 0.258563
O O2 0.353763 0.236286 0.221361
O O3 0.416409 0.281605 0.402036
O O4 0.500000 0.000000 0.276916
O O5 0.789057 0.821609 0.095141
O O6 0.751587 0.130351 0.235663
O O7 0.640072 0.055513 0.071473
O O8 0.722759 0.566861 0.522170
O O9 0.823021 0.328634 0.407528
O O10 0.907861 0.511815 0.561769
O O11 0.905481 0.987223 0.316491
O O12 0.998261 0.250805 0.191347
O O13 0.261919 0.066520 0.407293
#
# Coordination Sequence:
#
# PCOD9339086 Si02
#       7
#     4   4   4   2   4   4   2
#     4  11  28  49  76 110 143 182 243 302 363 444
#     4  10  23  49  71 104 142 194 237 297 370 430
#     4  11  25  43  74 103 147 196 240 298 356 426
#     4  12  26  44  68 104 148 190 248 296 350 416
#     4  10  25  45  74 100 148 187 239 299 367 429
#     4  10  24  42  70 101 144 194 242 295 356 422
#     4  12  28  44  72 110 146 190 252 292 342 432
#
# _framework density 22.359826000000002
#
# number of rings (size 3 to 8) (size 9 to 14) (size 15 to 20)
#    0.000    1.333    1.667    1.000   16.333    2.000 
#    0.000    0.000    0.000    0.000    0.000    0.000 
#    0.000    0.000    0.000    0.000    0.000    0.000 
#
# Total GULP energy -134066.897221 kJ/mol
# GULP energy per Si atom -5586.120718 kJ/mol
# Density = 2.230893 g / cm^3
# Si number density = 22.359826 Si / 1000 Ang^3
#
#
#
# Elastic Constant Matrix: (Units=GPa)
#
#
# Indices 1 2 3 4 5 6 
#
# 1 58.4462 6.5684 18.4427 0.0000 0.0000 0.0000
# 2 6.5684 74.9565 21.9518 0.0000 0.0000 0.0000
# 3 18.4427 21.9518 123.0571 0.0000 0.0000 0.0000
# 4 0.0000 0.0000 0.0000 23.7381 0.0000 0.0000
# 5 0.0000 0.0000 0.0000 0.0000 25.6233 0.0000
# 6 0.0000 0.0000 0.0000 0.0000 0.0000 30.4520
#
#
#
# Elastic Compliance Matrix: (Units=1/GPa)
#
#
# Indices 1 2 3 4 5 6 
#
# 1 0.018008 -0.000831 -0.002551 0.000000 0.000000 0.000000
# 2 -0.000831 0.014115 -0.002393 0.000000 0.000000 0.000000
# 3 -0.002551 -0.002393 0.008936 0.000000 0.000000 0.000000
# 4 0.000000 0.000000 0.000000 0.042126 0.000000 0.000000
# 5 0.000000 0.000000 0.000000 0.000000 0.039027 0.000000
# 6 0.000000 0.000000 0.000000 0.000000 0.000000 0.032839
#
#
# Mechanical properties :
#
#
# Convention : Reuss Voigt Hill
#
# Bulk Modulus (GPa) = 33.88880 38.93173 36.41027
# Shear Modulus (GPa) = 28.33882 29.92914 29.13398
#
# Velocity S-wave (km/s) = 3.56392 3.66255 3.61357
# Velocity P-wave (km/s) = 5.66784 5.94432 5.80772
#
# Compressibility (1/GPa) = 0.02950827
#
# Stress axis : x y z
#
# Youngs Moduli (GPa) = 55.53088 70.84752 111.91292
#
# Poissons Ratio (x) = 0.05888 0.28545
# Poissons Ratio (y) = 0.04615 0.26785
# Poissons Ratio (z) = 0.14164 0.16956
#
# Static dielectric constant tensor:
#      x y z
#    x 1.795670 0.000000 0.000000 
#    y 0.000000 2.588660 0.000000 
#    z 0.000000 0.000000 1.809660 
# 
# From -- ./inp_files/3698.got.cif
#   From: 2010.05.17/outbox.cif.g08.bks.cpg/sg27_2_cif.got.tgz:3698.got - 2010.06.04 01:11:05.
