data_PCOD9339521
_publ_section_title
;
Structure prediction by ZEFSAII (Michael W. Deem and Ramdas Pophale) SiO2 
 PCOD9339521
Probable space group: P M A 2
;
_chemical_formula_sum "Si O2"
_cell_formula_units_Z 32
_cell_length_a 14.843869
_cell_length_b 8.956846
_cell_length_c 14.275086
_cell_angle_alpha 90.000000
_cell_angle_beta 90.000000
_cell_angle_gamma 90.000000
_cell_volume 1897.933334
_symmetry_space_group_name_H-M "P M A 2"
_symmetry_group_IT_number 28
_symmetry_cell_setting 'orthorhombic'
loop_
_space_group_symop_operation_xyz
x,y,z
-x,-y,z
1/2-x,y,z
1/2+x,-y,z
loop_
_atom_site_type_symbol
_atom_site_label
_atom_site_fract_x
_atom_site_fract_y
_atom_site_fract_z
Si Si1 0.642806 0.323504 0.179780
Si Si2 0.982010 0.174056 0.032475
Si Si3 0.856835 0.331367 0.399079
Si Si4 0.851664 0.607457 0.054831
Si Si5 0.089650 0.594541 0.885745
Si Si6 0.851523 0.340771 0.679752
Si Si7 0.353978 0.395208 0.532277
Si Si8 0.980549 0.173797 0.547395
O O1 0.750000 0.295358 0.167758
O O2 0.584056 0.208276 0.119690
O O3 0.621830 0.323182 0.289587
O O4 0.625272 0.487127 0.135417
O O5 0.074778 0.263441 0.050828
O O6 0.937643 0.256816 0.942920
O O7 0.000000 0.000000 0.019010
O O8 0.750000 0.300278 0.411259
O O9 0.871581 0.495824 0.443639
O O10 0.916809 0.220385 0.460519
O O11 0.750000 0.661983 0.068189
O O12 0.857655 0.510227 0.959283
O O13 0.138167 0.631509 0.789525
O O14 0.000000 0.500000 0.862827
O O15 0.750000 0.287746 0.658360
O O16 0.863629 0.494767 0.621778
O O17 0.925932 0.229486 0.638767
O O18 0.250000 0.343938 0.528297
O O19 0.427165 0.266633 0.538386
O O20 0.000000 0.000000 0.549865
#
# Coordination Sequence:
#
# PCOD9339521 Si02
#       8
#     4   4   4   4   4   4   4   4
#     4   9  18  34  56  76  97 129 172 215 251 290
#     4  10  21  33  49  76 109 138 164 199 250 308
#     4   9  18  35  56  76  97 128 172 216 251 290
#     4   9  18  33  52  75  99 130 172 214 251 290
#     4   9  17  32  54  75  98 131 170 211 249 291
#     4  10  19  34  56  77  97 128 171 215 251 291
#     4   9  19  34  53  75  98 129 172 214 250 290
#     4  11  22  33  50  76 108 139 162 198 251 308
#
# _framework density 16.860444000000001
#
# number of rings (size 3 to 8) (size 9 to 14) (size 15 to 20)
#    0.000    2.500    0.000    4.875    0.000    5.000 
#    0.000    0.000    0.000    3.000    0.000    0.000 
#    0.000    0.000    0.000    0.000    0.000    0.000 
#
# Total GULP energy -178479.069795 kJ/mol
# GULP energy per Si atom -5577.470931 kJ/mol
# Density = 1.682207 g / cm^3
# Si number density = 16.860444 Si / 1000 Ang^3
#
#
#
# Elastic Constant Matrix: (Units=GPa)
#
#
# Indices 1 2 3 4 5 6 
#
# 1 88.8859 63.9024 36.5227 0.0000 0.0000 0.0000
# 2 63.9024 115.1321 40.6158 0.0000 0.0000 0.0000
# 3 36.5227 40.6158 109.8678 0.0000 0.0000 0.0000
# 4 0.0000 0.0000 0.0000 3.4577 0.0000 0.0000
# 5 0.0000 0.0000 0.0000 0.0000 27.9127 0.0000
# 6 0.0000 0.0000 0.0000 0.0000 0.0000 4.9948
#
#
#
# Elastic Compliance Matrix: (Units=1/GPa)
#
#
# Indices 1 2 3 4 5 6 
#
# 1 0.019466 -0.009799 -0.002848 0.000000 0.000000 0.000000
# 2 -0.009799 0.014921 -0.002259 0.000000 0.000000 0.000000
# 3 -0.002848 -0.002259 0.010884 0.000000 0.000000 0.000000
# 4 0.000000 0.000000 0.000000 0.289206 0.000000 0.000000
# 5 0.000000 0.000000 0.000000 0.000000 0.035826 0.000000
# 6 0.000000 0.000000 0.000000 0.000000 0.000000 0.200208
#
#
# Mechanical properties :
#
#
# Convention : Reuss Voigt Hill
#
# Bulk Modulus (GPa) = 64.68992 66.21863 65.45427
# Shear Modulus (GPa) = 8.25796 18.79603 13.52700
#
# Velocity S-wave (km/s) = 2.21551 3.34249 2.83555
# Velocity P-wave (km/s) = 6.70789 7.36587 7.04457
#
# Compressibility (1/GPa) = 0.01545836
#
# Stress axis : x y z
#
# Youngs Moduli (GPa) = 51.37230 67.01761 91.88105
#
# Poissons Ratio (x) = 0.65673 0.26170
# Poissons Ratio (y) = 0.50342 0.20752
# Poissons Ratio (z) = 0.14632 0.15137
#
# Static dielectric constant tensor:
#      x y z
#    x 1.587310 0.000000 0.000000 
#    y 0.000000 1.526260 0.000000 
#    z 0.000000 0.000000 1.564850 
# 
# From -- ./inp_files/6567.got.cif
#   From: 2010.05.17/outbox.cif.g08.bks.cpg/sg28_4_cif.got.tgz:6567.got - 2010.06.04 01:15:21.
