data_PCOD9339771
_publ_section_title
;
Structure prediction by ZEFSAII (Michael W. Deem and Ramdas Pophale) SiO2 
 PCOD9339771
Probable space group: P M A 2
;
_chemical_formula_sum "Si O2"
_cell_formula_units_Z 32
_cell_length_a 9.652156
_cell_length_b 28.608769
_cell_length_c 5.393697
_cell_angle_alpha 90.000000
_cell_angle_beta 90.000000
_cell_angle_gamma 90.000000
_cell_volume 1489.395540
_symmetry_space_group_name_H-M "P M A 2"
_symmetry_group_IT_number 28
_symmetry_cell_setting 'orthorhombic'
loop_
_space_group_symop_operation_xyz
x,y,z
-x,-y,z
1/2-x,y,z
1/2+x,-y,z
loop_
_atom_site_type_symbol
_atom_site_label
_atom_site_fract_x
_atom_site_fract_y
_atom_site_fract_z
Si Si1 0.585754 0.893703 0.088650
Si Si2 0.596237 0.274470 0.094791
Si Si3 0.595145 0.677705 0.759651
Si Si4 0.913327 0.952691 0.585269
Si Si5 0.413327 0.547309 0.001671
Si Si6 0.414245 0.606297 0.498295
Si Si7 0.403764 0.225531 0.492141
Si Si8 0.904856 0.177705 0.827282
O O1 0.750000 0.880711 0.084909
O O2 0.556736 0.921101 0.342993
O O3 0.561460 0.926006 0.844986
O O4 0.481342 0.850791 0.043100
O O5 0.750000 0.286800 0.184799
O O6 0.500000 0.250001 0.293467
O O7 0.517042 0.318427 0.978700
O O8 0.613716 0.231949 0.900379
O O9 0.750000 0.659496 0.816768
O O10 0.518659 0.649209 0.543833
O O11 0.613716 0.731949 0.686555
O O12 0.750000 0.963674 0.575588
O O13 0.000000 0.000000 0.575712
O O14 0.500000 0.500000 0.011230
O O15 0.250000 0.536326 0.011346
O O16 0.443260 0.578899 0.243949
O O17 0.438543 0.573994 0.741955
O O18 0.250000 0.619289 0.502041
O O19 0.250000 0.213201 0.402133
O O20 0.482959 0.181574 0.608230
O O21 0.750000 0.159497 0.770168
#
# Coordination Sequence:
#
# PCOD9339771 Si02
#       8
#     4   4   4   4   4   4   4   4
#     4  10  22  39  60  89 121 157 198 246 300 360
#     4  10  21  37  58  83 117 157 199 248 300 355
#     4  10  22  38  56  85 117 154 203 249 298 355
#     4  10  22  40  62  88 119 154 197 244 303 362
#     4  10  22  40  62  88 119 154 197 244 303 362
#     4  10  22  39  60  89 121 157 198 246 300 360
#     4  10  21  37  58  83 117 157 199 248 300 355
#     4  10  22  38  56  85 117 154 203 249 298 355
#
# _framework density 21.485225
#
# number of rings (size 3 to 8) (size 9 to 14) (size 15 to 20)
#    0.000    2.000    0.000    2.250    3.500    5.000 
#    0.000    0.000    0.000    0.000    0.000    0.000 
#    0.000    0.000    0.000    0.000    0.000    0.000 
#
# Total GULP energy -178620.207173 kJ/mol
# GULP energy per Si atom -5581.881474 kJ/mol
# Density = 2.143632 g / cm^3
# Si number density = 21.485225 Si / 1000 Ang^3
#
#
#
# Elastic Constant Matrix: (Units=GPa)
#
#
# Indices 1 2 3 4 5 6 
#
# 1 126.5397 43.3389 35.3811 0.0000 0.0000 0.0000
# 2 43.3389 100.5849 38.8726 0.0000 0.0000 0.0000
# 3 35.3811 38.8726 109.0515 0.0000 0.0000 0.0000
# 4 0.0000 0.0000 0.0000 36.1992 0.0000 0.0000
# 5 0.0000 0.0000 0.0000 0.0000 17.3300 0.0000
# 6 0.0000 0.0000 0.0000 0.0000 0.0000 33.2501
#
#
#
# Elastic Compliance Matrix: (Units=1/GPa)
#
#
# Indices 1 2 3 4 5 6 
#
# 1 0.009599 -0.003401 -0.001902 0.000000 0.000000 0.000000
# 2 -0.003401 0.012735 -0.003436 0.000000 0.000000 0.000000
# 3 -0.001902 -0.003436 0.011012 0.000000 0.000000 0.000000
# 4 0.000000 0.000000 0.000000 0.027625 0.000000 0.000000
# 5 0.000000 0.000000 0.000000 0.000000 0.057704 0.000000
# 6 0.000000 0.000000 0.000000 0.000000 0.000000 0.030075
#
#
# Mechanical properties :
#
#
# Convention : Reuss Voigt Hill
#
# Bulk Modulus (GPa) = 63.02007 63.48458 63.25232
# Shear Modulus (GPa) = 29.15149 31.92808 30.53979
#
# Velocity S-wave (km/s) = 3.68749 3.85911 3.77428
# Velocity P-wave (km/s) = 6.89388 7.03343 6.96401
#
# Compressibility (1/GPa) = 0.01586796
#
# Stress axis : x y z
#
# Youngs Moduli (GPa) = 104.17428 78.52271 90.81017
#
# Poissons Ratio (x) = 0.26705 0.17273
# Poissons Ratio (y) = 0.35429 0.31204
# Poissons Ratio (z) = 0.19815 0.26982
#
# Static dielectric constant tensor:
#      x y z
#    x 1.835320 0.000000 0.000000 
#    y 0.000000 1.792030 0.000000 
#    z 0.000000 0.000000 1.840580 
# 
# From -- ./inp_files/234.got.cif
#   From: 2010.05.17/outbox.cif.g08.bks.cpg/sg28_1_cif.got.tgz:234.got - 2010.06.04 01:15:21.
