data_PCOD9339756
_publ_section_title
;
Structure prediction by ZEFSAII (Michael W. Deem and Ramdas Pophale) SiO2 
 PCOD9339756
Probable space group: P M A 2
;
_chemical_formula_sum "Si O2"
_cell_formula_units_Z 28
_cell_length_a 8.539445
_cell_length_b 9.581084
_cell_length_c 18.661820
_cell_angle_alpha 90.000000
_cell_angle_beta 90.000000
_cell_angle_gamma 90.000000
_cell_volume 1526.856737
_symmetry_space_group_name_H-M "P M A 2"
_symmetry_group_IT_number 28
_symmetry_cell_setting 'orthorhombic'
loop_
_space_group_symop_operation_xyz
x,y,z
-x,-y,z
1/2-x,y,z
1/2+x,-y,z
loop_
_atom_site_type_symbol
_atom_site_label
_atom_site_fract_x
_atom_site_fract_y
_atom_site_fract_z
Si Si1 0.061013 0.154800 0.616920
Si Si2 0.561076 0.841946 0.187716
Si Si3 0.563574 0.158857 0.879839
Si Si4 0.938108 0.656905 0.749275
Si Si5 0.939506 0.656588 0.321974
Si Si6 0.939101 0.845291 0.454065
Si Si7 0.937883 0.841122 0.029948
O O1 0.250000 0.150589 0.617566
O O2 0.009503 0.265526 0.676241
O O3 0.010259 0.188633 0.535486
O O4 0.000000 0.000000 0.634547
O O5 0.750000 0.848686 0.189437
O O6 0.507566 0.745085 0.252757
O O7 0.517375 0.784603 0.108538
O O8 0.500000 0.000000 0.195643
O O9 0.750000 0.153467 0.877374
O O10 0.498454 0.252678 0.815988
O O11 0.500000 0.000000 0.873290
O O12 0.509657 0.218595 0.957146
O O13 0.750000 0.655417 0.750565
O O14 0.000000 0.500000 0.752342
O O15 0.750000 0.655017 0.321553
O O16 0.991421 0.736001 0.394188
O O17 0.000000 0.500000 0.319599
O O18 0.750000 0.848797 0.453282
O O19 0.000000 0.000000 0.436770
O O20 0.750000 0.840857 0.023598
O O21 0.000000 0.000000 0.031714
#
# Coordination Sequence:
#
# PCOD9339756 Si02
#       7
#     4   4   4   4   4   4   4
#     4   9  19  35  56  80 105 134 170 213 258 306
#     4   9  18  32  52  77 103 133 171 216 260 305
#     4  11  21  35  56  81 107 137 175 217 263 312
#     4  11  23  38  54  76 107 141 177 216 261 312
#     4  10  21  35  50  73 106 140 174 211 253 303
#     4   9  18  34  55  79 105 133 170 214 257 303
#     4   9  16  29  50  76 104 132 168 215 263 307
#
# _framework density 18.338328000000001
#
# number of rings (size 3 to 8) (size 9 to 14) (size 15 to 20)
#    0.000    2.286    0.000    3.857    0.000    4.571 
#    0.000    0.714    0.000    1.714    0.000    0.000 
#    0.000    0.000    0.000    0.000    0.000    0.000 
#
# Total GULP energy -156214.098839 kJ/mol
# GULP energy per Si atom -5579.074959 kJ/mol
# Density = 1.829659 g / cm^3
# Si number density = 18.338328 Si / 1000 Ang^3
#
#
#
# Elastic Constant Matrix: (Units=GPa)
#
#
# Indices 1 2 3 4 5 6 
#
# 1 43.5089 27.2719 40.0007 0.0000 0.0000 0.0000
# 2 27.2719 119.4383 113.0558 0.0000 0.0000 0.0000
# 3 40.0007 113.0558 178.1101 0.0000 0.0000 0.0000
# 4 0.0000 0.0000 0.0000 -2.5585 0.0000 0.0000
# 5 0.0000 0.0000 0.0000 0.0000 14.3733 0.0000
# 6 0.0000 0.0000 0.0000 0.0000 0.0000 29.1377
#
#
#
# Elastic Compliance Matrix: (Units=1/GPa)
#
#
# Indices 1 2 3 4 5 6 
#
# 1 0.029027 -0.001145 -0.005792 0.000000 0.000000 0.000000
# 2 -0.001145 0.021020 -0.013085 0.000000 0.000000 0.000000
# 3 -0.005792 -0.013085 0.015221 0.000000 0.000000 0.000000
# 4 0.000000 0.000000 0.000000 -0.390859 0.000000 0.000000
# 5 0.000000 0.000000 0.000000 0.000000 0.069574 0.000000
# 6 0.000000 0.000000 0.000000 0.000000 0.000000 0.034320
#
#
# Mechanical properties :
#
#
# Convention : Reuss Voigt Hill
#
# Bulk Modulus (GPa) = 39.64675 77.96820 58.80748
# Shear Modulus (GPa) = -28.86097 18.90576 -4.97761
#
# Velocity S-wave (km/s) = -3.97143 3.21431 -1.64931
# Velocity P-wave (km/s) = 0.79807 7.50897 5.33954
#
# Compressibility (1/GPa) = 0.02522275
#
# Stress axis : x y z
#
# Youngs Moduli (GPa) = 34.45112 47.57333 65.69775
#
# Poissons Ratio (x) = 0.05449 0.38051
# Poissons Ratio (y) = 0.03946 0.85968
# Poissons Ratio (z) = 0.19954 0.62251
#
# Static dielectric constant tensor:
#      x y z
#    x 1.618150 0.000000 0.000000 
#    y 0.000000 1.577080 0.000000 
#    z 0.000000 0.000000 1.672450 
# 
# From -- ./inp_files/6810.got.cif
#   From: 2010.05.17/outbox.cif.g08.bks.cpg/sg28_4_cif.got.tgz:6810.got - 2010.06.04 01:15:21.
