data_PCOD9339422
_publ_section_title
;
Structure prediction by ZEFSAII (Michael W. Deem and Ramdas Pophale) SiO2 
 PCOD9339422
Probable space group: P M A 2
;
_chemical_formula_sum "Si O2"
_cell_formula_units_Z 32
_cell_length_a 7.937716
_cell_length_b 17.557562
_cell_length_c 11.391110
_cell_angle_alpha 90.000000
_cell_angle_beta 90.000000
_cell_angle_gamma 90.000000
_cell_volume 1587.544153
_symmetry_space_group_name_H-M "P M A 2"
_symmetry_group_IT_number 28
_symmetry_cell_setting 'orthorhombic'
loop_
_space_group_symop_operation_xyz
x,y,z
-x,-y,z
1/2-x,y,z
1/2+x,-y,z
loop_
_atom_site_type_symbol
_atom_site_label
_atom_site_fract_x
_atom_site_fract_y
_atom_site_fract_z
Si Si1 0.044978 0.225860 0.820790
Si Si2 0.548033 0.419974 0.972756
Si Si3 0.055868 0.266235 0.077578
Si Si4 0.454075 0.586143 0.452469
Si Si5 0.448563 0.616309 0.715421
Si Si6 0.050338 0.083171 0.418230
Si Si7 0.452187 0.080283 0.683017
Si Si8 0.057228 0.747743 0.337336
O O1 0.250000 0.232011 0.821352
O O2 0.987610 0.149214 0.760692
O O3 0.976336 0.294791 0.742308
O O4 0.990756 0.229131 0.956567
O O5 0.500000 0.500000 0.025803
O O6 0.750000 0.407304 0.973103
O O7 0.483877 0.418618 0.837262
O O8 0.457159 0.354478 0.043706
O O9 0.250000 0.243369 0.097026
O O10 0.956959 0.254572 0.196774
O O11 0.500000 0.500000 0.409330
O O12 0.250000 0.588628 0.450340
O O13 0.516760 0.592516 0.588538
O O14 0.512314 0.665671 0.387893
O O15 0.250000 0.599225 0.711866
O O16 0.250000 0.078932 0.423471
O O17 0.977922 0.083050 0.550851
O O18 0.012366 0.168209 0.370427
O O19 0.000000 0.000000 0.363741
O O20 0.250000 0.086337 0.676064
O O21 0.500000 0.000000 0.736536
O O22 0.250000 0.748887 0.377034
#
# Coordination Sequence:
#
# PCOD9339422 Si02
#       8
#     4   4   4   4   4   4   4   4
#     4   9  18  33  53  77 104 136 174 216 263 318
#     4  10  19  32  52  77 104 134 172 218 268 323
#     4  10  21  37  55  74 101 139 182 225 269 317
#     4  10  22  37  54  79 111 146 183 226 275 329
#     4   9  18  32  51  77 106 135 170 215 269 326
#     4  10  20  36  60  88 115 144 179 221 272 329
#     4   9  18  32  52  81 112 137 165 205 257 319
#     4  11  23  39  57  79 110 147 190 236 278 323
#
# _framework density 20.156922000000002
#
# number of rings (size 3 to 8) (size 9 to 14) (size 15 to 20)
#    0.000    2.250    0.000    2.625    0.000    4.000 
#    0.000    1.875    0.000    1.500    0.000    0.000 
#    0.000    0.000    0.000    0.000    0.000    0.000 
#
# Total GULP energy -178219.276786 kJ/mol
# GULP energy per Si atom -5569.352400 kJ/mol
# Density = 2.011104 g / cm^3
# Si number density = 20.156922 Si / 1000 Ang^3
#
#
#
# Elastic Constant Matrix: (Units=GPa)
#
#
# Indices 1 2 3 4 5 6 
#
# 1 30.0137 1.8280 0.3242 0.0000 0.0000 0.0000
# 2 1.8280 174.9111 51.9980 0.0000 0.0000 0.0000
# 3 0.3242 51.9980 58.1060 0.0000 0.0000 0.0000
# 4 0.0000 0.0000 0.0000 -55.5880 0.0000 0.0000
# 5 0.0000 0.0000 0.0000 0.0000 14.4633 0.0000
# 6 0.0000 0.0000 0.0000 0.0000 0.0000 30.4032
#
#
#
# Elastic Compliance Matrix: (Units=1/GPa)
#
#
# Indices 1 2 3 4 5 6 
#
# 1 0.033341 -0.000399 0.000171 0.000000 0.000000 0.000000
# 2 -0.000399 0.007794 -0.006973 0.000000 0.000000 0.000000
# 3 0.000171 -0.006973 0.023449 0.000000 0.000000 0.000000
# 4 0.000000 0.000000 0.000000 -0.017990 0.000000 0.000000
# 5 0.000000 0.000000 0.000000 0.000000 0.069141 0.000000
# 6 0.000000 0.000000 0.000000 0.000000 0.000000 0.032891
#
#
# Mechanical properties :
#
#
# Convention : Reuss Voigt Hill
#
# Bulk Modulus (GPa) = 19.92741 41.25901 30.59321
# Shear Modulus (GPa) = 27.81568 11.78108 19.79838
#
# Velocity S-wave (km/s) = 3.71881 2.42020 3.13743
# Velocity P-wave (km/s) = 5.32419 5.32195 5.32307
#
# Compressibility (1/GPa) = 0.05018214
#
# Stress axis : x y z
#
# Youngs Moduli (GPa) = 29.99347 128.30024 42.64632
#
# Poissons Ratio (x) = 0.05124 -0.00731
# Poissons Ratio (y) = 0.01198 0.29736
# Poissons Ratio (z) = -0.00514 0.89460
#
# Static dielectric constant tensor:
#      x y z
#    x 1.737520 0.000000 0.000000 
#    y 0.000000 1.787880 0.000000 
#    z 0.000000 0.000000 1.714670 
# 
# From -- ./inp_files/5085.got.cif
#   From: 2010.05.17/outbox.cif.g08.bks.cpg/sg28_3_cif.got.tgz:5085.got - 2010.06.04 01:15:21.
