data_PCOD9339910
_publ_section_title
;
Structure prediction by ZEFSAII (Michael W. Deem and Ramdas Pophale) SiO2 
 PCOD9339910
Probable space group: P M A 2
;
_chemical_formula_sum "Si O2"
_cell_formula_units_Z 18
_cell_length_a 5.713305
_cell_length_b 26.092146
_cell_length_c 4.344534
_cell_angle_alpha 90.000000
_cell_angle_beta 90.000000
_cell_angle_gamma 90.000000
_cell_volume 647.650059
_symmetry_space_group_name_H-M "P M A 2"
_symmetry_group_IT_number 28
_symmetry_cell_setting 'orthorhombic'
loop_
_space_group_symop_operation_xyz
x,y,z
-x,-y,z
1/2-x,y,z
1/2+x,-y,z
loop_
_atom_site_type_symbol
_atom_site_label
_atom_site_fract_x
_atom_site_fract_y
_atom_site_fract_z
Si Si1 0.500644 0.315326 0.176830
Si Si2 0.250000 0.601517 0.834162
Si Si3 0.750000 0.472817 0.336452
Si Si4 0.499283 0.212595 0.766018
Si Si5 0.000000 0.000000 0.221195
Si Si6 0.999684 0.888181 0.190038
O O1 0.250000 0.320558 0.336942
O O2 0.750000 0.313971 0.354564
O O3 0.534729 0.363458 0.946040
O O4 0.497461 0.262570 0.983576
O O5 0.250000 0.583769 0.486135
O O6 0.250000 0.544619 0.981225
O O7 0.500000 0.500000 0.399015
O O8 0.750000 0.213587 0.597893
O O9 0.250000 0.214768 0.592354
O O10 0.498483 0.160307 0.964087
O O11 0.750000 0.000043 0.393889
O O12 0.000278 0.054520 0.045469
O O13 0.750000 0.886228 0.362242
O O14 0.250000 0.886216 0.360139
#
# Coordination Sequence:
#
# PCOD9339910 Si02
#       6
#     4   2   2   4   2   4
#     4   8  16  28  51  74 104 134 176 220 271 323
#     4  10  24  42  66  90 122 154 194 236 280 336
#     4  12  28  44  68  92 124 156 196 232 282 328
#     4   8  12  20  32  55  78 112 150 205 248 310
#     4   8  12  16  20  32  52  94 136 190 232 294
#     4   8  12  16  24  36  63  94 143 190 240 294
#
# _framework density 27.792784000000001
#
# number of rings (size 3 to 8) (size 9 to 14) (size 15 to 20)
#    0.667    2.667    0.000    0.667    3.111    0.000 
#    0.000    0.000    0.000    0.000    0.000    0.000 
#    0.000    0.000    0.000    0.000    0.000    2.222 
#
# Total GULP energy -100287.289141 kJ/mol
# GULP energy per Si atom -5571.516063 kJ/mol
# Density = 2.772953 g / cm^3
# Si number density = 27.792784 Si / 1000 Ang^3
#
#
#
# Elastic Constant Matrix: (Units=GPa)
#
#
# Indices 1 2 3 4 5 6 
#
# 1 381.1112 34.9470 31.5513 0.0000 0.0000 0.0000
# 2 34.9470 231.0782 47.2210 0.0000 0.0000 0.0000
# 3 31.5513 47.2210 38.9350 0.0000 0.0000 0.0000
# 4 0.0000 0.0000 0.0000 45.9893 0.0000 0.0000
# 5 0.0000 0.0000 0.0000 0.0000 -10.1197 0.0000
# 6 0.0000 0.0000 0.0000 0.0000 0.0000 29.4377
#
#
#
# Elastic Compliance Matrix: (Units=1/GPa)
#
#
# Indices 1 2 3 4 5 6 
#
# 1 0.002813 0.000054 -0.002345 0.000000 0.000000 0.000000
# 2 0.000054 0.005755 -0.007023 0.000000 0.000000 0.000000
# 3 -0.002345 -0.007023 0.036101 0.000000 0.000000 0.000000
# 4 0.000000 0.000000 0.000000 0.021744 0.000000 0.000000
# 5 0.000000 0.000000 0.000000 0.000000 -0.098817 0.000000
# 6 0.000000 0.000000 0.000000 0.000000 0.000000 0.033970
#
#
# Mechanical properties :
#
#
# Convention : Reuss Voigt Hill
#
# Bulk Modulus (GPa) = 38.40060 97.61813 68.00936
# Shear Modulus (GPa) = 173.16835 48.88847 111.02841
#
# Velocity S-wave (km/s) = 7.90204 4.19863 6.32735
# Velocity P-wave (km/s) = 9.85409 7.66189 8.82631
#
# Compressibility (1/GPa) = 0.02604126
#
# Stress axis : x y z
#
# Youngs Moduli (GPa) = 355.48000 173.77701 27.69999
#
# Poissons Ratio (x) = -0.00933 0.06495
# Poissons Ratio (y) = -0.01909 0.19453
# Poissons Ratio (z) = 0.83352 1.22038
#
# Static dielectric constant tensor:
#      x y z
#    x 2.191240 0.000000 0.000000 
#    y 0.000000 2.115400 0.000000 
#    z 0.000000 0.000000 2.040750 
# 
# From -- ./inp_files/76.got.cif
#   From: 2010.05.17/outbox.cif.g08.bks.cpg/sg28_1_cif.got.tgz:76.got - 2010.06.04 01:15:21.
