data_PCOD9339298
_publ_section_title
;
Structure prediction by ZEFSAII (Michael W. Deem and Ramdas Pophale) SiO2 
 PCOD9339298
Probable space group: P M A 2
;
_chemical_formula_sum "Si O2"
_cell_formula_units_Z 28
_cell_length_a 8.529635
_cell_length_b 9.458744
_cell_length_c 18.818559
_cell_angle_alpha 90.000000
_cell_angle_beta 90.000000
_cell_angle_gamma 90.000000
_cell_volume 1518.274450
_symmetry_space_group_name_H-M "P M A 2"
_symmetry_group_IT_number 28
_symmetry_cell_setting 'orthorhombic'
loop_
_space_group_symop_operation_xyz
x,y,z
-x,-y,z
1/2-x,y,z
1/2+x,-y,z
loop_
_atom_site_type_symbol
_atom_site_label
_atom_site_fract_x
_atom_site_fract_y
_atom_site_fract_z
Si Si1 0.438326 0.659922 0.021080
Si Si2 0.560712 0.159433 0.586180
Si Si3 0.060557 0.840866 0.314886
Si Si4 0.560823 0.158352 0.155635
Si Si5 0.436820 0.338538 0.872933
Si Si6 0.939642 0.340886 0.449414
Si Si7 0.561740 0.339340 0.723426
O O1 0.500000 0.500000 0.026100
O O2 0.250000 0.657668 0.018346
O O3 0.491856 0.744371 0.090674
O O4 0.500650 0.724118 0.946844
O O5 0.750000 0.155838 0.585637
O O6 0.509153 0.247326 0.516867
O O7 0.511854 0.243433 0.657115
O O8 0.500000 0.000000 0.584831
O O9 0.250000 0.845185 0.316329
O O10 0.011220 0.796042 0.235176
O O11 0.007678 0.736028 0.376915
O O12 0.000000 0.000000 0.327173
O O13 0.750000 0.157106 0.154769
O O14 0.500000 0.000000 0.145434
O O15 0.500000 0.500000 0.873016
O O16 0.250000 0.339959 0.873132
O O17 0.499206 0.279373 0.798423
O O18 0.750000 0.344004 0.449500
O O19 0.000000 0.500000 0.454408
O O20 0.500000 0.500000 0.714574
O O21 0.750000 0.345245 0.726237
#
# Coordination Sequence:
#
# PCOD9339298 Si02
#       7
#     4   4   4   4   4   4   4
#     4  10  19  32  50  74 103 134 170 212 256 301
#     4  10  22  37  54  77 105 137 172 210 252 301
#     4   9  18  34  54  76 103 135 172 211 253 302
#     4   9  19  34  52  74 102 136 172 211 254 302
#     4  10  18  30  50  75 101 132 169 208 255 305
#     4  10  21  36  54  79 108 136 170 211 253 299
#     4  10  19  33  53  77 103 132 169 211 255 302
#
# _framework density 18.441987999999998
#
# number of rings (size 3 to 8) (size 9 to 14) (size 15 to 20)
#    0.000    2.286    0.000    4.714    0.000    4.000 
#    0.000    0.714    0.000    0.000    0.000    0.000 
#    0.000    0.000    0.000    0.000    0.000    0.000 
#
# Total GULP energy -156219.505102 kJ/mol
# GULP energy per Si atom -5579.268039 kJ/mol
# Density = 1.840001 g / cm^3
# Si number density = 18.441988 Si / 1000 Ang^3
#
#
#
# Elastic Constant Matrix: (Units=GPa)
#
#
# Indices 1 2 3 4 5 6 
#
# 1 41.8942 19.4089 40.9566 0.0000 0.0000 0.0000
# 2 19.4089 100.4330 106.4118 0.0000 0.0000 0.0000
# 3 40.9566 106.4118 222.5757 0.0000 0.0000 0.0000
# 4 0.0000 0.0000 0.0000 -48.2340 0.0000 0.0000
# 5 0.0000 0.0000 0.0000 0.0000 -4.2957 0.0000
# 6 0.0000 0.0000 0.0000 0.0000 0.0000 28.6335
#
#
#
# Elastic Compliance Matrix: (Units=1/GPa)
#
#
# Indices 1 2 3 4 5 6 
#
# 1 0.029106 0.000101 -0.005404 0.000000 0.000000 0.000000
# 2 0.000101 0.020179 -0.009666 0.000000 0.000000 0.000000
# 3 -0.005404 -0.009666 0.010108 0.000000 0.000000 0.000000
# 4 0.000000 0.000000 0.000000 -0.020732 0.000000 0.000000
# 5 0.000000 0.000000 0.000000 0.000000 -0.232791 0.000000
# 6 0.000000 0.000000 0.000000 0.000000 0.000000 0.034924
#
#
# Mechanical properties :
#
#
# Convention : Reuss Voigt Hill
#
# Bulk Modulus (GPa) = 33.94984 77.60640 55.77812
# Shear Modulus (GPa) = -41.85865 8.42914 -16.71475
#
# Velocity S-wave (km/s) = -4.76935 2.14022 -3.01382
# Velocity P-wave (km/s) = 3.44674 6.94839 4.26615
#
# Compressibility (1/GPa) = 0.02945522
#
# Stress axis : x y z
#
# Youngs Moduli (GPa) = 34.35714 49.55741 98.92699
#
# Poissons Ratio (x) = -0.00501 0.53462
# Poissons Ratio (y) = -0.00347 0.95621
# Poissons Ratio (z) = 0.18567 0.47901
#
# Static dielectric constant tensor:
#      x y z
#    x 1.625340 0.000000 0.000000 
#    y 0.000000 1.581600 0.000000 
#    z 0.000000 0.000000 1.679350 
# 
# From -- ./inp_files/6783.got.cif
#   From: 2010.05.17/outbox.cif.g08.bks.cpg/sg28_4_cif.got.tgz:6783.got - 2010.06.04 01:15:21.
