data_PCOD9339333
_publ_section_title
;
Structure prediction by ZEFSAII (Michael W. Deem and Ramdas Pophale) SiO2 
 PCOD9339333
Probable space group: P M A 2
;
_chemical_formula_sum "Si O2"
_cell_formula_units_Z 28
_cell_length_a 8.425471
_cell_length_b 14.880628
_cell_length_c 13.221936
_cell_angle_alpha 90.000000
_cell_angle_beta 90.000000
_cell_angle_gamma 90.000000
_cell_volume 1657.717410
_symmetry_space_group_name_H-M "P M A 2"
_symmetry_group_IT_number 28
_symmetry_cell_setting 'orthorhombic'
loop_
_space_group_symop_operation_xyz
x,y,z
-x,-y,z
1/2-x,y,z
1/2+x,-y,z
loop_
_atom_site_type_symbol
_atom_site_label
_atom_site_fract_x
_atom_site_fract_y
_atom_site_fract_z
Si Si1 0.441902 0.399569 0.633440
Si Si2 0.441602 0.398006 0.021237
Si Si3 0.558306 0.600326 0.403846
Si Si4 0.061565 0.903352 0.136089
Si Si5 0.056123 0.285813 0.823816
Si Si6 0.442162 0.281052 0.215875
Si Si7 0.939943 0.902945 0.906282
O O1 0.500000 0.500000 0.657790
O O2 0.250000 0.400132 0.634194
O O3 0.494007 0.378319 0.518629
O O4 0.496837 0.330513 0.719176
O O5 0.500000 0.500000 0.024413
O O6 0.250000 0.398856 0.021235
O O7 0.492923 0.341427 0.119606
O O8 0.493784 0.346889 0.919243
O O9 0.500000 0.500000 0.379214
O O10 0.750000 0.599276 0.403009
O O11 0.505378 0.670250 0.318726
O O12 0.250000 0.906047 0.130029
O O13 0.005660 0.819067 0.201494
O O14 0.000000 0.000000 0.173114
O O15 0.994379 0.890904 0.022391
O O16 0.250000 0.285636 0.823692
O O17 0.004630 0.183496 0.843181
O O18 0.250000 0.277712 0.214811
O O19 0.750000 0.904169 0.906031
O O20 0.000000 0.000000 0.870816
#
# Coordination Sequence:
#
# PCOD9339333 Si02
#       7
#     4   4   4   4   4   4   4
#     4   9  17  31  49  71  95 127 167 200 239 281
#     4  10  19  30  43  64  95 128 157 191 236 285
#     4   9  18  31  50  72  97 129 166 206 240 282
#     4  11  21  33  51  74  98 126 160 199 241 290
#     4   9  17  30  48  67  95 130 158 194 241 288
#     4  10  19  33  49  68  98 131 162 196 240 287
#     4  10  18  32  50  70  97 128 160 197 241 290
#
# _framework density 16.890695999999998
#
# number of rings (size 3 to 8) (size 9 to 14) (size 15 to 20)
#    0.000    2.286    1.429    3.429    0.000    1.143 
#    0.000    1.429    0.000    0.857    0.000    2.000 
#    0.000    0.000    0.000    0.000    0.000    0.000 
#
# Total GULP energy -156204.851316 kJ/mol
# GULP energy per Si atom -5578.744690 kJ/mol
# Density = 1.685225 g / cm^3
# Si number density = 16.890696 Si / 1000 Ang^3
#
#
#
# Elastic Constant Matrix: (Units=GPa)
#
#
# Indices 1 2 3 4 5 6 
#
# 1 23.3147 25.7926 21.4757 0.0000 0.0000 0.0000
# 2 25.7926 183.0912 104.0134 0.0000 0.0000 0.0000
# 3 21.4757 104.0134 115.2790 0.0000 0.0000 0.0000
# 4 0.0000 0.0000 0.0000 25.5276 0.0000 0.0000
# 5 0.0000 0.0000 0.0000 0.0000 9.2554 0.0000
# 6 0.0000 0.0000 0.0000 0.0000 0.0000 30.0835
#
#
#
# Elastic Compliance Matrix: (Units=1/GPa)
#
#
# Indices 1 2 3 4 5 6 
#
# 1 0.053043 -0.003813 -0.006441 0.000000 0.000000 0.000000
# 2 -0.003813 0.011480 -0.009647 0.000000 0.000000 0.000000
# 3 -0.006441 -0.009647 0.018579 0.000000 0.000000 0.000000
# 4 0.000000 0.000000 0.000000 0.039173 0.000000 0.000000
# 5 0.000000 0.000000 0.000000 0.000000 0.108045 0.000000
# 6 0.000000 0.000000 0.000000 0.000000 0.000000 0.033241
#
#
# Mechanical properties :
#
#
# Convention : Reuss Voigt Hill
#
# Bulk Modulus (GPa) = 23.09550 69.36092 46.22821
# Shear Modulus (GPa) = 15.73333 24.33350 20.03341
#
# Velocity S-wave (km/s) = 3.05532 3.79970 3.44766
# Velocity P-wave (km/s) = 5.11369 7.77200 6.57852
#
# Compressibility (1/GPa) = 0.04329847
#
# Stress axis : x y z
#
# Youngs Moduli (GPa) = 18.85267 87.11135 53.82402
#
# Poissons Ratio (x) = 0.33218 0.34668
# Poissons Ratio (y) = 0.07189 0.51926
# Poissons Ratio (z) = 0.12143 0.84039
#
# Static dielectric constant tensor:
#      x y z
#    x 1.576870 0.000000 0.000000 
#    y 0.000000 1.557590 0.000000 
#    z 0.000000 0.000000 1.569290 
# 
# From -- ./inp_files/4825.got.cif
#   From: 2010.05.17/outbox.cif.g08.bks.cpg/sg28_3_cif.got.tgz:4825.got - 2010.06.04 01:15:21.
