data_PCOD9339776
_publ_section_title
;
Structure prediction by ZEFSAII (Michael W. Deem and Ramdas Pophale) SiO2 
 PCOD9339776
Probable space group: P M A 2
;
_chemical_formula_sum "Si O2"
_cell_formula_units_Z 32
_cell_length_a 8.646123
_cell_length_b 14.957790
_cell_length_c 12.729252
_cell_angle_alpha 90.000000
_cell_angle_beta 90.000000
_cell_angle_gamma 90.000000
_cell_volume 1646.234601
_symmetry_space_group_name_H-M "P M A 2"
_symmetry_group_IT_number 28
_symmetry_cell_setting 'orthorhombic'
loop_
_space_group_symop_operation_xyz
x,y,z
-x,-y,z
1/2-x,y,z
1/2+x,-y,z
loop_
_atom_site_type_symbol
_atom_site_label
_atom_site_fract_x
_atom_site_fract_y
_atom_site_fract_z
Si Si1 0.564419 0.755285 0.469920
Si Si2 0.435804 0.753298 0.235449
Si Si3 0.935413 0.898777 0.846449
Si Si4 0.436406 0.600099 0.077159
Si Si5 0.065759 0.899228 0.628483
Si Si6 0.064219 0.100713 0.079139
Si Si7 0.064483 0.601323 0.845849
Si Si8 0.434762 0.399790 0.627930
O O1 0.750000 0.761536 0.470171
O O2 0.503310 0.753403 0.351845
O O3 0.495999 0.838128 0.534851
O O4 0.519694 0.665537 0.533494
O O5 0.250000 0.753822 0.240224
O O6 0.486999 0.666173 0.169100
O O7 0.493154 0.837936 0.168819
O O8 0.750000 0.899667 0.835734
O O9 0.008446 0.860069 0.740681
O O10 0.975784 0.862446 0.961981
O O11 0.000000 0.000000 0.849126
O O12 0.500000 0.500000 0.089328
O O13 0.250000 0.595177 0.078339
O O14 0.480469 0.636887 0.961001
O O15 0.250000 0.902948 0.628298
O O16 0.000000 0.000000 0.619115
O O17 0.250000 0.098555 0.087002
O O18 0.000000 0.000000 0.086964
O O19 0.250000 0.600999 0.837316
O O20 0.000000 0.500000 0.847467
O O21 0.994398 0.639516 0.739021
O O22 0.500000 0.500000 0.614832
O O23 0.250000 0.405417 0.632810
#
# Coordination Sequence:
#
# PCOD9339776 Si02
#       8
#     4   4   4   4   4   4   4   4
#     4  11  25  43  59  81 113 150 197 243 284 337
#     4  11  24  41  59  83 114 149 195 243 286 337
#     4   9  17  32  56  87 120 151 186 228 278 339
#     4   9  20  37  58  85 116 149 185 230 282 336
#     4  11  22  38  62  89 118 152 188 233 287 340
#     4  10  21  38  61  88 118 153 190 232 284 338
#     4   9  16  30  54  84 116 147 182 225 277 338
#     4  10  21  37  59  85 115 149 185 232 284 337
#
# _framework density 19.438298
#
# number of rings (size 3 to 8) (size 9 to 14) (size 15 to 20)
#    0.000    2.000    0.000    4.875    0.000    7.000 
#    0.000    7.500    0.000    0.000    0.000    0.000 
#    0.000    0.000    0.000    0.000    0.000    0.000 
#
# Total GULP energy -178682.399233 kJ/mol
# GULP energy per Si atom -5583.824976 kJ/mol
# Density = 1.939406 g / cm^3
# Si number density = 19.438298 Si / 1000 Ang^3
#
#
#
# Elastic Constant Matrix: (Units=GPa)
#
#
# Indices 1 2 3 4 5 6 
#
# 1 75.5709 37.9274 66.8337 0.0000 0.0000 0.0000
# 2 37.9274 110.3884 88.4720 0.0000 0.0000 0.0000
# 3 66.8337 88.4720 225.7026 0.0000 0.0000 0.0000
# 4 0.0000 0.0000 0.0000 36.5660 0.0000 0.0000
# 5 0.0000 0.0000 0.0000 0.0000 44.1048 0.0000
# 6 0.0000 0.0000 0.0000 0.0000 0.0000 3.6806
#
#
#
# Elastic Compliance Matrix: (Units=1/GPa)
#
#
# Indices 1 2 3 4 5 6 
#
# 1 0.018531 -0.002871 -0.004362 0.000000 0.000000 0.000000
# 2 -0.002871 0.013653 -0.004502 0.000000 0.000000 0.000000
# 3 -0.004362 -0.004502 0.007487 0.000000 0.000000 0.000000
# 4 0.000000 0.000000 0.000000 0.027348 0.000000 0.000000
# 5 0.000000 0.000000 0.000000 0.000000 0.022673 0.000000
# 6 0.000000 0.000000 0.000000 0.000000 0.000000 0.271697
#
#
# Mechanical properties :
#
#
# Convention : Reuss Voigt Hill
#
# Bulk Modulus (GPa) = 61.72115 88.68089 75.20102
# Shear Modulus (GPa) = 12.81199 31.43219 22.12209
#
# Velocity S-wave (km/s) = 2.57010 4.02559 3.37719
# Velocity P-wave (km/s) = 6.37405 8.20536 7.34699
#
# Compressibility (1/GPa) = 0.01620190
#
# Stress axis : x y z
#
# Youngs Moduli (GPa) = 53.96323 73.24228 133.56761
#
# Poissons Ratio (x) = 0.21028 0.58261
# Poissons Ratio (y) = 0.15493 0.60129
# Poissons Ratio (z) = 0.23538 0.32972
#
# Static dielectric constant tensor:
#      x y z
#    x 1.651150 0.000000 0.000000 
#    y 0.000000 1.666900 0.000000 
#    z 0.000000 0.000000 1.691600 
# 
# From -- ./inp_files/5017.got.cif
#   From: 2010.05.17/outbox.cif.g08.bks.cpg/sg28_3_cif.got.tgz:5017.got - 2010.06.04 01:15:21.
