data_PCOD9339413
_publ_section_title
;
Structure prediction by ZEFSAII (Michael W. Deem and Ramdas Pophale) SiO2 
 PCOD9339413
Probable space group: P M A 2
;
_chemical_formula_sum "Si O2"
_cell_formula_units_Z 24
_cell_length_a 8.435268
_cell_length_b 9.661577
_cell_length_c 16.496463
_cell_angle_alpha 90.000000
_cell_angle_beta 90.000000
_cell_angle_gamma 90.000000
_cell_volume 1344.428598
_symmetry_space_group_name_H-M "P M A 2"
_symmetry_group_IT_number 28
_symmetry_cell_setting 'orthorhombic'
loop_
_space_group_symop_operation_xyz
x,y,z
-x,-y,z
1/2-x,y,z
1/2+x,-y,z
loop_
_atom_site_type_symbol
_atom_site_label
_atom_site_fract_x
_atom_site_fract_y
_atom_site_fract_z
Si Si1 0.558450 0.841004 0.702980
Si Si2 0.059872 0.343278 0.029846
Si Si3 0.938327 0.343456 0.204787
Si Si4 0.941448 0.841150 0.528928
Si Si5 0.059421 0.158085 0.351581
Si Si6 0.058105 0.157743 0.879882
O O1 0.750000 0.840108 0.702735
O O2 0.505494 0.779376 0.615932
O O3 0.507030 0.785328 0.790965
O O4 0.500000 0.000000 0.702870
O O5 0.250000 0.344434 0.030132
O O6 0.000000 0.500000 0.020146
O O7 0.002176 0.292582 0.117728
O O8 0.002952 0.249356 0.955296
O O9 0.750000 0.346566 0.201444
O O10 0.000000 0.500000 0.215739
O O11 0.994521 0.248874 0.278500
O O12 0.750000 0.840666 0.529010
O O13 0.991890 0.785537 0.440885
O O14 0.000000 0.000000 0.529283
O O15 0.250000 0.157958 0.348608
O O16 0.000000 0.000000 0.344834
O O17 0.250000 0.156413 0.881044
O O18 0.000000 0.000000 0.887315
#
# Coordination Sequence:
#
# PCOD9339413 Si02
#       6
#     4   4   4   4   4   4
#     4   8  13  24  41  65  94 125 156 189 229 275
#     4  10  20  35  52  71  94 125 162 199 238 289
#     4  11  22  37  55  73  94 126 163 203 247 297
#     4   8  14  24  42  66  95 127 158 191 231 276
#     4  10  19  32  50  76 104 131 163 202 244 287
#     4   9  18  30  48  73 100 126 157 196 238 280
#
# _framework density 17.851448999999999
#
# number of rings (size 3 to 8) (size 9 to 14) (size 15 to 20)
#    0.000    2.667    0.000    3.500    0.000    2.667 
#    0.000    1.667    0.000    1.000    0.000    2.333 
#    0.000    0.000    0.000    0.000    0.000    0.000 
#
# Total GULP energy -133614.444299 kJ/mol
# GULP energy per Si atom -5567.268512 kJ/mol
# Density = 1.781082 g / cm^3
# Si number density = 17.851449 Si / 1000 Ang^3
#
#
#
# Elastic Constant Matrix: (Units=GPa)
#
#
# Indices 1 2 3 4 5 6 
#
# 1 45.8583 11.2257 35.6594 0.0000 0.0000 0.0000
# 2 11.2257 33.2394 68.9644 0.0000 0.0000 0.0000
# 3 35.6594 68.9644 244.8919 0.0000 0.0000 0.0000
# 4 0.0000 0.0000 0.0000 -5.7172 0.0000 0.0000
# 5 0.0000 0.0000 0.0000 0.0000 -5.7025 0.0000
# 6 0.0000 0.0000 0.0000 0.0000 0.0000 21.2220
#
#
#
# Elastic Compliance Matrix: (Units=1/GPa)
#
#
# Indices 1 2 3 4 5 6 
#
# 1 0.024652 -0.002112 -0.002995 0.000000 0.000000 0.000000
# 2 -0.002112 0.072549 -0.020123 0.000000 0.000000 0.000000
# 3 -0.002995 -0.020123 0.010186 0.000000 0.000000 0.000000
# 4 0.000000 0.000000 0.000000 -0.174912 0.000000 0.000000
# 5 0.000000 0.000000 0.000000 0.000000 -0.175361 0.000000
# 6 0.000000 0.000000 0.000000 0.000000 0.000000 0.047121
#
#
# Mechanical properties :
#
#
# Convention : Reuss Voigt Hill
#
# Bulk Modulus (GPa) = 17.56597 61.74317 39.65457
# Shear Modulus (GPa) = -39.57956 15.83646 -11.87155
#
# Velocity S-wave (km/s) = -4.71378 2.98170 -2.58159
# Velocity P-wave (km/s) = 4.44577 6.82029 3.65728
#
# Compressibility (1/GPa) = 0.05692824
#
# Stress axis : x y z
#
# Youngs Moduli (GPa) = 40.56447 13.78375 98.16927
#
# Poissons Ratio (x) = 0.02910 0.29402
# Poissons Ratio (y) = 0.08565 1.97548
# Poissons Ratio (z) = 0.12149 0.27737
#
# Static dielectric constant tensor:
#      x y z
#    x 1.599850 0.000000 0.000000 
#    y 0.000000 1.550320 0.000000 
#    z 0.000000 0.000000 1.692700 
# 
# From -- ./inp_files/6086.got.cif
#   From: 2010.05.17/outbox.cif.g08.bks.cpg/sg28_4_cif.got.tgz:6086.got - 2010.06.04 01:15:21.
