data_PCOD9339117
_publ_section_title
;
Structure prediction by ZEFSAII (Michael W. Deem and Ramdas Pophale) SiO2 
 PCOD9339117
Probable space group: P C C 2
;
_chemical_formula_sum "Si O2"
_cell_formula_units_Z 26
_cell_length_a 8.811417
_cell_length_b 11.754605
_cell_length_c 11.175846
_cell_angle_alpha 90.000000
_cell_angle_beta 90.000000
_cell_angle_gamma 90.000000
_cell_volume 1157.535191
_symmetry_space_group_name_H-M "P C C 2"
_symmetry_group_IT_number 27
_symmetry_cell_setting 'orthorhombic'
loop_
_space_group_symop_operation_xyz
x,y,z
-x,-y,z
-x,y,1/2+z
x,-y,1/2+z
loop_
_atom_site_type_symbol
_atom_site_label
_atom_site_fract_x
_atom_site_fract_y
_atom_site_fract_z
Si Si1 0.285819 0.160565 0.127480
Si Si2 0.731616 0.548203 0.790946
Si Si3 0.431262 0.667239 0.796466
Si Si4 0.556447 0.111488 0.956136
Si Si5 0.930407 0.711281 0.953312
Si Si6 0.128458 0.904793 0.863202
Si Si7 0.000000 0.500000 0.113357
O O1 0.334371 0.277383 0.191650
O O2 0.211276 0.087202 0.234113
O O3 0.440560 0.114981 0.067466
O O4 0.162342 0.194955 0.028899
O O5 0.585209 0.615264 0.743170
O O6 0.661948 0.436544 0.854524
O O7 0.816219 0.637159 0.874611
O O8 0.851265 0.504226 0.695228
O O9 0.464497 0.769866 0.887096
O O10 0.738074 0.093403 0.963414
O O11 0.500000 0.000000 0.884401
O O12 0.049169 0.781695 0.874274
O O13 0.004434 0.615579 0.036918
O O14 0.000000 0.000000 0.875786
#
# Coordination Sequence:
#
# PCOD9339117 Si02
#       7
#     4   4   4   4   4   4   2
#     4  11  24  47  72 108 142 197 249 301 377 445
#     4  11  24  45  69 104 151 196 245 310 366 449
#     4  10  24  45  71 104 145 192 253 298 368 449
#     4  11  25  48  74 107 141 193 253 310 378 445
#     4  12  25  45  74 105 155 194 252 305 384 443
#     4  11  28  50  78 109 151 192 256 322 380 451
#     4  12  26  40  74 108 148 196 248 304 388 438
#
# _framework density 22.461518000000002
#
# number of rings (size 3 to 8) (size 9 to 14) (size 15 to 20)
#    0.000    0.923    3.077    2.308    8.615    4.308 
#    0.000    0.000    0.000    0.000    0.000    0.000 
#    0.000    0.000    0.000    0.000    0.000    0.000 
#
# Total GULP energy -145262.108997 kJ/mol
# GULP energy per Si atom -5587.004192 kJ/mol
# Density = 2.241039 g / cm^3
# Si number density = 22.461518 Si / 1000 Ang^3
#
#
#
# Elastic Constant Matrix: (Units=GPa)
#
#
# Indices 1 2 3 4 5 6 
#
# 1 149.5897 64.9752 46.8977 0.0000 0.0000 0.0000
# 2 64.9752 121.4527 20.2954 0.0000 0.0000 0.0000
# 3 46.8977 20.2954 66.4965 0.0000 0.0000 0.0000
# 4 0.0000 0.0000 0.0000 21.6944 0.0000 0.0000
# 5 0.0000 0.0000 0.0000 0.0000 153.6324 0.0000
# 6 0.0000 0.0000 0.0000 0.0000 0.0000 56.9878
#
#
#
# Elastic Compliance Matrix: (Units=1/GPa)
#
#
# Indices 1 2 3 4 5 6 
#
# 1 0.010611 -0.004664 -0.006060 0.000000 0.000000 0.000000
# 2 -0.004664 0.010726 0.000016 0.000000 0.000000 0.000000
# 3 -0.006060 0.000016 0.019307 0.000000 0.000000 0.000000
# 4 0.000000 0.000000 0.000000 0.046095 0.000000 0.000000
# 5 0.000000 0.000000 0.000000 0.000000 0.006509 0.000000
# 6 0.000000 0.000000 0.000000 0.000000 0.000000 0.017548
#
#
# Mechanical properties :
#
#
# Convention : Reuss Voigt Hill
#
# Bulk Modulus (GPa) = 52.00786 66.87505 59.44146
# Shear Modulus (GPa) = 36.06955 60.15429 48.11192
#
# Velocity S-wave (km/s) = 4.01164 5.18065 4.63316
# Velocity P-wave (km/s) = 6.68297 8.10083 7.42582
#
# Compressibility (1/GPa) = 0.01922786
#
# Stress axis : x y z
#
# Youngs Moduli (GPa) = 94.24618 93.23018 51.79360
#
# Poissons Ratio (x) = 0.43481 0.31386
# Poissons Ratio (y) = 0.43955 -0.00080
# Poissons Ratio (z) = 0.57111 -0.00145
#
# Static dielectric constant tensor:
#      x y z
#    x 0.763820 0.000000 0.000000 
#    y 0.000000 1.828660 0.000000 
#    z 0.000000 0.000000 1.835620 
# 
# From -- ./inp_files/2368.got.cif
#   From: 2010.05.17/outbox.cif.g08.bks.cpg/sg27_2_cif.got.tgz:2368.got - 2010.06.04 01:11:05.
