data_PCOD9339307
_publ_section_title
;
Structure prediction by ZEFSAII (Michael W. Deem and Ramdas Pophale) SiO2 
 PCOD9339307
Probable space group: P M A 2
;
_chemical_formula_sum "Si O2"
_cell_formula_units_Z 32
_cell_length_a 8.539415
_cell_length_b 14.747956
_cell_length_c 16.151639
_cell_angle_alpha 90.000000
_cell_angle_beta 90.000000
_cell_angle_gamma 90.000000
_cell_volume 2034.119918
_symmetry_space_group_name_H-M "P M A 2"
_symmetry_group_IT_number 28
_symmetry_cell_setting 'orthorhombic'
loop_
_space_group_symop_operation_xyz
x,y,z
-x,-y,z
1/2-x,y,z
1/2+x,-y,z
loop_
_atom_site_type_symbol
_atom_site_label
_atom_site_fract_x
_atom_site_fract_y
_atom_site_fract_z
Si Si1 0.562000 0.902739 0.648330
Si Si2 0.937958 0.602068 0.742500
Si Si3 0.440822 0.287265 0.579229
Si Si4 0.437797 0.902873 0.835646
Si Si5 0.937644 0.396926 0.063605
Si Si6 0.062417 0.396907 0.236779
Si Si7 0.939371 0.602926 0.419295
Si Si8 0.560745 0.289034 0.901052
O O1 0.750000 0.905081 0.650938
O O2 0.510659 0.816475 0.594363
O O3 0.501515 0.889648 0.742273
O O4 0.500000 0.000000 0.619036
O O5 0.750000 0.601161 0.743902
O O6 0.989451 0.654037 0.659093
O O7 0.000000 0.500000 0.742532
O O8 0.998261 0.655089 0.822789
O O9 0.250000 0.287772 0.577967
O O10 0.494582 0.334480 0.494725
O O11 0.250000 0.906382 0.831729
O O12 0.486161 0.815818 0.889332
O O13 0.500000 0.000000 0.865545
O O14 0.750000 0.401232 0.064102
O O15 0.000000 0.500000 0.054532
O O16 0.994017 0.357827 0.151912
O O17 0.990733 0.336385 0.986109
O O18 0.250000 0.397248 0.230846
O O19 0.016648 0.360782 0.327652
O O20 0.000000 0.500000 0.237806
O O21 0.750000 0.599013 0.421642
O O22 0.000000 0.500000 0.428884
O O23 0.750000 0.292329 0.899041
#
# Coordination Sequence:
#
# PCOD9339307 Si02
#       8
#     4   4   4   4   4   4   4   4
#     4  10  18  31  48  67  89 117 152 189 231 269
#     4  11  21  32  45  63  91 126 159 187 219 262
#     4   9  18  31  46  65  91 122 153 184 224 269
#     4  10  19  32  49  68  90 115 150 191 232 272
#     4  10  19  31  46  65  91 121 152 186 225 266
#     4   9  16  27  45  66  88 115 149 187 227 265
#     4   9  17  30  46  66  92 121 151 185 222 266
#     4  10  21  34  47  66  91 122 155 188 226 270
#
# _framework density 15.731617999999999
#
# number of rings (size 3 to 8) (size 9 to 14) (size 15 to 20)
#    0.000    2.250    1.250    4.125    0.000    3.000 
#    0.000    1.875    0.000    0.000    0.000    0.875 
#    0.000    6.000    0.000    0.000    0.000    0.000 
#
# Total GULP energy -178397.122356 kJ/mol
# GULP energy per Si atom -5574.910074 kJ/mol
# Density = 1.569581 g / cm^3
# Si number density = 15.731618 Si / 1000 Ang^3
#
#
#
# Elastic Constant Matrix: (Units=GPa)
#
#
# Indices 1 2 3 4 5 6 
#
# 1 26.3409 23.9137 26.2229 0.0000 0.0000 0.0000
# 2 23.9137 127.0682 80.3995 0.0000 0.0000 0.0000
# 3 26.2229 80.3995 154.2788 0.0000 0.0000 0.0000
# 4 0.0000 0.0000 0.0000 5.2451 0.0000 0.0000
# 5 0.0000 0.0000 0.0000 0.0000 -0.9698 0.0000
# 6 0.0000 0.0000 0.0000 0.0000 0.0000 15.5131
#
#
#
# Elastic Compliance Matrix: (Units=1/GPa)
#
#
# Indices 1 2 3 4 5 6 
#
# 1 0.048425 -0.005827 -0.005194 0.000000 0.000000 0.000000
# 2 -0.005827 0.012442 -0.005494 0.000000 0.000000 0.000000
# 3 -0.005194 -0.005494 0.010228 0.000000 0.000000 0.000000
# 4 0.000000 0.000000 0.000000 0.190655 0.000000 0.000000
# 5 0.000000 0.000000 0.000000 0.000000 -1.031187 0.000000
# 6 0.000000 0.000000 0.000000 0.000000 0.000000 0.064462
#
#
# Mechanical properties :
#
#
# Convention : Reuss Voigt Hill
#
# Bulk Modulus (GPa) = 26.27074 63.19556 44.73315
# Shear Modulus (GPa) = -7.58429 15.76779 4.09175
#
# Velocity S-wave (km/s) = -2.19807 3.16935 1.61450
# Velocity P-wave (km/s) = 3.20836 7.32470 5.65441
#
# Compressibility (1/GPa) = 0.03806516
#
# Stress axis : x y z
#
# Youngs Moduli (GPa) = 20.65060 80.37031 97.77449
#
# Poissons Ratio (x) = 0.46830 0.50787
# Poissons Ratio (y) = 0.12033 0.53715
# Poissons Ratio (z) = 0.10727 0.44153
#
# Static dielectric constant tensor:
#      x y z
#    x 1.536540 0.000000 0.000000 
#    y 0.000000 1.513500 0.000000 
#    z 0.000000 0.000000 1.540150 
# 
# From -- ./inp_files/6383.got.cif
#   From: 2010.05.17/outbox.cif.g08.bks.cpg/sg28_4_cif.got.tgz:6383.got - 2010.06.04 01:15:21.
