data_PCOD9339286
_publ_section_title
;
Structure prediction by ZEFSAII (Michael W. Deem and Ramdas Pophale) SiO2 
 PCOD9339286
Probable space group: P M A 2
;
_chemical_formula_sum "Si O2"
_cell_formula_units_Z 28
_cell_length_a 9.405505
_cell_length_b 18.111769
_cell_length_c 9.452974
_cell_angle_alpha 90.000000
_cell_angle_beta 90.000000
_cell_angle_gamma 90.000000
_cell_volume 1610.317277
_symmetry_space_group_name_H-M "P M A 2"
_symmetry_group_IT_number 28
_symmetry_cell_setting 'orthorhombic'
loop_
_space_group_symop_operation_xyz
x,y,z
-x,-y,z
1/2-x,y,z
1/2+x,-y,z
loop_
_atom_site_type_symbol
_atom_site_label
_atom_site_fract_x
_atom_site_fract_y
_atom_site_fract_z
Si Si1 0.908445 0.198105 0.672220
Si Si2 0.417119 0.075310 0.152478
Si Si3 0.580981 0.576381 0.706311
Si Si4 0.584828 0.928024 0.812685
Si Si5 0.913109 0.704760 0.479209
Si Si6 0.587514 0.321335 0.916163
Si Si7 0.082873 0.244331 0.169616
O O1 0.750000 0.168322 0.649945
O O2 0.901875 0.259847 0.793954
O O3 0.017164 0.138751 0.729665
O O4 0.973413 0.237187 0.536404
O O5 0.250000 0.065066 0.185444
O O6 0.459191 0.158388 0.202460
O O7 0.500000 0.000000 0.196482
O O8 0.433168 0.081213 0.981904
O O9 0.500000 0.500000 0.681594
O O10 0.750000 0.566238 0.728528
O O11 0.564102 0.630006 0.569167
O O12 0.508509 0.615688 0.842486
O O13 0.750000 0.935633 0.783815
O O14 0.500000 0.000000 0.769979
O O15 0.750000 0.728278 0.512310
O O16 0.925284 0.705851 0.310485
O O17 0.750000 0.345488 0.949078
O O18 0.511175 0.281997 0.048340
O O19 0.250000 0.240709 0.124900
#
# Coordination Sequence:
#
# PCOD9339286 Si02
#       7
#     4   4   4   4   4   4   4
#     4  10  19  32  50  74 103 135 176 222 266 316
#     4   9  18  30  48  73 103 139 179 225 274 321
#     4  10  20  37  60  84 109 140 176 218 266 323
#     4  10  18  29  47  72 101 134 176 226 277 322
#     4   9  20  36  56  78 106 144 182 217 267 327
#     4  10  20  33  54  82 108 137 174 219 266 315
#     4  10  19  35  55  79 109 145 186 227 272 324
#
# _framework density 17.387877
#
# number of rings (size 3 to 8) (size 9 to 14) (size 15 to 20)
#    0.000    2.286    1.429    1.714    0.000    3.429 
#    0.000    1.429    0.000    3.429    0.000    0.000 
#    0.000    0.000    0.000    0.000    0.000    0.000 
#
# Total GULP energy -155982.271170 kJ/mol
# GULP energy per Si atom -5570.795399 kJ/mol
# Density = 1.734830 g / cm^3
# Si number density = 17.387877 Si / 1000 Ang^3
#
#
#
# Elastic Constant Matrix: (Units=GPa)
#
#
# Indices 1 2 3 4 5 6 
#
# 1 100.4061 52.4919 44.4918 0.0000 0.0000 0.0000
# 2 52.4919 82.9327 22.3233 0.0000 0.0000 0.0000
# 3 44.4918 22.3233 55.5438 0.0000 0.0000 0.0000
# 4 0.0000 0.0000 0.0000 13.9279 0.0000 0.0000
# 5 0.0000 0.0000 0.0000 0.0000 25.9474 0.0000
# 6 0.0000 0.0000 0.0000 0.0000 0.0000 34.7987
#
#
#
# Elastic Compliance Matrix: (Units=1/GPa)
#
#
# Indices 1 2 3 4 5 6 
#
# 1 0.020588 -0.009634 -0.012620 0.000000 0.000000 0.000000
# 2 -0.009634 0.018029 0.000471 0.000000 0.000000 0.000000
# 3 -0.012620 0.000471 0.027923 0.000000 0.000000 0.000000
# 4 0.000000 0.000000 0.000000 0.071798 0.000000 0.000000
# 5 0.000000 0.000000 0.000000 0.000000 0.038539 0.000000
# 6 0.000000 0.000000 0.000000 0.000000 0.000000 0.028737
#
#
# Mechanical properties :
#
#
# Convention : Reuss Voigt Hill
#
# Bulk Modulus (GPa) = 43.52523 53.05517 48.29020
# Shear Modulus (GPa) = 19.46746 22.90652 21.18699
#
# Velocity S-wave (km/s) = 3.34967 3.63352 3.49448
# Velocity P-wave (km/s) = 6.32825 6.94134 6.64187
#
# Compressibility (1/GPa) = 0.02297518
#
# Stress axis : x y z
#
# Youngs Moduli (GPa) = 48.57099 55.46566 35.81277
#
# Poissons Ratio (x) = 0.53438 0.45195
# Poissons Ratio (y) = 0.46796 -0.01688
# Poissons Ratio (z) = 0.61295 -0.02615
#
# Static dielectric constant tensor:
#      x y z
#    x 1.594120 0.000000 0.000000 
#    y 0.000000 1.765930 0.000000 
#    z 0.000000 0.000000 1.567260 
# 
# From -- ./inp_files/2630.got.cif
#   From: 2010.05.17/outbox.cif.g08.bks.cpg/sg28_2_cif.got.tgz:2630.got - 2010.06.04 01:15:21.
