data_PCOD9339007
_publ_section_title
;
Structure prediction by ZEFSAII (Michael W. Deem and Ramdas Pophale) SiO2 
 PCOD9339007
Probable space group: P C C 2
;
_chemical_formula_sum "Si O2"
_cell_formula_units_Z 32
_cell_length_a 12.254877
_cell_length_b 8.399598
_cell_length_c 14.974760
_cell_angle_alpha 90.000000
_cell_angle_beta 90.000000
_cell_angle_gamma 90.000000
_cell_volume 1541.442499
_symmetry_space_group_name_H-M "P C C 2"
_symmetry_group_IT_number 27
_symmetry_cell_setting 'orthorhombic'
loop_
_space_group_symop_operation_xyz
x,y,z
-x,-y,z
-x,y,1/2+z
x,-y,1/2+z
loop_
_atom_site_type_symbol
_atom_site_label
_atom_site_fract_x
_atom_site_fract_y
_atom_site_fract_z
Si Si1 0.563756 0.663426 0.502880
Si Si2 0.142780 0.336175 0.890037
Si Si3 0.363505 0.145545 0.914705
Si Si4 0.979118 0.310408 0.042246
Si Si5 0.068371 0.846340 0.229942
Si Si6 0.720960 0.955567 0.263223
Si Si7 0.626360 0.036473 0.088153
Si Si8 0.210820 0.689337 0.904262
O O1 0.500000 0.500000 0.527893
O O2 0.472113 0.766263 0.448837
O O3 0.618682 0.769997 0.582721
O O4 0.668136 0.642651 0.438866
O O5 0.264208 0.264927 0.895910
O O6 0.068629 0.279067 0.808637
O O7 0.154735 0.523775 0.878055
O O8 0.081313 0.274248 0.978514
O O9 0.369334 0.039613 0.825711
O O10 0.327929 0.024942 0.993738
O O11 0.971088 0.221574 0.136062
O O12 0.000000 0.500000 0.058029
O O13 0.869617 0.263724 0.986480
O O14 0.191261 0.911848 0.233237
O O15 0.000000 0.000000 0.254671
O O16 0.774401 0.816997 0.324023
O O17 0.672330 0.924100 0.166248
O O18 0.500000 0.000000 0.088989
#
# Coordination Sequence:
#
# PCOD9339007 Si02
#       8
#     4   4   4   4   4   4   4   4
#     4  11  21  41  70  95 137 181 229 279 349 405
#     4  10  23  45  65  99 137 170 233 274 350 409
#     4  10  22  41  64  96 136 180 226 287 331 412
#     4  10  24  43  69  96 134 177 220 282 339 412
#     4  11  25  41  64  99 130 176 224 275 338 407
#     4  11  24  40  67  96 137 175 230 283 337 405
#     4  10  23  39  61  99 133 177 230 277 336 403
#     4  11  22  42  70  97 134 182 218 286 347 404
#
# _framework density 20.759775999999999
#
# number of rings (size 3 to 8) (size 9 to 14) (size 15 to 20)
#    0.000    1.500    2.500    1.500    3.500    4.000 
#    2.250    4.375    0.000    0.000    0.000    0.000 
#    0.000    0.000    0.000    0.000    0.000    0.000 
#
# Total GULP energy -178187.615718 kJ/mol
# GULP energy per Si atom -5568.362991 kJ/mol
# Density = 2.071253 g / cm^3
# Si number density = 20.759776 Si / 1000 Ang^3
#
#
#
# Elastic Constant Matrix: (Units=GPa)
#
#
# Indices 1 2 3 4 5 6 
#
# 1 81.4017 22.0206 18.9191 0.0000 0.0000 0.0000
# 2 22.0206 80.7194 36.1801 0.0000 0.0000 0.0000
# 3 18.9191 36.1801 92.9603 0.0000 0.0000 0.0000
# 4 0.0000 0.0000 0.0000 29.9996 0.0000 0.0000
# 5 0.0000 0.0000 0.0000 0.0000 19.9828 0.0000
# 6 0.0000 0.0000 0.0000 0.0000 0.0000 32.9115
#
#
#
# Elastic Compliance Matrix: (Units=1/GPa)
#
#
# Indices 1 2 3 4 5 6 
#
# 1 0.013454 -0.002959 -0.001586 0.000000 0.000000 0.000000
# 2 -0.002959 0.015657 -0.005492 0.000000 0.000000 0.000000
# 3 -0.001586 -0.005492 0.013217 0.000000 0.000000 0.000000
# 4 0.000000 0.000000 0.000000 0.033334 0.000000 0.000000
# 5 0.000000 0.000000 0.000000 0.000000 0.050043 0.000000
# 6 0.000000 0.000000 0.000000 0.000000 0.000000 0.030384
#
#
# Mechanical properties :
#
#
# Convention : Reuss Voigt Hill
#
# Bulk Modulus (GPa) = 44.93503 45.48012 45.20757
# Shear Modulus (GPa) = 27.23569 28.44289 27.83929
#
# Velocity S-wave (km/s) = 3.62601 3.70550 3.66597
# Velocity P-wave (km/s) = 6.26281 6.34531 6.30420
#
# Compressibility (1/GPa) = 0.02225435
#
# Stress axis : x y z
#
# Youngs Moduli (GPa) = 74.32744 63.86790 75.65756
#
# Poissons Ratio (x) = 0.18900 0.12002
# Poissons Ratio (y) = 0.21995 0.41548
# Poissons Ratio (z) = 0.11791 0.35073
#
# Static dielectric constant tensor:
#      x y z
#    x 1.884270 0.000000 0.000000 
#    y 0.000000 1.810300 0.000000 
#    z 0.000000 0.000000 1.831990 
# 
# From -- ./inp_files/3457.got.cif
#   From: 2010.05.17/outbox.cif.g08.bks.cpg/sg27_2_cif.got.tgz:3457.got - 2010.06.04 01:11:05.
