data_PCOD9339795
_publ_section_title
;
Structure prediction by ZEFSAII (Michael W. Deem and Ramdas Pophale) SiO2 
 PCOD9339795
Probable space group: P M A 2
;
_chemical_formula_sum "Si O2"
_cell_formula_units_Z 32
_cell_length_a 8.595831
_cell_length_b 15.867650
_cell_length_c 12.197361
_cell_angle_alpha 90.000000
_cell_angle_beta 90.000000
_cell_angle_gamma 90.000000
_cell_volume 1663.666833
_symmetry_space_group_name_H-M "P M A 2"
_symmetry_group_IT_number 28
_symmetry_cell_setting 'orthorhombic'
loop_
_space_group_symop_operation_xyz
x,y,z
-x,-y,z
1/2-x,y,z
1/2+x,-y,z
loop_
_atom_site_type_symbol
_atom_site_label
_atom_site_fract_x
_atom_site_fract_y
_atom_site_fract_z
Si Si1 0.062654 0.343210 0.313980
Si Si2 0.937468 0.591051 0.074909
Si Si3 0.064771 0.589977 0.541493
Si Si4 0.435920 0.847452 0.309637
Si Si5 0.438303 0.253296 0.679055
Si Si6 0.063011 0.090432 0.078032
Si Si7 0.936501 0.910916 0.538797
Si Si8 0.060466 0.249470 0.931874
O O1 0.250000 0.339544 0.319177
O O2 0.016309 0.387009 0.199858
O O3 0.999441 0.391454 0.419653
O O4 0.997787 0.248339 0.314523
O O5 0.750000 0.589428 0.071976
O O6 0.000000 0.500000 0.042664
O O7 0.990972 0.666883 0.996424
O O8 0.250000 0.587799 0.538423
O O9 0.000000 0.500000 0.579536
O O10 0.007674 0.666108 0.617829
O O11 0.250000 0.848157 0.308133
O O12 0.500710 0.889528 0.199448
O O13 0.496603 0.894156 0.417823
O O14 0.250000 0.259734 0.675195
O O15 0.482105 0.168085 0.614760
O O16 0.488077 0.249426 0.805585
O O17 0.250000 0.089015 0.081239
O O18 0.012139 0.166243 0.998150
O O19 0.000000 0.000000 0.041798
O O20 0.750000 0.913650 0.533114
O O21 0.000000 0.000000 0.580452
O O22 0.250000 0.249758 0.933120
#
# Coordination Sequence:
#
# PCOD9339795 Si02
#       8
#     4   4   4   4   4   4   4   4
#     4  11  21  38  63  91 124 161 198 245 308 368
#     4  10  21  38  61  89 121 157 196 242 296 356
#     4  12  25  41  63  92 126 163 204 253 304 364
#     4  12  23  37  61  92 125 159 200 249 306 369
#     4  10  22  42  66  88 118 162 210 256 307 361
#     4  11  22  40  63  90 125 161 203 251 304 365
#     4  11  23  39  62  90 123 161 202 251 307 366
#     4   9  20  41  64  86 118 162 205 250 305 360
#
# _framework density 19.23462
#
# number of rings (size 3 to 8) (size 9 to 14) (size 15 to 20)
#    0.000    1.250    2.500    4.125    0.000    3.500 
#    0.000    3.125    0.000    0.000    0.000    0.000 
#    0.000    0.000    0.000    0.000    0.000    0.000 
#
# Total GULP energy -178966.904165 kJ/mol
# GULP energy per Si atom -5592.715755 kJ/mol
# Density = 1.919084 g / cm^3
# Si number density = 19.234620 Si / 1000 Ang^3
#
#
#
# Elastic Constant Matrix: (Units=GPa)
#
#
# Indices 1 2 3 4 5 6 
#
# 1 67.1855 49.5062 42.2409 0.0000 0.0000 0.0000
# 2 49.5062 201.4589 89.5533 0.0000 0.0000 0.0000
# 3 42.2409 89.5533 159.0154 0.0000 0.0000 0.0000
# 4 0.0000 0.0000 0.0000 -12.4665 0.0000 0.0000
# 5 0.0000 0.0000 0.0000 0.0000 4.7814 0.0000
# 6 0.0000 0.0000 0.0000 0.0000 0.0000 35.5686
#
#
#
# Elastic Compliance Matrix: (Units=1/GPa)
#
#
# Indices 1 2 3 4 5 6 
#
# 1 0.019385 -0.003301 -0.003290 0.000000 0.000000 0.000000
# 2 -0.003301 0.007184 -0.003169 0.000000 0.000000 0.000000
# 3 -0.003290 -0.003169 0.008947 0.000000 0.000000 0.000000
# 4 0.000000 0.000000 0.000000 -0.080215 0.000000 0.000000
# 5 0.000000 0.000000 0.000000 0.000000 0.209144 0.000000
# 6 0.000000 0.000000 0.000000 0.000000 0.000000 0.028115
#
#
# Mechanical properties :
#
#
# Convention : Reuss Voigt Hill
#
# Bulk Modulus (GPa) = 62.51645 87.80673 75.16159
# Shear Modulus (GPa) = 22.99777 22.00066 22.49922
#
# Velocity S-wave (km/s) = 3.46156 3.38569 3.42383
# Velocity P-wave (km/s) = 6.96772 7.81238 7.40211
#
# Compressibility (1/GPa) = 0.01599579
#
# Stress axis : x y z
#
# Youngs Moduli (GPa) = 51.58535 139.20711 111.76550
#
# Poissons Ratio (x) = 0.45953 0.36776
# Poissons Ratio (y) = 0.17028 0.35415
# Poissons Ratio (z) = 0.16974 0.44110
#
# Static dielectric constant tensor:
#      x y z
#    x 1.647860 0.000000 0.000000 
#    y 0.000000 1.647740 0.000000 
#    z 0.000000 0.000000 1.648850 
# 
# From -- ./inp_files/5079.got.cif
#   From: 2010.05.17/outbox.cif.g08.bks.cpg/sg28_3_cif.got.tgz:5079.got - 2010.06.04 01:15:21.
