data_PCOD9339256
_publ_section_title
;
Structure prediction by ZEFSAII (Michael W. Deem and Ramdas Pophale) SiO2 
 PCOD9339256
Probable space group: P M A 2
;
_chemical_formula_sum "Si O2"
_cell_formula_units_Z 32
_cell_length_a 17.249041
_cell_length_b 7.245097
_cell_length_c 11.180216
_cell_angle_alpha 90.000000
_cell_angle_beta 90.000000
_cell_angle_gamma 90.000000
_cell_volume 1397.202496
_symmetry_space_group_name_H-M "P M A 2"
_symmetry_group_IT_number 28
_symmetry_cell_setting 'orthorhombic'
loop_
_space_group_symop_operation_xyz
x,y,z
-x,-y,z
1/2-x,y,z
1/2+x,-y,z
loop_
_atom_site_type_symbol
_atom_site_label
_atom_site_fract_x
_atom_site_fract_y
_atom_site_fract_z
Si Si1 0.908820 0.466715 0.313970
Si Si2 0.340408 0.531057 0.566841
Si Si3 0.908471 0.465800 0.819430
Si Si4 0.656708 0.051477 0.317318
Si Si5 0.839757 0.019484 0.572208
Si Si6 0.908582 0.027468 0.817809
Si Si7 0.092425 0.971172 0.074194
Si Si8 0.342282 0.555069 0.067157
O O1 0.879039 0.534270 0.443337
O O2 0.885723 0.249593 0.316161
O O3 0.868105 0.537071 0.192090
O O4 0.000000 0.500000 0.303937
O O5 0.250000 0.483550 0.565223
O O6 0.378376 0.465549 0.690922
O O7 0.345589 0.756160 0.567799
O O8 0.892119 0.246083 0.816177
O O9 0.000000 0.500000 0.828895
O O10 0.868217 0.534111 0.941473
O O11 0.750000 0.079872 0.320855
O O12 0.632281 0.956908 0.441555
O O13 0.632990 0.957316 0.193787
O O14 0.750000 0.972122 0.582671
O O15 0.879812 0.951888 0.692077
O O16 0.878975 0.954702 0.945583
O O17 0.000000 0.000000 0.821071
O O18 0.113732 0.753418 0.068675
O O19 0.000000 0.000000 0.083896
O O20 0.250000 0.583823 0.068058
#
# Coordination Sequence:
#
# PCOD9339256 Si02
#       8
#     4   4   4   4   4   4   4   4
#     4  10  17  26  43  69  96 122 154 198 246 284
#     4   9  16  28  45  67  93 124 160 200 240 285
#     4  10  19  31  49  74  99 124 161 209 247 285
#     4   9  17  30  46  68  93 120 157 201 240 284
#     4   8  15  27  45  66  89 116 155 197 230 270
#     4   9  18  30  45  68  96 122 151 190 240 289
#     4   9  17  28  44  68  92 115 149 196 242 286
#     4  10  19  32  49  70  94 125 162 201 242 293
#
# _framework density 22.902908
#
# number of rings (size 3 to 8) (size 9 to 14) (size 15 to 20)
#    0.000    2.750    0.000    4.125    0.000    4.000 
#    0.000    0.000    0.000    1.500    0.000   59.500 
#    0.000    0.000    0.000    0.000    0.000    0.000 
#
# Total GULP energy -178551.315608 kJ/mol
# GULP energy per Si atom -5579.728613 kJ/mol
# Density = 2.285078 g / cm^3
# Si number density = 22.902908 Si / 1000 Ang^3
#
#
#
# Elastic Constant Matrix: (Units=GPa)
#
#
# Indices 1 2 3 4 5 6 
#
# 1 123.0397 12.6278 86.6969 0.0000 0.0000 0.0000
# 2 12.6278 105.1087 18.9854 0.0000 0.0000 0.0000
# 3 86.6969 18.9854 312.9957 0.0000 0.0000 0.0000
# 4 0.0000 0.0000 0.0000 -48.4442 0.0000 0.0000
# 5 0.0000 0.0000 0.0000 0.0000 50.6550 0.0000
# 6 0.0000 0.0000 0.0000 0.0000 0.0000 16.9541
#
#
#
# Elastic Compliance Matrix: (Units=1/GPa)
#
#
# Indices 1 2 3 4 5 6 
#
# 1 0.010152 -0.000720 -0.002768 0.000000 0.000000 0.000000
# 2 -0.000720 0.009670 -0.000387 0.000000 0.000000 0.000000
# 3 -0.002768 -0.000387 0.003985 0.000000 0.000000 0.000000
# 4 0.000000 0.000000 0.000000 -0.020642 0.000000 0.000000
# 5 0.000000 0.000000 0.000000 0.000000 0.019741 0.000000
# 6 0.000000 0.000000 0.000000 0.000000 0.000000 0.058983
#
#
# Mechanical properties :
#
#
# Convention : Reuss Voigt Hill
#
# Bulk Modulus (GPa) = 62.27765 86.41822 74.34794
# Shear Modulus (GPa) = 52.63595 32.02191 42.32893
#
# Velocity S-wave (km/s) = 4.79918 3.74325 4.30372
# Velocity P-wave (km/s) = 7.61318 7.51644 7.56497
#
# Compressibility (1/GPa) = 0.01605712
#
# Stress axis : x y z
#
# Youngs Moduli (GPa) = 98.50310 103.40870 250.92667
#
# Poissons Ratio (x) = 0.07442 0.69465
# Poissons Ratio (y) = 0.07089 0.09717
# Poissons Ratio (z) = 0.27269 0.04004
#
# Static dielectric constant tensor:
#      x y z
#    x 1.758870 0.000000 0.000000 
#    y 0.000000 2.213270 0.000000 
#    z 0.000000 0.000000 1.936780 
# 
# From -- ./inp_files/5594.got.cif
#   From: 2010.05.17/outbox.cif.g08.bks.cpg/sg28_3_cif.got.tgz:5594.got - 2010.06.04 01:15:21.
