data_PCOD9339607
_publ_section_title
;
Structure prediction by ZEFSAII (Michael W. Deem and Ramdas Pophale) SiO2 
 PCOD9339607
Probable space group: P M A 2
;
_chemical_formula_sum "Si O2"
_cell_formula_units_Z 28
_cell_length_a 8.571575
_cell_length_b 9.953951
_cell_length_c 18.237334
_cell_angle_alpha 90.000000
_cell_angle_beta 90.000000
_cell_angle_gamma 90.000000
_cell_volume 1556.028259
_symmetry_space_group_name_H-M "P M A 2"
_symmetry_group_IT_number 28
_symmetry_cell_setting 'orthorhombic'
loop_
_space_group_symop_operation_xyz
x,y,z
-x,-y,z
1/2-x,y,z
1/2+x,-y,z
loop_
_atom_site_type_symbol
_atom_site_label
_atom_site_fract_x
_atom_site_fract_y
_atom_site_fract_z
Si Si1 0.062689 0.350814 0.160520
Si Si2 0.437410 0.649036 0.907540
Si Si3 0.938222 0.150139 0.449312
Si Si4 0.937683 0.351474 0.322074
Si Si5 0.561524 0.150035 0.613894
Si Si6 0.937198 0.848257 0.029982
Si Si7 0.561836 0.352827 0.738883
O O1 0.750000 0.642050 0.162570
O O2 0.000070 0.316031 0.241311
O O3 0.000000 0.500000 0.141463
O O4 0.015122 0.239260 0.101281
O O5 0.500000 0.500000 0.927108
O O6 0.250000 0.646624 0.911836
O O7 0.484837 0.676523 0.822973
O O8 0.502399 0.763013 0.960764
O O9 0.750000 0.146722 0.447935
O O10 0.990309 0.248801 0.384892
O O11 0.986025 0.193987 0.531598
O O12 0.000000 0.000000 0.437864
O O13 0.750000 0.354025 0.319749
O O14 0.000000 0.500000 0.338811
O O15 0.750000 0.147591 0.615592
O O16 0.506307 0.246539 0.678775
O O17 0.500000 0.000000 0.624701
O O18 0.750000 0.852811 0.028045
O O19 0.000000 0.000000 0.031403
O O20 0.500000 0.500000 0.720370
O O21 0.750000 0.354715 0.737533
#
# Coordination Sequence:
#
# PCOD9339607 Si02
#       7
#     4   4   4   4   4   4   4
#     4  10  21  37  57  79 103 135 173 211 256 309
#     4  10  20  36  57  80 107 140 177 216 261 313
#     4   9  19  34  52  74 102 137 174 212 255 305
#     4  10  20  34  53  78 105 134 170 212 257 304
#     4   9  18  34  52  73 103 137 174 213 255 304
#     4  11  24  39  56  80 108 139 175 216 262 311
#     4   9  19  34  53  78 106 136 172 214 257 304
#
# _framework density 17.994530999999998
#
# number of rings (size 3 to 8) (size 9 to 14) (size 15 to 20)
#    0.000    2.286    0.000    3.000    0.000    7.429 
#    0.000    4.286    0.000    0.000    0.000    0.000 
#    0.000    0.000    0.000    0.000    0.000    0.000 
#
# Total GULP energy -156265.111805 kJ/mol
# GULP energy per Si atom -5580.896850 kJ/mol
# Density = 1.795357 g / cm^3
# Si number density = 17.994531 Si / 1000 Ang^3
#
#
#
# Elastic Constant Matrix: (Units=GPa)
#
#
# Indices 1 2 3 4 5 6 
#
# 1 29.1585 33.6373 36.1421 0.0000 0.0000 0.0000
# 2 33.6373 147.8050 133.3664 0.0000 0.0000 0.0000
# 3 36.1421 133.3664 157.7579 0.0000 0.0000 0.0000
# 4 0.0000 0.0000 0.0000 66.3957 0.0000 0.0000
# 5 0.0000 0.0000 0.0000 0.0000 41.0698 0.0000
# 6 0.0000 0.0000 0.0000 0.0000 0.0000 32.9311
#
#
#
# Elastic Compliance Matrix: (Units=1/GPa)
#
#
# Indices 1 2 3 4 5 6 
#
# 1 0.048527 -0.004268 -0.007510 0.000000 0.000000 0.000000
# 2 -0.004268 0.028899 -0.023453 0.000000 0.000000 0.000000
# 3 -0.007510 -0.023453 0.027886 0.000000 0.000000 0.000000
# 4 0.000000 0.000000 0.000000 0.015061 0.000000 0.000000
# 5 0.000000 0.000000 0.000000 0.000000 0.024349 0.000000
# 6 0.000000 0.000000 0.000000 0.000000 0.000000 0.030366
#
#
# Mechanical properties :
#
#
# Convention : Reuss Voigt Hill
#
# Bulk Modulus (GPa) = 28.69339 82.33478 55.51409
# Shear Modulus (GPa) = 19.44276 36.85102 28.14689
#
# Velocity S-wave (km/s) = 3.29063 4.53028 3.95928
# Velocity P-wave (km/s) = 5.51525 8.55683 7.19852
#
# Compressibility (1/GPa) = 0.03485123
#
# Stress axis : x y z
#
# Youngs Moduli (GPa) = 20.60719 34.60363 35.86030
#
# Poissons Ratio (x) = 0.14768 0.26930
# Poissons Ratio (y) = 0.08794 0.84103
# Poissons Ratio (z) = 0.15475 0.81155
#
# Static dielectric constant tensor:
#      x y z
#    x 1.610400 0.000000 0.000000 
#    y 0.000000 1.573880 0.000000 
#    z 0.000000 0.000000 1.629160 
# 
# From -- ./inp_files/6771.got.cif
#   From: 2010.05.17/outbox.cif.g08.bks.cpg/sg28_4_cif.got.tgz:6771.got - 2010.06.04 01:15:21.
