data_PCOD9339011
_publ_section_title
;
Structure prediction by ZEFSAII (Michael W. Deem and Ramdas Pophale) SiO2 
 PCOD9339011
Probable space group: P C C 2
;
_chemical_formula_sum "Si O2"
_cell_formula_units_Z 30
_cell_length_a 17.834905
_cell_length_b 5.288472
_cell_length_c 14.874944
_cell_angle_alpha 90.000000
_cell_angle_beta 90.000000
_cell_angle_gamma 90.000000
_cell_volume 1402.995729
_symmetry_space_group_name_H-M "P C C 2"
_symmetry_group_IT_number 27
_symmetry_cell_setting 'orthorhombic'
loop_
_space_group_symop_operation_xyz
x,y,z
-x,-y,z
-x,y,1/2+z
x,-y,1/2+z
loop_
_atom_site_type_symbol
_atom_site_label
_atom_site_fract_x
_atom_site_fract_y
_atom_site_fract_z
Si Si1 0.079318 0.625560 0.080140
Si Si2 0.279674 0.999903 0.982637
Si Si3 0.573368 0.384007 0.748899
Si Si4 0.000000 0.000000 0.705352
Si Si5 0.805806 0.488682 0.928670
Si Si6 0.389055 0.119804 0.837943
Si Si7 0.288115 0.081223 0.191444
Si Si8 0.865893 0.681510 0.247362
O O1 0.058170 0.873364 0.135885
O O2 0.120980 0.462914 0.155059
O O3 0.000000 0.500000 0.056793
O O4 0.131194 0.625938 0.994561
O O5 0.224331 0.236553 0.958771
O O6 0.358097 0.072915 0.936657
O O7 0.256546 0.732912 0.937108
O O8 0.283758 0.980197 0.090137
O O9 0.500000 0.500000 0.697291
O O10 0.582488 0.600444 0.823210
O O11 0.650363 0.314403 0.694727
O O12 0.564612 0.120303 0.801702
O O13 0.053801 0.819084 0.763352
O O14 0.841767 0.493604 0.830073
O O15 0.320689 0.110100 0.765225
O O16 0.206215 0.148458 0.227278
#
# Coordination Sequence:
#
# PCOD9339011 Si02
#       8
#     4   4   4   2   4   4   4   4
#     4  10  24  42  62  90 129 174 221 275 342 394
#     4  12  24  41  65 104 127 173 221 277 330 392
#     4  10  22  43  70  97 135 181 211 269 335 394
#     4  10  24  40  66  84 138 172 228 278 342 404
#     4  12  26  39  68  92 134 166 228 277 332 404
#     4  10  22  41  67  98 133 173 218 268 322 401
#     4  10  23  39  71  94 136 170 224 274 327 402
#     4  11  22  45  61  98 122 180 219 281 335 392
#
# _framework density 21.382816999999999
#
# number of rings (size 3 to 8) (size 9 to 14) (size 15 to 20)
#    0.800    0.533    2.667    2.800    5.600    4.267 
#    0.000    0.667    2.933    0.000    0.000    0.000 
#    0.000    0.000    0.000    0.000    0.000    0.000 
#
# Total GULP energy -167124.569934 kJ/mol
# GULP energy per Si atom -5570.818998 kJ/mol
# Density = 2.133415 g / cm^3
# Si number density = 21.382817 Si / 1000 Ang^3
#
#
#
# Elastic Constant Matrix: (Units=GPa)
#
#
# Indices 1 2 3 4 5 6 
#
# 1 57.6681 5.4210 24.8944 0.0000 0.0000 0.0000
# 2 5.4210 53.4579 -6.6117 0.0000 0.0000 0.0000
# 3 24.8944 -6.6117 36.0444 0.0000 0.0000 0.0000
# 4 0.0000 0.0000 0.0000 20.5781 0.0000 0.0000
# 5 0.0000 0.0000 0.0000 0.0000 11.0685 0.0000
# 6 0.0000 0.0000 0.0000 0.0000 0.0000 84.2872
#
#
#
# Elastic Compliance Matrix: (Units=1/GPa)
#
#
# Indices 1 2 3 4 5 6 
#
# 1 0.025930 -0.004957 -0.018818 0.000000 0.000000 0.000000
# 2 -0.004957 0.020088 0.007108 0.000000 0.000000 0.000000
# 3 -0.018818 0.007108 0.042044 0.000000 0.000000 0.000000
# 4 0.000000 0.000000 0.000000 0.048595 0.000000 0.000000
# 5 0.000000 0.000000 0.000000 0.000000 0.090347 0.000000
# 6 0.000000 0.000000 0.000000 0.000000 0.000000 0.011864
#
#
# Mechanical properties :
#
#
# Convention : Reuss Voigt Hill
#
# Bulk Modulus (GPa) = 18.27179 21.61977 19.94578
# Shear Modulus (GPa) = 17.21494 31.41786 24.31640
#
# Velocity S-wave (km/s) = 2.84048 3.83731 3.37589
# Velocity P-wave (km/s) = 4.39561 5.45582 4.95416
#
# Compressibility (1/GPa) = 0.05472918
#
# Stress axis : x y z
#
# Youngs Moduli (GPa) = 38.56520 49.78067 23.78434
#
# Poissons Ratio (x) = 0.24676 0.44758
# Poissons Ratio (y) = 0.19116 -0.16907
# Poissons Ratio (z) = 0.72573 -0.35386
#
# Static dielectric constant tensor:
#      x y z
#    x 1.657910 0.000000 0.000000 
#    y 0.000000 1.788600 0.000000 
#    z 0.000000 0.000000 1.701800 
# 
# From -- ./inp_files/3760.got.cif
#   From: 2010.05.17/outbox.cif.g08.bks.cpg/sg27_2_cif.got.tgz:3760.got - 2010.06.04 01:11:05.
