data_PCOD9339453
_publ_section_title
;
Structure prediction by ZEFSAII (Michael W. Deem and Ramdas Pophale) SiO2 
 PCOD9339453
Probable space group: P M A 2
;
_chemical_formula_sum "Si O2"
_cell_formula_units_Z 32
_cell_length_a 14.187816
_cell_length_b 5.325089
_cell_length_c 18.249368
_cell_angle_alpha 90.000000
_cell_angle_beta 90.000000
_cell_angle_gamma 90.000000
_cell_volume 1378.764990
_symmetry_space_group_name_H-M "P M A 2"
_symmetry_group_IT_number 28
_symmetry_cell_setting 'orthorhombic'
loop_
_space_group_symop_operation_xyz
x,y,z
-x,-y,z
1/2-x,y,z
1/2+x,-y,z
loop_
_atom_site_type_symbol
_atom_site_label
_atom_site_fract_x
_atom_site_fract_y
_atom_site_fract_z
Si Si1 0.865118 0.853394 0.665640
Si Si2 0.134672 0.151539 0.327177
Si Si3 0.641900 0.360586 0.908768
Si Si4 0.634606 0.353687 0.580944
Si Si5 0.141599 0.105657 0.161638
Si Si6 0.866017 0.860036 0.834287
Si Si7 0.865267 0.349617 0.412577
Si Si8 0.101175 0.608922 0.074754
O O1 0.750000 0.853555 0.665692
O O2 0.894760 0.113682 0.628421
O O3 0.894736 0.613692 0.618245
O O4 0.894598 0.832374 0.749956
O O5 0.250000 0.158373 0.326068
O O6 0.102689 0.153933 0.242918
O O7 0.104673 0.394937 0.372751
O O8 0.106536 0.894958 0.366886
O O9 0.750000 0.865993 0.835883
O O10 0.601896 0.625996 0.883221
O O11 0.600002 0.119235 0.869356
O O12 0.644898 0.333508 0.996077
O O13 0.750000 0.353003 0.580232
O O14 0.603689 0.335498 0.496752
O O15 0.250000 0.021791 0.169409
O O16 0.143155 0.371718 0.119079
O O17 0.096263 0.866643 0.120687
O O18 0.750000 0.368254 0.882707
O O19 0.750000 0.351103 0.413493
O O20 0.000000 0.500000 0.056350
#
# Coordination Sequence:
#
# PCOD9339453 Si02
#       8
#     4   4   4   4   4   4   4   4
#     4   9  15  23  34  55  86 125 168 206 246 301
#     4   9  17  28  45  67  93 127 174 220 254 299
#     4  10  19  33  52  73  97 134 178 218 260 318
#     4   9  15  21  33  53  87 131 166 196 246 311
#     4  11  22  39  61  83 108 147 192 230 270 331
#     4   9  17  28  45  67  93 127 174 220 254 299
#     4   9  15  24  37  60  92 129 170 210 252 305
#     4  12  25  40  58  84 115 144 176 230 290 336
#
# _framework density 23.209178000000001
#
# number of rings (size 3 to 8) (size 9 to 14) (size 15 to 20)
#    0.000    2.250    0.000    4.500    0.000    9.000 
#    0.000    0.000    0.000    0.000    0.000    0.000 
#    0.000    0.000    0.000   78.750    0.000   87.500 
#
# Total GULP energy -179020.424566 kJ/mol
# GULP energy per Si atom -5594.388268 kJ/mol
# Density = 2.315635 g / cm^3
# Si number density = 23.209178 Si / 1000 Ang^3
#
#
#
# Elastic Constant Matrix: (Units=GPa)
#
#
# Indices 1 2 3 4 5 6 
#
# 1 51.2575 -7.9456 -19.2211 0.0000 0.0000 0.0000
# 2 -7.9456 195.8302 103.3713 0.0000 0.0000 0.0000
# 3 -19.2211 103.3713 185.6408 0.0000 0.0000 0.0000
# 4 0.0000 0.0000 0.0000 14.4569 0.0000 0.0000
# 5 0.0000 0.0000 0.0000 0.0000 257.1285 0.0000
# 6 0.0000 0.0000 0.0000 0.0000 0.0000 31.0684
#
#
#
# Elastic Compliance Matrix: (Units=1/GPa)
#
#
# Indices 1 2 3 4 5 6 
#
# 1 0.020320 -0.000405 0.002330 0.000000 0.000000 0.000000
# 2 -0.000405 0.007240 -0.004074 0.000000 0.000000 0.000000
# 3 0.002330 -0.004074 0.007896 0.000000 0.000000 0.000000
# 4 0.000000 0.000000 0.000000 0.069171 0.000000 0.000000
# 5 0.000000 0.000000 0.000000 0.000000 0.003889 0.000000
# 6 0.000000 0.000000 0.000000 0.000000 0.000000 0.032187
#
#
# Mechanical properties :
#
#
# Convention : Reuss Voigt Hill
#
# Bulk Modulus (GPa) = 32.09434 65.01529 48.55481
# Shear Modulus (GPa) = 32.17744 84.29903 58.23823
#
# Velocity S-wave (km/s) = 3.72749 6.03326 5.01470
# Velocity P-wave (km/s) = 5.69069 8.75256 7.38211
#
# Compressibility (1/GPa) = 0.03115814
#
# Stress axis : x y z
#
# Youngs Moduli (GPa) = 49.21240 138.11503 126.64167
#
# Poissons Ratio (x) = 0.05597 -0.29502
# Poissons Ratio (y) = 0.01994 0.51589
# Poissons Ratio (z) = -0.11464 0.56263
#
# Static dielectric constant tensor:
#      x y z
#    x 1.949570 0.000000 0.000000 
#    y 0.000000 1.812460 0.000000 
#    z 0.000000 0.000000 1.797380 
# 
# From -- ./inp_files/6600.got.cif
#   From: 2010.05.17/outbox.cif.g08.bks.cpg/sg28_4_cif.got.tgz:6600.got - 2010.06.04 01:15:21.
