data_PCOD9339764
_publ_section_title
;
Structure prediction by ZEFSAII (Michael W. Deem and Ramdas Pophale) SiO2 
 PCOD9339764
Probable space group: P M A 2
;
_chemical_formula_sum "Si O2"
_cell_formula_units_Z 28
_cell_length_a 19.380368
_cell_length_b 5.340108
_cell_length_c 13.026338
_cell_angle_alpha 90.000000
_cell_angle_beta 90.000000
_cell_angle_gamma 90.000000
_cell_volume 1348.138162
_symmetry_space_group_name_H-M "P M A 2"
_symmetry_group_IT_number 28
_symmetry_cell_setting 'orthorhombic'
loop_
_space_group_symop_operation_xyz
x,y,z
-x,-y,z
1/2-x,y,z
1/2+x,-y,z
loop_
_atom_site_type_symbol
_atom_site_label
_atom_site_fract_x
_atom_site_fract_y
_atom_site_fract_z
Si Si1 0.953666 0.741760 0.155510
Si Si2 0.075218 0.421193 0.723131
Si Si3 0.428764 0.137135 0.936303
Si Si4 0.172746 0.082280 0.619765
Si Si5 0.673915 0.181415 0.831951
Si Si6 0.332537 0.230776 0.320033
Si Si7 0.168670 0.720003 0.448164
O O1 0.886104 0.759562 0.226623
O O2 0.000000 0.500000 0.182796
O O3 0.925743 0.697434 0.038378
O O4 0.000000 0.000000 0.164881
O O5 0.061923 0.246839 0.822611
O O6 0.117384 0.299859 0.629641
O O7 0.122799 0.623886 0.779507
O O8 0.000000 0.500000 0.686882
O O9 0.500000 0.000000 0.953515
O O10 0.363494 0.952967 0.926277
O O11 0.250000 0.151338 0.580615
O O12 0.181861 0.013737 0.738879
O O13 0.144834 0.845804 0.555582
O O14 0.750000 0.284066 0.855860
O O15 0.250000 0.263750 0.295776
O O16 0.353852 0.458554 0.397478
O O17 0.339863 0.956687 0.371554
O O18 0.250000 0.681748 0.465755
#
# Coordination Sequence:
#
# PCOD9339764 Si02
#       7
#     4   4   4   4   4   4   4
#     4  11  24  41  68  93 125 169 213 258 327 391
#     4  11  20  34  59  84 123 168 207 253 308 379
#     4  10  21  38  60  84 120 166 209 247 313 390
#     4   9  20  35  56  87 121 160 207 256 308 372
#     4  10  21  36  58  89 122 158 206 262 307 361
#     4  10  21  40  66  94 123 160 212 267 318 373
#     4   9  19  37  63  90 121 163 207 258 319 377
#
# _framework density 20.769383999999999
#
# number of rings (size 3 to 8) (size 9 to 14) (size 15 to 20)
#    0.000    2.000    1.429    1.714    4.000    1.143 
#    0.000    0.714    6.286    0.000    0.000    0.000 
#    0.000    0.000    0.000    0.000    0.000    0.000 
#
# Total GULP energy -155896.443032 kJ/mol
# GULP energy per Si atom -5567.730108 kJ/mol
# Density = 2.072211 g / cm^3
# Si number density = 20.769384 Si / 1000 Ang^3
#
#
#
# Elastic Constant Matrix: (Units=GPa)
#
#
# Indices 1 2 3 4 5 6 
#
# 1 112.9304 30.7062 23.9689 0.0000 0.0000 0.0000
# 2 30.7062 86.7248 7.8585 0.0000 0.0000 0.0000
# 3 23.9689 7.8585 72.2550 0.0000 0.0000 0.0000
# 4 0.0000 0.0000 0.0000 29.6185 0.0000 0.0000
# 5 0.0000 0.0000 0.0000 0.0000 31.0330 0.0000
# 6 0.0000 0.0000 0.0000 0.0000 0.0000 25.8237
#
#
#
# Elastic Compliance Matrix: (Units=1/GPa)
#
#
# Indices 1 2 3 4 5 6 
#
# 1 0.010440 -0.003416 -0.003092 0.000000 0.000000 0.000000
# 2 -0.003416 0.012763 -0.000255 0.000000 0.000000 0.000000
# 3 -0.003092 -0.000255 0.014893 0.000000 0.000000 0.000000
# 4 0.000000 0.000000 0.000000 0.033763 0.000000 0.000000
# 5 0.000000 0.000000 0.000000 0.000000 0.032224 0.000000
# 6 0.000000 0.000000 0.000000 0.000000 0.000000 0.038724
#
#
# Mechanical properties :
#
#
# Convention : Reuss Voigt Hill
#
# Bulk Modulus (GPa) = 40.69847 44.10858 42.40353
# Shear Modulus (GPa) = 30.39083 31.25350 30.82217
#
# Velocity S-wave (km/s) = 3.82940 3.88337 3.85648
# Velocity P-wave (km/s) = 6.26022 6.43357 6.34748
#
# Compressibility (1/GPa) = 0.02457095
#
# Stress axis : x y z
#
# Youngs Moduli (GPa) = 95.78439 78.34888 67.14474
#
# Poissons Ratio (x) = 0.26767 0.20759
# Poissons Ratio (y) = 0.32723 0.01711
# Poissons Ratio (z) = 0.29614 0.01997
#
# Static dielectric constant tensor:
#      x y z
#    x 1.755830 0.000000 0.000000 
#    y 0.000000 1.898260 0.000000 
#    z 0.000000 0.000000 1.800450 
# 
# From -- ./inp_files/5805.got.cif
#   From: 2010.05.17/outbox.cif.g08.bks.cpg/sg28_3_cif.got.tgz:5805.got - 2010.06.04 01:15:21.
