data_PCOD9339023
_publ_section_title
;
Structure prediction by ZEFSAII (Michael W. Deem and Ramdas Pophale) SiO2 
 PCOD9339023
Probable space group: P C C 2
;
_chemical_formula_sum "Si O2"
_cell_formula_units_Z 32
_cell_length_a 12.163067
_cell_length_b 13.868083
_cell_length_c 7.072955
_cell_angle_alpha 90.000000
_cell_angle_beta 90.000000
_cell_angle_gamma 90.000000
_cell_volume 1193.054893
_symmetry_space_group_name_H-M "P C C 2"
_symmetry_group_IT_number 27
_symmetry_cell_setting 'orthorhombic'
loop_
_space_group_symop_operation_xyz
x,y,z
-x,-y,z
-x,y,1/2+z
x,-y,1/2+z
loop_
_atom_site_type_symbol
_atom_site_label
_atom_site_fract_x
_atom_site_fract_y
_atom_site_fract_z
Si Si1 0.931271 0.243999 0.533620
Si Si2 0.878443 0.659433 0.663165
Si Si3 0.489208 0.743674 0.336924
Si Si4 0.708710 0.624260 0.340017
Si Si5 0.897795 0.931392 0.553922
Si Si6 0.297180 0.412302 0.910819
Si Si7 0.225479 0.102193 0.239212
Si Si8 0.531526 0.110779 0.589128
O O1 0.878120 0.258471 0.328663
O O2 0.844094 0.190676 0.661344
O O3 0.994038 0.339926 0.603402
O O4 0.032639 0.167686 0.535486
O O5 0.806185 0.659995 0.474421
O O6 0.812111 0.579846 0.781895
O O7 0.608412 0.696172 0.345918
O O8 0.385492 0.668119 0.340340
O O9 0.496932 0.770394 0.589504
O O10 0.477805 0.865493 0.339270
O O11 0.738638 0.615280 0.120643
O O12 0.659960 0.521280 0.410019
O O13 0.780912 0.896880 0.463181
O O14 0.845658 0.003669 0.709837
O O15 0.000000 0.000000 0.487792
O O16 0.339445 0.105532 0.138560
O O17 0.500000 0.000000 0.580311
#
# Coordination Sequence:
#
# PCOD9339023 Si02
#       8
#     4   4   4   4   4   4   4   4
#     4  11  25  47  73 113 156 210 280 329 412 497
#     4  12  28  47  81 116 161 203 260 340 418 494
#     4  12  27  50  79 115 161 218 276 337 423 503
#     4  12  28  52  87 122 164 208 281 352 430 509
#     4  10  22  42  68 104 144 209 272 338 396 467
#     4  12  27  54  85 125 160 211 282 350 430 513
#     4  11  25  43  70 102 153 212 276 343 404 477
#     4  12  29  47  71 113 167 216 272 332 416 491
#
# _framework density 26.821902000000001
#
# number of rings (size 3 to 8) (size 9 to 14) (size 15 to 20)
#    0.000    0.500    3.750    3.375    8.750    2.000 
#    0.000    1.875    0.000    0.000    0.000    0.000 
#    0.000    0.000    0.000    0.000    0.000    0.000 
#
# Total GULP energy -178317.903653 kJ/mol
# GULP energy per Si atom -5572.434489 kJ/mol
# Density = 2.676085 g / cm^3
# Si number density = 26.821902 Si / 1000 Ang^3
#
#
#
# Elastic Constant Matrix: (Units=GPa)
#
#
# Indices 1 2 3 4 5 6 
#
# 1 130.6139 31.2983 28.2206 0.0000 0.0000 0.0000
# 2 31.2983 122.5252 22.5128 0.0000 0.0000 0.0000
# 3 28.2206 22.5128 102.7962 0.0000 0.0000 0.0000
# 4 0.0000 0.0000 0.0000 108.6053 0.0000 0.0000
# 5 0.0000 0.0000 0.0000 0.0000 46.3885 0.0000
# 6 0.0000 0.0000 0.0000 0.0000 0.0000 30.8506
#
#
#
# Elastic Compliance Matrix: (Units=1/GPa)
#
#
# Indices 1 2 3 4 5 6 
#
# 1 0.008511 -0.001818 -0.001938 0.000000 0.000000 0.000000
# 2 -0.001818 0.008892 -0.001448 0.000000 0.000000 0.000000
# 3 -0.001938 -0.001448 0.010577 0.000000 0.000000 0.000000
# 4 0.000000 0.000000 0.000000 0.009208 0.000000 0.000000
# 5 0.000000 0.000000 0.000000 0.000000 0.021557 0.000000
# 6 0.000000 0.000000 0.000000 0.000000 0.000000 0.032414
#
#
# Mechanical properties :
#
#
# Convention : Reuss Voigt Hill
#
# Bulk Modulus (GPa) = 56.91201 57.77761 57.34481
# Shear Modulus (GPa) = 46.54418 55.42912 50.98665
#
# Velocity S-wave (km/s) = 4.17022 4.55088 4.36470
# Velocity P-wave (km/s) = 6.66725 7.01441 6.84303
#
# Compressibility (1/GPa) = 0.01757098
#
# Stress axis : x y z
#
# Youngs Moduli (GPa) = 117.50138 112.45988 94.54208
#
# Poissons Ratio (x) = 0.20443 0.18325
# Poissons Ratio (y) = 0.21360 0.13693
# Poissons Ratio (z) = 0.22775 0.16288
#
# Static dielectric constant tensor:
#      x y z
#    x 2.044880 0.000000 0.000000 
#    y 0.000000 2.144590 0.000000 
#    z 0.000000 0.000000 3.053790 
# 
# From -- ./inp_files/1493.got.cif
#   From: 2010.05.17/outbox.cif.g08.bks.cpg/sg27_1_cif.got.tgz:1493.got - 2010.06.04 01:11:05.
