data_PCOD9339553
_publ_section_title
;
Structure prediction by ZEFSAII (Michael W. Deem and Ramdas Pophale) SiO2 
 PCOD9339553
Probable space group: P M A 2
;
_chemical_formula_sum "Si O2"
_cell_formula_units_Z 32
_cell_length_a 16.994654
_cell_length_b 8.733241
_cell_length_c 10.467907
_cell_angle_alpha 90.000000
_cell_angle_beta 90.000000
_cell_angle_gamma 90.000000
_cell_volume 1553.630103
_symmetry_space_group_name_H-M "P M A 2"
_symmetry_group_IT_number 28
_symmetry_cell_setting 'orthorhombic'
loop_
_space_group_symop_operation_xyz
x,y,z
-x,-y,z
1/2-x,y,z
1/2+x,-y,z
loop_
_atom_site_type_symbol
_atom_site_label
_atom_site_fract_x
_atom_site_fract_y
_atom_site_fract_z
Si Si1 0.158977 0.364439 0.601320
Si Si2 0.572030 0.385383 0.728194
Si Si3 0.660864 0.432997 0.373277
Si Si4 0.064004 0.128570 0.244426
Si Si5 0.479337 0.177075 0.535341
Si Si6 0.339301 0.376251 0.111190
Si Si7 0.344208 0.686805 0.966539
Si Si8 0.157263 0.846524 0.228422
O O1 0.250000 0.322965 0.589472
O O2 0.144113 0.496915 0.703909
O O3 0.125915 0.455097 0.477040
O O4 0.101499 0.221114 0.609229
O O5 0.500000 0.500000 0.758692
O O6 0.543719 0.284879 0.606415
O O7 0.601524 0.282760 0.844918
O O8 0.750000 0.404547 0.421687
O O9 0.665264 0.528123 0.242959
O O10 0.624311 0.271917 0.333349
O O11 0.037491 0.192287 0.382367
O O12 0.092667 0.252659 0.140829
O O13 0.139218 0.018964 0.264402
O O14 0.000000 0.000000 0.203422
O O15 0.500000 0.000000 0.553213
O O16 0.250000 0.313313 0.088148
O O17 0.356129 0.508610 0.008273
O O18 0.250000 0.708067 0.944836
O O19 0.368315 0.791428 0.087856
O O20 0.250000 0.819674 0.228101
#
# Coordination Sequence:
#
# PCOD9339553 Si02
#       8
#     4   4   4   4   4   4   4   4
#     4  10  19  35  61  87 111 153 213 263 305 359
#     4  10  22  39  61  84 118 161 205 255 307 360
#     4   8  15  29  52  82 109 138 185 248 301 344
#     4  11  22  33  51  85 126 157 193 232 298 382
#     4  10  23  40  55  84 129 172 200 246 314 380
#     4   9  17  34  59  84 112 149 192 250 310 355
#     4   9  19  39  64  88 113 147 203 258 299 357
#     4   9  19  35  57  86 118 149 190 246 305 361
#
# _framework density 20.596921999999999
#
# number of rings (size 3 to 8) (size 9 to 14) (size 15 to 20)
#    0.000    2.500    1.250    2.250    3.500    1.500 
#    0.000    6.250    0.000    1.500    0.000    0.000 
#    0.000    0.000    0.000    0.000    0.000    0.000 
#
# Total GULP energy -178135.960418 kJ/mol
# GULP energy per Si atom -5566.748763 kJ/mol
# Density = 2.055004 g / cm^3
# Si number density = 20.596922 Si / 1000 Ang^3
#
#
#
# Elastic Constant Matrix: (Units=GPa)
#
#
# Indices 1 2 3 4 5 6 
#
# 1 66.8655 40.1313 30.9908 0.0000 0.0000 0.0000
# 2 40.1313 52.1481 15.0418 0.0000 0.0000 0.0000
# 3 30.9908 15.0418 78.3558 0.0000 0.0000 0.0000
# 4 0.0000 0.0000 0.0000 18.2237 0.0000 0.0000
# 5 0.0000 0.0000 0.0000 0.0000 24.5353 0.0000
# 6 0.0000 0.0000 0.0000 0.0000 0.0000 34.6410
#
#
#
# Elastic Compliance Matrix: (Units=1/GPa)
#
#
# Indices 1 2 3 4 5 6 
#
# 1 0.032374 -0.022464 -0.008492 0.000000 0.000000 0.000000
# 2 -0.022464 0.035888 0.001996 0.000000 0.000000 0.000000
# 3 -0.008492 0.001996 0.015738 0.000000 0.000000 0.000000
# 4 0.000000 0.000000 0.000000 0.054874 0.000000 0.000000
# 5 0.000000 0.000000 0.000000 0.000000 0.040758 0.000000
# 6 0.000000 0.000000 0.000000 0.000000 0.000000 0.028868
#
#
# Mechanical properties :
#
#
# Convention : Reuss Voigt Hill
#
# Bulk Modulus (GPa) = 38.34544 41.07746 39.71145
# Shear Modulus (GPa) = 18.17435 22.89369 20.53402
#
# Velocity S-wave (km/s) = 2.97371 3.33755 3.16087
# Velocity P-wave (km/s) = 5.51798 5.90247 5.71346
#
# Compressibility (1/GPa) = 0.02607872
#
# Stress axis : x y z
#
# Youngs Moduli (GPa) = 30.88916 27.86420 63.54102
#
# Poissons Ratio (x) = 0.62595 0.53958
# Poissons Ratio (y) = 0.69390 -0.12680
# Poissons Ratio (z) = 0.26231 -0.05560
#
# Static dielectric constant tensor:
#      x y z
#    x 1.840860 0.000000 0.000000 
#    y 0.000000 1.756750 0.000000 
#    z 0.000000 0.000000 1.767580 
# 
# From -- ./inp_files/5740.got.cif
#   From: 2010.05.17/outbox.cif.g08.bks.cpg/sg28_3_cif.got.tgz:5740.got - 2010.06.04 01:15:21.
