data_PCOD9339825
_publ_section_title
;
Structure prediction by ZEFSAII (Michael W. Deem and Ramdas Pophale) SiO2 
 PCOD9339825
Probable space group: P M A 2
;
_chemical_formula_sum "Si O2"
_cell_formula_units_Z 32
_cell_length_a 32.997621
_cell_length_b 5.635101
_cell_length_c 8.018719
_cell_angle_alpha 90.000000
_cell_angle_beta 90.000000
_cell_angle_gamma 90.000000
_cell_volume 1491.040120
_symmetry_space_group_name_H-M "P M A 2"
_symmetry_group_IT_number 28
_symmetry_cell_setting 'orthorhombic'
loop_
_space_group_symop_operation_xyz
x,y,z
-x,-y,z
1/2-x,y,z
1/2+x,-y,z
loop_
_atom_site_type_symbol
_atom_site_label
_atom_site_fract_x
_atom_site_fract_y
_atom_site_fract_z
Si Si1 0.570176 0.545767 0.009800
Si Si2 0.886962 0.910409 0.807762
Si Si3 0.866366 0.186770 0.131964
Si Si4 0.832351 0.722195 0.510778
Si Si5 0.297622 0.772363 0.393476
Si Si6 0.490655 0.254708 0.434877
Si Si7 0.965249 0.188248 0.780475
Si Si8 0.588768 0.820945 0.326566
O O1 0.611890 0.411393 0.054746
O O2 0.564983 0.709202 0.170679
O O3 0.580574 0.713781 0.857608
O O4 0.538414 0.360285 0.939428
O O5 0.855149 0.800513 0.680029
O O6 0.917851 0.117192 0.750015
O O7 0.865437 0.998902 0.979265
O O8 0.824475 0.232232 0.224776
O O9 0.897740 0.082901 0.271296
O O10 0.811100 0.462678 0.501688
O O11 0.868776 0.704662 0.375572
O O12 0.806698 0.961901 0.467040
O O13 0.250000 0.751115 0.362944
O O14 0.500000 0.500000 0.344598
O O15 0.517820 0.270920 0.601615
O O16 0.443067 0.222428 0.473017
O O17 0.500000 0.000000 0.352207
O O18 0.000000 0.000000 0.828201
#
# Coordination Sequence:
#
# PCOD9339825 Si02
#       8
#     4   4   4   4   4   4   4   4
#     4  10  21  41  66  89 127 171 228 277 330 403
#     4  10  23  41  69  97 127 181 231 277 332 403
#     4   9  21  44  66  96 128 175 228 267 330 413
#     4  11  23  40  74 100 133 175 223 271 329 407
#     4  11  24  44  70 103 140 173 212 273 341 402
#     4  11  26  41  61  89 128 168 223 283 331 380
#     4  10  23  40  60  91 130 174 227 284 346 385
#     4  10  22  42  63  93 125 174 229 274 328 403
#
# _framework density 21.461528000000001
#
# number of rings (size 3 to 8) (size 9 to 14) (size 15 to 20)
#    0.000    1.750    1.250    1.875   10.500    0.000 
#    6.750    1.250    0.000    0.000    0.000    0.000 
#    0.000    0.000    0.000    0.000    0.000    0.000 
#
# Total GULP energy -178282.974624 kJ/mol
# GULP energy per Si atom -5571.342957 kJ/mol
# Density = 2.141268 g / cm^3
# Si number density = 21.461528 Si / 1000 Ang^3
#
#
#
# Elastic Constant Matrix: (Units=GPa)
#
#
# Indices 1 2 3 4 5 6 
#
# 1 131.0525 43.6607 37.4179 0.0000 0.0000 0.0000
# 2 43.6607 111.4166 21.7731 0.0000 0.0000 0.0000
# 3 37.4179 21.7731 79.0266 0.0000 0.0000 0.0000
# 4 0.0000 0.0000 0.0000 6.2787 0.0000 0.0000
# 5 0.0000 0.0000 0.0000 0.0000 25.9081 0.0000
# 6 0.0000 0.0000 0.0000 0.0000 0.0000 26.7625
#
#
#
# Elastic Compliance Matrix: (Units=1/GPa)
#
#
# Indices 1 2 3 4 5 6 
#
# 1 0.009729 -0.003078 -0.003759 0.000000 0.000000 0.000000
# 2 -0.003078 0.010460 -0.001424 0.000000 0.000000 0.000000
# 3 -0.003759 -0.001424 0.014826 0.000000 0.000000 0.000000
# 4 0.000000 0.000000 0.000000 0.159268 0.000000 0.000000
# 5 0.000000 0.000000 0.000000 0.000000 0.038598 0.000000
# 6 0.000000 0.000000 0.000000 0.000000 0.000000 0.037366
#
#
# Mechanical properties :
#
#
# Convention : Reuss Voigt Hill
#
# Bulk Modulus (GPa) = 54.07463 58.57767 56.32615
# Shear Modulus (GPa) = 17.06876 26.36613 21.71745
#
# Velocity S-wave (km/s) = 2.82320 3.50884 3.18453
# Velocity P-wave (km/s) = 5.98983 6.61585 6.31061
#
# Compressibility (1/GPa) = 0.01849296
#
# Stress axis : x y z
#
# Youngs Moduli (GPa) = 102.78409 95.60340 67.44884
#
# Poissons Ratio (x) = 0.29427 0.25351
# Poissons Ratio (y) = 0.31637 0.09608
# Poissons Ratio (z) = 0.38632 0.13618
#
# Static dielectric constant tensor:
#      x y z
#    x 1.770580 0.000000 0.000000 
#    y 0.000000 1.903570 0.000000 
#    z 0.000000 0.000000 1.843190 
# 
# From -- ./inp_files/4379.got.cif
#   From: 2010.05.17/outbox.cif.g08.bks.cpg/sg28_3_cif.got.tgz:4379.got - 2010.06.04 01:15:21.
