data_PCOD9339186
_publ_section_title
;
Structure prediction by ZEFSAII (Michael W. Deem and Ramdas Pophale) SiO2 
 PCOD9339186
Probable space group: P C C 2
;
_chemical_formula_sum "Si O2"
_cell_formula_units_Z 24
_cell_length_a 12.455773
_cell_length_b 10.842510
_cell_length_c 8.444068
_cell_angle_alpha 90.000000
_cell_angle_beta 90.000000
_cell_angle_gamma 90.000000
_cell_volume 1140.386948
_symmetry_space_group_name_H-M "P C C 2"
_symmetry_group_IT_number 27
_symmetry_cell_setting 'orthorhombic'
loop_
_space_group_symop_operation_xyz
x,y,z
-x,-y,z
-x,y,1/2+z
x,-y,1/2+z
loop_
_atom_site_type_symbol
_atom_site_label
_atom_site_fract_x
_atom_site_fract_y
_atom_site_fract_z
Si Si1 0.625212 0.519303 0.144770
Si Si2 0.131364 0.122768 0.869809
Si Si3 0.643109 0.759057 0.951238
Si Si4 0.102052 0.150078 0.494756
Si Si5 0.538745 0.139721 0.768776
Si Si6 0.296457 0.686834 0.929279
O O1 0.500000 0.500000 0.182700
O O2 0.683439 0.592967 0.284606
O O3 0.631972 0.617623 0.000748
O O4 0.677137 0.393101 0.084304
O O5 0.236593 0.195053 0.925223
O O6 0.117411 0.135314 0.682107
O O7 0.022512 0.168586 0.953489
O O8 0.138609 0.978157 0.913591
O O9 0.569382 0.784584 0.800276
O O10 0.591260 0.835947 0.098019
O O11 0.177931 0.258716 0.434874
O O12 0.623588 0.197660 0.894317
O O13 0.500000 0.000000 0.789311
#
# Coordination Sequence:
#
# PCOD9339186 Si02
#       6
#     4   4   4   4   4   4
#     4  11  24  44  67 102 145 196 243 285 362 434
#     4  11  26  46  76 105 147 188 245 305 378 443
#     4  11  26  40  70  98 146 190 242 301 356 438
#     4  11  26  47  76 106 144 190 245 303 379 440
#     4  11  24  41  65 105 145 181 243 302 377 425
#     4  11  26  43  73 101 146 191 249 293 369 431
#
# _framework density 21.045490000000001
#
# number of rings (size 3 to 8) (size 9 to 14) (size 15 to 20)
#    0.000    1.000    1.667    4.000   18.667    0.000 
#    0.000    0.833    0.000    0.000    0.000    0.000 
#    0.000    0.000    0.000    0.000    0.000    0.000 
#
# Total GULP energy -134338.107733 kJ/mol
# GULP energy per Si atom -5597.421156 kJ/mol
# Density = 2.099759 g / cm^3
# Si number density = 21.045490 Si / 1000 Ang^3
#
#
#
# Elastic Constant Matrix: (Units=GPa)
#
#
# Indices 1 2 3 4 5 6 
#
# 1 170.8208 77.9177 69.3179 0.0000 0.0000 0.0000
# 2 77.9177 88.0740 52.6858 0.0000 0.0000 0.0000
# 3 69.3179 52.6858 114.5026 0.0000 0.0000 0.0000
# 4 0.0000 0.0000 0.0000 18.3812 0.0000 0.0000
# 5 0.0000 0.0000 0.0000 0.0000 33.4179 0.0000
# 6 0.0000 0.0000 0.0000 0.0000 0.0000 36.4393
#
#
#
# Elastic Compliance Matrix: (Units=1/GPa)
#
#
# Indices 1 2 3 4 5 6 
#
# 1 0.010452 -0.007536 -0.002860 0.000000 0.000000 0.000000
# 2 -0.007536 0.021100 -0.005146 0.000000 0.000000 0.000000
# 3 -0.002860 -0.005146 0.012833 0.000000 0.000000 0.000000
# 4 0.000000 0.000000 0.000000 0.054403 0.000000 0.000000
# 5 0.000000 0.000000 0.000000 0.000000 0.029924 0.000000
# 6 0.000000 0.000000 0.000000 0.000000 0.000000 0.027443
#
#
# Mechanical properties :
#
#
# Convention : Reuss Voigt Hill
#
# Bulk Modulus (GPa) = 75.18895 85.91557 80.55226
# Shear Modulus (GPa) = 26.08615 29.21276 27.64945
#
# Velocity S-wave (km/s) = 3.52449 3.72973 3.62856
# Velocity P-wave (km/s) = 7.23651 7.71105 7.47755
#
# Compressibility (1/GPa) = 0.01329983
#
# Stress axis : x y z
#
# Youngs Moduli (GPa) = 95.67471 47.39437 77.92526
#
# Poissons Ratio (x) = 0.35716 0.22287
# Poissons Ratio (y) = 0.72100 0.40103
# Poissons Ratio (z) = 0.27363 0.24391
#
# Static dielectric constant tensor:
#      x y z
#    x 1.714380 0.000000 0.000000 
#    y 0.000000 1.773550 0.000000 
#    z 0.000000 0.000000 1.821310 
# 
# From -- ./inp_files/1392.got.cif
#   From: 2010.05.17/outbox.cif.g08.bks.cpg/sg27_1_cif.got.tgz:1392.got - 2010.06.04 01:11:05.
