data_PCOD9339457
_publ_section_title
;
Structure prediction by ZEFSAII (Michael W. Deem and Ramdas Pophale) SiO2 
 PCOD9339457
Probable space group: P M A 2
;
_chemical_formula_sum "Si O2"
_cell_formula_units_Z 28
_cell_length_a 8.740575
_cell_length_b 14.824307
_cell_length_c 13.047334
_cell_angle_alpha 90.000000
_cell_angle_beta 90.000000
_cell_angle_gamma 90.000000
_cell_volume 1690.581780
_symmetry_space_group_name_H-M "P M A 2"
_symmetry_group_IT_number 28
_symmetry_cell_setting 'orthorhombic'
loop_
_space_group_symop_operation_xyz
x,y,z
-x,-y,z
1/2-x,y,z
1/2+x,-y,z
loop_
_atom_site_type_symbol
_atom_site_label
_atom_site_fract_x
_atom_site_fract_y
_atom_site_fract_z
Si Si1 0.933751 0.595039 0.529410
Si Si2 0.065813 0.210855 0.606697
Si Si3 0.566231 0.099296 0.791193
Si Si4 0.434134 0.901618 0.026902
Si Si5 0.434338 0.779552 0.214936
Si Si6 0.066041 0.899292 0.414056
Si Si7 0.432946 0.404566 0.290163
O O1 0.750000 0.589706 0.531744
O O2 0.980766 0.685004 0.589184
O O3 0.980481 0.606212 0.409960
O O4 0.000000 0.500000 0.566804
O O5 0.250000 0.205961 0.605113
O O6 0.002090 0.169617 0.711266
O O7 0.001037 0.152129 0.512503
O O8 0.750000 0.096963 0.782931
O O9 0.500000 0.000000 0.767501
O O10 0.523826 0.120121 0.909361
O O11 0.250000 0.907132 0.031291
O O12 0.484292 0.829147 0.110897
O O13 0.500000 0.000000 0.051922
O O14 0.250000 0.771295 0.213773
O O15 0.474869 0.842446 0.312253
O O16 0.505711 0.681554 0.230062
O O17 0.250000 0.903183 0.421770
O O18 0.000000 0.000000 0.408188
O O19 0.500000 0.500000 0.254148
O O20 0.250000 0.407299 0.286529
#
# Coordination Sequence:
#
# PCOD9339457 Si02
#       7
#     4   4   4   4   4   4   4
#     4   9  19  33  51  74 101 132 166 206 251 301
#     4  11  21  35  52  74 104 135 170 211 254 304
#     4  10  20  35  54  76 101 135 175 216 257 301
#     4   9  19  35  54  76 103 134 174 216 256 301
#     4  10  20  34  52  76 104 136 170 210 256 305
#     4  11  22  33  48  72 104 138 169 203 251 306
#     4  10  19  33  52  76 104 136 171 210 255 304
#
# _framework density 16.562345000000001
#
# number of rings (size 3 to 8) (size 9 to 14) (size 15 to 20)
#    0.000    2.000    1.429    2.571    0.000    3.429 
#    0.000    0.000    0.000    0.857    0.000    2.000 
#    0.000    0.000    0.000    0.000    0.000    0.000 
#
# Total GULP energy -156305.139451 kJ/mol
# GULP energy per Si atom -5582.326409 kJ/mol
# Density = 1.652465 g / cm^3
# Si number density = 16.562345 Si / 1000 Ang^3
#
#
#
# Elastic Constant Matrix: (Units=GPa)
#
#
# Indices 1 2 3 4 5 6 
#
# 1 36.4861 48.7712 35.7715 0.0000 0.0000 0.0000
# 2 48.7712 186.7383 95.8126 0.0000 0.0000 0.0000
# 3 35.7715 95.8126 99.7032 0.0000 0.0000 0.0000
# 4 0.0000 0.0000 0.0000 21.8364 0.0000 0.0000
# 5 0.0000 0.0000 0.0000 0.0000 0.7748 0.0000
# 6 0.0000 0.0000 0.0000 0.0000 0.0000 32.8146
#
#
#
# Elastic Compliance Matrix: (Units=1/GPa)
#
#
# Indices 1 2 3 4 5 6 
#
# 1 0.046592 -0.007085 -0.009908 0.000000 0.000000 0.000000
# 2 -0.007085 0.011641 -0.008645 0.000000 0.000000 0.000000
# 3 -0.009908 -0.008645 0.021892 0.000000 0.000000 0.000000
# 4 0.000000 0.000000 0.000000 0.045795 0.000000 0.000000
# 5 0.000000 0.000000 0.000000 0.000000 1.290696 0.000000
# 6 0.000000 0.000000 0.000000 0.000000 0.000000 0.030474
#
#
# Mechanical properties :
#
#
# Convention : Reuss Voigt Hill
#
# Bulk Modulus (GPa) = 34.66221 75.95981 55.31101
# Shear Modulus (GPa) = 3.31569 20.58997 11.95283
#
# Velocity S-wave (km/s) = 1.41644 3.52970 2.68934
# Velocity P-wave (km/s) = 4.86300 7.91039 6.56594
#
# Compressibility (1/GPa) = 0.02884987
#
# Stress axis : x y z
#
# Youngs Moduli (GPa) = 21.46286 85.90275 45.67907
#
# Poissons Ratio (x) = 0.60864 0.45257
# Poissons Ratio (y) = 0.15207 0.39489
# Poissons Ratio (z) = 0.21265 0.74261
#
# Static dielectric constant tensor:
#      x y z
#    x 1.555850 0.000000 0.000000 
#    y 0.000000 1.534850 0.000000 
#    z 0.000000 0.000000 1.549380 
# 
# From -- ./inp_files/4780.got.cif
#   From: 2010.05.17/outbox.cif.g08.bks.cpg/sg28_3_cif.got.tgz:4780.got - 2010.06.04 01:15:21.
