data_PCOD9339106
_publ_section_title
;
Structure prediction by ZEFSAII (Michael W. Deem and Ramdas Pophale) SiO2 
 PCOD9339106
Probable space group: P C C 2
;
_chemical_formula_sum "Si O2"
_cell_formula_units_Z 20
_cell_length_a 10.099135
_cell_length_b 9.010763
_cell_length_c 8.915636
_cell_angle_alpha 90.000000
_cell_angle_beta 90.000000
_cell_angle_gamma 90.000000
_cell_volume 811.331007
_symmetry_space_group_name_H-M "P C C 2"
_symmetry_group_IT_number 27
_symmetry_cell_setting 'orthorhombic'
loop_
_space_group_symop_operation_xyz
x,y,z
-x,-y,z
-x,y,1/2+z
x,-y,1/2+z
loop_
_atom_site_type_symbol
_atom_site_label
_atom_site_fract_x
_atom_site_fract_y
_atom_site_fract_z
Si Si1 0.000000 0.500000 0.970460
Si Si2 0.592452 0.852010 0.776428
Si Si3 0.812112 0.382785 0.712910
Si Si4 0.569308 0.360346 0.552861
Si Si5 0.000000 0.000000 0.930992
Si Si6 0.816232 0.928469 0.195242
O O1 0.116573 0.560055 0.861765
O O2 0.072965 0.387222 0.085001
O O3 0.528317 0.743274 0.653019
O O4 0.500000 0.000000 0.803528
O O5 0.730928 0.926912 0.725386
O O6 0.616782 0.754351 0.924364
O O7 0.682634 0.456585 0.642758
O O8 0.740174 0.222357 0.718702
O O9 0.500000 0.500000 0.471150
O O10 0.884239 0.944317 0.035863
O O11 0.066010 0.891197 0.812916
#
# Coordination Sequence:
#
# PCOD9339106 Si02
#       6
#     2   4   4   4   2   4
#     4  10  26  46  74 112 154 208 252 312 390 470
#     4  12  27  48  77 109 148 199 256 319 381 457
#     4  11  24  47  73 107 150 196 256 310 382 457
#     4  12  29  49  75 110 151 204 256 315 393 461
#     4  10  24  42  68 112 138 184 232 312 386 442
#     4  11  23  45  74 107 146 188 252 315 379 452
#
# _framework density 24.650849999999998
#
# number of rings (size 3 to 8) (size 9 to 14) (size 15 to 20)
#    0.000    0.800    2.000    3.600    8.400    1.600 
#    7.200    0.000    0.000    0.000    0.000    0.000 
#    0.000    0.000    0.000    0.000    0.000    0.000 
#
# Total GULP energy -111440.948297 kJ/mol
# GULP energy per Si atom -5572.047415 kJ/mol
# Density = 2.459474 g / cm^3
# Si number density = 24.650850 Si / 1000 Ang^3
#
#
#
# Elastic Constant Matrix: (Units=GPa)
#
#
# Indices 1 2 3 4 5 6 
#
# 1 80.9229 37.9565 29.6190 0.0000 0.0000 0.0000
# 2 37.9565 98.2529 25.0241 0.0000 0.0000 0.0000
# 3 29.6190 25.0241 124.1918 0.0000 0.0000 0.0000
# 4 0.0000 0.0000 0.0000 23.3568 0.0000 0.0000
# 5 0.0000 0.0000 0.0000 0.0000 23.2306 0.0000
# 6 0.0000 0.0000 0.0000 0.0000 0.0000 40.6253
#
#
#
# Elastic Compliance Matrix: (Units=1/GPa)
#
#
# Indices 1 2 3 4 5 6 
#
# 1 0.015903 -0.005458 -0.002693 0.000000 0.000000 0.000000
# 2 -0.005458 0.012601 -0.001237 0.000000 0.000000 0.000000
# 3 -0.002693 -0.001237 0.008944 0.000000 0.000000 0.000000
# 4 0.000000 0.000000 0.000000 0.042814 0.000000 0.000000
# 5 0.000000 0.000000 0.000000 0.000000 0.043047 0.000000
# 6 0.000000 0.000000 0.000000 0.000000 0.000000 0.024615
#
#
# Mechanical properties :
#
#
# Convention : Reuss Voigt Hill
#
# Bulk Modulus (GPa) = 53.55725 54.28520 53.92122
# Shear Modulus (GPa) = 28.91437 31.49374 30.20405
#
# Velocity S-wave (km/s) = 3.42856 3.57822 3.50419
# Velocity P-wave (km/s) = 6.11938 6.25628 6.18821
#
# Compressibility (1/GPa) = 0.01867161
#
# Stress axis : x y z
#
# Youngs Moduli (GPa) = 62.88100 79.35647 111.81062
#
# Poissons Ratio (x) = 0.43310 0.30112
# Poissons Ratio (y) = 0.34318 0.13836
# Poissons Ratio (z) = 0.16934 0.09820
#
# Static dielectric constant tensor:
#      x y z
#    x 1.530580 0.000000 0.000000 
#    y 0.000000 3.491130 0.000000 
#    z 0.000000 0.000000 1.923860 
# 
# From -- ./inp_files/1067.got.cif
#   From: 2010.05.17/outbox.cif.g08.bks.cpg/sg27_1_cif.got.tgz:1067.got - 2010.06.04 01:11:05.
