data_PCOD9339440
_publ_section_title
;
Structure prediction by ZEFSAII (Michael W. Deem and Ramdas Pophale) SiO2 
 PCOD9339440
Probable space group: P M A 2
;
_chemical_formula_sum "Si O2"
_cell_formula_units_Z 32
_cell_length_a 8.946550
_cell_length_b 14.867487
_cell_length_c 12.326461
_cell_angle_alpha 90.000000
_cell_angle_beta 90.000000
_cell_angle_gamma 90.000000
_cell_volume 1639.576054
_symmetry_space_group_name_H-M "P M A 2"
_symmetry_group_IT_number 28
_symmetry_cell_setting 'orthorhombic'
loop_
_space_group_symop_operation_xyz
x,y,z
-x,-y,z
1/2-x,y,z
1/2+x,-y,z
loop_
_atom_site_type_symbol
_atom_site_label
_atom_site_fract_x
_atom_site_fract_y
_atom_site_fract_z
Si Si1 0.578200 0.868658 0.662920
Si Si2 0.422708 0.583922 0.799667
Si Si3 0.928060 0.599264 0.174257
Si Si4 0.071191 0.909313 0.433335
Si Si5 0.429614 0.907656 0.894993
Si Si6 0.571440 0.293175 0.372914
Si Si7 0.075734 0.719759 0.992043
Si Si8 0.579776 0.661341 0.596233
O O1 0.750000 0.902153 0.664446
O O2 0.492443 0.901835 0.555889
O O3 0.496000 0.892489 0.774293
O O4 0.582677 0.761245 0.647618
O O5 0.500000 0.500000 0.858208
O O6 0.250000 0.564338 0.779617
O O7 0.431851 0.670541 0.875840
O O8 0.508337 0.600246 0.688174
O O9 0.750000 0.590372 0.178226
O O10 0.000000 0.500000 0.166016
O O11 0.989509 0.651213 0.279931
O O12 0.978121 0.662400 0.074504
O O13 0.250000 0.916896 0.436104
O O14 0.033107 0.813993 0.375905
O O15 0.000000 0.000000 0.384673
O O16 0.250000 0.912514 0.888270
O O17 0.468760 0.822539 0.970452
O O18 0.500000 0.000000 0.936685
O O19 0.750000 0.300703 0.361264
O O20 0.518662 0.332245 0.488482
O O21 0.250000 0.717067 0.027877
O O22 0.750000 0.635319 0.570131
#
# Coordination Sequence:
#
# PCOD9339440 Si02
#       8
#     4   4   4   4   4   4   4   4
#     4  10  19  32  53  82 120 164 207 250 295 353
#     4  11  22  37  58  87 121 159 200 244 303 367
#     4  12  26  45  71  96 120 153 201 255 309 369
#     4  10  20  34  56  86 123 165 206 250 299 356
#     4  11  22  37  58  87 123 163 206 251 301 359
#     4  10  22  41  64  90 123 160 203 254 307 360
#     4  10  23  43  65  89 122 160 203 255 306 360
#     4  10  20  35  57  87 123 161 201 248 303 361
#
# _framework density 19.517239
#
# number of rings (size 3 to 8) (size 9 to 14) (size 15 to 20)
#    0.000    1.500    1.250    4.125    0.000    6.000 
#    0.000    3.125    0.000    0.000    0.000    0.000 
#    0.000    0.000    0.000    0.000    0.000    0.000 
#
# Total GULP energy -178813.085343 kJ/mol
# GULP energy per Si atom -5587.908917 kJ/mol
# Density = 1.947282 g / cm^3
# Si number density = 19.517239 Si / 1000 Ang^3
#
#
#
# Elastic Constant Matrix: (Units=GPa)
#
#
# Indices 1 2 3 4 5 6 
#
# 1 123.5633 75.0390 47.6786 0.0000 0.0000 0.0000
# 2 75.0390 147.0778 52.6987 0.0000 0.0000 0.0000
# 3 47.6786 52.6987 69.1587 0.0000 0.0000 0.0000
# 4 0.0000 0.0000 0.0000 13.8548 0.0000 0.0000
# 5 0.0000 0.0000 0.0000 0.0000 31.7452 0.0000
# 6 0.0000 0.0000 0.0000 0.0000 0.0000 56.1114
#
#
#
# Elastic Compliance Matrix: (Units=1/GPa)
#
#
# Indices 1 2 3 4 5 6 
#
# 1 0.013041 -0.004721 -0.005393 0.000000 0.000000 0.000000
# 2 -0.004721 0.011062 -0.005174 0.000000 0.000000 0.000000
# 3 -0.005393 -0.005174 0.022120 0.000000 0.000000 0.000000
# 4 0.000000 0.000000 0.000000 0.072177 0.000000 0.000000
# 5 0.000000 0.000000 0.000000 0.000000 0.031501 0.000000
# 6 0.000000 0.000000 0.000000 0.000000 0.000000 0.017822
#
#
# Mechanical properties :
#
#
# Convention : Reuss Voigt Hill
#
# Bulk Modulus (GPa) = 63.91353 76.73695 70.32524
# Shear Modulus (GPa) = 24.56817 31.30120 27.93468
#
# Velocity S-wave (km/s) = 3.55180 4.00906 3.78733
# Velocity P-wave (km/s) = 7.04547 7.79955 7.43208
#
# Compressibility (1/GPa) = 0.01564614
#
# Stress axis : x y z
#
# Youngs Moduli (GPa) = 76.68008 90.40095 45.20727
#
# Poissons Ratio (x) = 0.42680 0.24381
# Poissons Ratio (y) = 0.36202 0.23391
# Poissons Ratio (z) = 0.41355 0.46776
#
# Static dielectric constant tensor:
#      x y z
#    x 1.662260 0.000000 0.000000 
#    y 0.000000 1.733710 0.000000 
#    z 0.000000 0.000000 1.652450 
# 
# From -- ./inp_files/4976.got.cif
#   From: 2010.05.17/outbox.cif.g08.bks.cpg/sg28_3_cif.got.tgz:4976.got - 2010.06.04 01:15:21.
