data_PCOD9339378
_publ_section_title
;
Structure prediction by ZEFSAII (Michael W. Deem and Ramdas Pophale) SiO2 
 PCOD9339378
Probable space group: P M A 2
;
_chemical_formula_sum "Si O2"
_cell_formula_units_Z 32
_cell_length_a 8.679699
_cell_length_b 9.282249
_cell_length_c 22.069151
_cell_angle_alpha 90.000000
_cell_angle_beta 90.000000
_cell_angle_gamma 90.000000
_cell_volume 1778.048099
_symmetry_space_group_name_H-M "P M A 2"
_symmetry_group_IT_number 28
_symmetry_cell_setting 'orthorhombic'
loop_
_space_group_symop_operation_xyz
x,y,z
-x,-y,z
1/2-x,y,z
1/2+x,-y,z
loop_
_atom_site_type_symbol
_atom_site_label
_atom_site_fract_x
_atom_site_fract_y
_atom_site_fract_z
Si Si1 0.935111 0.662117 0.407160
Si Si2 0.434806 0.163321 0.170405
Si Si3 0.065548 0.663374 0.663584
Si Si4 0.433632 0.838109 0.294921
Si Si5 0.935019 0.161698 0.913677
Si Si6 0.064270 0.661240 0.796207
Si Si7 0.566025 0.662936 0.540870
Si Si8 0.434658 0.163344 0.038012
O O1 0.750000 0.658654 0.401837
O O2 0.973335 0.723843 0.474403
O O3 0.000000 0.500000 0.404385
O O4 0.006788 0.751742 0.352728
O O5 0.250000 0.157928 0.175965
O O6 0.505643 0.228441 0.231402
O O7 0.473303 0.228160 0.104199
O O8 0.500000 0.000000 0.168849
O O9 0.250000 0.657829 0.659135
O O10 0.021613 0.724167 0.729778
O O11 0.000000 0.500000 0.664832
O O12 0.000424 0.732672 0.602072
O O13 0.250000 0.843563 0.293672
O O14 0.500000 0.000000 0.298634
O O15 0.750000 0.156590 0.915621
O O16 0.986297 0.247492 0.854078
O O17 0.000000 0.000000 0.909847
O O18 0.995568 0.228868 0.976851
O O19 0.250000 0.653959 0.797441
O O20 0.000000 0.500000 0.800476
O O21 0.500000 0.500000 0.539560
O O22 0.750000 0.655918 0.546019
O O23 0.250000 0.157382 0.032839
O O24 0.500000 0.000000 0.039303
#
# Coordination Sequence:
#
# PCOD9339378 Si02
#       8
#     4   4   4   4   4   4   4   4
#     4  10  20  34  51  73 101 130 162 199 240 288
#     4   9  16  27  44  67  94 121 154 196 237 279
#     4   9  15  25  42  64  90 117 150 192 234 275
#     4  11  21  33  51  74 100 130 163 199 241 287
#     4  10  19  31  47  69  96 124 156 193 233 280
#     4   9  19  32  47  69  95 124 157 193 234 279
#     4   9  16  26  43  67  93 120 153 193 234 276
#     4   9  16  26  43  67  92 120 154 193 235 276
#
# _framework density 17.997264000000001
#
# number of rings (size 3 to 8) (size 9 to 14) (size 15 to 20)
#    0.000    2.500    0.000    5.625    0.000    4.500 
#    0.000    0.000    0.000    1.500    0.000    5.250 
#    0.000    0.000    0.000    0.000    0.000    0.000 
#
# Total GULP energy -178199.947821 kJ/mol
# GULP energy per Si atom -5568.748369 kJ/mol
# Density = 1.795630 g / cm^3
# Si number density = 17.997264 Si / 1000 Ang^3
#
#
#
# Elastic Constant Matrix: (Units=GPa)
#
#
# Indices 1 2 3 4 5 6 
#
# 1 81.8752 12.2220 69.6175 0.0000 0.0000 0.0000
# 2 12.2220 18.5613 42.4807 0.0000 0.0000 0.0000
# 3 69.6175 42.4807 243.5271 0.0000 0.0000 0.0000
# 4 0.0000 0.0000 0.0000 -3.7370 0.0000 0.0000
# 5 0.0000 0.0000 0.0000 0.0000 35.0935 0.0000
# 6 0.0000 0.0000 0.0000 0.0000 0.0000 12.8094
#
#
#
# Elastic Compliance Matrix: (Units=1/GPa)
#
#
# Indices 1 2 3 4 5 6 
#
# 1 0.016136 -0.000113 -0.004593 0.000000 0.000000 0.000000
# 2 -0.000113 0.089679 -0.015611 0.000000 0.000000 0.000000
# 3 -0.004593 -0.015611 0.008143 0.000000 0.000000 0.000000
# 4 0.000000 0.000000 0.000000 -0.267594 0.000000 0.000000
# 5 0.000000 0.000000 0.000000 0.000000 0.028495 0.000000
# 6 0.000000 0.000000 0.000000 0.000000 0.000000 0.078068
#
#
# Mechanical properties :
#
#
# Convention : Reuss Voigt Hill
#
# Bulk Modulus (GPa) = 13.63829 65.84490 39.74160
# Shear Modulus (GPa) = 277.74847 23.47608 150.61227
#
# Velocity S-wave (km/s) = 12.43637 3.61560 9.15794
# Velocity P-wave (km/s) = 14.62231 7.35497 11.57384
#
# Compressibility (1/GPa) = 0.07332295
#
# Stress axis : x y z
#
# Youngs Moduli (GPa) = 61.97301 11.15090 122.81124
#
# Poissons Ratio (x) = 0.00126 0.56409
# Poissons Ratio (y) = 0.00700 1.91723
# Poissons Ratio (z) = 0.28465 0.17408
#
# Static dielectric constant tensor:
#      x y z
#    x 1.600930 0.000000 0.000000 
#    y 0.000000 1.585860 0.000000 
#    z 0.000000 0.000000 1.715330 
# 
# From -- ./inp_files/7213.got.cif
#   From: 2010.05.17/outbox.cif.g08.bks.cpg/sg28_4_cif.got.tgz:7213.got - 2010.06.04 01:15:21.
