data_PCOD9339736
_publ_section_title
;
Structure prediction by ZEFSAII (Michael W. Deem and Ramdas Pophale) SiO2 
 PCOD9339736
Probable space group: P M A 2
;
_chemical_formula_sum "Si O2"
_cell_formula_units_Z 20
_cell_length_a 10.232974
_cell_length_b 8.659846
_cell_length_c 11.974866
_cell_angle_alpha 90.000000
_cell_angle_beta 90.000000
_cell_angle_gamma 90.000000
_cell_volume 1061.164474
_symmetry_space_group_name_H-M "P M A 2"
_symmetry_group_IT_number 28
_symmetry_cell_setting 'orthorhombic'
loop_
_space_group_symop_operation_xyz
x,y,z
-x,-y,z
1/2-x,y,z
1/2+x,-y,z
loop_
_atom_site_type_symbol
_atom_site_label
_atom_site_fract_x
_atom_site_fract_y
_atom_site_fract_z
Si Si1 0.250000 0.820978 0.010520
Si Si2 0.750000 0.802867 0.749998
Si Si3 0.005735 0.685730 0.139575
Si Si4 0.005534 0.813788 0.612952
Si Si5 0.250000 0.192575 0.013732
Si Si6 0.088909 0.654463 0.385125
Si Si7 0.250000 0.821262 0.757068
O O1 0.123654 0.753386 0.068894
O O2 0.250000 0.006578 0.013747
O O3 0.250000 0.770013 0.883077
O O4 0.625044 0.757455 0.675399
O O5 0.750000 0.990922 0.755278
O O6 0.750000 0.755801 0.881779
O O7 0.040082 0.727173 0.267980
O O8 0.000000 0.500000 0.135154
O O9 0.874747 0.749419 0.083246
O O10 0.043127 0.753509 0.491057
O O11 0.123188 0.766858 0.693103
O O12 0.000000 0.000000 0.608048
O O13 0.250000 0.633262 0.383334
O O14 0.000000 0.500000 0.394230
#
# Coordination Sequence:
#
# PCOD9339736 Si02
#       7
#     2   2   4   4   2   4   2
#     4  11  21  40  67  94 124 165 212 263 306 371
#     4   9  20  36  59  96 126 159 200 247 316 375
#     4  11  24  42  63  89 129 170 205 256 321 377
#     4  10  20  38  65  91 123 160 205 255 307 365
#     4  11  23  40  67  96 126 161 216 257 306 373
#     4  11  25  44  64  88 123 167 208 253 312 370
#     4   9  18  36  61  88 126 165 196 255 318 359
#
# _framework density 18.847218999999999
#
# number of rings (size 3 to 8) (size 9 to 14) (size 15 to 20)
#    0.000    1.600    2.000    2.400    5.600    4.800 
#    0.000    6.000    0.000    0.000    0.000    0.000 
#    0.000    0.000    0.000    0.000    0.000    0.000 
#
# Total GULP energy -111533.852287 kJ/mol
# GULP energy per Si atom -5576.692614 kJ/mol
# Density = 1.880432 g / cm^3
# Si number density = 18.847219 Si / 1000 Ang^3
#
#
#
# Elastic Constant Matrix: (Units=GPa)
#
#
# Indices 1 2 3 4 5 6 
#
# 1 225.5321 36.8294 123.2036 0.0000 0.0000 0.0000
# 2 36.8294 34.2398 50.6020 0.0000 0.0000 0.0000
# 3 123.2036 50.6020 234.4323 0.0000 0.0000 0.0000
# 4 0.0000 0.0000 0.0000 54.2343 0.0000 0.0000
# 5 0.0000 0.0000 0.0000 0.0000 41.7226 0.0000
# 6 0.0000 0.0000 0.0000 0.0000 0.0000 8.2558
#
#
#
# Elastic Compliance Matrix: (Units=1/GPa)
#
#
# Indices 1 2 3 4 5 6 
#
# 1 0.006398 -0.002809 -0.002756 0.000000 0.000000 0.000000
# 2 -0.002809 0.044119 -0.008047 0.000000 0.000000 0.000000
# 3 -0.002756 -0.008047 0.007451 0.000000 0.000000 0.000000
# 4 0.000000 0.000000 0.000000 0.018439 0.000000 0.000000
# 5 0.000000 0.000000 0.000000 0.000000 0.023968 0.000000
# 6 0.000000 0.000000 0.000000 0.000000 0.000000 0.121126
#
#
# Mechanical properties :
#
#
# Convention : Reuss Voigt Hill
#
# Bulk Modulus (GPa) = 32.52599 101.71935 67.12267
# Shear Modulus (GPa) = 19.30695 39.74715 29.52705
#
# Velocity S-wave (km/s) = 3.20409 4.59727 3.96239
# Velocity P-wave (km/s) = 5.56627 9.07015 7.52499
#
# Compressibility (1/GPa) = 0.03074464
#
# Stress axis : x y z
#
# Youngs Moduli (GPa) = 156.29016 22.66578 134.20808
#
# Poissons Ratio (x) = 0.06366 0.36992
# Poissons Ratio (y) = 0.43899 1.07997
# Poissons Ratio (z) = 0.43079 0.18239
#
# Static dielectric constant tensor:
#      x y z
#    x 1.782570 0.000000 0.000000 
#    y 0.000000 1.647970 0.000000 
#    z 0.000000 0.000000 1.649940 
# 
# From -- ./inp_files/4624.got.cif
#   From: 2010.05.17/outbox.cif.g08.bks.cpg/sg28_3_cif.got.tgz:4624.got - 2010.06.04 01:15:21.
