data_PCOD9339488
_publ_section_title
;
Structure prediction by ZEFSAII (Michael W. Deem and Ramdas Pophale) SiO2 
 PCOD9339488
Probable space group: P M A 2
;
_chemical_formula_sum "Si O2"
_cell_formula_units_Z 28
_cell_length_a 22.315819
_cell_length_b 12.909130
_cell_length_c 4.872678
_cell_angle_alpha 90.000000
_cell_angle_beta 90.000000
_cell_angle_gamma 90.000000
_cell_volume 1403.710400
_symmetry_space_group_name_H-M "P M A 2"
_symmetry_group_IT_number 28
_symmetry_cell_setting 'orthorhombic'
loop_
_space_group_symop_operation_xyz
x,y,z
-x,-y,z
1/2-x,y,z
1/2+x,-y,z
loop_
_atom_site_type_symbol
_atom_site_label
_atom_site_fract_x
_atom_site_fract_y
_atom_site_fract_z
Si Si1 0.677750 0.338717 0.910990
Si Si2 0.069272 0.991757 0.420621
Si Si3 0.377118 0.112170 0.917142
Si Si4 0.750000 0.079270 0.512921
Si Si5 0.750000 0.946086 0.011496
Si Si6 0.817309 0.543559 0.226764
Si Si7 0.640271 0.212894 0.430078
Si Si8 0.320030 0.310993 0.710728
O O1 0.750000 0.346163 0.851170
O O2 0.638767 0.309687 0.641643
O O3 0.657858 0.444281 0.065551
O O4 0.664721 0.252614 0.140719
O O5 0.109669 0.033400 0.670087
O O6 0.087937 0.871104 0.378368
O O7 0.080516 0.067616 0.159092
O O8 0.000000 0.000000 0.497854
O O9 0.311984 0.109108 0.062773
O O10 0.369486 0.221818 0.760182
O O11 0.692408 0.146122 0.571701
O O12 0.750000 0.977151 0.693926
O O13 0.750000 0.047710 0.196371
O O14 0.750000 0.510079 0.313188
O O15 0.841833 0.602961 0.491841
O O16 0.814059 0.631762 0.998714
O O17 0.250000 0.277961 0.635878
#
# Coordination Sequence:
#
# PCOD9339488 Si02
#       8
#     4   4   4   2   2   4   4   4
#     4  11  20  32  53  84 117 153 185 225 290 354
#     4  12  27  42  56  81 118 159 203 247 292 349
#     4  12  22  38  61  84 115 154 196 241 293 356
#     4  12  20  32  52  81 122 145 190 242 292 348
#     4  12  20  34  54  87 112 147 188 242 298 346
#     4   9  19  32  48  79 124 152 176 220 281 360
#     4  12  21  33  55  78 111 155 192 233 284 346
#     4  10  19  33  54  84 117 152 185 226 288 351
#
# _framework density 19.947136
#
# number of rings (size 3 to 8) (size 9 to 14) (size 15 to 20)
#    0.000    0.857    5.000    3.857    0.000    2.286 
#    0.000    0.000    0.000    0.000    0.000   15.000 
#    0.000    0.000    0.000    0.000    0.000    0.000 
#
# Total GULP energy -155899.886502 kJ/mol
# GULP energy per Si atom -5567.853089 kJ/mol
# Density = 1.990174 g / cm^3
# Si number density = 19.947136 Si / 1000 Ang^3
#
#
#
# Elastic Constant Matrix: (Units=GPa)
#
#
# Indices 1 2 3 4 5 6 
#
# 1 39.2705 22.3732 4.4682 0.0000 0.0000 0.0000
# 2 22.3732 75.2935 19.5110 0.0000 0.0000 0.0000
# 3 4.4682 19.5110 99.6979 0.0000 0.0000 0.0000
# 4 0.0000 0.0000 0.0000 34.1187 0.0000 0.0000
# 5 0.0000 0.0000 0.0000 0.0000 11.0548 0.0000
# 6 0.0000 0.0000 0.0000 0.0000 0.0000 7.8617
#
#
#
# Elastic Compliance Matrix: (Units=1/GPa)
#
#
# Indices 1 2 3 4 5 6 
#
# 1 0.030671 -0.009226 0.000431 0.000000 0.000000 0.000000
# 2 -0.009226 0.016766 -0.002868 0.000000 0.000000 0.000000
# 3 0.000431 -0.002868 0.010572 0.000000 0.000000 0.000000
# 4 0.000000 0.000000 0.000000 0.029309 0.000000 0.000000
# 5 0.000000 0.000000 0.000000 0.000000 0.090458 0.000000
# 6 0.000000 0.000000 0.000000 0.000000 0.000000 0.127199
#
#
# Mechanical properties :
#
#
# Convention : Reuss Voigt Hill
#
# Bulk Modulus (GPa) = 28.83116 34.10742 31.46929
# Shear Modulus (GPa) = 14.71187 21.80102 18.25645
#
# Velocity S-wave (km/s) = 2.71872 3.30955 3.02858
# Velocity P-wave (km/s) = 4.93360 5.63384 5.29531
#
# Compressibility (1/GPa) = 0.03468469
#
# Stress axis : x y z
#
# Youngs Moduli (GPa) = 32.60372 59.64524 94.58778
#
# Poissons Ratio (x) = 0.55026 -0.04075
# Poissons Ratio (y) = 0.30079 0.27124
# Poissons Ratio (z) = -0.01405 0.17104
#
# Static dielectric constant tensor:
#      x y z
#    x 1.675130 0.000000 0.000000 
#    y 0.000000 1.820080 0.000000 
#    z 0.000000 0.000000 1.740450 
# 
# From -- ./inp_files/1401.got.cif
#   From: 2010.05.17/outbox.cif.g08.bks.cpg/sg28_1_cif.got.tgz:1401.got - 2010.06.04 01:15:21.
