data_PCOD9339605
_publ_section_title
;
Structure prediction by ZEFSAII (Michael W. Deem and Ramdas Pophale) SiO2 
 PCOD9339605
Probable space group: P M A 2
;
_chemical_formula_sum "Si O2"
_cell_formula_units_Z 32
_cell_length_a 8.660715
_cell_length_b 14.516948
_cell_length_c 15.930562
_cell_angle_alpha 90.000000
_cell_angle_beta 90.000000
_cell_angle_gamma 90.000000
_cell_volume 2002.904147
_symmetry_space_group_name_H-M "P M A 2"
_symmetry_group_IT_number 28
_symmetry_cell_setting 'orthorhombic'
loop_
_space_group_symop_operation_xyz
x,y,z
-x,-y,z
1/2-x,y,z
1/2+x,-y,z
loop_
_atom_site_type_symbol
_atom_site_label
_atom_site_fract_x
_atom_site_fract_y
_atom_site_fract_z
Si Si1 0.564880 0.397000 0.767310
Si Si2 0.065027 0.716888 0.936628
Si Si3 0.565289 0.099117 0.677834
Si Si4 0.064725 0.604174 0.453937
Si Si5 0.434251 0.395718 0.093017
Si Si6 0.065333 0.099110 0.866031
Si Si7 0.434668 0.603755 0.266763
Si Si8 0.065811 0.283662 0.609715
O O1 0.500000 0.500000 0.771585
O O2 0.750000 0.398956 0.757064
O O3 0.529071 0.342823 0.853194
O O4 0.491591 0.343894 0.688832
O O5 0.250000 0.724279 0.942916
O O6 0.991880 0.817153 0.923038
O O7 0.998394 0.664747 0.017042
O O8 0.750000 0.097054 0.681070
O O9 0.501406 0.115267 0.772214
O O10 0.506730 0.182711 0.621232
O O11 0.500000 0.000000 0.650759
O O12 0.250000 0.600483 0.463314
O O13 0.030148 0.641212 0.359736
O O14 0.000000 0.500000 0.461102
O O15 0.991871 0.666598 0.525725
O O16 0.500000 0.500000 0.085411
O O17 0.250000 0.400260 0.090800
O O18 0.489906 0.355840 0.182951
O O19 0.250000 0.096116 0.861720
O O20 0.000000 0.000000 0.893564
O O21 0.500000 0.500000 0.269635
O O22 0.250000 0.601506 0.256381
O O23 0.250000 0.277911 0.610976
#
# Coordination Sequence:
#
# PCOD9339605 Si02
#       8
#     4   4   4   4   4   4   4   4
#     4  11  23  36  50  68  99 138 176 212 250 298
#     4  11  22  36  53  74 102 136 175 215 256 303
#     4  11  21  36  55  76 101 131 170 214 260 304
#     4  10  20  34  52  75 104 137 174 215 257 306
#     4  11  21  33  51  75 105 138 174 215 257 306
#     4  11  21  35  55  77 102 132 170 213 260 305
#     4   9  17  31  51  73  99 132 170 213 259 303
#     4  12  23  35  52  74 102 136 174 213 255 305
#
# _framework density 15.976801
#
# number of rings (size 3 to 8) (size 9 to 14) (size 15 to 20)
#    0.000    1.250    1.250    8.250    0.000    4.000 
#    0.000    0.000    0.000    0.000    0.000    0.875 
#    0.000    6.000    0.000    0.000    0.000    0.000 
#
# Total GULP energy -178763.160140 kJ/mol
# GULP energy per Si atom -5586.348754 kJ/mol
# Density = 1.594044 g / cm^3
# Si number density = 15.976801 Si / 1000 Ang^3
#
#
#
# Elastic Constant Matrix: (Units=GPa)
#
#
# Indices 1 2 3 4 5 6 
#
# 1 136.3024 58.0506 73.8784 0.0000 0.0000 0.0000
# 2 58.0506 117.4830 70.3659 0.0000 0.0000 0.0000
# 3 73.8784 70.3659 138.2083 0.0000 0.0000 0.0000
# 4 0.0000 0.0000 0.0000 4.1460 0.0000 0.0000
# 5 0.0000 0.0000 0.0000 0.0000 22.2675 0.0000
# 6 0.0000 0.0000 0.0000 0.0000 0.0000 25.0334
#
#
#
# Elastic Compliance Matrix: (Units=1/GPa)
#
#
# Indices 1 2 3 4 5 6 
#
# 1 0.010906 -0.002729 -0.004440 0.000000 0.000000 0.000000
# 2 -0.002729 0.012929 -0.005124 0.000000 0.000000 0.000000
# 3 -0.004440 -0.005124 0.012217 0.000000 0.000000 0.000000
# 4 0.000000 0.000000 0.000000 0.241198 0.000000 0.000000
# 5 0.000000 0.000000 0.000000 0.000000 0.044908 0.000000
# 6 0.000000 0.000000 0.000000 0.000000 0.000000 0.039947
#
#
# Mechanical properties :
#
#
# Convention : Reuss Voigt Hill
#
# Bulk Modulus (GPa) = 87.21207 88.50926 87.86067
# Shear Modulus (GPa) = 12.80367 22.93597 17.86982
#
# Velocity S-wave (km/s) = 2.83396 3.79301 3.34800
# Velocity P-wave (km/s) = 8.08787 8.64300 8.37004
#
# Compressibility (1/GPa) = 0.01146630
#
# Stress axis : x y z
#
# Youngs Moduli (GPa) = 91.69632 77.34346 81.85049
#
# Poissons Ratio (x) = 0.21110 0.36341
# Poissons Ratio (y) = 0.25028 0.41938
# Poissons Ratio (z) = 0.40712 0.39629
#
# Static dielectric constant tensor:
#      x y z
#    x 1.529840 0.000000 0.000000 
#    y 0.000000 1.514080 0.000000 
#    z 0.000000 0.000000 1.540530 
# 
# From -- ./inp_files/6428.got.cif
#   From: 2010.05.17/outbox.cif.g08.bks.cpg/sg28_4_cif.got.tgz:6428.got - 2010.06.04 01:15:21.
