data_PCOD9339116
_publ_section_title
;
Structure prediction by ZEFSAII (Michael W. Deem and Ramdas Pophale) SiO2 
 PCOD9339116
Probable space group: P C C 2
;
_chemical_formula_sum "Si O2"
_cell_formula_units_Z 22
_cell_length_a 5.247890
_cell_length_b 12.000666
_cell_length_c 15.926061
_cell_angle_alpha 90.000000
_cell_angle_beta 90.000000
_cell_angle_gamma 90.000000
_cell_volume 1002.994258
_symmetry_space_group_name_H-M "P C C 2"
_symmetry_group_IT_number 27
_symmetry_cell_setting 'orthorhombic'
loop_
_space_group_symop_operation_xyz
x,y,z
-x,-y,z
-x,y,1/2+z
x,-y,1/2+z
loop_
_atom_site_type_symbol
_atom_site_label
_atom_site_fract_x
_atom_site_fract_y
_atom_site_fract_z
Si Si1 0.365897 0.115326 0.047710
Si Si2 0.260326 0.075005 0.849517
Si Si3 0.882497 0.762897 0.589905
Si Si4 0.832480 0.310649 0.271916
Si Si5 0.878123 0.377472 0.928986
Si Si6 0.500000 0.500000 0.848957
O O1 0.590195 0.201442 0.072404
O O2 0.095993 0.140413 0.091307
O O3 0.500000 0.000000 0.071374
O O4 0.304919 0.108333 0.947692
O O5 0.274416 0.187891 0.794781
O O6 0.500000 0.000000 0.824783
O O7 0.000000 0.000000 0.843067
O O8 0.905864 0.695178 0.675410
O O9 0.954735 0.690816 0.508737
O O10 0.675305 0.424204 0.289115
O O11 0.052476 0.320146 0.341387
O O12 0.584890 0.404441 0.915001
O O13 0.000000 0.500000 0.930956
#
# Coordination Sequence:
#
# PCOD9339116 Si02
#       6
#     4   4   4   4   4   2
#     4  11  24  45  70 102 142 185 235 285 353 417
#     4  11  24  43  74 102 141 194 236 292 356 426
#     4  12  26  43  74 104 141 184 233 296 346 431
#     4  11  26  44  72 105 144 184 245 290 365 420
#     4  10  24  45  69  99 139 183 236 290 357 419
#     4  10  24  46  74  98 144 192 234 306 348 440
#
# _framework density 21.934325000000001
#
# number of rings (size 3 to 8) (size 9 to 14) (size 15 to 20)
#    0.000    1.091    1.818    3.818    7.636    5.091 
#    0.000    0.000    0.000    0.000    0.000    0.000 
#    0.000    0.000    0.000    0.000    0.000    0.000 
#
# Total GULP energy -122644.271255 kJ/mol
# GULP energy per Si atom -5574.739603 kJ/mol
# Density = 2.188440 g / cm^3
# Si number density = 21.934325 Si / 1000 Ang^3
#
#
#
# Elastic Constant Matrix: (Units=GPa)
#
#
# Indices 1 2 3 4 5 6 
#
# 1 92.8770 27.9713 31.2336 0.0000 0.0000 0.0000
# 2 27.9713 85.0530 38.7911 0.0000 0.0000 0.0000
# 3 31.2336 38.7911 105.7162 0.0000 0.0000 0.0000
# 4 0.0000 0.0000 0.0000 80.9231 0.0000 0.0000
# 5 0.0000 0.0000 0.0000 0.0000 11.5354 0.0000
# 6 0.0000 0.0000 0.0000 0.0000 0.0000 -7.2755
#
#
#
# Elastic Compliance Matrix: (Units=1/GPa)
#
#
# Indices 1 2 3 4 5 6 
#
# 1 0.012531 -0.002922 -0.002630 0.000000 0.000000 0.000000
# 2 -0.002922 0.014802 -0.004568 0.000000 0.000000 0.000000
# 3 -0.002630 -0.004568 0.011913 0.000000 0.000000 0.000000
# 4 0.000000 0.000000 0.000000 0.012357 0.000000 0.000000
# 5 0.000000 0.000000 0.000000 0.000000 0.086690 0.000000
# 6 0.000000 0.000000 0.000000 0.000000 0.000000 -0.137448
#
#
# Mechanical properties :
#
#
# Convention : Reuss Voigt Hill
#
# Bulk Modulus (GPa) = 52.61595 53.29315 52.95455
# Shear Modulus (GPa) = 182.35361 29.41330 105.88345
#
# Velocity S-wave (km/s) = 9.12780 3.66590 6.95541
# Velocity P-wave (km/s) = 11.62450 6.50137 9.41798
#
# Compressibility (1/GPa) = 0.01900564
#
# Stress axis : x y z
#
# Youngs Moduli (GPa) = 79.79990 67.56033 83.94466
#
# Poissons Ratio (x) = 0.19738 0.22080
# Poissons Ratio (y) = 0.23314 0.38347
# Poissons Ratio (z) = 0.20990 0.30862
#
# Static dielectric constant tensor:
#      x y z
#    x 2.050360 0.000000 0.000000 
#    y 0.000000 1.872070 0.000000 
#    z 0.000000 0.000000 1.777470 
# 
# From -- ./inp_files/3000.got.cif
#   From: 2010.05.17/outbox.cif.g08.bks.cpg/sg27_2_cif.got.tgz:3000.got - 2010.06.04 01:11:05.
