data_PCOD9339259
_publ_section_title
;
Structure prediction by ZEFSAII (Michael W. Deem and Ramdas Pophale) SiO2 
 PCOD9339259
Probable space group: P M A 2
;
_chemical_formula_sum "Si O2"
_cell_formula_units_Z 32
_cell_length_a 9.039084
_cell_length_b 18.094575
_cell_length_c 11.734706
_cell_angle_alpha 90.000000
_cell_angle_beta 90.000000
_cell_angle_gamma 90.000000
_cell_volume 1919.309543
_symmetry_space_group_name_H-M "P M A 2"
_symmetry_group_IT_number 28
_symmetry_cell_setting 'orthorhombic'
loop_
_space_group_symop_operation_xyz
x,y,z
-x,-y,z
1/2-x,y,z
1/2+x,-y,z
loop_
_atom_site_type_symbol
_atom_site_label
_atom_site_fract_x
_atom_site_fract_y
_atom_site_fract_z
Si Si1 0.575238 0.925192 0.315450
Si Si2 0.418620 0.203988 0.857459
Si Si3 0.427698 0.236182 0.409867
Si Si4 0.074995 0.730359 0.649315
Si Si5 0.426853 0.152496 0.090487
Si Si6 0.925695 0.426514 0.768133
Si Si7 0.579236 0.636193 0.985059
Si Si8 0.573993 0.297448 0.192937
O O1 0.750000 0.932141 0.332072
O O2 0.529565 0.848269 0.375505
O O3 0.548123 0.912744 0.179976
O O4 0.500000 0.000000 0.355761
O O5 0.250000 0.192198 0.817999
O O6 0.524763 0.214774 0.750762
O O7 0.420975 0.282023 0.926501
O O8 0.455861 0.144736 0.956056
O O9 0.250000 0.241483 0.401290
O O10 0.485025 0.253642 0.535318
O O11 0.501919 0.291033 0.317725
O O12 0.250000 0.736675 0.629065
O O13 0.043572 0.647373 0.695205
O O14 0.250000 0.172576 0.101082
O O15 0.527539 0.219083 0.136410
O O16 0.750000 0.435343 0.775831
O O17 0.000000 0.500000 0.719096
O O18 0.993509 0.412974 0.893517
O O19 0.750000 0.613768 0.997495
O O20 0.499155 0.643762 0.106595
O O21 0.750000 0.305660 0.197968
#
# Coordination Sequence:
#
# PCOD9339259 Si02
#       8
#     4   4   4   4   4   4   4   4
#     4   9  18  31  48  71  97 125 159 202 250 302
#     4   8  14  26  45  66  90 121 153 187 230 281
#     4  10  20  34  50  69  96 132 172 207 247 300
#     4  10  20  32  48  73 100 126 166 214 250 287
#     4   8  15  28  44  65  93 123 154 186 229 287
#     4  10  20  33  50  74 102 130 163 204 250 300
#     4   9  16  28  46  68  95 125 155 188 233 286
#     4  10  17  26  44  70  96 120 151 194 240 281
#
# _framework density 16.672663
#
# number of rings (size 3 to 8) (size 9 to 14) (size 15 to 20)
#    0.000    2.750    0.000    4.125    0.000    7.000 
#    0.000    0.000    0.000    1.500    0.000    5.250 
#    0.000    0.000    0.000    0.000    0.000    0.000 
#
# Total GULP energy -178171.825436 kJ/mol
# GULP energy per Si atom -5567.869545 kJ/mol
# Density = 1.663472 g / cm^3
# Si number density = 16.672663 Si / 1000 Ang^3
#
#
#
# Elastic Constant Matrix: (Units=GPa)
#
#
# Indices 1 2 3 4 5 6 
#
# 1 80.6686 32.2504 58.0254 0.0000 0.0000 0.0000
# 2 32.2504 48.3649 28.2523 0.0000 0.0000 0.0000
# 3 58.0254 28.2523 110.5550 0.0000 0.0000 0.0000
# 4 0.0000 0.0000 0.0000 10.2770 0.0000 0.0000
# 5 0.0000 0.0000 0.0000 0.0000 27.3227 0.0000
# 6 0.0000 0.0000 0.0000 0.0000 0.0000 20.2638
#
#
#
# Elastic Compliance Matrix: (Units=1/GPa)
#
#
# Indices 1 2 3 4 5 6 
#
# 1 0.023344 -0.009885 -0.009726 0.000000 0.000000 0.000000
# 2 -0.009885 0.028490 -0.002092 0.000000 0.000000 0.000000
# 3 -0.009726 -0.002092 0.014685 0.000000 0.000000 0.000000
# 4 0.000000 0.000000 0.000000 0.097304 0.000000 0.000000
# 5 0.000000 0.000000 0.000000 0.000000 0.036600 0.000000
# 6 0.000000 0.000000 0.000000 0.000000 0.000000 0.049349
#
#
# Mechanical properties :
#
#
# Convention : Reuss Voigt Hill
#
# Bulk Modulus (GPa) = 43.26776 52.96051 48.11414
# Shear Modulus (GPa) = 16.61773 19.64340 18.13056
#
# Velocity S-wave (km/s) = 3.16049 3.43619 3.30122
# Velocity P-wave (km/s) = 6.27104 6.89761 6.59177
#
# Compressibility (1/GPa) = 0.02311189
#
# Stress axis : x y z
#
# Youngs Moduli (GPa) = 42.83669 35.10033 68.09676
#
# Poissons Ratio (x) = 0.34696 0.66234
# Poissons Ratio (y) = 0.42343 0.14249
# Poissons Ratio (z) = 0.41665 0.07345
#
# Static dielectric constant tensor:
#      x y z
#    x 1.555800 0.000000 0.000000 
#    y 0.000000 1.585210 0.000000 
#    z 0.000000 0.000000 1.577900 
# 
# From -- ./inp_files/5164.got.cif
#   From: 2010.05.17/outbox.cif.g08.bks.cpg/sg28_3_cif.got.tgz:5164.got - 2010.06.04 01:15:21.
