data_PCOD9339092
_publ_section_title
;
Structure prediction by ZEFSAII (Michael W. Deem and Ramdas Pophale) SiO2 
 PCOD9339092
Probable space group: P C C 2
;
_chemical_formula_sum "Si O2"
_cell_formula_units_Z 20
_cell_length_a 18.505649
_cell_length_b 4.623190
_cell_length_c 8.449744
_cell_angle_alpha 90.000000
_cell_angle_beta 90.000000
_cell_angle_gamma 90.000000
_cell_volume 722.918958
_symmetry_space_group_name_H-M "P C C 2"
_symmetry_group_IT_number 27
_symmetry_cell_setting 'orthorhombic'
loop_
_space_group_symop_operation_xyz
x,y,z
-x,-y,z
-x,y,1/2+z
x,-y,1/2+z
loop_
_atom_site_type_symbol
_atom_site_label
_atom_site_fract_x
_atom_site_fract_y
_atom_site_fract_z
Si Si1 0.000000 0.000000 0.623651
Si Si2 0.784517 0.859852 0.615376
Si Si3 0.110441 0.817126 0.856297
Si Si4 0.302090 0.685325 0.413182
Si Si5 0.500000 0.500000 0.181837
Si Si6 0.597414 0.188133 0.932930
O O1 0.044944 0.764513 0.728887
O O2 0.940323 0.890327 0.502749
O O3 0.823936 0.688503 0.468174
O O4 0.728732 0.715469 0.736771
O O5 0.844647 0.958084 0.747651
O O6 0.749040 0.148536 0.538874
O O7 0.326253 0.357446 0.436578
O O8 0.378648 0.857924 0.425885
O O9 0.447264 0.299994 0.284325
O O10 0.549690 0.290065 0.078127
#
# Coordination Sequence:
#
# PCOD9339092 Si02
#       6
#     2   4   4   4   2   4
#     4   8  12  22  44  74 120 154 192 234 280 330
#     4   9  18  31  50  77 116 149 192 234 280 337
#     4   8  14  25  44  77 116 154 192 234 280 330
#     4  11  22  38  58  82 116 149 186 234 286 337
#     4  10  24  40  60  84 112 144 192 234 280 344
#     4  11  24  40  60  84 112 149 186 234 286 337
#
# _framework density 27.665617999999998
#
# number of rings (size 3 to 8) (size 9 to 14) (size 15 to 20)
#    0.000    2.400    0.000    2.400    0.000    4.800 
#    0.000    0.000    0.000    0.000    0.000    0.000 
#    0.000 1478.400    0.000    0.000    0.000  184.800 
#
# Total GULP energy -111602.253824 kJ/mol
# GULP energy per Si atom -5580.112691 kJ/mol
# Density = 2.760265 g / cm^3
# Si number density = 27.665618 Si / 1000 Ang^3
#
#
#
# Elastic Constant Matrix: (Units=GPa)
#
#
# Indices 1 2 3 4 5 6 
#
# 1 145.0215 15.1189 54.0995 0.0000 0.0000 0.0000
# 2 15.1189 82.8014 19.2265 0.0000 0.0000 0.0000
# 3 54.0995 19.2265 189.3815 0.0000 0.0000 0.0000
# 4 0.0000 0.0000 0.0000 28.0695 0.0000 0.0000
# 5 0.0000 0.0000 0.0000 0.0000 86.3741 0.0000
# 6 0.0000 0.0000 0.0000 0.0000 0.0000 13.9485
#
#
#
# Elastic Compliance Matrix: (Units=1/GPa)
#
#
# Indices 1 2 3 4 5 6 
#
# 1 0.007787 -0.000927 -0.002130 0.000000 0.000000 0.000000
# 2 -0.000927 0.012479 -0.001002 0.000000 0.000000 0.000000
# 3 -0.002130 -0.001002 0.005991 0.000000 0.000000 0.000000
# 4 0.000000 0.000000 0.000000 0.035626 0.000000 0.000000
# 5 0.000000 0.000000 0.000000 0.000000 0.011578 0.000000
# 6 0.000000 0.000000 0.000000 0.000000 0.000000 0.071692
#
#
# Mechanical properties :
#
#
# Convention : Reuss Voigt Hill
#
# Bulk Modulus (GPa) = 55.13429 66.01047 60.57238
# Shear Modulus (GPa) = 31.38398 47.59574 39.48986
#
# Velocity S-wave (km/s) = 3.37174 4.15226 3.78219
# Velocity P-wave (km/s) = 5.92708 6.84838 6.40432
#
# Compressibility (1/GPa) = 0.01813753
#
# Stress axis : x y z
#
# Youngs Moduli (GPa) = 128.42099 80.13425 166.92739
#
# Poissons Ratio (x) = 0.07430 0.35561
# Poissons Ratio (y) = 0.11907 0.16727
# Poissons Ratio (z) = 0.27358 0.08030
#
# Static dielectric constant tensor:
#      x y z
#    x 2.293690 0.000000 0.000000 
#    y 0.000000 2.074420 0.000000 
#    z 0.000000 0.000000 2.106980 
# 
# From -- ./inp_files/873.got.cif
#   From: 2010.05.17/outbox.cif.g08.bks.cpg/sg27_1_cif.got.tgz:873.got - 2010.06.04 01:11:05.
