data_PCOD9339831
_publ_section_title
;
Structure prediction by ZEFSAII (Michael W. Deem and Ramdas Pophale) SiO2 
 PCOD9339831
Probable space group: P M A 2
;
_chemical_formula_sum "Si O2"
_cell_formula_units_Z 18
_cell_length_a 9.963738
_cell_length_b 10.808966
_cell_length_c 8.306367
_cell_angle_alpha 90.000000
_cell_angle_beta 90.000000
_cell_angle_gamma 90.000000
_cell_volume 894.576665
_symmetry_space_group_name_H-M "P M A 2"
_symmetry_group_IT_number 28
_symmetry_cell_setting 'orthorhombic'
loop_
_space_group_symop_operation_xyz
x,y,z
-x,-y,z
1/2-x,y,z
1/2+x,-y,z
loop_
_atom_site_type_symbol
_atom_site_label
_atom_site_fract_x
_atom_site_fract_y
_atom_site_fract_z
Si Si1 0.017330 0.143628 0.067990
Si Si2 0.750000 0.297410 0.576577
Si Si3 0.750000 0.591562 0.581929
Si Si4 0.988186 0.335814 0.797623
Si Si5 0.750000 0.717223 0.228260
Si Si6 0.750000 0.467580 0.010946
Si Si7 0.250000 0.760431 0.222571
O O1 0.125492 0.192170 0.195942
O O2 0.877098 0.180673 0.142331
O O3 0.000000 0.000000 0.029438
O O4 0.042690 0.230449 0.914658
O O5 0.750000 0.445441 0.546508
O O6 0.882537 0.273423 0.677727
O O7 0.750000 0.227121 0.411184
O O8 0.614485 0.617553 0.688326
O O9 0.750000 0.661260 0.409264
O O10 0.883863 0.425298 0.906653
O O11 0.750000 0.605063 0.091178
O O12 0.750000 0.381793 0.167539
#
# Coordination Sequence:
#
# PCOD9339831 Si02
#       7
#     4   2   2   4   2   2   2
#     4  11  25  45  66  91 129 182 232 271 309 389
#     4  11  22  39  61  98 138 164 200 273 343 403
#     4  12  24  40  64 107 135 167 201 281 340 404
#     4  10  24  40  68  93 137 168 220 262 335 385
#     4  12  25  41  69  99 137 167 227 269 340 391
#     4   9  22  43  62 102 125 179 201 274 325 407
#     4  10  21  43  66  94 133 167 217 263 342 387
#
# _framework density 20.12125
#
# number of rings (size 3 to 8) (size 9 to 14) (size 15 to 20)
#    0.000    1.333    1.111    4.000    9.333    2.667 
#    0.000    6.667    0.000    0.000    0.000    0.000 
#    0.000    0.000    0.000    0.000    0.000    0.000 
#
# Total GULP energy -100313.964056 kJ/mol
# GULP energy per Si atom -5572.998003 kJ/mol
# Density = 2.007545 g / cm^3
# Si number density = 20.121250 Si / 1000 Ang^3
#
#
#
# Elastic Constant Matrix: (Units=GPa)
#
#
# Indices 1 2 3 4 5 6 
#
# 1 120.9122 22.7270 13.2477 0.0000 0.0000 0.0000
# 2 22.7270 95.0896 28.5985 0.0000 0.0000 0.0000
# 3 13.2477 28.5985 113.4077 0.0000 0.0000 0.0000
# 4 0.0000 0.0000 0.0000 16.3545 0.0000 0.0000
# 5 0.0000 0.0000 0.0000 0.0000 32.9153 0.0000
# 6 0.0000 0.0000 0.0000 0.0000 0.0000 -68.3011
#
#
#
# Elastic Compliance Matrix: (Units=1/GPa)
#
#
# Indices 1 2 3 4 5 6 
#
# 1 0.008689 -0.001917 -0.000532 0.000000 0.000000 0.000000
# 2 -0.001917 0.011802 -0.002752 0.000000 0.000000 0.000000
# 3 -0.000532 -0.002752 0.009574 0.000000 0.000000 0.000000
# 4 0.000000 0.000000 0.000000 0.061145 0.000000 0.000000
# 5 0.000000 0.000000 0.000000 0.000000 0.030381 0.000000
# 6 0.000000 0.000000 0.000000 0.000000 0.000000 -0.014641
#
#
# Mechanical properties :
#
#
# Convention : Reuss Voigt Hill
#
# Bulk Modulus (GPa) = 50.85530 50.95068 50.90299
# Shear Modulus (GPa) = 40.35299 13.84948 27.10123
#
# Velocity S-wave (km/s) = 4.48313 2.62640 3.67399
# Velocity P-wave (km/s) = 7.21992 5.87997 6.58412
#
# Compressibility (1/GPa) = 0.01966364
#
# Stress axis : x y z
#
# Youngs Moduli (GPa) = 115.08794 84.72924 104.45054
#
# Poissons Ratio (x) = 0.16241 0.05553
# Poissons Ratio (y) = 0.22061 0.28748
# Poissons Ratio (z) = 0.06118 0.23320
#
# Static dielectric constant tensor:
#      x y z
#    x 1.715160 0.000000 0.000000 
#    y 0.000000 1.797070 0.000000 
#    z 0.000000 0.000000 1.699380 
# 
# From -- ./inp_files/2230.got.cif
#   From: 2010.05.17/outbox.cif.g08.bks.cpg/sg28_2_cif.got.tgz:2230.got - 2010.06.04 01:15:21.
