data_PCOD9339584
_publ_section_title
;
Structure prediction by ZEFSAII (Michael W. Deem and Ramdas Pophale) SiO2 
 PCOD9339584
Probable space group: P M A 2
;
_chemical_formula_sum "Si O2"
_cell_formula_units_Z 24
_cell_length_a 8.768810
_cell_length_b 16.301452
_cell_length_c 9.655803
_cell_angle_alpha 90.000000
_cell_angle_beta 90.000000
_cell_angle_gamma 90.000000
_cell_volume 1380.242342
_symmetry_space_group_name_H-M "P M A 2"
_symmetry_group_IT_number 28
_symmetry_cell_setting 'orthorhombic'
loop_
_space_group_symop_operation_xyz
x,y,z
-x,-y,z
1/2-x,y,z
1/2+x,-y,z
loop_
_atom_site_type_symbol
_atom_site_label
_atom_site_fract_x
_atom_site_fract_y
_atom_site_fract_z
Si Si1 0.431995 0.581956 0.105120
Si Si2 0.434130 0.762660 0.100720
Si Si3 0.932567 0.764679 0.791552
Si Si4 0.066450 0.913172 0.292320
Si Si5 0.432717 0.912507 0.614716
Si Si6 0.567461 0.582622 0.793563
O O1 0.500000 0.500000 0.173231
O O2 0.250000 0.573572 0.097791
O O3 0.469635 0.672287 0.162533
O O4 0.499755 0.584386 0.949389
O O5 0.250000 0.766129 0.084481
O O6 0.483227 0.836763 0.199086
O O7 0.507938 0.769971 0.949337
O O8 0.750000 0.771868 0.791310
O O9 0.971501 0.672859 0.735836
O O10 0.005134 0.837018 0.702854
O O11 0.250000 0.917291 0.287116
O O12 0.022339 0.902010 0.453177
O O13 0.000000 0.000000 0.243803
O O14 0.250000 0.915328 0.623195
O O15 0.500000 0.000000 0.661819
O O16 0.500000 0.500000 0.726297
O O17 0.750000 0.575417 0.800647
#
# Coordination Sequence:
#
# PCOD9339584 Si02
#       6
#     4   4   4   4   4   4
#     4   9  15  24  41  64  92 124 155 189 230 277
#     4   9  18  32  49  71  99 128 158 195 240 285
#     4  10  20  32  48  74 103 128 159 199 240 283
#     4   9  19  35  53  72  93 122 160 197 236 285
#     4  10  20  35  54  72  93 125 162 199 241 289
#     4   9  16  26  42  65  94 125 157 193 232 277
#
# _framework density 17.388249999999999
#
# number of rings (size 3 to 8) (size 9 to 14) (size 15 to 20)
#    0.000    2.667    0.000    3.000    0.000    4.667 
#    0.000    1.667    0.000    1.000    0.000    4.667 
#    0.000    0.000    0.000    0.000    0.000    0.000 
#
# Total GULP energy -133685.283080 kJ/mol
# GULP energy per Si atom -5570.220128 kJ/mol
# Density = 1.734867 g / cm^3
# Si number density = 17.388250 Si / 1000 Ang^3
#
#
#
# Elastic Constant Matrix: (Units=GPa)
#
#
# Indices 1 2 3 4 5 6 
#
# 1 47.8898 59.6683 18.8415 0.0000 0.0000 0.0000
# 2 59.6683 225.8838 64.2961 0.0000 0.0000 0.0000
# 3 18.8415 64.2961 34.0483 0.0000 0.0000 0.0000
# 4 0.0000 0.0000 0.0000 -12.4171 0.0000 0.0000
# 5 0.0000 0.0000 0.0000 0.0000 6.8266 0.0000
# 6 0.0000 0.0000 0.0000 0.0000 0.0000 33.4880
#
#
#
# Elastic Compliance Matrix: (Units=1/GPa)
#
#
# Indices 1 2 3 4 5 6 
#
# 1 0.031339 -0.007226 -0.003696 0.000000 0.000000 0.000000
# 2 -0.007226 0.011239 -0.017224 0.000000 0.000000 0.000000
# 3 -0.003696 -0.017224 0.063940 0.000000 0.000000 0.000000
# 4 0.000000 0.000000 0.000000 -0.080534 0.000000 0.000000
# 5 0.000000 0.000000 0.000000 0.000000 0.146485 0.000000
# 6 0.000000 0.000000 0.000000 0.000000 0.000000 0.029861
#
#
# Mechanical properties :
#
#
# Convention : Reuss Voigt Hill
#
# Bulk Modulus (GPa) = 19.91028 65.93709 42.92369
# Shear Modulus (GPa) = 18.15771 16.58058 17.36914
#
# Velocity S-wave (km/s) = 3.23499 3.09131 3.16397
# Velocity P-wave (km/s) = 5.04270 7.12351 6.17144
#
# Compressibility (1/GPa) = 0.05022530
#
# Stress axis : x y z
#
# Youngs Moduli (GPa) = 31.90899 88.97978 15.63956
#
# Poissons Ratio (x) = 0.64299 0.05781
# Poissons Ratio (y) = 0.23058 0.26937
# Poissons Ratio (z) = 0.11795 1.53256
#
# Static dielectric constant tensor:
#      x y z
#    x 1.583230 0.000000 0.000000 
#    y 0.000000 1.643830 0.000000 
#    z 0.000000 0.000000 1.556700 
# 
# From -- ./inp_files/2564.got.cif
#   From: 2010.05.17/outbox.cif.g08.bks.cpg/sg28_2_cif.got.tgz:2564.got - 2010.06.04 01:15:21.
