data_PCOD9339534
_publ_section_title
;
Structure prediction by ZEFSAII (Michael W. Deem and Ramdas Pophale) SiO2 
 PCOD9339534
Probable space group: P M A 2
;
_chemical_formula_sum "Si O2"
_cell_formula_units_Z 32
_cell_length_a 8.701482
_cell_length_b 24.609018
_cell_length_c 7.894717
_cell_angle_alpha 90.000000
_cell_angle_beta 90.000000
_cell_angle_gamma 90.000000
_cell_volume 1690.534650
_symmetry_space_group_name_H-M "P M A 2"
_symmetry_group_IT_number 28
_symmetry_cell_setting 'orthorhombic'
loop_
_space_group_symop_operation_xyz
x,y,z
-x,-y,z
1/2-x,y,z
1/2+x,-y,z
loop_
_atom_site_type_symbol
_atom_site_label
_atom_site_fract_x
_atom_site_fract_y
_atom_site_fract_z
Si Si1 0.934296 0.943667 0.094150
Si Si2 0.563896 0.637355 0.284808
Si Si3 0.935025 0.173314 0.610914
Si Si4 0.434189 0.758306 0.280895
Si Si5 0.935336 0.559708 0.591314
Si Si6 0.566497 0.825807 0.968208
Si Si7 0.935333 0.559696 0.978176
Si Si8 0.065531 0.943645 0.475556
O O1 0.750000 0.947157 0.102115
O O2 0.000266 0.938635 0.284743
O O3 0.978988 0.888948 0.996653
O O4 0.000000 0.000000 0.022027
O O5 0.750000 0.640964 0.284539
O O6 0.495533 0.697227 0.284207
O O7 0.516364 0.603376 0.451355
O O8 0.516468 0.603340 0.118218
O O9 0.750000 0.175296 0.623578
O O10 0.982579 0.209381 0.450340
O O11 0.979446 0.110709 0.574567
O O12 0.007780 0.192426 0.785576
O O13 0.250000 0.758492 0.275312
O O14 0.496952 0.790263 0.118548
O O15 0.750000 0.556819 0.587221
O O16 0.981934 0.573423 0.784749
O O17 0.000000 0.500000 0.551303
O O18 0.750000 0.822641 0.976309
O O19 0.750000 0.556812 0.982129
O O20 0.000000 0.500000 0.018196
O O21 0.250000 0.946588 0.467284
O O22 0.000000 0.000000 0.547287
#
# Coordination Sequence:
#
# PCOD9339534 Si02
#       8
#     4   4   4   4   4   4   4   4
#     4  10  20  34  56  86 116 148 186 230 286 348
#     4  10  21  36  55  81 113 149 190 235 284 337
#     4  10  23  41  61  84 114 153 192 238 294 348
#     4  11  24  43  62  83 115 153 198 247 294 344
#     4   9  18  33  54  81 114 148 182 227 278 332
#     4  11  24  40  62  88 114 150 194 241 292 350
#     4   9  18  33  54  82 116 149 185 228 279 335
#     4  10  19  34  57  85 116 150 186 232 289 346
#
# _framework density 18.928923999999999
#
# number of rings (size 3 to 8) (size 9 to 14) (size 15 to 20)
#    0.000    2.000    1.250    2.625    0.000    6.000 
#    0.000    3.750    0.000    0.000    0.000    0.000 
#    0.000    0.000    0.000    0.000    0.000    0.000 
#
# Total GULP energy -178741.410699 kJ/mol
# GULP energy per Si atom -5585.669084 kJ/mol
# Density = 1.888584 g / cm^3
# Si number density = 18.928924 Si / 1000 Ang^3
#
#
#
# Elastic Constant Matrix: (Units=GPa)
#
#
# Indices 1 2 3 4 5 6 
#
# 1 26.0921 40.6203 39.9221 0.0000 0.0000 0.0000
# 2 40.6203 164.6585 108.2180 0.0000 0.0000 0.0000
# 3 39.9221 108.2180 154.2636 0.0000 0.0000 0.0000
# 4 0.0000 0.0000 0.0000 -9.7371 0.0000 0.0000
# 5 0.0000 0.0000 0.0000 0.0000 6.1744 0.0000
# 6 0.0000 0.0000 0.0000 0.0000 0.0000 34.7693
#
#
#
# Elastic Compliance Matrix: (Units=1/GPa)
#
#
# Indices 1 2 3 4 5 6 
#
# 1 0.071595 -0.010177 -0.011389 0.000000 0.000000 0.000000
# 2 -0.010177 0.012715 -0.006286 0.000000 0.000000 0.000000
# 3 -0.011389 -0.006286 0.013840 0.000000 0.000000 0.000000
# 4 0.000000 0.000000 0.000000 -0.102700 0.000000 0.000000
# 5 0.000000 0.000000 0.000000 0.000000 0.161959 0.000000
# 6 0.000000 0.000000 0.000000 0.000000 0.000000 0.028761
#
#
# Mechanical properties :
#
#
# Convention : Reuss Voigt Hill
#
# Bulk Modulus (GPa) = 23.55962 80.28166 51.92064
# Shear Modulus (GPa) = 19.52959 16.65824 18.09392
#
# Velocity S-wave (km/s) = 3.21554 2.96977 3.09510
# Velocity P-wave (km/s) = 5.12442 7.36638 6.34521
#
# Compressibility (1/GPa) = 0.04244551
#
# Stress axis : x y z
#
# Youngs Moduli (GPa) = 13.96755 78.64577 72.25654
#
# Poissons Ratio (x) = 0.80038 0.82291
# Poissons Ratio (y) = 0.14215 0.45422
# Poissons Ratio (z) = 0.15907 0.49438
#
# Static dielectric constant tensor:
#      x y z
#    x 1.635450 0.000000 0.000000 
#    y 0.000000 1.634050 0.000000 
#    z 0.000000 0.000000 1.656810 
# 
# From -- ./inp_files/2748.got.cif
#   From: 2010.05.17/outbox.cif.g08.bks.cpg/sg28_2_cif.got.tgz:2748.got - 2010.06.04 01:15:21.
