data_PCOD9339751
_publ_section_title
;
Structure prediction by ZEFSAII (Michael W. Deem and Ramdas Pophale) SiO2 
 PCOD9339751
Probable space group: P M A 2
;
_chemical_formula_sum "Si O2"
_cell_formula_units_Z 32
_cell_length_a 7.502913
_cell_length_b 9.494729
_cell_length_c 21.979796
_cell_angle_alpha 90.000000
_cell_angle_beta 90.000000
_cell_angle_gamma 90.000000
_cell_volume 1565.799469
_symmetry_space_group_name_H-M "P M A 2"
_symmetry_group_IT_number 28
_symmetry_cell_setting 'orthorhombic'
loop_
_space_group_symop_operation_xyz
x,y,z
-x,-y,z
1/2-x,y,z
1/2+x,-y,z
loop_
_atom_site_type_symbol
_atom_site_label
_atom_site_fract_x
_atom_site_fract_y
_atom_site_fract_z
Si Si1 0.035919 0.166474 0.678270
Si Si2 0.036226 0.334260 0.561856
Si Si3 0.963918 0.665498 0.060216
Si Si4 0.536799 0.832486 0.810285
Si Si5 0.963696 0.665530 0.427688
Si Si6 0.035884 0.166796 0.942824
Si Si7 0.036203 0.165445 0.176882
Si Si8 0.036358 0.164960 0.311978
O O1 0.250000 0.183836 0.679331
O O2 0.965877 0.248275 0.619491
O O3 0.968331 0.218301 0.744582
O O4 0.000000 0.000000 0.672905
O O5 0.250000 0.315711 0.560773
O O6 0.968465 0.291046 0.494747
O O7 0.000000 0.500000 0.569201
O O8 0.750000 0.683997 0.060284
O O9 0.032592 0.740341 0.121525
O O10 0.000000 0.500000 0.059301
O O11 0.032494 0.744382 0.999860
O O12 0.750000 0.811319 0.810327
O O13 0.467989 0.784106 0.876215
O O14 0.500000 0.000000 0.810053
O O15 0.750000 0.685003 0.428769
O O16 0.034568 0.748707 0.369398
O O17 0.000000 0.500000 0.420913
O O18 0.250000 0.181694 0.941340
O O19 0.000000 0.000000 0.950432
O O20 0.250000 0.181530 0.178650
O O21 0.967871 0.203377 0.244468
O O22 0.000000 0.000000 0.166173
O O23 0.250000 0.184831 0.310544
O O24 0.000000 0.000000 0.320590
#
# Coordination Sequence:
#
# PCOD9339751 Si02
#       8
#     4   4   4   4   4   4   4   4
#     4   9  17  29  46  68  92 117 147 185 227 268
#     4   9  18  32  47  64  89 121 154 186 222 265
#     4  10  21  34  47  67  95 123 151 185 224 265
#     4   8  14  26  44  65  89 115 144 181 223 265
#     4   9  18  32  48  66  90 120 153 187 222 264
#     4   9  17  30  49  70  90 116 151 187 223 266
#     4   9  18  33  51  70  92 119 151 185 222 266
#     4   9  18  32  49  70  95 119 146 184 226 267
#
# _framework density 20.436845999999999
#
# number of rings (size 3 to 8) (size 9 to 14) (size 15 to 20)
#    0.000    3.000    0.000    0.375    0.000    3.000 
#    0.000    0.625    0.000    0.000    0.000    0.000 
#    0.000    0.000    0.000    0.000    0.000    0.000 
#
# Total GULP energy -178373.744971 kJ/mol
# GULP energy per Si atom -5574.179530 kJ/mol
# Density = 2.039033 g / cm^3
# Si number density = 20.436846 Si / 1000 Ang^3
#
#
#
# Elastic Constant Matrix: (Units=GPa)
#
#
# Indices 1 2 3 4 5 6 
#
# 1 58.8613 -4.6985 14.5129 0.0000 0.0000 0.0000
# 2 -4.6985 72.1123 116.3485 0.0000 0.0000 0.0000
# 3 14.5129 116.3485 288.3766 0.0000 0.0000 0.0000
# 4 0.0000 0.0000 0.0000 88.9769 0.0000 0.0000
# 5 0.0000 0.0000 0.0000 0.0000 -57.2346 0.0000
# 6 0.0000 0.0000 0.0000 0.0000 0.0000 21.4972
#
#
#
# Elastic Compliance Matrix: (Units=1/GPa)
#
#
# Indices 1 2 3 4 5 6 
#
# 1 0.018620 0.007807 -0.004087 0.000000 0.000000 0.000000
# 2 0.007807 0.043003 -0.017743 0.000000 0.000000 0.000000
# 3 -0.004087 -0.017743 0.010832 0.000000 0.000000 0.000000
# 4 0.000000 0.000000 0.000000 0.011239 0.000000 0.000000
# 5 0.000000 0.000000 0.000000 0.000000 -0.017472 0.000000
# 6 0.000000 0.000000 0.000000 0.000000 0.000000 0.046518
#
#
# Mechanical properties :
#
#
# Convention : Reuss Voigt Hill
#
# Bulk Modulus (GPa) = 22.51760 74.63068 48.57414
# Shear Modulus (GPa) = 32.13618 30.19372 31.16495
#
# Velocity S-wave (km/s) = 3.96973 3.84789 3.90928
# Velocity P-wave (km/s) = 5.66160 7.50591 6.64802
#
# Compressibility (1/GPa) = 0.04440970
#
# Stress axis : x y z
#
# Youngs Moduli (GPa) = 53.70571 23.25422 92.31975
#
# Poissons Ratio (x) = -0.18155 0.37731
# Poissons Ratio (y) = -0.41930 1.63802
# Poissons Ratio (z) = 0.21950 0.41260
#
# Static dielectric constant tensor:
#      x y z
#    x 1.740430 0.000000 0.000000 
#    y 0.000000 1.647630 0.000000 
#    z 0.000000 0.000000 1.798020 
# 
# From -- ./inp_files/7209.got.cif
#   From: 2010.05.17/outbox.cif.g08.bks.cpg/sg28_4_cif.got.tgz:7209.got - 2010.06.04 01:15:21.
