data_PCOD9339129
_publ_section_title
;
Structure prediction by ZEFSAII (Michael W. Deem and Ramdas Pophale) SiO2 
 PCOD9339129
Probable space group: P C C 2
;
_chemical_formula_sum "Si O2"
_cell_formula_units_Z 22
_cell_length_a 15.043914
_cell_length_b 7.415493
_cell_length_c 8.463468
_cell_angle_alpha 90.000000
_cell_angle_beta 90.000000
_cell_angle_gamma 90.000000
_cell_volume 944.167893
_symmetry_space_group_name_H-M "P C C 2"
_symmetry_group_IT_number 27
_symmetry_cell_setting 'orthorhombic'
loop_
_space_group_symop_operation_xyz
x,y,z
-x,-y,z
-x,y,1/2+z
x,-y,1/2+z
loop_
_atom_site_type_symbol
_atom_site_label
_atom_site_fract_x
_atom_site_fract_y
_atom_site_fract_z
Si Si1 0.369783 0.129816 0.369670
Si Si2 0.932471 0.364181 0.922178
Si Si3 0.242762 0.576605 0.729679
Si Si4 0.246991 0.219195 0.888320
Si Si5 0.071073 0.852176 0.213776
Si Si6 0.500000 0.000000 0.609100
O O1 0.303438 0.292745 0.336453
O O2 0.443168 0.140449 0.506045
O O3 0.429015 0.103059 0.214594
O O4 0.316142 0.943862 0.400495
O O5 0.855055 0.431438 0.808623
O O6 0.000000 0.500000 0.008841
O O7 0.003278 0.264063 0.815233
O O8 0.891864 0.240840 0.057292
O O9 0.274223 0.370232 0.757231
O O10 0.237427 0.669915 0.555355
O O11 0.155655 0.122820 0.828060
O O12 0.000000 0.000000 0.155124
#
# Coordination Sequence:
#
# PCOD9339129 Si02
#       6
#     4   4   4   4   4   2
#     4  11  25  50  80 109 151 195 245 312 384 452
#     4  12  25  44  67  99 147 194 244 305 365 427
#     4  12  27  47  78 108 153 199 250 314 370 448
#     4  12  27  47  74 113 146 196 255 304 378 447
#     4  12  26  43  68 101 143 194 250 302 364 439
#     4  10  24  50  80 110 154 192 242 320 384 460
#
# _framework density 23.300941999999999
#
# number of rings (size 3 to 8) (size 9 to 14) (size 15 to 20)
#    0.000    0.364    3.636    4.364    5.091    2.909 
#    0.000    6.364    0.000    0.000    0.000    0.000 
#    0.000    0.000    0.000    0.000    0.000    0.000 
#
# Total GULP energy -122916.960728 kJ/mol
# GULP energy per Si atom -5587.134579 kJ/mol
# Density = 2.324791 g / cm^3
# Si number density = 23.300942 Si / 1000 Ang^3
#
#
#
# Elastic Constant Matrix: (Units=GPa)
#
#
# Indices 1 2 3 4 5 6 
#
# 1 106.0796 24.7639 25.5196 0.0000 0.0000 0.0000
# 2 24.7639 66.2346 15.4489 0.0000 0.0000 0.0000
# 3 25.5196 15.4489 97.3748 0.0000 0.0000 0.0000
# 4 0.0000 0.0000 0.0000 21.9488 0.0000 0.0000
# 5 0.0000 0.0000 0.0000 0.0000 36.9825 0.0000
# 6 0.0000 0.0000 0.0000 0.0000 0.0000 29.5991
#
#
#
# Elastic Compliance Matrix: (Units=1/GPa)
#
#
# Indices 1 2 3 4 5 6 
#
# 1 0.010792 -0.003505 -0.002272 0.000000 0.000000 0.000000
# 2 -0.003505 0.016816 -0.001749 0.000000 0.000000 0.000000
# 3 -0.002272 -0.001749 0.011143 0.000000 0.000000 0.000000
# 4 0.000000 0.000000 0.000000 0.045561 0.000000 0.000000
# 5 0.000000 0.000000 0.000000 0.000000 0.027040 0.000000
# 6 0.000000 0.000000 0.000000 0.000000 0.000000 0.033785
#
#
# Mechanical properties :
#
#
# Convention : Reuss Voigt Hill
#
# Bulk Modulus (GPa) = 42.19819 44.57264 43.38542
# Shear Modulus (GPa) = 29.74631 31.30317 30.52474
#
# Velocity S-wave (km/s) = 3.57685 3.66926 3.62335
# Velocity P-wave (km/s) = 5.93362 6.09278 6.01373
#
# Compressibility (1/GPa) = 0.02369770
#
# Stress axis : x y z
#
# Youngs Moduli (GPa) = 92.66380 59.46610 89.74531
#
# Poissons Ratio (x) = 0.20842 0.20392
# Poissons Ratio (y) = 0.32477 0.15700
# Poissons Ratio (z) = 0.21055 0.10403
#
# Static dielectric constant tensor:
#      x y z
#    x 1.687800 0.000000 0.000000 
#    y 0.000000 1.515360 0.000000 
#    z 0.000000 0.000000 1.911090 
# 
# From -- ./inp_files/1554.got.cif
#   From: 2010.05.17/outbox.cif.g08.bks.cpg/sg27_1_cif.got.tgz:1554.got - 2010.06.04 01:11:05.
