data_PCOD9339998
_publ_section_title
;
Structure prediction by ZEFSAII (Michael W. Deem and Ramdas Pophale) SiO2 
 PCOD9339998
Probable space group: P C A 21
;
_chemical_formula_sum "Si O2"
_cell_formula_units_Z 28
_cell_length_a 11.328600
_cell_length_b 17.940975
_cell_length_c 5.115575
_cell_angle_alpha 90.000000
_cell_angle_beta 90.000000
_cell_angle_gamma 90.000000
_cell_volume 1039.720818
_symmetry_space_group_name_H-M "P C A 21"
_symmetry_group_IT_number 29
_symmetry_cell_setting 'orthorhombic'
loop_
_space_group_symop_operation_xyz
x,y,z
-x,-y,1/2+z
1/2-x,y,1/2+z
1/2+x,-y,z
loop_
_atom_site_type_symbol
_atom_site_label
_atom_site_fract_x
_atom_site_fract_y
_atom_site_fract_z
Si Si1 0.356289 0.298285 0.118470
Si Si2 0.606113 0.850939 0.851960
Si Si3 0.918340 0.004997 0.233407
Si Si4 0.943100 0.160971 0.356503
Si Si5 0.330775 0.518039 0.454982
Si Si6 0.901768 0.635042 0.602278
Si Si7 0.824647 0.316027 0.496337
O O1 0.318949 0.217306 0.228336
O O2 0.240593 0.348753 0.078442
O O3 0.445192 0.324895 0.342674
O O4 0.424327 0.315046 0.853187
O O5 0.659310 0.933475 0.816247
O O6 0.500707 0.852044 0.639843
O O7 0.547244 0.837951 0.134434
O O8 0.868162 0.087700 0.278336
O O9 0.028223 0.000409 0.441929
O O10 0.874964 0.237309 0.398356
O O11 0.276247 0.509711 0.165532
O O12 0.417425 0.452507 0.555050
O O13 0.119475 0.601337 0.953962
O O14 0.788197 0.319058 0.799605
#
# Coordination Sequence:
#
# PCOD9339998 Si02
#       7
#     4   4   4   4   4   4   4
#     4  10  18  28  49  74 103 127 173 208 257 292
#     4  10  19  32  53  78 102 140 175 211 257 319
#     4   8  16  30  51  72  94 133 174 202 239 308
#     4  10  19  35  53  75 106 132 175 221 259 310
#     4  10  16  30  49  75  91 125 175 209 241 298
#     4  10  17  30  48  73 101 134 166 215 246 301
#     4  10  21  33  55  79  99 129 174 224 267 306
#
# _framework density 26.930306999999999
#
# number of rings (size 3 to 8) (size 9 to 14) (size 15 to 20)
#    0.000    2.286    2.857    1.714    0.000    0.000 
#    0.000    0.000    6.286    3.429    0.000    0.000 
#    0.000    0.000    0.000    0.000    0.000    0.000 
#
# Total GULP energy -156159.311030 kJ/mol
# GULP energy per Si atom -5577.118251 kJ/mol
# Density = 2.686901 g / cm^3
# Si number density = 26.930307 Si / 1000 Ang^3
#
#
#
# Elastic Constant Matrix: (Units=GPa)
#
#
# Indices 1 2 3 4 5 6 
#
# 1 31.9724 27.6294 -4.7569 0.0000 0.0000 0.0000
# 2 27.6294 233.2726 16.4011 0.0000 0.0000 0.0000
# 3 -4.7569 16.4011 172.8929 0.0000 0.0000 0.0000
# 4 0.0000 0.0000 0.0000 41.5263 0.0000 0.0000
# 5 0.0000 0.0000 0.0000 0.0000 11.7260 0.0000
# 6 0.0000 0.0000 0.0000 0.0000 0.0000 9.9303
#
#
#
# Elastic Compliance Matrix: (Units=1/GPa)
#
#
# Indices 1 2 3 4 5 6 
#
# 1 0.035164 -0.004261 0.001372 0.000000 0.000000 0.000000
# 2 -0.004261 0.004832 -0.000576 0.000000 0.000000 0.000000
# 3 0.001372 -0.000576 0.005876 0.000000 0.000000 0.000000
# 4 0.000000 0.000000 0.000000 0.024081 0.000000 0.000000
# 5 0.000000 0.000000 0.000000 0.000000 0.085280 0.000000
# 6 0.000000 0.000000 0.000000 0.000000 0.000000 0.100702
#
#
# Mechanical properties :
#
#
# Convention : Reuss Voigt Hill
#
# Bulk Modulus (GPa) = 25.67961 57.40946 41.54454
# Shear Modulus (GPa) = 18.12605 39.22747 28.67676
#
# Velocity S-wave (km/s) = 2.59718 3.82072 3.26675
# Velocity P-wave (km/s) = 4.30698 6.38968 5.44876
#
# Compressibility (1/GPa) = 0.03894140
#
# Stress axis : x y z
#
# Youngs Moduli (GPa) = 28.43856 206.95266 170.17582
#
# Poissons Ratio (x) = 0.88189 -0.23343
# Poissons Ratio (y) = 0.12119 0.09796
# Poissons Ratio (z) = -0.03901 0.11913
#
# Static dielectric constant tensor:
#      x y z
#    x 2.187770 0.000000 0.000000 
#    y 0.000000 2.322690 0.000000 
#    z 0.000000 0.000000 2.239740 
# 
# From -- ./inp_files/418.got.cif
#   From: 2010.05.17/outbox.cif.g08.bks.cpg/sg29_1_cif.got.tgz:418.got - 2010.06.04 01:19:37.
