data_PCOD9339969
_publ_section_title
;
Structure prediction by ZEFSAII (Michael W. Deem and Ramdas Pophale) SiO2 
 PCOD9339969
Probable space group: P M A 2
;
_chemical_formula_sum "Si O2"
_cell_formula_units_Z 32
_cell_length_a 12.118894
_cell_length_b 13.254274
_cell_length_c 7.540752
_cell_angle_alpha 90.000000
_cell_angle_beta 90.000000
_cell_angle_gamma 90.000000
_cell_volume 1211.249440
_symmetry_space_group_name_H-M "P M A 2"
_symmetry_group_IT_number 28
_symmetry_cell_setting 'orthorhombic'
loop_
_space_group_symop_operation_xyz
x,y,z
-x,-y,z
1/2-x,y,z
1/2+x,-y,z
loop_
_atom_site_type_symbol
_atom_site_label
_atom_site_fract_x
_atom_site_fract_y
_atom_site_fract_z
Si Si1 0.448693 0.196577 0.290110
Si Si2 0.129539 0.882125 0.065904
Si Si3 0.366129 0.731256 0.513018
Si Si4 0.366129 0.231256 0.648728
Si Si5 0.629539 0.617875 0.095843
Si Si6 0.376172 0.957806 0.670579
Si Si7 0.051307 0.696577 0.871637
Si Si8 0.876172 0.542194 0.491167
O O1 0.538959 0.275813 0.370241
O O2 0.383495 0.168879 0.467827
O O3 0.375706 0.264699 0.161737
O O4 0.523132 0.114001 0.192872
O O5 0.250000 0.902417 0.149389
O O6 0.122624 0.945194 0.885057
O O7 0.124294 0.764699 0.000009
O O8 0.250000 0.710236 0.428869
O O9 0.369899 0.847350 0.578609
O O10 0.383495 0.668879 0.693920
O O11 0.250000 0.210236 0.732878
O O12 0.461041 0.224187 0.791506
O O13 0.369899 0.347350 0.583137
O O14 0.750000 0.597583 0.012357
O O15 0.622624 0.554806 0.276690
O O16 0.523132 0.614001 0.968874
O O17 0.250000 0.998867 0.633085
O O18 0.500000 0.000000 0.626388
O O19 0.750000 0.501133 0.528661
O O20 0.000000 0.500000 0.535358
#
# Coordination Sequence:
#
# PCOD9339969 Si02
#       8
#     4   4   4   4   4   4   4   4
#     4   9  16  28  48  72  91 119 156 185 234 295
#     4   9  17  30  48  69  97 126 152 193 242 285
#     4   9  17  30  48  69  97 126 152 193 242 285
#     4   9  17  30  48  69  97 126 152 193 242 285
#     4   9  17  30  48  69  97 126 152 193 242 285
#     4   9  18  34  50  66  93 129 167 201 237 281
#     4   9  16  28  48  72  91 119 156 185 234 295
#     4   9  18  34  50  66  93 129 167 201 237 281
#
# _framework density 26.419
#
# number of rings (size 3 to 8) (size 9 to 14) (size 15 to 20)
#    0.000    3.000    0.000    3.000    0.000    0.000 
#    0.000   26.250    0.000    0.000    0.000    0.000 
#    0.000    0.000    0.000    0.000    0.000    0.000 
#
# Total GULP energy -178355.883366 kJ/mol
# GULP energy per Si atom -5573.621355 kJ/mol
# Density = 2.635887 g / cm^3
# Si number density = 26.419000 Si / 1000 Ang^3
#
#
#
# Elastic Constant Matrix: (Units=GPa)
#
#
# Indices 1 2 3 4 5 6 
#
# 1 218.2073 40.2136 7.1115 0.0000 0.0000 0.0000
# 2 40.2136 88.2281 7.0520 0.0000 0.0000 0.0000
# 3 7.1115 7.0520 70.5428 0.0000 0.0000 0.0000
# 4 0.0000 0.0000 0.0000 14.0066 0.0000 0.0000
# 5 0.0000 0.0000 0.0000 0.0000 35.2659 0.0000
# 6 0.0000 0.0000 0.0000 0.0000 0.0000 22.2590
#
#
#
# Elastic Compliance Matrix: (Units=1/GPa)
#
#
# Indices 1 2 3 4 5 6 
#
# 1 0.005008 -0.002261 -0.000279 0.000000 0.000000 0.000000
# 2 -0.002261 0.012446 -0.001016 0.000000 0.000000 0.000000
# 3 -0.000279 -0.001016 0.014306 0.000000 0.000000 0.000000
# 4 0.000000 0.000000 0.000000 0.071395 0.000000 0.000000
# 5 0.000000 0.000000 0.000000 0.000000 0.028356 0.000000
# 6 0.000000 0.000000 0.000000 0.000000 0.000000 0.044926
#
#
# Mechanical properties :
#
#
# Convention : Reuss Voigt Hill
#
# Bulk Modulus (GPa) = 40.57074 53.97028 47.27051
# Shear Modulus (GPa) = 26.07369 35.81303 30.94336
#
# Velocity S-wave (km/s) = 3.14495 3.68581 3.42607
# Velocity P-wave (km/s) = 5.34580 6.21181 5.79501
#
# Compressibility (1/GPa) = 0.02464830
#
# Stress axis : x y z
#
# Youngs Moduli (GPa) = 199.66119 80.34824 69.90318
#
# Poissons Ratio (x) = 0.18163 0.01950
# Poissons Ratio (y) = 0.45134 0.07104
# Poissons Ratio (z) = 0.05569 0.08166
#
# Static dielectric constant tensor:
#      x y z
#    x 2.177330 0.000000 0.000000 
#    y 0.000000 2.123320 0.000000 
#    z 0.000000 0.000000 2.067210 
# 
# From -- ./inp_files/3143.got.cif
#   From: 2010.05.17/outbox.cif.g08.bks.cpg/sg28_2_cif.got.tgz:3143.got - 2010.06.04 01:15:21.
