data_PCOD9339428
_publ_section_title
;
Structure prediction by ZEFSAII (Michael W. Deem and Ramdas Pophale) SiO2 
 PCOD9339428
Probable space group: P M A 2
;
_chemical_formula_sum "Si O2"
_cell_formula_units_Z 28
_cell_length_a 8.627265
_cell_length_b 9.488514
_cell_length_c 18.791533
_cell_angle_alpha 90.000000
_cell_angle_beta 90.000000
_cell_angle_gamma 90.000000
_cell_volume 1538.273477
_symmetry_space_group_name_H-M "P M A 2"
_symmetry_group_IT_number 28
_symmetry_cell_setting 'orthorhombic'
loop_
_space_group_symop_operation_xyz
x,y,z
-x,-y,z
1/2-x,y,z
1/2+x,-y,z
loop_
_atom_site_type_symbol
_atom_site_label
_atom_site_fract_x
_atom_site_fract_y
_atom_site_fract_z
Si Si1 0.936075 0.841273 0.594850
Si Si2 0.562385 0.840508 0.284279
Si Si3 0.064636 0.656537 0.722424
Si Si4 0.063947 0.657860 0.884382
Si Si5 0.063268 0.159300 0.440127
Si Si6 0.562713 0.658018 0.149097
Si Si7 0.063988 0.157754 0.012216
O O1 0.750000 0.844413 0.597695
O O2 0.984004 0.779315 0.516941
O O3 0.999374 0.755353 0.661195
O O4 0.000000 0.000000 0.598276
O O5 0.750000 0.847842 0.282339
O O6 0.514957 0.783359 0.362759
O O7 0.510976 0.740400 0.220189
O O8 0.500000 0.000000 0.275932
O O9 0.250000 0.654370 0.718598
O O10 0.021031 0.699074 0.803254
O O11 0.000000 0.500000 0.711714
O O12 0.250000 0.654388 0.889657
O O13 0.000000 0.500000 0.897120
O O14 0.996451 0.764871 0.941690
O O15 0.250000 0.155908 0.440135
O O16 0.000000 0.000000 0.440390
O O17 0.500000 0.500000 0.145951
O O18 0.750000 0.652360 0.149712
O O19 0.515092 0.748807 0.080273
O O20 0.250000 0.152837 0.010896
O O21 0.000000 0.000000 0.017713
#
# Coordination Sequence:
#
# PCOD9339428 Si02
#       7
#     4   4   4   4   4   4   4
#     4  10  19  32  52  78 107 140 178 220 265 312
#     4   9  17  32  53  77 104 134 172 216 260 306
#     4  10  21  37  56  78 105 139 177 216 262 315
#     4  10  21  38  59  81 106 138 175 215 261 314
#     4   8  15  28  48  73 102 135 171 213 259 307
#     4  10  22  37  54  77 106 140 175 212 256 308
#     4  11  23  38  57  82 109 138 174 216 262 310
#
# _framework density 18.202224999999999
#
# number of rings (size 3 to 8) (size 9 to 14) (size 15 to 20)
#    0.000    2.286    0.000    2.571    0.000    5.714 
#    0.000    0.714    0.000    1.714    0.000    0.000 
#    0.000    0.000    0.000    0.000    0.000    0.000 
#
# Total GULP energy -156165.450734 kJ/mol
# GULP energy per Si atom -5577.337526 kJ/mol
# Density = 1.816080 g / cm^3
# Si number density = 18.202225 Si / 1000 Ang^3
#
#
#
# Elastic Constant Matrix: (Units=GPa)
#
#
# Indices 1 2 3 4 5 6 
#
# 1 33.6801 30.9977 49.3501 0.0000 0.0000 0.0000
# 2 30.9977 111.8716 114.6632 0.0000 0.0000 0.0000
# 3 49.3501 114.6632 211.8204 0.0000 0.0000 0.0000
# 4 0.0000 0.0000 0.0000 -214.7529 0.0000 0.0000
# 5 0.0000 0.0000 0.0000 0.0000 391.1816 0.0000
# 6 0.0000 0.0000 0.0000 0.0000 0.0000 33.1143
#
#
#
# Elastic Compliance Matrix: (Units=1/GPa)
#
#
# Indices 1 2 3 4 5 6 
#
# 1 0.045842 -0.003943 -0.008546 0.000000 0.000000 0.000000
# 2 -0.003943 0.020419 -0.010135 0.000000 0.000000 0.000000
# 3 -0.008546 -0.010135 0.012198 0.000000 0.000000 0.000000
# 4 0.000000 0.000000 0.000000 -0.004657 0.000000 0.000000
# 5 0.000000 0.000000 0.000000 0.000000 0.002556 0.000000
# 6 0.000000 0.000000 0.000000 0.000000 0.000000 0.030198
#
#
# Mechanical properties :
#
#
# Convention : Reuss Voigt Hill
#
# Bulk Modulus (GPa) = 30.10944 83.04379 56.57662
# Shear Modulus (GPa) = 30.69851 52.73266 41.71559
#
# Velocity S-wave (km/s) = 4.11119 5.38826 4.79245
# Velocity P-wave (km/s) = 6.25407 9.18875 7.85959
#
# Compressibility (1/GPa) = 0.03321217
#
# Stress axis : x y z
#
# Youngs Moduli (GPa) = 21.81408 48.97467 81.98013
#
# Poissons Ratio (x) = 0.19310 0.70060
# Poissons Ratio (y) = 0.08601 0.83083
# Poissons Ratio (z) = 0.18642 0.49633
#
# Static dielectric constant tensor:
#      x y z
#    x 1.597570 0.000000 0.000000 
#    y 0.000000 1.563720 0.000000 
#    z 0.000000 0.000000 1.667350 
# 
# From -- ./inp_files/6728.got.cif
#   From: 2010.05.17/outbox.cif.g08.bks.cpg/sg28_4_cif.got.tgz:6728.got - 2010.06.04 01:15:21.
