data_PCOD9339885
_publ_section_title
;
Structure prediction by ZEFSAII (Michael W. Deem and Ramdas Pophale) SiO2 
 PCOD9339885
Probable space group: P M A 2
;
_chemical_formula_sum "Si O2"
_cell_formula_units_Z 22
_cell_length_a 10.002764
_cell_length_b 14.513624
_cell_length_c 7.707851
_cell_angle_alpha 90.000000
_cell_angle_beta 90.000000
_cell_angle_gamma 90.000000
_cell_volume 1118.997718
_symmetry_space_group_name_H-M "P M A 2"
_symmetry_group_IT_number 28
_symmetry_cell_setting 'orthorhombic'
loop_
_space_group_symop_operation_xyz
x,y,z
-x,-y,z
1/2-x,y,z
1/2+x,-y,z
loop_
_atom_site_type_symbol
_atom_site_label
_atom_site_fract_x
_atom_site_fract_y
_atom_site_fract_z
Si Si1 0.471729 0.636942 0.551470
Si Si2 0.750000 0.528070 0.551474
Si Si3 0.250000 0.145322 0.752673
Si Si4 0.750000 0.854683 0.350264
Si Si5 0.750000 0.065763 0.843310
Si Si6 0.534218 0.216717 0.852529
Si Si7 0.250000 0.934233 0.259634
Si Si8 0.965785 0.216718 0.250407
O O1 0.627340 0.605425 0.551478
O O2 0.367695 0.553045 0.551470
O O3 0.445602 0.699673 0.720951
O O4 0.445612 0.699669 0.381981
O O5 0.250000 0.172127 0.551467
O O6 0.381525 0.185138 0.841262
O O7 0.250000 0.034682 0.763242
O O8 0.881524 0.814867 0.261671
O O9 0.750000 0.965322 0.339705
O O10 0.622980 0.128800 0.798546
O O11 0.750000 0.052237 0.051472
O O12 0.569650 0.240614 0.051468
O O13 0.377020 0.871196 0.304396
#
# Coordination Sequence:
#
# PCOD9339885 Si02
#       8
#     4   2   2   2   2   4   2   4
#     4  11  22  44  63  92 118 156 195 250 310 377
#     4  10  24  42  68  88 124 148 190 256 318 368
#     4  12  23  36  58  92 127 170 210 244 291 346
#     4  12  23  36  58  92 127 170 210 244 291 346
#     4  10  23  38  57  90 127 167 211 248 288 341
#     4  11  23  41  64  89 124 164 204 250 296 354
#     4  10  23  38  57  90 127 167 211 248 288 341
#     4  11  23  41  64  89 124 164 204 250 296 354
#
# _framework density 19.660451999999999
#
# number of rings (size 3 to 8) (size 9 to 14) (size 15 to 20)
#    0.000    1.091    1.818    4.909    2.545    4.364 
#    0.000    5.455    0.000    0.000    0.000    0.000 
#    0.000    0.000    0.000    0.000    0.000    0.000 
#
# Total GULP energy -122473.557328 kJ/mol
# GULP energy per Si atom -5566.979879 kJ/mol
# Density = 1.961570 g / cm^3
# Si number density = 19.660452 Si / 1000 Ang^3
#
#
#
# Elastic Constant Matrix: (Units=GPa)
#
#
# Indices 1 2 3 4 5 6 
#
# 1 86.8192 -13.2120 -3.0807 0.0000 0.0000 0.0000
# 2 -13.2120 96.0141 45.0448 0.0000 0.0000 0.0000
# 3 -3.0807 45.0448 96.0716 0.0000 0.0000 0.0000
# 4 0.0000 0.0000 0.0000 -7.6619 0.0000 0.0000
# 5 0.0000 0.0000 0.0000 0.0000 10.2114 0.0000
# 6 0.0000 0.0000 0.0000 0.0000 0.0000 38.1290
#
#
#
# Elastic Compliance Matrix: (Units=1/GPa)
#
#
# Indices 1 2 3 4 5 6 
#
# 1 0.011783 0.001851 -0.000490 0.000000 0.000000 0.000000
# 2 0.001851 0.013643 -0.006337 0.000000 0.000000 0.000000
# 3 -0.000490 -0.006337 0.013365 0.000000 0.000000 0.000000
# 4 0.000000 0.000000 0.000000 -0.130517 0.000000 0.000000
# 5 0.000000 0.000000 0.000000 0.000000 0.097929 0.000000
# 6 0.000000 0.000000 0.000000 0.000000 0.000000 0.026227
#
#
# Mechanical properties :
#
#
# Convention : Reuss Voigt Hill
#
# Bulk Modulus (GPa) = 34.67698 37.37879 36.02789
# Shear Modulus (GPa) = 96.16328 24.81257 60.48792
#
# Velocity S-wave (km/s) = 7.00130 3.55640 5.55275
# Velocity P-wave (km/s) = 9.11229 5.99311 7.71204
#
# Compressibility (1/GPa) = 0.02883757
#
# Stress axis : x y z
#
# Youngs Moduli (GPa) = 84.87150 73.29723 74.82451
#
# Poissons Ratio (x) = -0.13570 0.03668
# Poissons Ratio (y) = -0.15712 0.47420
# Poissons Ratio (z) = 0.04160 0.46452
#
# Static dielectric constant tensor:
#      x y z
#    x 1.718930 0.000000 0.000000 
#    y 0.000000 1.653380 0.000000 
#    z 0.000000 0.000000 1.691330 
# 
# From -- ./inp_files/2425.got.cif
#   From: 2010.05.17/outbox.cif.g08.bks.cpg/sg28_2_cif.got.tgz:2425.got - 2010.06.04 01:15:21.
