data_PCOD9339612
_publ_section_title
;
Structure prediction by ZEFSAII (Michael W. Deem and Ramdas Pophale) SiO2 
 PCOD9339612
Probable space group: P M A 2
;
_chemical_formula_sum "Si O2"
_cell_formula_units_Z 24
_cell_length_a 14.433744
_cell_length_b 7.540225
_cell_length_c 9.898938
_cell_angle_alpha 90.000000
_cell_angle_beta 90.000000
_cell_angle_gamma 90.000000
_cell_volume 1077.337824
_symmetry_space_group_name_H-M "P M A 2"
_symmetry_group_IT_number 28
_symmetry_cell_setting 'orthorhombic'
loop_
_space_group_symop_operation_xyz
x,y,z
-x,-y,z
1/2-x,y,z
1/2+x,-y,z
loop_
_atom_site_type_symbol
_atom_site_label
_atom_site_fract_x
_atom_site_fract_y
_atom_site_fract_z
Si Si1 0.396675 0.452597 0.899230
Si Si2 0.136454 0.095982 0.423786
Si Si3 0.357189 0.117085 0.725846
Si Si4 0.362510 0.380364 0.202306
Si Si5 0.363288 0.781270 0.243366
Si Si6 0.855120 0.145187 0.950134
O O1 0.500000 0.500000 0.858220
O O2 0.358311 0.308787 0.796294
O O3 0.350729 0.646238 0.912540
O O4 0.396027 0.364323 0.048243
O O5 0.250000 0.108668 0.424132
O O6 0.102216 0.125632 0.575594
O O7 0.105862 0.236473 0.310366
O O8 0.110360 0.903233 0.367795
O O9 0.250000 0.061925 0.705901
O O10 0.397155 0.972614 0.830921
O O11 0.250000 0.372918 0.194413
O O12 0.390285 0.576818 0.250191
O O13 0.250000 0.782318 0.236705
O O14 0.397551 0.859700 0.099938
O O15 0.750000 0.076533 0.966960
#
# Coordination Sequence:
#
# PCOD9339612 Si02
#       6
#     4   4   4   4   4   4
#     4  11  22  35  53  77 108 144 180 217 258 310
#     4   9  17  29  50  79 103 126 163 215 269 312
#     4  10  20  34  54  79 106 137 174 218 266 314
#     4   9  17  32  54  77 102 132 171 218 262 308
#     4   8  14  26  46  73  99 123 157 204 254 298
#     4   9  18  34  57  79 100 132 175 220 261 306
#
# _framework density 22.277134
#
# number of rings (size 3 to 8) (size 9 to 14) (size 15 to 20)
#    0.000    2.667    0.000    3.500    0.000    4.667 
#    0.000    5.833    0.000    4.000    0.000    0.000 
#    0.000    0.000    0.000    0.000    0.000    0.000 
#
# Total GULP energy -134025.761248 kJ/mol
# GULP energy per Si atom -5584.406719 kJ/mol
# Density = 2.222643 g / cm^3
# Si number density = 22.277134 Si / 1000 Ang^3
#
#
#
# Elastic Constant Matrix: (Units=GPa)
#
#
# Indices 1 2 3 4 5 6 
#
# 1 47.3267 -3.3371 -5.5526 0.0000 0.0000 0.0000
# 2 -3.3371 69.5676 63.0182 0.0000 0.0000 0.0000
# 3 -5.5526 63.0182 130.2272 0.0000 0.0000 0.0000
# 4 0.0000 0.0000 0.0000 20.8761 0.0000 0.0000
# 5 0.0000 0.0000 0.0000 0.0000 0.9641 0.0000
# 6 0.0000 0.0000 0.0000 0.0000 0.0000 -38.6575
#
#
#
# Elastic Compliance Matrix: (Units=1/GPa)
#
#
# Indices 1 2 3 4 5 6 
#
# 1 0.021241 0.000353 0.000735 0.000000 0.000000 0.000000
# 2 0.000353 0.025599 -0.012373 0.000000 0.000000 0.000000
# 3 0.000735 -0.012373 0.013697 0.000000 0.000000 0.000000
# 4 0.000000 0.000000 0.000000 0.047902 0.000000 0.000000
# 5 0.000000 0.000000 0.000000 0.000000 1.037230 0.000000
# 6 0.000000 0.000000 0.000000 0.000000 0.000000 -0.025868
#
#
# Mechanical properties :
#
#
# Convention : Reuss Voigt Hill
#
# Bulk Modulus (GPa) = 26.33768 39.48650 32.91209
# Shear Modulus (GPa) = 4.32891 9.50273 6.91582
#
# Velocity S-wave (km/s) = 1.39550 2.06760 1.76386
# Velocity P-wave (km/s) = 3.80065 4.84392 4.35365
#
# Compressibility (1/GPa) = 0.03796841
#
# Stress axis : x y z
#
# Youngs Moduli (GPa) = 47.07909 39.06349 73.00613
#
# Poissons Ratio (x) = -0.01381 -0.05363
# Poissons Ratio (y) = -0.01664 0.90328
# Poissons Ratio (z) = -0.03459 0.48332
#
# Static dielectric constant tensor:
#      x y z
#    x 1.885190 0.000000 0.000000 
#    y 0.000000 1.789950 0.000000 
#    z 0.000000 0.000000 1.795900 
# 
# From -- ./inp_files/3777.got.cif
#   From: 2010.05.17/outbox.cif.g08.bks.cpg/sg28_2_cif.got.tgz:3777.got - 2010.06.04 01:15:21.
