data_PCOD9339362
_publ_section_title
;
Structure prediction by ZEFSAII (Michael W. Deem and Ramdas Pophale) SiO2 
 PCOD9339362
Probable space group: P M A 2
;
_chemical_formula_sum "Si O2"
_cell_formula_units_Z 24
_cell_length_a 8.731428
_cell_length_b 13.541338
_cell_length_c 11.704040
_cell_angle_alpha 90.000000
_cell_angle_beta 90.000000
_cell_angle_gamma 90.000000
_cell_volume 1383.829718
_symmetry_space_group_name_H-M "P M A 2"
_symmetry_group_IT_number 28
_symmetry_cell_setting 'orthorhombic'
loop_
_space_group_symop_operation_xyz
x,y,z
-x,-y,z
1/2-x,y,z
1/2+x,-y,z
loop_
_atom_site_type_symbol
_atom_site_label
_atom_site_fract_x
_atom_site_fract_y
_atom_site_fract_z
Si Si1 0.069716 0.773040 0.777470
Si Si2 0.933399 0.106899 0.227423
Si Si3 0.432912 0.105662 0.972905
Si Si4 0.921415 0.904703 0.597029
Si Si5 0.433892 0.608799 0.591537
Si Si6 0.076973 0.258743 0.401606
O O1 0.250000 0.764723 0.800519
O O2 0.020496 0.679111 0.699543
O O3 0.981378 0.803376 0.891962
O O4 0.032256 0.864505 0.694521
O O5 0.750000 0.100998 0.229161
O O6 0.989496 0.200525 0.301577
O O7 0.000000 0.000000 0.267147
O O8 0.995581 0.119155 0.098579
O O9 0.250000 0.098013 0.979784
O O10 0.500000 0.000000 0.929948
O O11 0.750000 0.922920 0.641975
O O12 0.911118 0.823444 0.500132
O O13 0.000000 0.000000 0.546196
O O14 0.500000 0.500000 0.607329
O O15 0.250000 0.608304 0.588744
O O16 0.494103 0.653663 0.471167
O O17 0.250000 0.286872 0.366334
#
# Coordination Sequence:
#
# PCOD9339362 Si02
#       6
#     4   4   4   4   4   4
#     4  10  20  34  51  73 101 133 170 211 257 308
#     4  11  21  34  52  76 108 144 181 216 255 304
#     4  11  21  34  52  75 106 143 180 215 254 302
#     4  10  19  29  44  68  99 133 166 204 249 301
#     4  10  21  37  58  81 105 134 170 216 268 319
#     4  10  20  34  52  75 103 135 173 214 259 310
#
# _framework density 17.343174000000001
#
# number of rings (size 3 to 8) (size 9 to 14) (size 15 to 20)
#    0.000    1.667    0.000    7.000    0.000    5.333 
#    0.000    0.000    0.000    1.000    0.000    4.667 
#    0.000    0.000    0.000    0.000    0.000    0.000 
#
# Total GULP energy -133822.633230 kJ/mol
# GULP energy per Si atom -5575.943051 kJ/mol
# Density = 1.730370 g / cm^3
# Si number density = 17.343174 Si / 1000 Ang^3
#
#
#
# Elastic Constant Matrix: (Units=GPa)
#
#
# Indices 1 2 3 4 5 6 
#
# 1 119.9433 54.4327 39.7691 0.0000 0.0000 0.0000
# 2 54.4327 93.6625 49.0829 0.0000 0.0000 0.0000
# 3 39.7691 49.0829 88.0921 0.0000 0.0000 0.0000
# 4 0.0000 0.0000 0.0000 24.4172 0.0000 0.0000
# 5 0.0000 0.0000 0.0000 0.0000 33.4198 0.0000
# 6 0.0000 0.0000 0.0000 0.0000 0.0000 25.6100
#
#
#
# Elastic Compliance Matrix: (Units=1/GPa)
#
#
# Indices 1 2 3 4 5 6 
#
# 1 0.011590 -0.005641 -0.002089 0.000000 0.000000 0.000000
# 2 -0.005641 0.017825 -0.007385 0.000000 0.000000 0.000000
# 3 -0.002089 -0.007385 0.016410 0.000000 0.000000 0.000000
# 4 0.000000 0.000000 0.000000 0.040955 0.000000 0.000000
# 5 0.000000 0.000000 0.000000 0.000000 0.029922 0.000000
# 6 0.000000 0.000000 0.000000 0.000000 0.000000 0.039047
#
#
# Mechanical properties :
#
#
# Convention : Reuss Voigt Hill
#
# Bulk Modulus (GPa) = 64.12630 65.36302 64.74466
# Shear Modulus (GPa) = 26.15374 27.25029 26.70201
#
# Velocity S-wave (km/s) = 3.88753 3.96819 3.92806
# Velocity P-wave (km/s) = 7.56345 7.66585 7.61482
#
# Compressibility (1/GPa) = 0.01559423
#
# Stress axis : x y z
#
# Youngs Moduli (GPa) = 86.28225 56.10158 60.93902
#
# Poissons Ratio (x) = 0.31645 0.12733
# Poissons Ratio (y) = 0.48668 0.45004
# Poissons Ratio (z) = 0.18028 0.41432
#
# Static dielectric constant tensor:
#      x y z
#    x 1.600850 0.000000 0.000000 
#    y 0.000000 1.613070 0.000000 
#    z 0.000000 0.000000 1.604200 
# 
# From -- ./inp_files/4694.got.cif
#   From: 2010.05.17/outbox.cif.g08.bks.cpg/sg28_3_cif.got.tgz:4694.got - 2010.06.04 01:15:21.
