data_PCOD9339240
_publ_section_title
;
Structure prediction by ZEFSAII (Michael W. Deem and Ramdas Pophale) SiO2 
 PCOD9339240
Probable space group: P M A 2
;
_chemical_formula_sum "Si O2"
_cell_formula_units_Z 28
_cell_length_a 8.565942
_cell_length_b 9.711973
_cell_length_c 19.042610
_cell_angle_alpha 90.000000
_cell_angle_beta 90.000000
_cell_angle_gamma 90.000000
_cell_volume 1584.196571
_symmetry_space_group_name_H-M "P M A 2"
_symmetry_group_IT_number 28
_symmetry_cell_setting 'orthorhombic'
loop_
_space_group_symop_operation_xyz
x,y,z
-x,-y,z
1/2-x,y,z
1/2+x,-y,z
loop_
_atom_site_type_symbol
_atom_site_label
_atom_site_fract_x
_atom_site_fract_y
_atom_site_fract_z
Si Si1 0.063619 0.342661 0.317850
Si Si2 0.061649 0.846123 0.041935
Si Si3 0.561649 0.153877 0.884282
Si Si4 0.936295 0.342312 0.463108
Si Si5 0.063619 0.342661 0.608367
Si Si6 0.937883 0.344354 0.170845
Si Si7 0.562117 0.344354 0.755372
O O1 0.250000 0.345012 0.319614
O O2 0.000000 0.500000 0.316795
O O3 0.998556 0.279450 0.390203
O O4 0.002920 0.283704 0.244157
O O5 0.250000 0.849500 0.042780
O O6 0.011430 0.744710 0.103859
O O7 0.012116 0.802833 0.963108
O O8 0.000000 0.000000 0.053656
O O9 0.750000 0.150500 0.883437
O O10 0.511431 0.255291 0.822358
O O11 0.500000 0.000000 0.872561
O O12 0.750000 0.345862 0.463108
O O13 0.000000 0.500000 0.463108
O O14 0.998555 0.279450 0.536014
O O15 0.250000 0.345012 0.606602
O O16 0.000000 0.500000 0.609422
O O17 0.002921 0.283704 0.682060
O O18 0.750000 0.347967 0.174679
O O19 0.000000 0.500000 0.163558
O O20 0.500000 0.500000 0.762659
O O21 0.750000 0.347967 0.751537
#
# Coordination Sequence:
#
# PCOD9339240 Si02
#       7
#     4   4   4   4   4   4   4
#     4  10  17  26  40  61  90 123 158 194 234 279
#     4   9  19  35  53  72  95 124 160 200 240 285
#     4   9  19  35  53  72  95 124 160 200 240 285
#     4  10  16  24  38  58  87 122 157 192 233 278
#     4  10  17  26  40  61  90 123 158 194 234 279
#     4  10  19  31  47  70  99 128 159 197 241 286
#     4  10  19  31  47  70  99 128 159 197 241 286
#
# _framework density 17.674575000000001
#
# number of rings (size 3 to 8) (size 9 to 14) (size 15 to 20)
#    0.000    2.286    0.000    8.143    0.000    2.857 
#    0.000    0.000    0.000    0.000    0.000    1.000 
#    0.000    0.000    0.000    0.000    0.000    0.000 
#
# Total GULP energy -156056.316465 kJ/mol
# GULP energy per Si atom -5573.439874 kJ/mol
# Density = 1.763435 g / cm^3
# Si number density = 17.674575 Si / 1000 Ang^3
#
#
#
# Elastic Constant Matrix: (Units=GPa)
#
#
# Indices 1 2 3 4 5 6 
#
# 1 105.7409 16.1360 60.7515 0.0000 0.0000 0.0000
# 2 16.1360 29.5493 65.1847 0.0000 0.0000 0.0000
# 3 60.7515 65.1847 225.5604 0.0000 0.0000 0.0000
# 4 0.0000 0.0000 0.0000 -6.2328 0.0000 0.0000
# 5 0.0000 0.0000 0.0000 0.0000 26.5199 0.0000
# 6 0.0000 0.0000 0.0000 0.0000 0.0000 16.7181
#
#
#
# Elastic Compliance Matrix: (Units=1/GPa)
#
#
# Indices 1 2 3 4 5 6 
#
# 1 0.011212 0.001487 -0.003450 0.000000 0.000000 0.000000
# 2 0.001487 0.093554 -0.027437 0.000000 0.000000 0.000000
# 3 -0.003450 -0.027437 0.013291 0.000000 0.000000 0.000000
# 4 0.000000 0.000000 0.000000 -0.160442 0.000000 0.000000
# 5 0.000000 0.000000 0.000000 0.000000 0.037708 0.000000
# 6 0.000000 0.000000 0.000000 0.000000 0.000000 0.059815
#
#
# Mechanical properties :
#
#
# Convention : Reuss Voigt Hill
#
# Bulk Modulus (GPa) = 16.87511 71.66613 44.27062
# Shear Modulus (GPa) = 37.40021 21.98629 29.69325
#
# Velocity S-wave (km/s) = 4.60504 3.53079 4.10322
# Velocity P-wave (km/s) = 6.15171 7.56688 6.89569
#
# Compressibility (1/GPa) = 0.05925889
#
# Stress axis : x y z
#
# Youngs Moduli (GPa) = 89.18995 10.68903 75.23671
#
# Poissons Ratio (x) = -0.01589 0.25953
# Poissons Ratio (y) = -0.13262 2.06424
# Poissons Ratio (z) = 0.30766 0.29327
#
# Static dielectric constant tensor:
#      x y z
#    x 1.592270 0.000000 0.000000 
#    y 0.000000 1.565430 0.000000 
#    z 0.000000 0.000000 1.684990 
# 
# From -- ./inp_files/6906.got.cif
#   From: 2010.05.17/outbox.cif.g08.bks.cpg/sg28_4_cif.got.tgz:6906.got - 2010.06.04 01:15:21.
