data_PCOD9339598
_publ_section_title
;
Structure prediction by ZEFSAII (Michael W. Deem and Ramdas Pophale) SiO2 
 PCOD9339598
Probable space group: P M A 2
;
_chemical_formula_sum "Si O2"
_cell_formula_units_Z 28
_cell_length_a 8.691164
_cell_length_b 14.729663
_cell_length_c 13.063167
_cell_angle_alpha 90.000000
_cell_angle_beta 90.000000
_cell_angle_gamma 90.000000
_cell_volume 1672.319426
_symmetry_space_group_name_H-M "P M A 2"
_symmetry_group_IT_number 28
_symmetry_cell_setting 'orthorhombic'
loop_
_space_group_symop_operation_xyz
x,y,z
-x,-y,z
1/2-x,y,z
1/2+x,-y,z
loop_
_atom_site_type_symbol
_atom_site_label
_atom_site_fract_x
_atom_site_fract_y
_atom_site_fract_z
Si Si1 0.434031 0.600312 0.670470
Si Si2 0.435456 0.398655 0.054835
Si Si3 0.564795 0.599625 0.446853
Si Si4 0.066415 0.902847 0.174169
Si Si5 0.065092 0.282827 0.854116
Si Si6 0.435464 0.281509 0.251896
Si Si7 0.434632 0.902080 0.934348
O O1 0.500000 0.500000 0.694836
O O2 0.250000 0.596383 0.669836
O O3 0.495931 0.623916 0.557389
O O4 0.494109 0.670274 0.754617
O O5 0.500000 0.500000 0.052984
O O6 0.250000 0.403430 0.056657
O O7 0.486021 0.344059 0.156081
O O8 0.480533 0.342525 0.953701
O O9 0.500000 0.500000 0.420233
O O10 0.750000 0.594638 0.454152
O O11 0.522320 0.669767 0.357759
O O12 0.250000 0.905526 0.179010
O O13 0.003369 0.818166 0.237247
O O14 0.021463 0.889454 0.054428
O O15 0.000000 0.000000 0.206973
O O16 0.250000 0.282843 0.847483
O O17 0.004527 0.181384 0.872138
O O18 0.250000 0.275563 0.247730
O O19 0.250000 0.901970 0.927406
O O20 0.500000 0.000000 0.902574
#
# Coordination Sequence:
#
# PCOD9339598 Si02
#       7
#     4   4   4   4   4   4   4
#     4  11  22  37  56  78 107 141 184 228 268 318
#     4  10  21  33  48  73 107 142 172 210 260 314
#     4  10  20  35  56  79 106 141 182 225 267 314
#     4  10  20  33  53  78 107 142 179 220 263 316
#     4  11  21  35  55  78 108 143 179 221 268 319
#     4  10  20  35  53  77 108 141 177 219 266 317
#     4  10  20  34  53  79 108 142 180 221 266 318
#
# _framework density 16.743210999999999
#
# number of rings (size 3 to 8) (size 9 to 14) (size 15 to 20)
#    0.000    1.714    1.429    4.714    0.000    5.143 
#    0.000    0.000    0.000    0.857    0.000    2.000 
#    0.000    0.000    0.000    0.000    0.000    0.000 
#
# Total GULP energy -156407.617731 kJ/mol
# GULP energy per Si atom -5585.986348 kJ/mol
# Density = 1.670510 g / cm^3
# Si number density = 16.743211 Si / 1000 Ang^3
#
#
#
# Elastic Constant Matrix: (Units=GPa)
#
#
# Indices 1 2 3 4 5 6 
#
# 1 65.2349 56.4268 51.5629 0.0000 0.0000 0.0000
# 2 56.4268 174.9518 104.5009 0.0000 0.0000 0.0000
# 3 51.5629 104.5009 112.7109 0.0000 0.0000 0.0000
# 4 0.0000 0.0000 0.0000 21.8662 0.0000 0.0000
# 5 0.0000 0.0000 0.0000 0.0000 19.1255 0.0000
# 6 0.0000 0.0000 0.0000 0.0000 0.0000 35.0053
#
#
#
# Elastic Compliance Matrix: (Units=1/GPa)
#
#
# Indices 1 2 3 4 5 6 
#
# 1 0.024574 -0.002713 -0.008726 0.000000 0.000000 0.000000
# 2 -0.002713 0.013110 -0.010914 0.000000 0.000000 0.000000
# 3 -0.008726 -0.010914 0.022983 0.000000 0.000000 0.000000
# 4 0.000000 0.000000 0.000000 0.045733 0.000000 0.000000
# 5 0.000000 0.000000 0.000000 0.000000 0.052286 0.000000
# 6 0.000000 0.000000 0.000000 0.000000 0.000000 0.028567
#
#
# Mechanical properties :
#
#
# Convention : Reuss Voigt Hill
#
# Bulk Modulus (GPa) = 62.65641 86.43099 74.54370
# Shear Modulus (GPa) = 21.07229 24.55988 22.81608
#
# Velocity S-wave (km/s) = 3.55146 3.83411 3.69549
# Velocity P-wave (km/s) = 7.37024 8.44595 7.92637
#
# Compressibility (1/GPa) = 0.01596006
#
# Stress axis : x y z
#
# Youngs Moduli (GPa) = 40.69410 76.27875 43.51062
#
# Poissons Ratio (x) = 0.20698 0.37968
# Poissons Ratio (y) = 0.11042 0.47486
# Poissons Ratio (z) = 0.35510 0.83247
#
# Static dielectric constant tensor:
#      x y z
#    x 1.560000 0.000000 0.000000 
#    y 0.000000 1.537090 0.000000 
#    z 0.000000 0.000000 1.552970 
# 
# From -- ./inp_files/4828.got.cif
#   From: 2010.05.17/outbox.cif.g08.bks.cpg/sg28_3_cif.got.tgz:4828.got - 2010.06.04 01:15:21.
