data_PCOD9339645
_publ_section_title
;
Structure prediction by ZEFSAII (Michael W. Deem and Ramdas Pophale) SiO2 
 PCOD9339645
Probable space group: P M A 2
;
_chemical_formula_sum "Si O2"
_cell_formula_units_Z 30
_cell_length_a 7.530846
_cell_length_b 7.951566
_cell_length_c 21.093779
_cell_angle_alpha 90.000000
_cell_angle_beta 90.000000
_cell_angle_gamma 90.000000
_cell_volume 1263.138075
_symmetry_space_group_name_H-M "P M A 2"
_symmetry_group_IT_number 28
_symmetry_cell_setting 'orthorhombic'
loop_
_space_group_symop_operation_xyz
x,y,z
-x,-y,z
1/2-x,y,z
1/2+x,-y,z
loop_
_atom_site_type_symbol
_atom_site_label
_atom_site_fract_x
_atom_site_fract_y
_atom_site_fract_z
Si Si1 0.457364 0.195752 0.393030
Si Si2 0.037072 0.809074 0.985428
Si Si3 0.458667 0.801543 0.254830
Si Si4 0.462191 0.299684 0.665412
Si Si5 0.550499 0.193346 0.802510
Si Si6 0.962591 0.697326 0.528485
Si Si7 0.038566 0.692051 0.119893
Si Si8 0.250000 0.328415 0.890273
O O1 0.250000 0.221588 0.400474
O O2 0.497092 0.273127 0.324026
O O3 0.539159 0.246533 0.460620
O O4 0.500000 0.000000 0.386180
O O5 0.250000 0.772850 0.980049
O O6 0.980329 0.798213 0.059231
O O7 0.000000 0.000000 0.963256
O O8 0.908591 0.691376 0.944644
O O9 0.250000 0.781285 0.250752
O O10 0.538289 0.729840 0.189699
O O11 0.500000 0.000000 0.254644
O O12 0.500000 0.500000 0.668639
O O13 0.250000 0.276183 0.668487
O O14 0.544661 0.215714 0.726959
O O15 0.527950 0.234901 0.596477
O O16 0.750000 0.228681 0.825838
O O17 0.405544 0.310486 0.835040
O O18 0.500000 0.000000 0.817322
O O19 0.750000 0.726005 0.528692
O O20 0.000000 0.500000 0.530856
O O21 0.250000 0.717359 0.123504
O O22 0.000000 0.500000 0.104285
#
# Coordination Sequence:
#
# PCOD9339645 Si02
#       8
#     4   4   4   4   4   4   4   2
#     4  10  20  35  54  86 120 157 195 247 299 350
#     4  11  23  40  66  94 119 159 204 248 301 370
#     4  10  20  37  59  87 117 155 200 245 293 355
#     4  10  20  40  62  87 120 162 207 253 303 366
#     4  12  24  40  65  94 126 160 202 256 308 366
#     4   9  20  36  58  83 117 157 202 248 294 351
#     4  10  24  41  61  87 121 155 200 245 298 353
#     4  12  24  42  66  94 126 158 200 248 318 354
#
# _framework density 23.750371999999999
#
# number of rings (size 3 to 8) (size 9 to 14) (size 15 to 20)
#    0.000    1.600    2.000    3.200    0.933    3.733 
#    0.000    4.667    0.000    0.000    0.000    0.000 
#    0.000    0.000    0.000    0.000    0.000    0.000 
#
# Total GULP energy -167059.288034 kJ/mol
# GULP energy per Si atom -5568.642934 kJ/mol
# Density = 2.369632 g / cm^3
# Si number density = 23.750372 Si / 1000 Ang^3
#
#
#
# Elastic Constant Matrix: (Units=GPa)
#
#
# Indices 1 2 3 4 5 6 
#
# 1 143.9322 -11.0910 39.1564 0.0000 0.0000 0.0000
# 2 -11.0910 33.5757 20.0273 0.0000 0.0000 0.0000
# 3 39.1564 20.0273 233.3457 0.0000 0.0000 0.0000
# 4 0.0000 0.0000 0.0000-1118.0894 0.0000 0.0000
# 5 0.0000 0.0000 0.0000 0.0000 29.4982 0.0000
# 6 0.0000 0.0000 0.0000 0.0000 0.0000 11.3456
#
#
#
# Elastic Compliance Matrix: (Units=1/GPa)
#
#
# Indices 1 2 3 4 5 6 
#
# 1 0.007645 0.003468 -0.001581 0.000000 0.000000 0.000000
# 2 0.003468 0.032964 -0.003411 0.000000 0.000000 0.000000
# 3 -0.001581 -0.003411 0.004843 0.000000 0.000000 0.000000
# 4 0.000000 0.000000 0.000000 -0.000894 0.000000 0.000000
# 5 0.000000 0.000000 0.000000 0.000000 0.033900 0.000000
# 6 0.000000 0.000000 0.000000 0.000000 0.000000 0.088140
#
#
# Mechanical properties :
#
#
# Convention : Reuss Voigt Hill
#
# Bulk Modulus (GPa) = 23.58215 56.33768 39.95991
# Shear Modulus (GPa) = 27.20643 -191.26505 -82.02931
#
# Velocity S-wave (km/s) = 3.38822 -8.98366 -5.88329
# Velocity P-wave (km/s) = 5.02568 9.15620 5.41196
#
# Compressibility (1/GPa) = 0.04240496
#
# Stress axis : x y z
#
# Youngs Moduli (GPa) = 130.80573 30.33642 206.46370
#
# Poissons Ratio (x) = -0.10521 0.32632
# Poissons Ratio (y) = -0.45364 0.70427
# Poissons Ratio (z) = 0.20674 0.10348
#
# Static dielectric constant tensor:
#      x y z
#    x 1.916670 0.000000 0.000000 
#    y 0.000000 1.956550 0.000000 
#    z 0.000000 0.000000 2.002740 
# 
# From -- ./inp_files/7099.got.cif
#   From: 2010.05.17/outbox.cif.g08.bks.cpg/sg28_4_cif.got.tgz:7099.got - 2010.06.04 01:15:21.
