data_PCOD9339672
_publ_section_title
;
Structure prediction by ZEFSAII (Michael W. Deem and Ramdas Pophale) SiO2 
 PCOD9339672
Probable space group: P M A 2
;
_chemical_formula_sum "Si O2"
_cell_formula_units_Z 28
_cell_length_a 8.685922
_cell_length_b 9.888844
_cell_length_c 17.977325
_cell_angle_alpha 90.000000
_cell_angle_beta 90.000000
_cell_angle_gamma 90.000000
_cell_volume 1544.139458
_symmetry_space_group_name_H-M "P M A 2"
_symmetry_group_IT_number 28
_symmetry_cell_setting 'orthorhombic'
loop_
_space_group_symop_operation_xyz
x,y,z
-x,-y,z
1/2-x,y,z
1/2+x,-y,z
loop_
_atom_site_type_symbol
_atom_site_label
_atom_site_fract_x
_atom_site_fract_y
_atom_site_fract_z
Si Si1 0.064629 0.849216 0.952390
Si Si2 0.564972 0.353116 0.822883
Si Si3 0.566274 0.351992 0.230941
Si Si4 0.564644 0.350690 0.651340
Si Si5 0.933644 0.849177 0.110056
Si Si6 0.066056 0.151643 0.527676
Si Si7 0.433935 0.648830 0.405746
O O1 0.250000 0.853593 0.955909
O O2 0.015574 0.756557 0.883359
O O3 0.000000 0.000000 0.942725
O O4 0.000213 0.797454 0.031242
O O5 0.500000 0.500000 0.841912
O O6 0.750000 0.359099 0.824519
O O7 0.520918 0.322673 0.737446
O O8 0.500000 0.500000 0.213703
O O9 0.750000 0.350656 0.220558
O O10 0.488781 0.243670 0.177401
O O11 0.534772 0.326118 0.318343
O O12 0.500000 0.500000 0.632347
O O13 0.750000 0.352854 0.645012
O O14 0.496366 0.237445 0.597657
O O15 0.750000 0.854873 0.106169
O O16 0.000000 0.000000 0.119831
O O17 0.250000 0.146609 0.529373
O O18 0.009462 0.236506 0.456194
O O19 0.000000 0.000000 0.527329
O O20 0.500000 0.500000 0.424414
O O21 0.250000 0.647750 0.417286
#
# Coordination Sequence:
#
# PCOD9339672 Si02
#       7
#     4   4   4   4   4   4   4
#     4  10  20  36  55  79 110 145 186 229 276 331
#     4   9  20  36  57  83 111 143 182 228 274 325
#     4  10  21  38  60  86 114 145 184 229 276 327
#     4  10  20  38  60  84 113 147 187 228 275 330
#     4  11  22  37  57  81 111 149 189 230 278 331
#     4  12  25  40  58  83 114 148 186 230 278 327
#     4  10  21  39  62  86 113 147 185 226 274 329
#
# _framework density 18.133078000000001
#
# number of rings (size 3 to 8) (size 9 to 14) (size 15 to 20)
#    0.000    1.714    0.000    5.571    0.000    5.143 
#    0.000    2.857    0.000    0.000    0.000    0.000 
#    0.000    0.000    0.000    0.000    0.000    0.000 
#
# Total GULP energy -156457.152182 kJ/mol
# GULP energy per Si atom -5587.755435 kJ/mol
# Density = 1.809181 g / cm^3
# Si number density = 18.133078 Si / 1000 Ang^3
#
#
#
# Elastic Constant Matrix: (Units=GPa)
#
#
# Indices 1 2 3 4 5 6 
#
# 1 109.6482 67.4742 67.7902 0.0000 0.0000 0.0000
# 2 67.4742 137.9612 102.8735 0.0000 0.0000 0.0000
# 3 67.7902 102.8735 118.7851 0.0000 0.0000 0.0000
# 4 0.0000 0.0000 0.0000 18.4044 0.0000 0.0000
# 5 0.0000 0.0000 0.0000 0.0000 59.2100 0.0000
# 6 0.0000 0.0000 0.0000 0.0000 0.0000 36.0477
#
#
#
# Elastic Compliance Matrix: (Units=1/GPa)
#
#
# Indices 1 2 3 4 5 6 
#
# 1 0.014412 -0.002585 -0.005986 0.000000 0.000000 0.000000
# 2 -0.002585 0.020927 -0.016649 0.000000 0.000000 0.000000
# 3 -0.005986 -0.016649 0.026253 0.000000 0.000000 0.000000
# 4 0.000000 0.000000 0.000000 0.054335 0.000000 0.000000
# 5 0.000000 0.000000 0.000000 0.000000 0.016889 0.000000
# 6 0.000000 0.000000 0.000000 0.000000 0.000000 0.027741
#
#
# Mechanical properties :
#
#
# Convention : Reuss Voigt Hill
#
# Bulk Modulus (GPa) = 89.66307 93.63001 91.64654
# Shear Modulus (GPa) = 23.28690 31.28286 27.28488
#
# Velocity S-wave (km/s) = 3.58749 4.15804 3.88326
# Velocity P-wave (km/s) = 8.16791 8.64866 8.41172
#
# Compressibility (1/GPa) = 0.01115286
#
# Stress axis : x y z
#
# Youngs Moduli (GPa) = 69.38863 47.78536 38.09057
#
# Poissons Ratio (x) = 0.12352 0.22801
# Poissons Ratio (y) = 0.17936 0.63415
# Poissons Ratio (z) = 0.41537 0.79556
#
# Static dielectric constant tensor:
#      x y z
#    x 1.604410 0.000000 0.000000 
#    y 0.000000 1.582650 0.000000 
#    z 0.000000 0.000000 1.626390 
# 
# From -- ./inp_files/6708.got.cif
#   From: 2010.05.17/outbox.cif.g08.bks.cpg/sg28_4_cif.got.tgz:6708.got - 2010.06.04 01:15:21.
