data_PCOD9339773
_publ_section_title
;
Structure prediction by ZEFSAII (Michael W. Deem and Ramdas Pophale) SiO2 
 PCOD9339773
Probable space group: P M A 2
;
_chemical_formula_sum "Si O2"
_cell_formula_units_Z 24
_cell_length_a 17.151600
_cell_length_b 7.212570
_cell_length_c 7.890417
_cell_angle_alpha 90.000000
_cell_angle_beta 90.000000
_cell_angle_gamma 90.000000
_cell_volume 976.100728
_symmetry_space_group_name_H-M "P M A 2"
_symmetry_group_IT_number 28
_symmetry_cell_setting 'orthorhombic'
loop_
_space_group_symop_operation_xyz
x,y,z
-x,-y,z
1/2-x,y,z
1/2+x,-y,z
loop_
_atom_site_type_symbol
_atom_site_label
_atom_site_fract_x
_atom_site_fract_y
_atom_site_fract_z
Si Si1 0.337874 0.777771 0.782310
Si Si2 0.384139 0.634725 0.408803
Si Si3 0.005413 0.217866 0.852732
Si Si4 0.665756 0.824564 0.934496
Si Si5 0.332498 0.980334 0.296216
Si Si6 0.945823 0.751289 0.459340
O O1 0.250000 0.723697 0.834998
O O2 0.352751 0.711224 0.589839
O O3 0.417408 0.711068 0.876022
O O4 0.339795 0.003176 0.801249
O O5 0.337681 0.759176 0.277046
O O6 0.473580 0.693569 0.372764
O O7 0.384870 0.414223 0.422007
O O8 0.027550 0.239963 0.654481
O O9 0.085270 0.288867 0.935885
O O10 0.000000 0.000000 0.899241
O O11 0.750000 0.731113 0.906536
O O12 0.667325 0.924801 0.115044
O O13 0.250000 0.025873 0.382483
O O14 0.405114 0.062259 0.399117
#
# Coordination Sequence:
#
# PCOD9339773 Si02
#       6
#     4   4   4   4   4   4
#     4   9  17  32  53  77 107 142 183 230 280 333
#     4  10  21  37  58  84 115 151 192 240 290 345
#     4   9  17  32  56  83 109 145 189 235 283 335
#     4   9  19  34  53  81 115 153 194 235 287 345
#     4  11  22  36  57  84 117 153 189 238 295 349
#     4  10  21  37  58  85 114 149 195 239 287 350
#
# _framework density 24.587626
#
# number of rings (size 3 to 8) (size 9 to 14) (size 15 to 20)
#    0.000    2.333    0.000    4.000    0.000    7.333 
#    0.000    1.667    0.000    8.000    0.000    0.000 
#    0.000    0.000    0.000    0.000    0.000    0.000 
#
# Total GULP energy -133818.967399 kJ/mol
# GULP energy per Si atom -5575.790308 kJ/mol
# Density = 2.453166 g / cm^3
# Si number density = 24.587626 Si / 1000 Ang^3
#
#
#
# Elastic Constant Matrix: (Units=GPa)
#
#
# Indices 1 2 3 4 5 6 
#
# 1 235.5552 26.0305 20.9988 0.0000 0.0000 0.0000
# 2 26.0305 104.1754 -1.6703 0.0000 0.0000 0.0000
# 3 20.9988 -1.6703 23.7345 0.0000 0.0000 0.0000
# 4 0.0000 0.0000 0.0000 -2.3643 0.0000 0.0000
# 5 0.0000 0.0000 0.0000 0.0000 17.7457 0.0000
# 6 0.0000 0.0000 0.0000 0.0000 0.0000 5.0103
#
#
#
# Elastic Compliance Matrix: (Units=1/GPa)
#
#
# Indices 1 2 3 4 5 6 
#
# 1 0.004769 -0.001261 -0.004308 0.000000 0.000000 0.000000
# 2 -0.001261 0.009943 0.001815 0.000000 0.000000 0.000000
# 3 -0.004308 0.001815 0.046072 0.000000 0.000000 0.000000
# 4 0.000000 0.000000 0.000000 -0.422955 0.000000 0.000000
# 5 0.000000 0.000000 0.000000 0.000000 0.056352 0.000000
# 6 0.000000 0.000000 0.000000 0.000000 0.000000 0.199587
#
#
# Mechanical properties :
#
#
# Convention : Reuss Voigt Hill
#
# Bulk Modulus (GPa) = 18.76976 50.46477 34.61727
# Shear Modulus (GPa) = -61.75382 25.28541 -18.23421
#
# Velocity S-wave (km/s) = -5.01700 3.21031 -2.72619
# Velocity P-wave (km/s) = 5.09019 5.85752 2.04945
#
# Compressibility (1/GPa) = 0.05327718
#
# Stress axis : x y z
#
# Youngs Moduli (GPa) = 209.70483 100.57036 21.70528
#
# Poissons Ratio (x) = 0.12678 0.09350
# Poissons Ratio (y) = 0.26436 -0.03940
# Poissons Ratio (z) = 0.90334 -0.18254
#
# Static dielectric constant tensor:
#      x y z
#    x 2.061880 0.000000 0.000000 
#    y 0.000000 1.949180 0.000000 
#    z 0.000000 0.000000 1.944910 
# 
# From -- ./inp_files/3391.got.cif
#   From: 2010.05.17/outbox.cif.g08.bks.cpg/sg28_2_cif.got.tgz:3391.got - 2010.06.04 01:15:21.
