data_PCOD9339175
_publ_section_title
;
Structure prediction by ZEFSAII (Michael W. Deem and Ramdas Pophale) SiO2 
 PCOD9339175
Probable space group: P C C 2
;
_chemical_formula_sum "Si O2"
_cell_formula_units_Z 20
_cell_length_a 10.810182
_cell_length_b 9.333457
_cell_length_c 8.816298
_cell_angle_alpha 90.000000
_cell_angle_beta 90.000000
_cell_angle_gamma 90.000000
_cell_volume 889.532455
_symmetry_space_group_name_H-M "P C C 2"
_symmetry_group_IT_number 27
_symmetry_cell_setting 'orthorhombic'
loop_
_space_group_symop_operation_xyz
x,y,z
-x,-y,z
-x,y,1/2+z
x,-y,1/2+z
loop_
_atom_site_type_symbol
_atom_site_label
_atom_site_fract_x
_atom_site_fract_y
_atom_site_fract_z
Si Si1 0.751721 0.142374 0.758060
Si Si2 0.262475 0.668365 0.185262
Si Si3 0.299525 0.631799 0.528515
Si Si4 0.459031 0.164262 0.510834
Si Si5 0.125446 0.084098 0.563846
O O1 0.773362 0.282884 0.658820
O O2 0.626202 0.164034 0.857405
O O3 0.767661 0.016565 0.635770
O O4 0.850385 0.103413 0.886347
O O5 0.246041 0.632792 0.360219
O O6 0.301540 0.529743 0.088461
O O7 0.142904 0.757692 0.131563
O O8 0.375415 0.775919 0.148089
O O9 0.426359 0.724211 0.508513
O O10 0.500000 0.000000 0.531808
O O11 0.000000 0.000000 0.590998
#
# Coordination Sequence:
#
# PCOD9339175 Si02
#       5
#     4   4   4   4   4
#     4  11  24  41  67 101 138 181 236 287 345 423
#     4  11  24  41  65  98 139 185 234 284 349 422
#     4  12  24  42  65  99 145 185 225 286 353 428
#     4  11  23  40  64 100 143 189 233 282 348 425
#     4  11  23  44  71 100 134 180 237 299 350 398
#
# _framework density 22.483722
#
# number of rings (size 3 to 8) (size 9 to 14) (size 15 to 20)
#    0.000    0.800    0.000    9.600    0.000    4.800 
#    0.000    2.000    0.000    7.200    0.000    0.000 
#    0.000    0.000    0.000    0.000    0.000    0.000 
#
# Total GULP energy -111692.886284 kJ/mol
# GULP energy per Si atom -5584.644314 kJ/mol
# Density = 2.243255 g / cm^3
# Si number density = 22.483722 Si / 1000 Ang^3
#
#
#
# Elastic Constant Matrix: (Units=GPa)
#
#
# Indices 1 2 3 4 5 6 
#
# 1 82.5201 61.5188 41.4310 0.0000 0.0000 0.0000
# 2 61.5188 162.5419 33.2793 0.0000 0.0000 0.0000
# 3 41.4310 33.2793 138.9562 0.0000 0.0000 0.0000
# 4 0.0000 0.0000 0.0000 34.4625 0.0000 0.0000
# 5 0.0000 0.0000 0.0000 0.0000 -3.1052 0.0000
# 6 0.0000 0.0000 0.0000 0.0000 0.0000 29.6258
#
#
#
# Elastic Compliance Matrix: (Units=1/GPa)
#
#
# Indices 1 2 3 4 5 6 
#
# 1 0.018888 -0.006305 -0.004122 0.000000 0.000000 0.000000
# 2 -0.006305 0.008574 -0.000174 0.000000 0.000000 0.000000
# 3 -0.004122 -0.000174 0.008467 0.000000 0.000000 0.000000
# 4 0.000000 0.000000 0.000000 0.029017 0.000000 0.000000
# 5 0.000000 0.000000 0.000000 0.000000 -0.322036 0.000000
# 6 0.000000 0.000000 0.000000 0.000000 0.000000 0.033754
#
#
# Mechanical properties :
#
#
# Convention : Reuss Voigt Hill
#
# Bulk Modulus (GPa) = 67.89400 72.94183 70.41791
# Shear Modulus (GPa) = -25.35162 28.71590 1.68214
#
# Velocity S-wave (km/s) = -3.36155 3.57765 0.86590
# Velocity P-wave (km/s) = 3.89818 7.04121 5.69098
#
# Compressibility (1/GPa) = 0.01472884
#
# Stress axis : x y z
#
# Youngs Moduli (GPa) = 52.94416 116.63117 118.10582
#
# Poissons Ratio (x) = 0.73533 0.48679
# Poissons Ratio (y) = 0.33380 0.02050
# Poissons Ratio (z) = 0.21821 0.02025
#
# Static dielectric constant tensor:
#      x y z
#    x 1.965490 0.000000 0.000000 
#    y 0.000000 1.847030 0.000000 
#    z 0.000000 0.000000 1.836470 
# 
# From -- ./inp_files/1042.got.cif
#   From: 2010.05.17/outbox.cif.g08.bks.cpg/sg27_1_cif.got.tgz:1042.got - 2010.06.04 01:11:05.
