data_PCOD9339523
_publ_section_title
;
Structure prediction by ZEFSAII (Michael W. Deem and Ramdas Pophale) SiO2 
 PCOD9339523
Probable space group: P M A 2
;
_chemical_formula_sum "Si O2"
_cell_formula_units_Z 32
_cell_length_a 8.431750
_cell_length_b 9.754465
_cell_length_c 21.479202
_cell_angle_alpha 90.000000
_cell_angle_beta 90.000000
_cell_angle_gamma 90.000000
_cell_volume 1766.604443
_symmetry_space_group_name_H-M "P M A 2"
_symmetry_group_IT_number 28
_symmetry_cell_setting 'orthorhombic'
loop_
_space_group_symop_operation_xyz
x,y,z
-x,-y,z
1/2-x,y,z
1/2+x,-y,z
loop_
_atom_site_type_symbol
_atom_site_label
_atom_site_fract_x
_atom_site_fract_y
_atom_site_fract_z
Si Si1 0.059239 0.157118 0.296440
Si Si2 0.942115 0.843626 0.023945
Si Si3 0.059633 0.154271 0.519014
Si Si4 0.061546 0.655545 0.408822
Si Si5 0.558272 0.655200 0.910741
Si Si6 0.058392 0.345318 0.771791
Si Si7 0.558505 0.847082 0.660526
Si Si8 0.058949 0.156526 0.159549
O O1 0.250000 0.154052 0.298739
O O2 0.007558 0.209371 0.227389
O O3 0.997413 0.256279 0.349908
O O4 0.000000 0.000000 0.304504
O O5 0.750000 0.845149 0.022907
O O6 0.992707 0.786585 0.092232
O O7 0.998690 0.752301 0.966348
O O8 0.000000 0.000000 0.018282
O O9 0.250000 0.152836 0.516554
O O10 0.008490 0.188516 0.589917
O O11 0.996714 0.263457 0.469912
O O12 0.000000 0.000000 0.504750
O O13 0.250000 0.652966 0.408549
O O14 0.000000 0.500000 0.407208
O O15 0.500000 0.500000 0.919311
O O16 0.750000 0.654615 0.911991
O O17 0.508486 0.701496 0.841206
O O18 0.250000 0.344581 0.770730
O O19 0.000704 0.252924 0.714793
O O20 0.000000 0.500000 0.764137
O O21 0.750000 0.845863 0.661030
O O22 0.500000 0.000000 0.673110
O O23 0.250000 0.158682 0.159812
O O24 0.000000 0.000000 0.158841
#
# Coordination Sequence:
#
# PCOD9339523 Si02
#       8
#     4   4   4   4   4   4   4   4
#     4  10  19  34  56  80 104 135 172 210 251 302
#     4   9  17  30  48  73 101 130 164 207 252 295
#     4  10  20  37  58  80 105 136 171 208 249 300
#     4  12  25  40  56  77 105 136 169 210 255 302
#     4   9  18  32  49  68  97 133 170 208 248 295
#     4   9  18  33  50  71  98 132 170 208 248 295
#     4   9  19  34  53  77 105 132 164 205 249 294
#     4   8  15  28  48  72 100 130 164 204 247 293
#
# _framework density 18.113845000000001
#
# number of rings (size 3 to 8) (size 9 to 14) (size 15 to 20)
#    0.000    2.500    0.000    2.250    0.000    3.000 
#    0.000    1.875    0.000    1.500    0.000    0.000 
#    0.000    0.000    0.000    0.000    0.000    0.000 
#
# Total GULP energy -178378.310431 kJ/mol
# GULP energy per Si atom -5574.322201 kJ/mol
# Density = 1.807262 g / cm^3
# Si number density = 18.113845 Si / 1000 Ang^3
#
#
#
# Elastic Constant Matrix: (Units=GPa)
#
#
# Indices 1 2 3 4 5 6 
#
# 1 35.5622 24.6016 36.7280 0.0000 0.0000 0.0000
# 2 24.6016 98.1207 115.6491 0.0000 0.0000 0.0000
# 3 36.7280 115.6491 209.1702 0.0000 0.0000 0.0000
# 4 0.0000 0.0000 0.0000 -24.3921 0.0000 0.0000
# 5 0.0000 0.0000 0.0000 0.0000 -8.2776 0.0000
# 6 0.0000 0.0000 0.0000 0.0000 0.0000 29.1633
#
#
#
# Elastic Compliance Matrix: (Units=1/GPa)
#
#
# Indices 1 2 3 4 5 6 
#
# 1 0.034997 -0.004398 -0.003714 0.000000 0.000000 0.000000
# 2 -0.004398 0.029810 -0.015710 0.000000 0.000000 0.000000
# 3 -0.003714 -0.015710 0.014119 0.000000 0.000000 0.000000
# 4 0.000000 0.000000 0.000000 -0.040997 0.000000 0.000000
# 5 0.000000 0.000000 0.000000 0.000000 -0.120809 0.000000
# 6 0.000000 0.000000 0.000000 0.000000 0.000000 0.034290
#
#
# Mechanical properties :
#
#
# Convention : Reuss Voigt Hill
#
# Bulk Modulus (GPa) = 31.96508 77.42338 54.69423
# Shear Modulus (GPa) = 527.35710 10.35704 268.85707
#
# Velocity S-wave (km/s) = 17.08118 2.39378 12.19625
# Velocity P-wave (km/s) = 20.16699 7.10462 15.11925
#
# Compressibility (1/GPa) = 0.03128414
#
# Stress axis : x y z
#
# Youngs Moduli (GPa) = 28.57351 33.54531 70.82778
#
# Poissons Ratio (x) = 0.14752 0.26303
# Poissons Ratio (y) = 0.12566 1.11269
# Poissons Ratio (z) = 0.10611 0.52699
#
# Static dielectric constant tensor:
#      x y z
#    x 1.611660 0.000000 0.000000 
#    y 0.000000 1.627160 0.000000 
#    z 0.000000 0.000000 1.675510 
# 
# From -- ./inp_files/7055.got.cif
#   From: 2010.05.17/outbox.cif.g08.bks.cpg/sg28_4_cif.got.tgz:7055.got - 2010.06.04 01:15:21.
