data_PCOD9339047
_publ_section_title
;
Structure prediction by ZEFSAII (Michael W. Deem and Ramdas Pophale) SiO2 
 PCOD9339047
Probable space group: P C C 2
;
_chemical_formula_sum "Si O2"
_cell_formula_units_Z 20
_cell_length_a 5.098144
_cell_length_b 13.361889
_cell_length_c 12.862355
_cell_angle_alpha 90.000000
_cell_angle_beta 90.000000
_cell_angle_gamma 90.000000
_cell_volume 876.194353
_symmetry_space_group_name_H-M "P C C 2"
_symmetry_group_IT_number 27
_symmetry_cell_setting 'orthorhombic'
loop_
_space_group_symop_operation_xyz
x,y,z
-x,-y,z
-x,y,1/2+z
x,-y,1/2+z
loop_
_atom_site_type_symbol
_atom_site_label
_atom_site_fract_x
_atom_site_fract_y
_atom_site_fract_z
Si Si1 0.635869 0.273646 0.292810
Si Si2 0.372542 0.108612 0.166130
Si Si3 0.755540 0.064198 0.896007
Si Si4 0.099136 0.613513 0.855156
Si Si5 0.940583 0.778588 0.989351
O O1 0.575983 0.193720 0.204117
O O2 0.390637 0.347620 0.321992
O O3 0.732263 0.210837 0.393778
O O4 0.898026 0.336570 0.272437
O O5 0.219033 0.087965 0.274010
O O6 0.500000 0.000000 0.137304
O O7 0.188712 0.166635 0.085792
O O8 0.792983 0.163856 0.960935
O O9 0.500000 0.000000 0.909249
O O10 0.000000 0.000000 0.931639
O O11 0.000000 0.500000 0.858940
O O12 0.022565 0.663400 0.967609
#
# Coordination Sequence:
#
# PCOD9339047 Si02
#       5
#     4   4   4   4   4
#     4  10  22  45  71 101 144 175 240 294 347 433
#     4  11  23  45  70 107 145 186 232 283 352 437
#     4  11  24  44  65  96 146 183 233 285 342 423
#     4  10  22  46  75  96 138 185 235 301 364 407
#     4  10  24  43  72 100 143 189 237 290 361 424
#
# _framework density 22.825987000000001
#
# number of rings (size 3 to 8) (size 9 to 14) (size 15 to 20)
#    1.200    0.400    2.000    3.000    0.000    4.000 
#   14.400    2.000    4.400    0.000    0.000    0.000 
#    0.000    0.000    0.000    0.000    0.000    0.000 
#
# Total GULP energy -111446.318845 kJ/mol
# GULP energy per Si atom -5572.315942 kJ/mol
# Density = 2.277403 g / cm^3
# Si number density = 22.825987 Si / 1000 Ang^3
#
#
#
# Elastic Constant Matrix: (Units=GPa)
#
#
# Indices 1 2 3 4 5 6 
#
# 1 137.9953 36.1595 16.9894 0.0000 0.0000 0.0000
# 2 36.1595 147.5868 18.9168 0.0000 0.0000 0.0000
# 3 16.9894 18.9168 82.8824 0.0000 0.0000 0.0000
# 4 0.0000 0.0000 0.0000 15.5059 0.0000 0.0000
# 5 0.0000 0.0000 0.0000 0.0000 28.9792 0.0000
# 6 0.0000 0.0000 0.0000 0.0000 0.0000 32.5751
#
#
#
# Elastic Compliance Matrix: (Units=1/GPa)
#
#
# Indices 1 2 3 4 5 6 
#
# 1 0.007859 -0.001771 -0.001207 0.000000 0.000000 0.000000
# 2 -0.001771 0.007379 -0.001321 0.000000 0.000000 0.000000
# 3 -0.001207 -0.001321 0.012614 0.000000 0.000000 0.000000
# 4 0.000000 0.000000 0.000000 0.064492 0.000000 0.000000
# 5 0.000000 0.000000 0.000000 0.000000 0.034508 0.000000
# 6 0.000000 0.000000 0.000000 0.000000 0.000000 0.030698
#
#
# Mechanical properties :
#
#
# Convention : Reuss Voigt Hill
#
# Bulk Modulus (GPa) = 51.93550 56.95510 54.44530
# Shear Modulus (GPa) = 28.97449 35.17195 32.07322
#
# Velocity S-wave (km/s) = 3.56668 3.92965 3.75256
# Velocity P-wave (km/s) = 6.30585 6.75245 6.53297
#
# Compressibility (1/GPa) = 0.01925465
#
# Stress axis : x y z
#
# Youngs Moduli (GPa) = 127.23897 135.52187 79.27580
#
# Poissons Ratio (x) = 0.23999 0.09567
# Poissons Ratio (y) = 0.22532 0.10473
# Poissons Ratio (z) = 0.15355 0.17904
#
# Static dielectric constant tensor:
#      x y z
#    x 2.039330 0.000000 0.000000 
#    y 0.000000 1.952820 0.000000 
#    z 0.000000 0.000000 1.909050 
# 
# From -- ./inp_files/1936.got.cif
#   From: 2010.05.17/outbox.cif.g08.bks.cpg/sg27_1_cif.got.tgz:1936.got - 2010.06.04 01:11:05.
