data_PCOD9339601
_publ_section_title
;
Structure prediction by ZEFSAII (Michael W. Deem and Ramdas Pophale) SiO2 
 PCOD9339601
Probable space group: P M A 2
;
_chemical_formula_sum "Si O2"
_cell_formula_units_Z 32
_cell_length_a 15.768383
_cell_length_b 8.756238
_cell_length_c 11.135252
_cell_angle_alpha 90.000000
_cell_angle_beta 90.000000
_cell_angle_gamma 90.000000
_cell_volume 1537.463334
_symmetry_space_group_name_H-M "P M A 2"
_symmetry_group_IT_number 28
_symmetry_cell_setting 'orthorhombic'
loop_
_space_group_symop_operation_xyz
x,y,z
-x,-y,z
1/2-x,y,z
1/2+x,-y,z
loop_
_atom_site_type_symbol
_atom_site_label
_atom_site_fract_x
_atom_site_fract_y
_atom_site_fract_z
Si Si1 0.839683 0.429863 0.812470
Si Si2 0.020662 0.169660 0.453155
Si Si3 0.154874 0.662326 0.395492
Si Si4 0.346496 0.146321 0.239753
Si Si5 0.094330 0.428214 0.576168
Si Si6 0.158840 0.284663 0.982518
Si Si7 0.479113 0.680047 0.952038
Si Si8 0.345314 0.798284 0.141183
O O1 0.750000 0.347840 0.802673
O O2 0.854710 0.529362 0.694306
O O3 0.835343 0.545295 0.926340
O O4 0.921564 0.327629 0.833718
O O5 0.077265 0.175251 0.331707
O O6 0.076814 0.253049 0.552268
O O7 0.928471 0.246284 0.436620
O O8 0.000000 0.000000 0.486063
O O9 0.250000 0.717797 0.430566
O O10 0.140020 0.500222 0.459172
O O11 0.152434 0.679527 0.252111
O O12 0.250000 0.157767 0.290450
O O13 0.355257 0.971088 0.191747
O O14 0.349884 0.260794 0.125686
O O15 0.000000 0.500000 0.585671
O O16 0.250000 0.210418 0.950971
O O17 0.067543 0.232931 0.934642
O O18 0.500000 0.500000 0.982513
O O19 0.420316 0.755954 0.051983
O O20 0.250000 0.789209 0.087636
#
# Coordination Sequence:
#
# PCOD9339601 Si02
#       8
#     4   4   4   4   4   4   4   4
#     4  10  20  38  60  83 114 152 198 252 301 356
#     4  11  22  38  63  90 123 162 206 251 308 377
#     4  10  21  37  57  88 124 159 199 253 309 366
#     4  10  21  37  58  85 122 161 202 251 311 376
#     4  10  22  38  60  84 117 158 205 253 304 363
#     4   9  19  33  55  82 111 150 193 241 295 355
#     4  10  20  33  55  81 113 148 191 240 299 360
#     4  10  20  35  56  83 119 156 197 250 309 372
#
# _framework density 20.813504999999999
#
# number of rings (size 3 to 8) (size 9 to 14) (size 15 to 20)
#    0.000    2.000    1.250    2.625    0.000    5.000 
#    0.000    5.000   11.000    0.000    0.000    0.000 
#    0.000    0.000    0.000    0.000    0.000    0.000 
#
# Total GULP energy -178239.351881 kJ/mol
# GULP energy per Si atom -5569.979746 kJ/mol
# Density = 2.076613 g / cm^3
# Si number density = 20.813505 Si / 1000 Ang^3
#
#
#
# Elastic Constant Matrix: (Units=GPa)
#
#
# Indices 1 2 3 4 5 6 
#
# 1 191.7740 25.2074 32.5602 0.0000 0.0000 0.0000
# 2 25.2074 46.9899 23.8662 0.0000 0.0000 0.0000
# 3 32.5602 23.8662 47.1823 0.0000 0.0000 0.0000
# 4 0.0000 0.0000 0.0000 17.1412 0.0000 0.0000
# 5 0.0000 0.0000 0.0000 0.0000 46.0550 0.0000
# 6 0.0000 0.0000 0.0000 0.0000 0.0000 29.2136
#
#
#
# Elastic Compliance Matrix: (Units=1/GPa)
#
#
# Indices 1 2 3 4 5 6 
#
# 1 0.005984 -0.001497 -0.003372 0.000000 0.000000 0.000000
# 2 -0.001497 0.029013 -0.013643 0.000000 0.000000 0.000000
# 3 -0.003372 -0.013643 0.030422 0.000000 0.000000 0.000000
# 4 0.000000 0.000000 0.000000 0.058339 0.000000 0.000000
# 5 0.000000 0.000000 0.000000 0.000000 0.021713 0.000000
# 6 0.000000 0.000000 0.000000 0.000000 0.000000 0.034231
#
#
# Mechanical properties :
#
#
# Convention : Reuss Voigt Hill
#
# Bulk Modulus (GPa) = 35.21661 49.91264 42.56463
# Shear Modulus (GPa) = 22.10518 32.10278 27.10398
#
# Velocity S-wave (km/s) = 3.26246 3.93160 3.61256
# Velocity P-wave (km/s) = 5.58107 6.68154 6.15594
#
# Compressibility (1/GPa) = 0.02839569
#
# Stress axis : x y z
#
# Youngs Moduli (GPa) = 167.11796 34.46674 32.87079
#
# Poissons Ratio (x) = 0.05161 0.11084
# Poissons Ratio (y) = 0.25023 0.44844
# Poissons Ratio (z) = 0.56352 0.47021
#
# Static dielectric constant tensor:
#      x y z
#    x 1.814950 0.000000 0.000000 
#    y 0.000000 1.761220 0.000000 
#    z 0.000000 0.000000 1.747970 
# 
# From -- ./inp_files/5645.got.cif
#   From: 2010.05.17/outbox.cif.g08.bks.cpg/sg28_3_cif.got.tgz:5645.got - 2010.06.04 01:15:21.
