data_PCOD9339383
_publ_section_title
;
Structure prediction by ZEFSAII (Michael W. Deem and Ramdas Pophale) SiO2 
 PCOD9339383
Probable space group: P M A 2
;
_chemical_formula_sum "Si O2"
_cell_formula_units_Z 32
_cell_length_a 9.679958
_cell_length_b 30.274235
_cell_length_c 5.457959
_cell_angle_alpha 90.000000
_cell_angle_beta 90.000000
_cell_angle_gamma 90.000000
_cell_volume 1599.473023
_symmetry_space_group_name_H-M "P M A 2"
_symmetry_group_IT_number 28
_symmetry_cell_setting 'orthorhombic'
loop_
_space_group_symop_operation_xyz
x,y,z
-x,-y,z
1/2-x,y,z
1/2+x,-y,z
loop_
_atom_site_type_symbol
_atom_site_label
_atom_site_fract_x
_atom_site_fract_y
_atom_site_fract_z
Si Si1 0.402296 0.827079 0.865210
Si Si2 0.902924 0.871686 0.184321
Si Si3 0.916901 0.402706 0.114448
Si Si4 0.414911 0.743968 0.557049
Si Si5 0.417964 0.545860 0.613537
Si Si6 0.402355 0.914082 0.570299
Si Si7 0.919173 0.301357 0.060095
Si Si8 0.404745 0.035834 0.896781
O O1 0.250000 0.813197 0.968779
O O2 0.431154 0.794833 0.637805
O O3 0.386835 0.877851 0.784770
O O4 0.534875 0.830219 0.038087
O O5 0.750000 0.862876 0.287885
O O6 0.020582 0.885521 0.370260
O O7 0.889897 0.917040 0.028270
O O8 0.750000 0.401577 0.116448
O O9 0.956304 0.426627 0.368272
O O10 0.963059 0.351876 0.101827
O O11 0.954949 0.428511 0.865355
O O12 0.250000 0.736316 0.546244
O O13 0.466163 0.728100 0.292468
O O14 0.465762 0.716748 0.795350
O O15 0.500000 0.500000 0.608680
O O16 0.250000 0.539609 0.611726
O O17 0.250000 0.929174 0.495751
O O18 0.504814 0.952020 0.658734
O O19 0.750000 0.300479 0.054465
O O20 0.250000 0.018863 0.851895
O O21 0.500000 0.000000 0.034326
#
# Coordination Sequence:
#
# PCOD9339383 Si02
#       8
#     4   4   4   4   4   4   4   4
#     4   9  19  33  51  76 104 134 166 213 265 314
#     4  10  21  36  54  76 103 137 175 215 260 315
#     4   9  17  29  46  69 103 138 170 215 272 324
#     4   9  17  27  45  73 106 134 169 217 269 323
#     4  10  19  31  48  72 101 134 175 221 266 321
#     4  10  20  34  54  77 105 137 170 210 263 316
#     4   9  16  27  44  71 104 138 170 213 271 326
#     4  10  21  37  55  76 104 134 172 214 257 313
#
# _framework density 20.006589000000002
#
# number of rings (size 3 to 8) (size 9 to 14) (size 15 to 20)
#    0.000    2.500    0.000    2.250    1.750    5.500 
#    0.000    1.250    0.000    0.000    0.000    5.250 
#    0.000    0.000    0.000    0.000    0.000    0.000 
#
# Total GULP energy -178181.512303 kJ/mol
# GULP energy per Si atom -5568.172259 kJ/mol
# Density = 1.996105 g / cm^3
# Si number density = 20.006589 Si / 1000 Ang^3
#
#
#
# Elastic Constant Matrix: (Units=GPa)
#
#
# Indices 1 2 3 4 5 6 
#
# 1 88.4777 16.8412 19.3940 0.0000 0.0000 0.0000
# 2 16.8412 95.7472 24.2825 0.0000 0.0000 0.0000
# 3 19.3940 24.2825 84.4179 0.0000 0.0000 0.0000
# 4 0.0000 0.0000 0.0000 22.1299 0.0000 0.0000
# 5 0.0000 0.0000 0.0000 0.0000 10.1531 0.0000
# 6 0.0000 0.0000 0.0000 0.0000 0.0000 17.8805
#
#
#
# Elastic Compliance Matrix: (Units=1/GPa)
#
#
# Indices 1 2 3 4 5 6 
#
# 1 0.012108 -0.001536 -0.002340 0.000000 0.000000 0.000000
# 2 -0.001536 0.011461 -0.002944 0.000000 0.000000 0.000000
# 3 -0.002340 -0.002944 0.013230 0.000000 0.000000 0.000000
# 4 0.000000 0.000000 0.000000 0.045188 0.000000 0.000000
# 5 0.000000 0.000000 0.000000 0.000000 0.098492 0.000000
# 6 0.000000 0.000000 0.000000 0.000000 0.000000 0.055927
#
#
# Mechanical properties :
#
#
# Convention : Reuss Voigt Hill
#
# Bulk Modulus (GPa) = 43.17934 43.29758 43.23846
# Shear Modulus (GPa) = 19.39755 23.90771 21.65263
#
# Velocity S-wave (km/s) = 3.11715 3.46062 3.29336
# Velocity P-wave (km/s) = 5.88089 6.13649 6.01005
#
# Compressibility (1/GPa) = 0.02315923
#
# Stress axis : x y z
#
# Youngs Moduli (GPa) = 82.59316 87.25270 75.58518
#
# Poissons Ratio (x) = 0.13404 0.17684
# Poissons Ratio (y) = 0.12688 0.22251
# Poissons Ratio (z) = 0.19324 0.25685
#
# Static dielectric constant tensor:
#      x y z
#    x 1.722600 0.000000 0.000000 
#    y 0.000000 1.742580 0.000000 
#    z 0.000000 0.000000 1.794230 
# 
# From -- ./inp_files/236.got.cif
#   From: 2010.05.17/outbox.cif.g08.bks.cpg/sg28_1_cif.got.tgz:236.got - 2010.06.04 01:15:21.
