data_PCOD9339921
_publ_section_title
;
Structure prediction by ZEFSAII (Michael W. Deem and Ramdas Pophale) SiO2 
 PCOD9339921
Probable space group: P M A 2
;
_chemical_formula_sum "Si O2"
_cell_formula_units_Z 20
_cell_length_a 15.856628
_cell_length_b 10.631532
_cell_length_c 4.767898
_cell_angle_alpha 90.000000
_cell_angle_beta 90.000000
_cell_angle_gamma 90.000000
_cell_volume 803.773427
_symmetry_space_group_name_H-M "P M A 2"
_symmetry_group_IT_number 28
_symmetry_cell_setting 'orthorhombic'
loop_
_space_group_symop_operation_xyz
x,y,z
-x,-y,z
1/2-x,y,z
1/2+x,-y,z
loop_
_atom_site_type_symbol
_atom_site_label
_atom_site_fract_x
_atom_site_fract_y
_atom_site_fract_z
Si Si1 0.074577 0.282519 0.442600
Si Si2 0.153246 0.854310 0.157422
Si Si3 0.342578 0.400117 0.934402
Si Si4 0.556348 0.373293 0.885231
Si Si5 0.403914 0.008059 0.681642
O O1 0.142633 0.362725 0.613750
O O2 0.096072 0.140941 0.524063
O O3 0.987158 0.332334 0.588111
O O4 0.091345 0.315843 0.119386
O O5 0.250000 0.808531 0.172584
O O6 0.084017 0.755346 0.039700
O O7 0.151138 0.975664 0.951029
O O8 0.122117 0.903500 0.456242
O O9 0.500000 0.500000 0.961912
O O10 0.250000 0.366315 0.030594
O O11 0.356610 0.549145 0.922502
O O12 0.500000 0.000000 0.781430
#
# Coordination Sequence:
#
# PCOD9339921 Si02
#       5
#     4   4   4   4   4
#     4  11  25  45  72 106 139 191 246 293 354 443
#     4  12  27  46  73 110 147 186 241 307 365 421
#     4  11  25  45  73 105 146 187 236 303 364 422
#     4  10  25  45  72 104 139 192 239 291 351 437
#     4  12  26  46  75 103 143 194 240 293 362 443
#
# _framework density 24.882632999999998
#
# number of rings (size 3 to 8) (size 9 to 14) (size 15 to 20)
#    0.000    0.800    2.000    3.600    5.600   15.200 
#    0.000    6.000    0.000    0.000    0.000    0.000 
#    0.000    0.000    0.000    0.000    0.000    0.000 
#
# Total GULP energy -111471.870754 kJ/mol
# GULP energy per Si atom -5573.593538 kJ/mol
# Density = 2.482600 g / cm^3
# Si number density = 24.882633 Si / 1000 Ang^3
#
#
#
# Elastic Constant Matrix: (Units=GPa)
#
#
# Indices 1 2 3 4 5 6 
#
# 1 122.9891 20.2946 10.1996 0.0000 0.0000 0.0000
# 2 20.2946 90.9409 -14.9092 0.0000 0.0000 0.0000
# 3 10.1996 -14.9092 51.3284 0.0000 0.0000 0.0000
# 4 0.0000 0.0000 0.0000 20.3263 0.0000 0.0000
# 5 0.0000 0.0000 0.0000 0.0000 7.6101 0.0000
# 6 0.0000 0.0000 0.0000 0.0000 0.0000 15.0151
#
#
#
# Elastic Compliance Matrix: (Units=1/GPa)
#
#
# Indices 1 2 3 4 5 6 
#
# 1 0.008717 -0.002341 -0.002412 0.000000 0.000000 0.000000
# 2 -0.002341 0.012175 0.004001 0.000000 0.000000 0.000000
# 3 -0.002412 0.004001 0.021124 0.000000 0.000000 0.000000
# 4 0.000000 0.000000 0.000000 0.049197 0.000000 0.000000
# 5 0.000000 0.000000 0.000000 0.000000 0.131405 0.000000
# 6 0.000000 0.000000 0.000000 0.000000 0.000000 0.066599
#
#
# Mechanical properties :
#
#
# Convention : Reuss Voigt Hill
#
# Bulk Modulus (GPa) = 24.68360 32.93649 28.81004
# Shear Modulus (GPa) = 16.43524 25.23520 20.83522
#
# Velocity S-wave (km/s) = 2.57283 3.18806 2.89682
# Velocity P-wave (km/s) = 4.33214 5.17852 4.77413
#
# Compressibility (1/GPa) = 0.04051273
#
# Stress axis : x y z
#
# Youngs Moduli (GPa) = 114.71712 82.13869 47.33949
#
# Poissons Ratio (x) = 0.19227 0.11419
# Poissons Ratio (y) = 0.26853 -0.18943
# Poissons Ratio (z) = 0.27671 -0.32867
#
# Static dielectric constant tensor:
#      x y z
#    x 2.258630 0.000000 0.000000 
#    y 0.000000 2.037010 0.000000 
#    z 0.000000 0.000000 1.936140 
# 
# From -- ./inp_files/709.got.cif
#   From: 2010.05.17/outbox.cif.g08.bks.cpg/sg28_1_cif.got.tgz:709.got - 2010.06.04 01:15:21.
