data_PCOD9339073
_publ_section_title
;
Structure prediction by ZEFSAII (Michael W. Deem and Ramdas Pophale) SiO2 
 PCOD9339073
Probable space group: P C C 2
;
_chemical_formula_sum "Si O2"
_cell_formula_units_Z 20
_cell_length_a 8.162838
_cell_length_b 7.421435
_cell_length_c 14.742122
_cell_angle_alpha 90.000000
_cell_angle_beta 90.000000
_cell_angle_gamma 90.000000
_cell_volume 893.077333
_symmetry_space_group_name_H-M "P C C 2"
_symmetry_group_IT_number 27
_symmetry_cell_setting 'orthorhombic'
loop_
_space_group_symop_operation_xyz
x,y,z
-x,-y,z
-x,y,1/2+z
x,-y,1/2+z
loop_
_atom_site_type_symbol
_atom_site_label
_atom_site_fract_x
_atom_site_fract_y
_atom_site_fract_z
Si Si1 0.195527 0.521883 0.323830
Si Si2 0.187455 0.580878 0.123813
Si Si3 0.381951 0.164450 0.361740
Si Si4 0.353303 0.300672 0.000619
Si Si5 0.184542 0.946941 0.015595
O O1 0.223955 0.620951 0.228771
O O2 0.302564 0.336929 0.312279
O O3 0.247721 0.624917 0.414902
O O4 0.000000 0.500000 0.331443
O O5 0.202417 0.762681 0.068143
O O6 0.000000 0.500000 0.116617
O O7 0.316903 0.444198 0.078730
O O8 0.480747 0.254381 0.446716
O O9 0.226783 0.072724 0.409509
O O10 0.500000 0.000000 0.326224
O O11 0.297526 0.112389 0.044054
O O12 0.000000 0.000000 0.028338
#
# Coordination Sequence:
#
# PCOD9339073 Si02
#       5
#     4   4   4   4   4
#     4  11  23  43  70 103 142 192 238 294 360 433
#     4  11  23  42  70 101 138 184 240 288 352 431
#     4  10  23  43  68 104 139 187 236 290 365 427
#     4  11  22  44  68  97 141 180 232 294 354 421
#     4  11  21  40  70  97 129 183 238 287 351 420
#
# _framework density 22.394476000000001
#
# number of rings (size 3 to 8) (size 9 to 14) (size 15 to 20)
#    0.000    1.200    4.000    2.400    0.000    0.000 
#   14.400    2.000    0.000    0.000    0.000    0.000 
#    0.000    0.000    0.000    0.000    0.000    0.000 
#
# Total GULP energy -111511.453389 kJ/mol
# GULP energy per Si atom -5575.572669 kJ/mol
# Density = 2.234351 g / cm^3
# Si number density = 22.394476 Si / 1000 Ang^3
#
#
#
# Elastic Constant Matrix: (Units=GPa)
#
#
# Indices 1 2 3 4 5 6 
#
# 1 78.8755 22.1246 8.0412 0.0000 0.0000 0.0000
# 2 22.1246 119.2090 5.6321 0.0000 0.0000 0.0000
# 3 8.0412 5.6321 47.9922 0.0000 0.0000 0.0000
# 4 0.0000 0.0000 0.0000 13.4950 0.0000 0.0000
# 5 0.0000 0.0000 0.0000 0.0000 8.2788 0.0000
# 6 0.0000 0.0000 0.0000 0.0000 0.0000 22.2737
#
#
#
# Elastic Compliance Matrix: (Units=1/GPa)
#
#
# Indices 1 2 3 4 5 6 
#
# 1 0.013560 -0.002423 -0.001988 0.000000 0.000000 0.000000
# 2 -0.002423 0.008868 -0.000635 0.000000 0.000000 0.000000
# 3 -0.001988 -0.000635 0.021244 0.000000 0.000000 0.000000
# 4 0.000000 0.000000 0.000000 0.074102 0.000000 0.000000
# 5 0.000000 0.000000 0.000000 0.000000 0.120791 0.000000
# 6 0.000000 0.000000 0.000000 0.000000 0.000000 0.044896
#
#
# Mechanical properties :
#
#
# Convention : Reuss Voigt Hill
#
# Bulk Modulus (GPa) = 29.77763 35.29695 32.53729
# Shear Modulus (GPa) = 16.40710 22.82808 19.61759
#
# Velocity S-wave (km/s) = 2.70967 3.19621 2.96294
# Velocity P-wave (km/s) = 4.80786 5.42371 5.12504
#
# Compressibility (1/GPa) = 0.03358225
#
# Stress axis : x y z
#
# Youngs Moduli (GPa) = 73.74374 112.76132 47.07150
#
# Poissons Ratio (x) = 0.27320 0.09357
# Poissons Ratio (y) = 0.17867 0.02988
# Poissons Ratio (z) = 0.14659 0.07158
#
# Static dielectric constant tensor:
#      x y z
#    x 1.911910 0.000000 0.000000 
#    y 0.000000 1.927890 0.000000 
#    z 0.000000 0.000000 1.774350 
# 
# From -- ./inp_files/3266.got.cif
#   From: 2010.05.17/outbox.cif.g08.bks.cpg/sg27_2_cif.got.tgz:3266.got - 2010.06.04 01:11:05.
