data_PCOD9339042
_publ_section_title
;
Structure prediction by ZEFSAII (Michael W. Deem and Ramdas Pophale) SiO2 
 PCOD9339042
Probable space group: P C C 2
;
_chemical_formula_sum "Si O2"
_cell_formula_units_Z 22
_cell_length_a 5.016837
_cell_length_b 14.352029
_cell_length_c 12.086173
_cell_angle_alpha 90.000000
_cell_angle_beta 90.000000
_cell_angle_gamma 90.000000
_cell_volume 870.226092
_symmetry_space_group_name_H-M "P C C 2"
_symmetry_group_IT_number 27
_symmetry_cell_setting 'orthorhombic'
loop_
_space_group_symop_operation_xyz
x,y,z
-x,-y,z
-x,y,1/2+z
x,-y,1/2+z
loop_
_atom_site_type_symbol
_atom_site_label
_atom_site_fract_x
_atom_site_fract_y
_atom_site_fract_z
Si Si1 0.141598 0.857988 0.209890
Si Si2 0.000000 0.500000 0.724641
Si Si3 0.750503 0.642287 0.069793
Si Si4 0.609531 0.755141 0.267964
Si Si5 0.500000 0.500000 0.893594
Si Si6 0.000000 0.000000 0.850061
Si Si7 0.900586 0.804551 0.474679
O O1 0.313417 0.790689 0.285835
O O2 0.829864 0.829355 0.218937
O O3 0.240620 0.836240 0.087895
O O4 0.205125 0.958644 0.259599
O O5 0.018115 0.585275 0.636343
O O6 0.249670 0.508588 0.808841
O O7 0.585167 0.675734 0.176838
O O8 0.597048 0.580184 0.980090
O O9 0.869822 0.734248 0.013154
O O10 0.732492 0.743271 0.388693
O O11 0.954042 0.092470 0.921906
#
# Coordination Sequence:
#
# PCOD9339042 Si02
#       7
#     4   2   4   4   2   2   4
#     4  10  23  42  65 102 142 186 242 302 368 448
#     4  12  28  48  74 114 158 208 270 330 406 492
#     4  11  26  50  78 114 155 207 266 326 397 486
#     4  10  24  43  70 102 139 185 243 301 371 456
#     4  12  28  50  80 112 160 210 260 340 412 474
#     4  10  22  44  72 110 148 198 258 314 378 466
#     4  10  23  46  76 107 153 202 250 319 392 456
#
# _framework density 25.280785999999999
#
# number of rings (size 3 to 8) (size 9 to 14) (size 15 to 20)
#    0.000    1.455    0.000    2.727    0.000   21.818 
#    0.000    3.636    0.000    0.000    0.000    0.000 
#    0.000    0.000    0.000    0.000    0.000    0.000 
#
# Total GULP energy -122544.840533 kJ/mol
# GULP energy per Si atom -5570.220024 kJ/mol
# Density = 2.522325 g / cm^3
# Si number density = 25.280786 Si / 1000 Ang^3
#
#
#
# Elastic Constant Matrix: (Units=GPa)
#
#
# Indices 1 2 3 4 5 6 
#
# 1 107.6362 60.4266 56.2840 0.0000 0.0000 0.0000
# 2 60.4266 152.6112 86.0878 0.0000 0.0000 0.0000
# 3 56.2840 86.0878 196.8948 0.0000 0.0000 0.0000
# 4 0.0000 0.0000 0.0000 71.6886 0.0000 0.0000
# 5 0.0000 0.0000 0.0000 0.0000 13.3537 0.0000
# 6 0.0000 0.0000 0.0000 0.0000 0.0000 12.3596
#
#
#
# Elastic Compliance Matrix: (Units=1/GPa)
#
#
# Indices 1 2 3 4 5 6 
#
# 1 0.012440 -0.003875 -0.001862 0.000000 0.000000 0.000000
# 2 -0.003875 0.009905 -0.003223 0.000000 0.000000 0.000000
# 3 -0.001862 -0.003223 0.007020 0.000000 0.000000 0.000000
# 4 0.000000 0.000000 0.000000 0.013949 0.000000 0.000000
# 5 0.000000 0.000000 0.000000 0.000000 0.074885 0.000000
# 6 0.000000 0.000000 0.000000 0.000000 0.000000 0.080909
#
#
# Mechanical properties :
#
#
# Convention : Reuss Voigt Hill
#
# Bulk Modulus (GPa) = 87.37371 95.85988 91.61680
# Shear Modulus (GPa) = 22.64053 36.43666 29.53859
#
# Velocity S-wave (km/s) = 2.99584 3.80054 3.42193
# Velocity P-wave (km/s) = 6.82665 7.56698 7.20633
#
# Compressibility (1/GPa) = 0.01144509
#
# Stress axis : x y z
#
# Youngs Moduli (GPa) = 80.38848 100.95766 142.44669
#
# Poissons Ratio (x) = 0.39125 0.26517
# Poissons Ratio (y) = 0.31154 0.45910
# Poissons Ratio (z) = 0.14965 0.32539
#
# Static dielectric constant tensor:
#      x y z
#    x 1.983780 0.000000 0.000000 
#    y 0.000000 2.202690 0.000000 
#    z 0.000000 0.000000 2.041330 
# 
# From -- ./inp_files/2013.got.cif
#   From: 2010.05.17/outbox.cif.g08.bks.cpg/sg27_2_cif.got.tgz:2013.got - 2010.06.04 01:11:05.
