data_PCOD9339427
_publ_section_title
;
Structure prediction by ZEFSAII (Michael W. Deem and Ramdas Pophale) SiO2 
 PCOD9339427
Probable space group: P M A 2
;
_chemical_formula_sum "Si O2"
_cell_formula_units_Z 28
_cell_length_a 8.531678
_cell_length_b 9.469786
_cell_length_c 18.863378
_cell_angle_alpha 90.000000
_cell_angle_beta 90.000000
_cell_angle_gamma 90.000000
_cell_volume 1524.032009
_symmetry_space_group_name_H-M "P M A 2"
_symmetry_group_IT_number 28
_symmetry_cell_setting 'orthorhombic'
loop_
_space_group_symop_operation_xyz
x,y,z
-x,-y,z
1/2-x,y,z
1/2+x,-y,z
loop_
_atom_site_type_symbol
_atom_site_label
_atom_site_fract_x
_atom_site_fract_y
_atom_site_fract_z
Si Si1 0.561977 0.659852 0.761590
Si Si2 0.060441 0.339388 0.070682
Si Si3 0.062331 0.841933 0.632197
Si Si4 0.061462 0.159445 0.206603
Si Si5 0.438984 0.339334 0.915569
Si Si6 0.061525 0.659122 0.338556
Si Si7 0.560888 0.158606 0.472824
O O1 0.500000 0.500000 0.757787
O O2 0.750000 0.658125 0.759570
O O3 0.499814 0.745435 0.694981
O O4 0.511562 0.721240 0.839059
O O5 0.250000 0.345163 0.071830
O O6 0.009202 0.239920 0.134903
O O7 0.000000 0.500000 0.079366
O O8 0.010530 0.282884 0.992625
O O9 0.250000 0.842351 0.633956
O O10 0.011960 0.797800 0.552483
O O11 0.000000 0.000000 0.642412
O O12 0.250000 0.157665 0.208175
O O13 0.999986 0.248042 0.273329
O O14 0.000000 0.000000 0.208762
O O15 0.500000 0.500000 0.915269
O O16 0.250000 0.339999 0.915585
O O17 0.250000 0.657371 0.336836
O O18 0.009369 0.734772 0.411566
O O19 0.000000 0.500000 0.333946
O O20 0.750000 0.153398 0.471643
O O21 0.500000 0.000000 0.459575
#
# Coordination Sequence:
#
# PCOD9339427 Si02
#       7
#     4   4   4   4   4   4   4
#     4  10  19  32  52  78 107 140 178 220 265 312
#     4   9  18  33  54  78 104 135 173 217 262 310
#     4  10  20  36  55  77 106 140 178 217 262 314
#     4  11  23  38  56  79 108 142 178 216 261 312
#     4   8  15  29  49  73 102 135 172 214 260 310
#     4  11  23  39  58  82 110 139 174 215 260 309
#     4   9  20  37  57  79 104 137 175 215 260 313
#
# _framework density 18.372316000000001
#
# number of rings (size 3 to 8) (size 9 to 14) (size 15 to 20)
#    0.000    2.286    0.000    2.571    0.000    6.286 
#    0.000    2.143    0.000    1.714    0.000    0.000 
#    0.000    0.000    0.000    0.000    0.000    0.000 
#
# Total GULP energy -156154.905888 kJ/mol
# GULP energy per Si atom -5576.960925 kJ/mol
# Density = 1.833050 g / cm^3
# Si number density = 18.372316 Si / 1000 Ang^3
#
#
#
# Elastic Constant Matrix: (Units=GPa)
#
#
# Indices 1 2 3 4 5 6 
#
# 1 34.7741 25.7938 43.8726 0.0000 0.0000 0.0000
# 2 25.7938 108.6619 113.7017 0.0000 0.0000 0.0000
# 3 43.8726 113.7017 223.5172 0.0000 0.0000 0.0000
# 4 0.0000 0.0000 0.0000 125.7136 0.0000 0.0000
# 5 0.0000 0.0000 0.0000 0.0000 31.0129 0.0000
# 6 0.0000 0.0000 0.0000 0.0000 0.0000 31.5001
#
#
#
# Elastic Compliance Matrix: (Units=1/GPa)
#
#
# Indices 1 2 3 4 5 6 
#
# 1 0.038573 -0.002638 -0.006229 0.000000 0.000000 0.000000
# 2 -0.002638 0.019857 -0.009583 0.000000 0.000000 0.000000
# 3 -0.006229 -0.009583 0.010572 0.000000 0.000000 0.000000
# 4 0.000000 0.000000 0.000000 0.007955 0.000000 0.000000
# 5 0.000000 0.000000 0.000000 0.000000 0.032245 0.000000
# 6 0.000000 0.000000 0.000000 0.000000 0.000000 0.031746
#
#
# Mechanical properties :
#
#
# Convention : Reuss Voigt Hill
#
# Bulk Modulus (GPa) = 31.15254 81.52103 56.33679
# Shear Modulus (GPa) = 26.51850 49.88431 38.20140
#
# Velocity S-wave (km/s) = 3.80332 5.21640 4.56487
# Velocity P-wave (km/s) = 6.02330 8.98605 7.64948
#
# Compressibility (1/GPa) = 0.03210011
#
# Stress axis : x y z
#
# Youngs Moduli (GPa) = 25.92488 50.36070 94.59394
#
# Poissons Ratio (x) = 0.13286 0.58924
# Poissons Ratio (y) = 0.06840 0.90651
# Poissons Ratio (z) = 0.16149 0.48261
#
# Static dielectric constant tensor:
#      x y z
#    x 1.624740 0.000000 0.000000 
#    y 0.000000 1.564960 0.000000 
#    z 0.000000 0.000000 1.680650 
# 
# From -- ./inp_files/6798.got.cif
#   From: 2010.05.17/outbox.cif.g08.bks.cpg/sg28_4_cif.got.tgz:6798.got - 2010.06.04 01:15:21.
