data_PCOD9339206
_publ_section_title
;
Structure prediction by ZEFSAII (Michael W. Deem and Ramdas Pophale) SiO2 
 PCOD9339206
Probable space group: P C C 2
;
_chemical_formula_sum "Si O2"
_cell_formula_units_Z 26
_cell_length_a 19.055990
_cell_length_b 5.084226
_cell_length_c 11.168728
_cell_angle_alpha 90.000000
_cell_angle_beta 90.000000
_cell_angle_gamma 90.000000
_cell_volume 1082.081763
_symmetry_space_group_name_H-M "P C C 2"
_symmetry_group_IT_number 27
_symmetry_cell_setting 'orthorhombic'
loop_
_space_group_symop_operation_xyz
x,y,z
-x,-y,z
-x,y,1/2+z
x,-y,1/2+z
loop_
_atom_site_type_symbol
_atom_site_label
_atom_site_fract_x
_atom_site_fract_y
_atom_site_fract_z
Si Si1 0.387008 0.709033 0.302720
Si Si2 0.729422 0.293394 0.130216
Si Si3 0.500000 0.000000 0.142147
Si Si4 0.000000 0.000000 0.071533
Si Si5 0.724907 0.806355 0.986707
Si Si6 0.886510 0.367932 0.194562
Si Si7 0.121469 0.713132 0.456164
Si Si8 0.500000 0.500000 0.968609
O O1 0.330226 0.583498 0.214032
O O2 0.438270 0.899468 0.229220
O O3 0.335441 0.858731 0.392452
O O4 0.433473 0.506201 0.379537
O O5 0.806839 0.258078 0.184840
O O6 0.729899 0.497724 0.019928
O O7 0.707946 0.000983 0.094396
O O8 0.510733 0.751514 0.053906
O O9 0.953195 0.188952 0.157662
O O10 0.057403 0.097733 0.977122
O O11 0.804594 0.864669 0.946982
O O12 0.891081 0.449852 0.334044
O O13 0.881922 0.571396 0.085247
#
# Coordination Sequence:
#
# PCOD9339206 Si02
#       8
#     4   4   2   2   4   4   4   2
#     4  12  26  50  80 111 154 212 256 331 409 484
#     4  11  25  47  74 111 152 202 264 330 393 483
#     4  12  28  48  74 116 156 200 262 330 406 492
#     4  12  24  44  76 108 158 206 264 344 402 494
#     4  11  25  47  74 111 152 202 263 328 394 482
#     4  11  25  47  72 112 153 209 266 334 411 482
#     4  11  25  47  72 112 153 210 266 341 404 492
#     4  12  28  48  74 116 158 198 266 326 408 492
#
# _framework density 24.027757999999999
#
# number of rings (size 3 to 8) (size 9 to 14) (size 15 to 20)
#    0.000    0.615    3.077    3.692    0.000    9.846 
#    2.769    0.000    0.000    0.000    0.000    0.000 
#    0.000    0.000    0.000    0.000    0.000    0.000 
#
# Total GULP energy -145112.971445 kJ/mol
# GULP energy per Si atom -5581.268133 kJ/mol
# Density = 2.397307 g / cm^3
# Si number density = 24.027758 Si / 1000 Ang^3
#
#
#
# Elastic Constant Matrix: (Units=GPa)
#
#
# Indices 1 2 3 4 5 6 
#
# 1 176.7826 10.1453 55.8324 0.0000 0.0000 0.0000
# 2 10.1453 59.0873 27.1175 0.0000 0.0000 0.0000
# 3 55.8324 27.1175 153.7962 0.0000 0.0000 0.0000
# 4 0.0000 0.0000 0.0000 20.6648 0.0000 0.0000
# 5 0.0000 0.0000 0.0000 0.0000 72.7789 0.0000
# 6 0.0000 0.0000 0.0000 0.0000 0.0000 22.3757
#
#
#
# Elastic Compliance Matrix: (Units=1/GPa)
#
#
# Indices 1 2 3 4 5 6 
#
# 1 0.006389 -0.000035 -0.002313 0.000000 0.000000 0.000000
# 2 -0.000035 0.018414 -0.003234 0.000000 0.000000 0.000000
# 3 -0.002313 -0.003234 0.007912 0.000000 0.000000 0.000000
# 4 0.000000 0.000000 0.000000 0.048392 0.000000 0.000000
# 5 0.000000 0.000000 0.000000 0.000000 0.013740 0.000000
# 6 0.000000 0.000000 0.000000 0.000000 0.000000 0.044691
#
#
# Mechanical properties :
#
#
# Convention : Reuss Voigt Hill
#
# Bulk Modulus (GPa) = 46.40261 63.98404 55.19333
# Shear Modulus (GPa) = 31.66809 42.93527 37.30168
#
# Velocity S-wave (km/s) = 3.63434 4.23176 3.94438
# Velocity P-wave (km/s) = 6.07990 7.11085 6.61549
#
# Compressibility (1/GPa) = 0.02155051
#
# Stress axis : x y z
#
# Youngs Moduli (GPa) = 156.51220 54.30528 126.38852
#
# Poissons Ratio (x) = 0.00192 0.29237
# Poissons Ratio (y) = 0.00554 0.40874
# Poissons Ratio (z) = 0.36205 0.17562
#
# Static dielectric constant tensor:
#      x y z
#    x 1.958610 0.000000 0.000000 
#    y 0.000000 2.012760 0.000000 
#    z 0.000000 0.000000 1.953480 
# 
# From -- ./inp_files/2821.got.cif
#   From: 2010.05.17/outbox.cif.g08.bks.cpg/sg27_2_cif.got.tgz:2821.got - 2010.06.04 01:11:05.
