data_PCOD9339366
_publ_section_title
;
Structure prediction by ZEFSAII (Michael W. Deem and Ramdas Pophale) SiO2 
 PCOD9339366
Probable space group: P M A 2
;
_chemical_formula_sum "Si O2"
_cell_formula_units_Z 32
_cell_length_a 8.009055
_cell_length_b 14.538826
_cell_length_c 14.480586
_cell_angle_alpha 90.000000
_cell_angle_beta 90.000000
_cell_angle_gamma 90.000000
_cell_volume 1686.152118
_symmetry_space_group_name_H-M "P M A 2"
_symmetry_group_IT_number 28
_symmetry_cell_setting 'orthorhombic'
loop_
_space_group_symop_operation_xyz
x,y,z
-x,-y,z
1/2-x,y,z
1/2+x,-y,z
loop_
_atom_site_type_symbol
_atom_site_label
_atom_site_fract_x
_atom_site_fract_y
_atom_site_fract_z
Si Si1 0.050942 0.757028 0.207720
Si Si2 0.547694 0.896542 0.572798
Si Si3 0.059801 0.251904 0.716569
Si Si4 0.047827 0.392905 0.865690
Si Si5 0.450568 0.898402 0.851303
Si Si6 0.948550 0.606253 0.071670
Si Si7 0.948282 0.897918 0.361179
Si Si8 0.949869 0.099734 0.063106
O O1 0.250000 0.760397 0.209043
O O2 0.978319 0.823413 0.128388
O O3 0.005876 0.658496 0.164389
O O4 0.997443 0.808806 0.301171
O O5 0.750000 0.892638 0.576001
O O6 0.485230 0.807893 0.631387
O O7 0.488157 0.890205 0.466648
O O8 0.500000 0.000000 0.605531
O O9 0.250000 0.277363 0.690652
O O10 0.984220 0.337227 0.775257
O O11 0.054161 0.174123 0.794584
O O12 0.250000 0.384503 0.864773
O O13 0.000000 0.500000 0.859051
O O14 0.989027 0.359872 0.968922
O O15 0.250000 0.884547 0.842189
O O16 0.500000 0.000000 0.820825
O O17 0.502229 0.890705 0.957834
O O18 0.750000 0.612924 0.068395
O O19 0.000000 0.500000 0.076800
O O20 0.750000 0.899502 0.364992
O O21 0.000000 0.000000 0.325398
O O22 0.750000 0.105930 0.063859
O O23 0.000000 0.000000 0.097417
#
# Coordination Sequence:
#
# PCOD9339366 Si02
#       8
#     4   4   4   4   4   4   4   4
#     4  11  21  33  51  75 100 130 168 211 254 303
#     4   9  19  34  52  73 101 134 169 209 255 303
#     4  10  19  32  50  73  98 128 166 208 251 298
#     4   9  19  34  53  76 104 135 169 208 252 300
#     4  10  19  30  43  64  95 130 162 195 236 289
#     4  10  20  35  54  77 104 136 170 209 254 303
#     4  10  20  35  53  75 102 135 172 213 259 307
#     4   9  19  31  43  63  95 130 162 195 237 289
#
# _framework density 18.978121999999999
#
# number of rings (size 3 to 8) (size 9 to 14) (size 15 to 20)
#    0.000    2.250    0.000    3.000    0.000    5.500 
#    0.000    0.000    0.000    0.750    0.000    1.750 
#    0.000    0.000    0.000    0.000    0.000    0.000 
#
# Total GULP energy -178199.200992 kJ/mol
# GULP energy per Si atom -5568.725031 kJ/mol
# Density = 1.893493 g / cm^3
# Si number density = 18.978122 Si / 1000 Ang^3
#
#
#
# Elastic Constant Matrix: (Units=GPa)
#
#
# Indices 1 2 3 4 5 6 
#
# 1 28.3643 -1.8452 11.1171 0.0000 0.0000 0.0000
# 2 -1.8452 80.0265 52.4090 0.0000 0.0000 0.0000
# 3 11.1171 52.4090 113.5574 0.0000 0.0000 0.0000
# 4 0.0000 0.0000 0.0000 37.6939 0.0000 0.0000
# 5 0.0000 0.0000 0.0000 0.0000 13.9146 0.0000
# 6 0.0000 0.0000 0.0000 0.0000 0.0000 25.5549
#
#
#
# Elastic Compliance Matrix: (Units=1/GPa)
#
#
# Indices 1 2 3 4 5 6 
#
# 1 0.037872 0.004731 -0.005891 0.000000 0.000000 0.000000
# 2 0.004731 0.018500 -0.009001 0.000000 0.000000 0.000000
# 3 -0.005891 -0.009001 0.013537 0.000000 0.000000 0.000000
# 4 0.000000 0.000000 0.000000 0.026529 0.000000 0.000000
# 5 0.000000 0.000000 0.000000 0.000000 0.071867 0.000000
# 6 0.000000 0.000000 0.000000 0.000000 0.000000 0.039131
#
#
# Mechanical properties :
#
#
# Convention : Reuss Voigt Hill
#
# Bulk Modulus (GPa) = 20.16651 38.36778 29.26714
# Shear Modulus (GPa) = 20.46762 26.11718 23.29240
#
# Velocity S-wave (km/s) = 3.28759 3.71371 3.50713
# Velocity P-wave (km/s) = 5.00602 6.21688 5.64402
#
# Compressibility (1/GPa) = 0.04958717
#
# Stress axis : x y z
#
# Youngs Moduli (GPa) = 26.40441 54.05460 73.87104
#
# Poissons Ratio (x) = -0.25575 0.43520
# Poissons Ratio (y) = -0.12493 0.66493
# Poissons Ratio (z) = 0.15556 0.48656
#
# Static dielectric constant tensor:
#      x y z
#    x 1.685120 0.000000 0.000000 
#    y 0.000000 1.622330 0.000000 
#    z 0.000000 0.000000 1.725060 
# 
# From -- ./inp_files/6319.got.cif
#   From: 2010.05.17/outbox.cif.g08.bks.cpg/sg28_4_cif.got.tgz:6319.got - 2010.06.04 01:15:21.
