data_PCOD9339502
_publ_section_title
;
Structure prediction by ZEFSAII (Michael W. Deem and Ramdas Pophale) SiO2 
 PCOD9339502
Probable space group: P M A 2
;
_chemical_formula_sum "Si O2"
_cell_formula_units_Z 24
_cell_length_a 8.655047
_cell_length_b 14.455626
_cell_length_c 10.507489
_cell_angle_alpha 90.000000
_cell_angle_beta 90.000000
_cell_angle_gamma 90.000000
_cell_volume 1314.635265
_symmetry_space_group_name_H-M "P M A 2"
_symmetry_group_IT_number 28
_symmetry_cell_setting 'orthorhombic'
loop_
_space_group_symop_operation_xyz
x,y,z
-x,-y,z
1/2-x,y,z
1/2+x,-y,z
loop_
_atom_site_type_symbol
_atom_site_label
_atom_site_fract_x
_atom_site_fract_y
_atom_site_fract_z
Si Si1 0.065601 0.603338 0.570540
Si Si2 0.434490 0.900187 0.714620
Si Si3 0.936424 0.603909 0.064190
Si Si4 0.435035 0.098685 0.429621
Si Si5 0.936412 0.705524 0.323746
Si Si6 0.564294 0.714626 0.811297
O O1 0.250000 0.602323 0.580263
O O2 0.000000 0.500000 0.573283
O O3 0.014002 0.651590 0.439938
O O4 0.995348 0.659738 0.688237
O O5 0.250000 0.901894 0.712523
O O6 0.495443 0.883758 0.570300
O O7 0.495882 0.817307 0.801347
O O8 0.500000 0.000000 0.753777
O O9 0.750000 0.598994 0.063780
O O10 0.983464 0.660161 0.190399
O O11 0.000000 0.500000 0.065331
O O12 0.983817 0.659312 0.937659
O O13 0.250000 0.092402 0.442286
O O14 0.473070 0.185897 0.340754
O O15 0.500000 0.000000 0.385203
O O16 0.750000 0.696530 0.335844
O O17 0.750000 0.719683 0.807789
#
# Coordination Sequence:
#
# PCOD9339502 Si02
#       6
#     4   4   4   4   4   4
#     4  12  24  37  57  85 115 149 194 245 296 350
#     4  11  21  35  58  88 120 153 195 239 294 350
#     4  10  23  41  61  84 115 157 199 241 295 353
#     4  10  19  33  57  85 119 153 190 237 293 346
#     4  10  21  39  60  85 117 154 194 240 294 349
#     4  11  22  39  60  85 118 154 196 244 294 348
#
# _framework density 18.256014
#
# number of rings (size 3 to 8) (size 9 to 14) (size 15 to 20)
#    0.000    1.333    1.667    6.000    0.000    5.333 
#    0.000    0.833    0.000    2.000    0.000    0.000 
#    0.000    0.000    0.000    0.000    0.000    0.000 
#
# Total GULP energy -134151.503550 kJ/mol
# GULP energy per Si atom -5589.645981 kJ/mol
# Density = 1.821446 g / cm^3
# Si number density = 18.256014 Si / 1000 Ang^3
#
#
#
# Elastic Constant Matrix: (Units=GPa)
#
#
# Indices 1 2 3 4 5 6 
#
# 1 83.9458 62.2986 47.0203 0.0000 0.0000 0.0000
# 2 62.2986 196.7193 93.2477 0.0000 0.0000 0.0000
# 3 47.0203 93.2477 138.3098 0.0000 0.0000 0.0000
# 4 0.0000 0.0000 0.0000 32.7667 0.0000 0.0000
# 5 0.0000 0.0000 0.0000 0.0000 2.2464 0.0000
# 6 0.0000 0.0000 0.0000 0.0000 0.0000 35.9602
#
#
#
# Elastic Compliance Matrix: (Units=1/GPa)
#
#
# Indices 1 2 3 4 5 6 
#
# 1 0.016403 -0.003750 -0.003048 0.000000 0.000000 0.000000
# 2 -0.003750 0.008328 -0.004340 0.000000 0.000000 0.000000
# 3 -0.003048 -0.004340 0.011193 0.000000 0.000000 0.000000
# 4 0.000000 0.000000 0.000000 0.030519 0.000000 0.000000
# 5 0.000000 0.000000 0.000000 0.000000 0.445148 0.000000
# 6 0.000000 0.000000 0.000000 0.000000 0.000000 0.027809
#
#
# Mechanical properties :
#
#
# Convention : Reuss Voigt Hill
#
# Bulk Modulus (GPa) = 73.27472 91.56759 82.42115
# Shear Modulus (GPa) = 8.83043 28.62188 18.72616
#
# Velocity S-wave (km/s) = 2.20170 3.96385 3.20621
# Velocity P-wave (km/s) = 6.83284 8.43895 7.67801
#
# Compressibility (1/GPa) = 0.01364727
#
# Stress axis : x y z
#
# Youngs Moduli (GPa) = 60.96616 120.07617 89.34552
#
# Poissons Ratio (x) = 0.45023 0.27236
# Poissons Ratio (y) = 0.22859 0.38776
# Poissons Ratio (z) = 0.18585 0.52113
#
# Static dielectric constant tensor:
#      x y z
#    x 1.613200 0.000000 0.000000 
#    y 0.000000 1.618380 0.000000 
#    z 0.000000 0.000000 1.600820 
# 
# From -- ./inp_files/2448.got.cif
#   From: 2010.05.17/outbox.cif.g08.bks.cpg/sg28_2_cif.got.tgz:2448.got - 2010.06.04 01:15:21.
