data_PCOD9339753
_publ_section_title
;
Structure prediction by ZEFSAII (Michael W. Deem and Ramdas Pophale) SiO2 
 PCOD9339753
Probable space group: P M A 2
;
_chemical_formula_sum "Si O2"
_cell_formula_units_Z 32
_cell_length_a 25.722798
_cell_length_b 7.211808
_cell_length_c 7.306190
_cell_angle_alpha 90.000000
_cell_angle_beta 90.000000
_cell_angle_gamma 90.000000
_cell_volume 1355.355821
_symmetry_space_group_name_H-M "P M A 2"
_symmetry_group_IT_number 28
_symmetry_cell_setting 'orthorhombic'
loop_
_space_group_symop_operation_xyz
x,y,z
-x,-y,z
1/2-x,y,z
1/2+x,-y,z
loop_
_atom_site_type_symbol
_atom_site_label
_atom_site_fract_x
_atom_site_fract_y
_atom_site_fract_z
Si Si1 0.914711 0.302961 0.614440
Si Si2 0.635811 0.779239 0.421971
Si Si3 0.305290 0.658363 0.667823
Si Si4 0.691838 0.443717 0.245041
Si Si5 0.586577 0.969041 0.897884
Si Si6 0.884652 0.160453 0.228573
Si Si7 0.192695 0.092579 0.776658
Si Si8 0.524613 0.798308 0.614405
O O1 0.864938 0.413869 0.696147
O O2 0.909846 0.109506 0.725802
O O3 0.907023 0.276263 0.397428
O O4 0.975521 0.336608 0.626686
O O5 0.657605 0.624268 0.285936
O O6 0.674976 0.797481 0.594466
O O7 0.576095 0.749768 0.494763
O O8 0.637355 0.977115 0.323613
O O9 0.250000 0.575658 0.735279
O O10 0.302468 0.647140 0.447373
O O11 0.304509 0.873587 0.726321
O O12 0.750000 0.480371 0.176816
O O13 0.659233 0.289570 0.134949
O O14 0.644374 0.885488 0.913806
O O15 0.545251 0.825351 0.822431
O O16 0.575506 0.086658 0.077377
O O17 0.250000 0.146547 0.840614
O O18 0.500000 0.000000 0.550916
#
# Coordination Sequence:
#
# PCOD9339753 Si02
#       8
#     4   4   4   4   4   4   4   4
#     4   9  16  35  56  89 118 147 206 243 297 374
#     4  11  19  34  59  85 118 159 196 254 302 363
#     4   8  14  29  53  79 111 148 190 237 287 351
#     4  10  21  34  55  92 120 154 208 251 304 368
#     4   9  18  31  54  86 115 152 199 248 298 357
#     4  11  20  37  61  84 117 163 199 250 305 369
#     4   9  15  30  55  80 111 152 197 242 296 358
#     4   9  16  35  56  88 120 151 204 250 302 370
#
# _framework density 23.610037999999999
#
# number of rings (size 3 to 8) (size 9 to 14) (size 15 to 20)
#    0.000    2.500    6.250    0.375    0.000    1.000 
#    6.750    2.500   16.500    0.000    0.000    0.000 
#    0.000    0.000    0.000    0.000    0.000    0.000 
#
# Total GULP energy -178158.680391 kJ/mol
# GULP energy per Si atom -5567.458762 kJ/mol
# Density = 2.355630 g / cm^3
# Si number density = 23.610038 Si / 1000 Ang^3
#
#
#
# Elastic Constant Matrix: (Units=GPa)
#
#
# Indices 1 2 3 4 5 6 
#
# 1 225.6629 58.8438 23.0830 0.0000 0.0000 0.0000
# 2 58.8438 81.9107 8.7767 0.0000 0.0000 0.0000
# 3 23.0830 8.7767 68.8915 0.0000 0.0000 0.0000
# 4 0.0000 0.0000 0.0000 6.5437 0.0000 0.0000
# 5 0.0000 0.0000 0.0000 0.0000 7.1800 0.0000
# 6 0.0000 0.0000 0.0000 0.0000 0.0000 22.7272
#
#
#
# Elastic Compliance Matrix: (Units=1/GPa)
#
#
# Indices 1 2 3 4 5 6 
#
# 1 0.005579 -0.003860 -0.001377 0.000000 0.000000 0.000000
# 2 -0.003860 0.015048 -0.000624 0.000000 0.000000 0.000000
# 3 -0.001377 -0.000624 0.015057 0.000000 0.000000 0.000000
# 4 0.000000 0.000000 0.000000 0.152818 0.000000 0.000000
# 5 0.000000 0.000000 0.000000 0.000000 0.139276 0.000000
# 6 0.000000 0.000000 0.000000 0.000000 0.000000 0.044000
#
#
# Mechanical properties :
#
#
# Convention : Reuss Voigt Hill
#
# Bulk Modulus (GPa) = 41.73451 61.98580 51.86015
# Shear Modulus (GPa) = 12.77178 26.34095 19.55637
#
# Velocity S-wave (km/s) = 2.32835 3.34378 2.88116
# Velocity P-wave (km/s) = 4.99432 6.42019 5.75161
#
# Compressibility (1/GPa) = 0.02396099
#
# Stress axis : x y z
#
# Youngs Moduli (GPa) = 179.24737 66.45229 66.41611
#
# Poissons Ratio (x) = 0.25652 0.09149
# Poissons Ratio (y) = 0.69193 0.04143
# Poissons Ratio (z) = 0.24691 0.04145
#
# Static dielectric constant tensor:
#      x y z
#    x 2.037760 0.000000 0.000000 
#    y 0.000000 1.971310 0.000000 
#    z 0.000000 0.000000 1.896840 
# 
# From -- ./inp_files/4236.got.cif
#   From: 2010.05.17/outbox.cif.g08.bks.cpg/sg28_3_cif.got.tgz:4236.got - 2010.06.04 01:15:21.
