data_PCOD9339632
_publ_section_title
;
Structure prediction by ZEFSAII (Michael W. Deem and Ramdas Pophale) SiO2 
 PCOD9339632
Probable space group: P M A 2
;
_chemical_formula_sum "Si O2"
_cell_formula_units_Z 32
_cell_length_a 9.714805
_cell_length_b 29.032024
_cell_length_c 5.375177
_cell_angle_alpha 90.000000
_cell_angle_beta 90.000000
_cell_angle_gamma 90.000000
_cell_volume 1516.017350
_symmetry_space_group_name_H-M "P M A 2"
_symmetry_group_IT_number 28
_symmetry_cell_setting 'orthorhombic'
loop_
_space_group_symop_operation_xyz
x,y,z
-x,-y,z
1/2-x,y,z
1/2+x,-y,z
loop_
_atom_site_type_symbol
_atom_site_label
_atom_site_fract_x
_atom_site_fract_y
_atom_site_fract_z
Si Si1 0.097883 0.229286 0.418000
Si Si2 0.903890 0.675255 0.690620
Si Si3 0.082485 0.952653 0.567549
Si Si4 0.403011 0.816306 0.746434
Si Si5 0.403069 0.722309 0.025000
Si Si6 0.911859 0.453830 0.936233
Si Si7 0.912778 0.395137 0.433133
Si Si8 0.585043 0.100810 0.074654
O O1 0.250000 0.218556 0.318137
O O2 0.114894 0.271705 0.610372
O O3 0.022394 0.186190 0.544122
O O4 0.995014 0.252029 0.224655
O O5 0.750000 0.657204 0.747037
O O6 0.982307 0.646790 0.478330
O O7 0.013360 0.679575 0.913664
O O8 0.250000 0.959016 0.558289
O O9 0.047892 0.930793 0.836581
O O10 0.038819 0.919242 0.338814
O O11 0.000000 0.000000 0.538526
O O12 0.250000 0.832611 0.658770
O O13 0.446990 0.847634 0.979307
O O14 0.385557 0.763273 0.824106
O O15 0.250000 0.709487 0.110910
O O16 0.750000 0.465362 0.945896
O O17 0.940284 0.422218 0.177834
O O18 0.000000 0.500000 0.946778
O O19 0.936129 0.427361 0.676102
O O20 0.750000 0.381795 0.438139
O O21 0.750000 0.100115 0.092475
#
# Coordination Sequence:
#
# PCOD9339632 Si02
#       8
#     4   4   4   4   4   4   4   4
#     4  10  21  36  54  79 116 153 188 235 291 344
#     4  10  22  38  55  81 115 153 196 241 290 346
#     4  10  20  36  57  82 111 146 182 231 286 341
#     4   9  19  35  55  81 106 143 194 237 280 336
#     4  10  20  34  57  82 110 149 193 239 287 342
#     4  10  22  40  62  88 119 152 192 241 296 351
#     4  10  22  39  60  89 120 153 196 245 290 346
#     4   9  19  34  58  84 110 143 188 236 280 334
#
# _framework density 21.107937
#
# number of rings (size 3 to 8) (size 9 to 14) (size 15 to 20)
#    0.000    2.250    0.000    1.875    3.500    3.000 
#    0.000    1.250    0.000    0.000    0.000    0.000 
#    0.000    0.000    0.000    0.000    0.000    0.000 
#
# Total GULP energy -178456.459141 kJ/mol
# GULP energy per Si atom -5576.764348 kJ/mol
# Density = 2.105989 g / cm^3
# Si number density = 21.107937 Si / 1000 Ang^3
#
#
#
# Elastic Constant Matrix: (Units=GPa)
#
#
# Indices 1 2 3 4 5 6 
#
# 1 108.2042 25.3693 28.3452 0.0000 0.0000 0.0000
# 2 25.3693 87.6871 23.3973 0.0000 0.0000 0.0000
# 3 28.3452 23.3973 92.6000 0.0000 0.0000 0.0000
# 4 0.0000 0.0000 0.0000 33.0836 0.0000 0.0000
# 5 0.0000 0.0000 0.0000 0.0000 15.7188 0.0000
# 6 0.0000 0.0000 0.0000 0.0000 0.0000 22.0635
#
#
#
# Elastic Compliance Matrix: (Units=1/GPa)
#
#
# Indices 1 2 3 4 5 6 
#
# 1 0.010474 -0.002332 -0.002617 0.000000 0.000000 0.000000
# 2 -0.002332 0.012748 -0.002507 0.000000 0.000000 0.000000
# 3 -0.002617 -0.002507 0.012234 0.000000 0.000000 0.000000
# 4 0.000000 0.000000 0.000000 0.030226 0.000000 0.000000
# 5 0.000000 0.000000 0.000000 0.000000 0.063618 0.000000
# 6 0.000000 0.000000 0.000000 0.000000 0.000000 0.045324
#
#
# Mechanical properties :
#
#
# Convention : Reuss Voigt Hill
#
# Bulk Modulus (GPa) = 48.67754 49.19054 48.93404
# Shear Modulus (GPa) = 25.46032 28.26515 26.86274
#
# Velocity S-wave (km/s) = 3.47680 3.66331 3.57127
# Velocity P-wave (km/s) = 6.26329 6.42246 6.34338
#
# Compressibility (1/GPa) = 0.02054336
#
# Stress axis : x y z
#
# Youngs Moduli (GPa) = 95.47377 78.44447 81.74163
#
# Poissons Ratio (x) = 0.18294 0.21391
# Poissons Ratio (y) = 0.22265 0.20494
# Poissons Ratio (z) = 0.24985 0.19667
#
# Static dielectric constant tensor:
#      x y z
#    x 1.817710 0.000000 0.000000 
#    y 0.000000 1.782710 0.000000 
#    z 0.000000 0.000000 1.825870 
# 
# From -- ./inp_files/235.got.cif
#   From: 2010.05.17/outbox.cif.g08.bks.cpg/sg28_1_cif.got.tgz:235.got - 2010.06.04 01:15:21.
