data_PCOD9339131
_publ_section_title
;
Structure prediction by ZEFSAII (Michael W. Deem and Ramdas Pophale) SiO2 
 PCOD9339131
Probable space group: P C C 2
;
_chemical_formula_sum "Si O2"
_cell_formula_units_Z 18
_cell_length_a 5.240066
_cell_length_b 5.215891
_cell_length_c 30.141090
_cell_angle_alpha 90.000000
_cell_angle_beta 90.000000
_cell_angle_gamma 90.000000
_cell_volume 823.804610
_symmetry_space_group_name_H-M "P C C 2"
_symmetry_group_IT_number 27
_symmetry_cell_setting 'orthorhombic'
loop_
_space_group_symop_operation_xyz
x,y,z
-x,-y,z
-x,y,1/2+z
x,-y,1/2+z
loop_
_atom_site_type_symbol
_atom_site_label
_atom_site_fract_x
_atom_site_fract_y
_atom_site_fract_z
Si Si1 0.000000 0.000000 0.616540
Si Si2 0.000000 0.000000 0.376025
Si Si3 0.626784 0.251942 0.823275
Si Si4 0.500000 0.500000 0.496201
Si Si5 0.000000 0.500000 0.937077
Si Si6 0.000000 0.500000 0.176826
Si Si7 0.500000 0.500000 0.735723
Si Si8 0.500000 0.000000 0.556479
O O1 0.749538 0.958598 0.586780
O O2 0.956543 0.249853 0.646916
O O3 0.090038 0.206703 0.337433
O O4 0.941176 0.233755 0.410623
O O5 0.500000 0.500000 0.844170
O O6 0.572970 0.278608 0.771323
O O7 0.500000 0.000000 0.844094
O O8 0.251121 0.451048 0.466415
O O9 0.543092 0.250774 0.526648
O O10 0.749111 0.450695 0.206716
#
# Coordination Sequence:
#
# PCOD9339131 Si02
#       8
#     2   2   4   2   2   2   2   2
#     4  12  26  44  74 106 132 184 220 282 360 414
#     4  12  26  44  70  98 148 182 248 300 342 422
#     4  10  25  41  68  95 133 196 244 281 353 405
#     4  12  26  48  72 106 136 182 224 282 362 426
#     4  12  28  44  72 106 142 180 230 300 362 402
#     4  12  26  44  68 104 144 172 232 294 352 404
#     4  10  28  42  70  96 146 184 240 292 342 414
#     4  12  24  48  76  98 142 174 230 274 340 462
#
# _framework density 21.849843
#
# number of rings (size 3 to 8) (size 9 to 14) (size 15 to 20)
#    0.667    0.000    0.000    6.667   10.889    0.000 
#    0.000    0.000    0.000    0.000    0.000    0.000 
#    0.000    0.000    0.000    0.000    0.000    0.000 
#
# Total GULP energy -100231.973858 kJ/mol
# GULP energy per Si atom -5568.442992 kJ/mol
# Density = 2.180011 g / cm^3
# Si number density = 21.849843 Si / 1000 Ang^3
#
#
#
# Elastic Constant Matrix: (Units=GPa)
#
#
# Indices 1 2 3 4 5 6 
#
# 1 111.6953 -5.2800 55.9823 0.0000 0.0000 0.0000
# 2 -5.2800 147.1787 46.7813 0.0000 0.0000 0.0000
# 3 55.9823 46.7813 110.0687 0.0000 0.0000 0.0000
# 4 0.0000 0.0000 0.0000 40.3653 0.0000 0.0000
# 5 0.0000 0.0000 0.0000 0.0000 53.1522 0.0000
# 6 0.0000 0.0000 0.0000 0.0000 0.0000 18.7795
#
#
#
# Elastic Compliance Matrix: (Units=1/GPa)
#
#
# Indices 1 2 3 4 5 6 
#
# 1 0.013058 0.002982 -0.007909 0.000000 0.000000 0.000000
# 2 0.002982 0.008537 -0.005145 0.000000 0.000000 0.000000
# 3 -0.007909 -0.005145 0.015295 0.000000 0.000000 0.000000
# 4 0.000000 0.000000 0.000000 0.024774 0.000000 0.000000
# 5 0.000000 0.000000 0.000000 0.000000 0.018814 0.000000
# 6 0.000000 0.000000 0.000000 0.000000 0.000000 0.053250
#
#
# Mechanical properties :
#
#
# Convention : Reuss Voigt Hill
#
# Bulk Modulus (GPa) = 59.71648 62.65666 61.18657
# Shear Modulus (GPa) = 31.35734 40.55666 35.95700
#
# Velocity S-wave (km/s) = 3.79242 4.31298 4.06105
# Velocity P-wave (km/s) = 6.82395 7.31715 7.07485
#
# Compressibility (1/GPa) = 0.01674580
#
# Stress axis : x y z
#
# Youngs Moduli (GPa) = 76.58183 117.13902 65.38241
#
# Poissons Ratio (x) = -0.34935 0.51711
# Poissons Ratio (y) = -0.22839 0.33640
# Poissons Ratio (z) = 0.60568 0.60270
#
# Static dielectric constant tensor:
#      x y z
#    x 1.353620 0.000000 0.000000 
#    y 0.000000 1.780800 0.000000 
#    z 0.000000 0.000000 1.771950 
# 
# From -- ./inp_files/4950.got.cif
#   From: 2010.05.17/outbox.cif.g08.bks.cpg/sg27_3_cif.got.tgz:4950.got - 2010.06.04 01:11:05.
