data_PCOD9339781
_publ_section_title
;
Structure prediction by ZEFSAII (Michael W. Deem and Ramdas Pophale) SiO2 
 PCOD9339781
Probable space group: P M A 2
;
_chemical_formula_sum "Si O2"
_cell_formula_units_Z 24
_cell_length_a 18.775519
_cell_length_b 5.587606
_cell_length_c 10.191799
_cell_angle_alpha 90.000000
_cell_angle_beta 90.000000
_cell_angle_gamma 90.000000
_cell_volume 1069.223698
_symmetry_space_group_name_H-M "P M A 2"
_symmetry_group_IT_number 28
_symmetry_cell_setting 'orthorhombic'
loop_
_space_group_symop_operation_xyz
x,y,z
-x,-y,z
1/2-x,y,z
1/2+x,-y,z
loop_
_atom_site_type_symbol
_atom_site_label
_atom_site_fract_x
_atom_site_fract_y
_atom_site_fract_z
Si Si1 0.836554 0.709027 0.741750
Si Si2 0.069901 0.353944 0.262893
Si Si3 0.427077 0.081477 0.529430
Si Si4 0.829224 0.970472 0.134006
Si Si5 0.829084 0.268793 0.396508
Si Si6 0.665102 0.216669 0.876397
O O1 0.750000 0.707763 0.725099
O O2 0.879595 0.726954 0.606258
O O3 0.860013 0.468943 0.818128
O O4 0.856396 0.961302 0.812762
O O5 0.050741 0.187398 0.387592
O O6 0.131095 0.519045 0.324395
O O7 0.000000 0.500000 0.225840
O O8 0.106517 0.214354 0.143775
O O9 0.500000 0.000000 0.597269
O O10 0.376559 0.852866 0.507200
O O11 0.750000 0.871825 0.097367
O O12 0.823396 0.071303 0.280851
O O13 0.846504 0.179589 0.031581
O O14 0.750000 0.331460 0.442570
O O15 0.750000 0.226574 0.856983
#
# Coordination Sequence:
#
# PCOD9339781 Si02
#       6
#     4   4   4   4   4   4
#     4  10  22  39  65  96 129 173 226 278 332 398
#     4  11  22  37  62  93 130 175 219 274 348 411
#     4  11  23  40  60  90 133 176 219 275 344 411
#     4   9  20  37  62  95 130 167 218 280 340 408
#     4  10  21  37  62  94 125 165 219 274 335 407
#     4   9  20  39  64  96 129 167 218 280 337 391
#
# _framework density 22.446190999999999
#
# number of rings (size 3 to 8) (size 9 to 14) (size 15 to 20)
#    0.000    2.000    1.667    1.000    4.667    2.000 
#    0.000    0.000    3.667    1.000    0.000    0.000 
#    0.000    0.000    0.000    0.167    0.000    0.000 
#
# Total GULP energy -134002.656100 kJ/mol
# GULP energy per Si atom -5583.444004 kJ/mol
# Density = 2.239510 g / cm^3
# Si number density = 22.446191 Si / 1000 Ang^3
#
#
#
# Elastic Constant Matrix: (Units=GPa)
#
#
# Indices 1 2 3 4 5 6 
#
# 1 117.3381 47.8448 21.3097 0.0000 0.0000 0.0000
# 2 47.8448 121.1150 31.2587 0.0000 0.0000 0.0000
# 3 21.3097 31.2587 63.9333 0.0000 0.0000 0.0000
# 4 0.0000 0.0000 0.0000 40.7735 0.0000 0.0000
# 5 0.0000 0.0000 0.0000 0.0000 -36.2525 0.0000
# 6 0.0000 0.0000 0.0000 0.0000 0.0000 26.5249
#
#
#
# Elastic Compliance Matrix: (Units=1/GPa)
#
#
# Indices 1 2 3 4 5 6 
#
# 1 0.010309 -0.003646 -0.001654 0.000000 0.000000 0.000000
# 2 -0.003646 0.010738 -0.004035 0.000000 0.000000 0.000000
# 3 -0.001654 -0.004035 0.018165 0.000000 0.000000 0.000000
# 4 0.000000 0.000000 0.000000 0.024526 0.000000 0.000000
# 5 0.000000 0.000000 0.000000 0.000000 -0.027584 0.000000
# 6 0.000000 0.000000 0.000000 0.000000 0.000000 0.037700
#
#
# Mechanical properties :
#
#
# Convention : Reuss Voigt Hill
#
# Bulk Modulus (GPa) = 48.67630 55.91254 52.29442
# Shear Modulus (GPa) = 50.31621 19.67406 34.99514
#
# Velocity S-wave (km/s) = 4.73973 2.96378 3.95279
# Velocity P-wave (km/s) = 7.18931 6.05605 6.64688
#
# Compressibility (1/GPa) = 0.02054388
#
# Stress axis : x y z
#
# Youngs Moduli (GPa) = 97.00020 93.12541 55.04989
#
# Poissons Ratio (x) = 0.33951 0.09104
# Poissons Ratio (y) = 0.35364 0.22213
# Poissons Ratio (z) = 0.16041 0.37576
#
# Static dielectric constant tensor:
#      x y z
#    x 1.854080 0.000000 0.000000 
#    y 0.000000 1.878740 0.000000 
#    z 0.000000 0.000000 1.881870 
# 
# From -- ./inp_files/5682.got.cif
#   From: 2010.05.17/outbox.cif.g08.bks.cpg/sg28_3_cif.got.tgz:5682.got - 2010.06.04 01:15:21.
