data_PCOD9339599
_publ_section_title
;
Structure prediction by ZEFSAII (Michael W. Deem and Ramdas Pophale) SiO2 
 PCOD9339599
Probable space group: P M A 2
;
_chemical_formula_sum "Si O2"
_cell_formula_units_Z 32
_cell_length_a 8.958592
_cell_length_b 16.769683
_cell_length_c 11.203606
_cell_angle_alpha 90.000000
_cell_angle_beta 90.000000
_cell_angle_gamma 90.000000
_cell_volume 1683.148517
_symmetry_space_group_name_H-M "P M A 2"
_symmetry_group_IT_number 28
_symmetry_cell_setting 'orthorhombic'
loop_
_space_group_symop_operation_xyz
x,y,z
-x,-y,z
1/2-x,y,z
1/2+x,-y,z
loop_
_atom_site_type_symbol
_atom_site_label
_atom_site_fract_x
_atom_site_fract_y
_atom_site_fract_z
Si Si1 0.922135 0.116991 0.663340
Si Si2 0.422366 0.073370 0.415781
Si Si3 0.925260 0.247667 0.032884
Si Si4 0.921233 0.575011 0.674038
Si Si5 0.415908 0.787844 0.309036
Si Si6 0.569538 0.913699 0.917796
Si Si7 0.912688 0.292536 0.558997
Si Si8 0.068736 0.415150 0.949389
O O1 0.750000 0.090261 0.678875
O O2 0.017691 0.096349 0.779491
O O3 0.919215 0.211355 0.635230
O O4 0.993322 0.083997 0.541805
O O5 0.250000 0.060100 0.436615
O O6 0.454680 0.150367 0.337451
O O7 0.500000 0.000000 0.351327
O O8 0.750000 0.247600 0.994210
O O9 0.927733 0.244418 0.176679
O O10 0.003233 0.166242 0.982707
O O11 0.004185 0.331268 0.998175
O O12 0.750000 0.556946 0.683246
O O13 0.975865 0.586942 0.809303
O O14 0.000000 0.500000 0.616432
O O15 0.954814 0.652673 0.599807
O O16 0.250000 0.826996 0.321036
O O17 0.421069 0.726635 0.418933
O O18 0.250000 0.084617 0.927811
O O19 0.500000 0.000000 0.957869
O O20 0.750000 0.330070 0.583707
O O21 0.250000 0.416546 0.961118
O O22 0.000000 0.500000 0.995895
#
# Coordination Sequence:
#
# PCOD9339599 Si02
#       8
#     4   4   4   4   4   4   4   4
#     4  10  20  36  57  82 113 147 184 230 286 344
#     4  11  21  34  55  81 110 144 184 232 284 337
#     4  11  23  41  63  85 114 154 198 245 296 347
#     4  10  20  33  53  82 114 144 175 217 269 330
#     4   9  21  40  58  78 107 145 189 233 278 334
#     4  12  25  40  58  84 118 155 197 242 292 351
#     4   9  18  34  56  80 108 141 177 221 274 331
#     4  10  21  38  61  90 121 152 191 238 289 348
#
# _framework density 19.011989
#
# number of rings (size 3 to 8) (size 9 to 14) (size 15 to 20)
#    0.000    1.750    0.000    5.625    0.000    7.500 
#    0.000    0.625    0.000    0.000    0.000    0.000 
#    0.000    0.000    0.000    0.000    0.000    0.000 
#
# Total GULP energy -178430.191790 kJ/mol
# GULP energy per Si atom -5575.943493 kJ/mol
# Density = 1.896872 g / cm^3
# Si number density = 19.011989 Si / 1000 Ang^3
#
#
#
# Elastic Constant Matrix: (Units=GPa)
#
#
# Indices 1 2 3 4 5 6 
#
# 1 115.8889 58.2799 22.0288 0.0000 0.0000 0.0000
# 2 58.2799 119.9480 32.4948 0.0000 0.0000 0.0000
# 3 22.0288 32.4948 48.0925 0.0000 0.0000 0.0000
# 4 0.0000 0.0000 0.0000 -19.9492 0.0000 0.0000
# 5 0.0000 0.0000 0.0000 0.0000 5.1288 0.0000
# 6 0.0000 0.0000 0.0000 0.0000 0.0000 36.7335
#
#
#
# Elastic Compliance Matrix: (Units=1/GPa)
#
#
# Indices 1 2 3 4 5 6 
#
# 1 0.011550 -0.005115 -0.001834 0.000000 0.000000 0.000000
# 2 -0.005115 0.012470 -0.006083 0.000000 0.000000 0.000000
# 3 -0.001834 -0.006083 0.025744 0.000000 0.000000 0.000000
# 4 0.000000 0.000000 0.000000 -0.050127 0.000000 0.000000
# 5 0.000000 0.000000 0.000000 0.000000 0.194976 0.000000
# 6 0.000000 0.000000 0.000000 0.000000 0.000000 0.027223
#
#
# Mechanical properties :
#
#
# Convention : Reuss Voigt Hill
#
# Bulk Modulus (GPa) = 42.19550 56.61516 49.40533
# Shear Modulus (GPa) = 19.54659 15.79102 17.66880
#
# Velocity S-wave (km/s) = 3.20991 2.88511 3.05183
# Velocity P-wave (km/s) = 5.99836 6.39858 6.20170
#
# Compressibility (1/GPa) = 0.02369921
#
# Stress axis : x y z
#
# Youngs Moduli (GPa) = 86.58100 80.19249 38.84467
#
# Poissons Ratio (x) = 0.41017 0.07126
# Poissons Ratio (y) = 0.44285 0.23628
# Poissons Ratio (z) = 0.15883 0.48779
#
# Static dielectric constant tensor:
#      x y z
#    x 1.664520 0.000000 0.000000 
#    y 0.000000 1.781590 0.000000 
#    z 0.000000 0.000000 1.635150 
# 
# From -- ./inp_files/5066.got.cif
#   From: 2010.05.17/outbox.cif.g08.bks.cpg/sg28_3_cif.got.tgz:5066.got - 2010.06.04 01:15:21.
