data_PCOD9339415
_publ_section_title
;
Structure prediction by ZEFSAII (Michael W. Deem and Ramdas Pophale) SiO2 
 PCOD9339415
Probable space group: P M A 2
;
_chemical_formula_sum "Si O2"
_cell_formula_units_Z 32
_cell_length_a 9.100446
_cell_length_b 17.904590
_cell_length_c 11.795419
_cell_angle_alpha 90.000000
_cell_angle_beta 90.000000
_cell_angle_gamma 90.000000
_cell_volume 1921.942675
_symmetry_space_group_name_H-M "P M A 2"
_symmetry_group_IT_number 28
_symmetry_cell_setting 'orthorhombic'
loop_
_space_group_symop_operation_xyz
x,y,z
-x,-y,z
1/2-x,y,z
1/2+x,-y,z
loop_
_atom_site_type_symbol
_atom_site_label
_atom_site_fract_x
_atom_site_fract_y
_atom_site_fract_z
Si Si1 0.926071 0.234710 0.816810
Si Si2 0.576421 0.074543 0.923335
Si Si3 0.583148 0.868196 0.134440
Si Si4 0.922731 0.353326 0.237873
Si Si5 0.081396 0.299820 0.028545
Si Si6 0.074112 0.577039 0.472791
Si Si7 0.075734 0.211424 0.347449
Si Si8 0.424994 0.276391 0.581066
O O1 0.750000 0.240613 0.810534
O O2 0.964051 0.150068 0.855915
O O3 0.000281 0.253165 0.697763
O O4 0.987926 0.289081 0.914884
O O5 0.750000 0.066175 0.918948
O O6 0.500000 0.000000 0.879015
O O7 0.524538 0.087565 0.052933
O O8 0.750000 0.896142 0.120296
O O9 0.580525 0.782590 0.087544
O O10 0.547852 0.860136 0.267842
O O11 0.750000 0.351214 0.212832
O O12 0.950843 0.412864 0.337084
O O13 0.012513 0.355578 0.121137
O O14 0.973372 0.276487 0.298123
O O15 0.250000 0.318561 0.003465
O O16 0.250000 0.577965 0.491520
O O17 0.000000 0.500000 0.510060
O O18 0.998236 0.647370 0.534420
O O19 0.250000 0.230269 0.328849
O O20 0.053347 0.214056 0.482018
O O21 0.250000 0.286940 0.594871
#
# Coordination Sequence:
#
# PCOD9339415 Si02
#       8
#     4   4   4   4   4   4   4   4
#     4  10  20  33  49  72 100 130 169 212 252 296
#     4  10  20  32  48  70  96 126 160 202 251 302
#     4   8  14  26  44  66  92 118 147 185 230 281
#     4   9  16  26  43  68  95 121 150 189 237 284
#     4   9  16  27  45  68  93 122 154 190 235 285
#     4  10  20  33  50  73 101 132 166 206 252 300
#     4   8  15  27  44  67  93 121 152 188 230 280
#     4  10  19  32  51  74 100 132 171 210 250 296
#
# _framework density 16.649820999999999
#
# number of rings (size 3 to 8) (size 9 to 14) (size 15 to 20)
#    0.000    2.750    0.000    3.000    0.000    6.500 
#    0.000    0.000    0.000    1.500    0.000    5.250 
#    0.000    0.000    0.000    0.000    0.000    0.000 
#
# Total GULP energy -178159.533687 kJ/mol
# GULP energy per Si atom -5567.485428 kJ/mol
# Density = 1.661193 g / cm^3
# Si number density = 16.649821 Si / 1000 Ang^3
#
#
#
# Elastic Constant Matrix: (Units=GPa)
#
#
# Indices 1 2 3 4 5 6 
#
# 1 79.9141 39.4053 59.7672 0.0000 0.0000 0.0000
# 2 39.4053 50.4206 37.0112 0.0000 0.0000 0.0000
# 3 59.7672 37.0112 132.8225 0.0000 0.0000 0.0000
# 4 0.0000 0.0000 0.0000 12.3564 0.0000 0.0000
# 5 0.0000 0.0000 0.0000 0.0000 28.6057 0.0000
# 6 0.0000 0.0000 0.0000 0.0000 0.0000 19.3783
#
#
#
# Elastic Compliance Matrix: (Units=1/GPa)
#
#
# Indices 1 2 3 4 5 6 
#
# 1 0.024929 -0.014141 -0.007277 0.000000 0.000000 0.000000
# 2 -0.014141 0.032955 -0.002820 0.000000 0.000000 0.000000
# 3 -0.007277 -0.002820 0.011589 0.000000 0.000000 0.000000
# 4 0.000000 0.000000 0.000000 0.080930 0.000000 0.000000
# 5 0.000000 0.000000 0.000000 0.000000 0.034958 0.000000
# 6 0.000000 0.000000 0.000000 0.000000 0.000000 0.051604
#
#
# Mechanical properties :
#
#
# Convention : Reuss Voigt Hill
#
# Bulk Modulus (GPa) = 47.62575 59.50273 53.56424
# Shear Modulus (GPa) = 17.09761 20.53297 18.81529
#
# Velocity S-wave (km/s) = 3.20800 3.51554 3.36528
# Velocity P-wave (km/s) = 6.51061 7.23146 6.88048
#
# Compressibility (1/GPa) = 0.02099704
#
# Stress axis : x y z
#
# Youngs Moduli (GPa) = 40.11455 30.34485 86.28838
#
# Poissons Ratio (x) = 0.42910 0.62792
# Poissons Ratio (y) = 0.56725 0.24331
# Poissons Ratio (z) = 0.29191 0.08556
#
# Static dielectric constant tensor:
#      x y z
#    x 1.555100 0.000000 0.000000 
#    y 0.000000 1.568280 0.000000 
#    z 0.000000 0.000000 1.580090 
# 
# From -- ./inp_files/5041.got.cif
#   From: 2010.05.17/outbox.cif.g08.bks.cpg/sg28_3_cif.got.tgz:5041.got - 2010.06.04 01:15:21.
