data_PCOD9339034
_publ_section_title
;
Structure prediction by ZEFSAII (Michael W. Deem and Ramdas Pophale) SiO2 
 PCOD9339034
Probable space group: P C C 2
;
_chemical_formula_sum "Si O2"
_cell_formula_units_Z 30
_cell_length_a 19.490060
_cell_length_b 5.502570
_cell_length_c 12.716629
_cell_angle_alpha 90.000000
_cell_angle_beta 90.000000
_cell_angle_gamma 90.000000
_cell_volume 1363.800211
_symmetry_space_group_name_H-M "P C C 2"
_symmetry_group_IT_number 27
_symmetry_cell_setting 'orthorhombic'
loop_
_space_group_symop_operation_xyz
x,y,z
-x,-y,z
-x,y,1/2+z
x,-y,1/2+z
loop_
_atom_site_type_symbol
_atom_site_label
_atom_site_fract_x
_atom_site_fract_y
_atom_site_fract_z
Si Si1 0.633617 0.448006 0.748990
Si Si2 0.123945 0.235494 0.736974
Si Si3 0.673769 0.791165 0.454080
Si Si4 0.580434 0.953568 0.640364
Si Si5 0.236898 0.479040 0.114486
Si Si6 0.802671 0.096221 0.441242
Si Si7 0.000000 0.500000 0.655549
Si Si8 0.077336 0.903854 0.574260
O O1 0.635981 0.388930 0.873023
O O2 0.599027 0.702706 0.707222
O O3 0.712213 0.442091 0.711287
O O4 0.603581 0.201813 0.697522
O O5 0.172486 0.378273 0.657134
O O6 0.165066 0.242098 0.844866
O O7 0.047271 0.339612 0.732256
O O8 0.111634 0.969376 0.686845
O O9 0.619481 0.929174 0.528483
O O10 0.719632 0.640752 0.534616
O O11 0.733148 0.962666 0.403770
O O12 0.500000 0.000000 0.624566
O O13 0.218793 0.246773 0.044688
O O14 0.873105 0.979347 0.487179
O O15 0.943266 0.376914 0.579951
O O16 0.000000 0.000000 0.565351
#
# Coordination Sequence:
#
# PCOD9339034 Si02
#       8
#     4   4   4   4   4   4   2   4
#     4  11  26  45  77 111 154 190 247 297 369 431
#     4  11  24  40  66  94 135 181 245 298 374 438
#     4  11  26  43  73 108 146 185 241 299 364 432
#     4  11  26  51  77 109 153 200 242 299 358 437
#     4  11  23  44  65 104 138 186 231 310 358 440
#     4  12  24  40  71  98 134 190 239 301 375 439
#     4  10  22  44  60  86 140 182 230 312 370 438
#     4  10  23  42  61  93 134 177 236 303 362 442
#
# _framework density 21.997357999999998
#
# number of rings (size 3 to 8) (size 9 to 14) (size 15 to 20)
#    0.000    1.067    4.000    1.200    7.467    3.733 
#    0.000    2.667    0.000    0.000    0.000    0.000 
#    0.000    0.000    0.000    0.000    0.000    0.000 
#
# Total GULP energy -167024.929626 kJ/mol
# GULP energy per Si atom -5567.497654 kJ/mol
# Density = 2.194729 g / cm^3
# Si number density = 21.997358 Si / 1000 Ang^3
#
#
#
# Elastic Constant Matrix: (Units=GPa)
#
#
# Indices 1 2 3 4 5 6 
#
# 1 152.0215 44.2069 37.2873 0.0000 0.0000 0.0000
# 2 44.2069 77.1556 14.2315 0.0000 0.0000 0.0000
# 3 37.2873 14.2315 59.3413 0.0000 0.0000 0.0000
# 4 0.0000 0.0000 0.0000 35.4400 0.0000 0.0000
# 5 0.0000 0.0000 0.0000 0.0000 -2.4521 0.0000
# 6 0.0000 0.0000 0.0000 0.0000 0.0000 42.1232
#
#
#
# Elastic Compliance Matrix: (Units=1/GPa)
#
#
# Indices 1 2 3 4 5 6 
#
# 1 0.008950 -0.004280 -0.004597 0.000000 0.000000 0.000000
# 2 -0.004280 0.015608 -0.001054 0.000000 0.000000 0.000000
# 3 -0.004597 -0.001054 0.019993 0.000000 0.000000 0.000000
# 4 0.000000 0.000000 0.000000 0.028217 0.000000 0.000000
# 5 0.000000 0.000000 0.000000 0.000000 -0.407813 0.000000
# 6 0.000000 0.000000 0.000000 0.000000 0.000000 0.023740
#
#
# Mechanical properties :
#
#
# Convention : Reuss Voigt Hill
#
# Bulk Modulus (GPa) = 40.50462 53.32997 46.91730
# Shear Modulus (GPa) = -17.65453 27.87506 5.11027
#
# Velocity S-wave (km/s) = -2.83605 3.56364 1.52583
# Velocity P-wave (km/s) = 2.78013 6.42099 4.94764
#
# Compressibility (1/GPa) = 0.02468854
#
# Stress axis : x y z
#
# Youngs Moduli (GPa) = 111.72805 64.07170 50.01710
#
# Poissons Ratio (x) = 0.27424 0.22995
# Poissons Ratio (y) = 0.47821 0.05270
# Poissons Ratio (z) = 0.51367 0.06751
#
# Static dielectric constant tensor:
#      x y z
#    x 1.969270 0.000000 0.000000 
#    y 0.000000 1.982670 0.000000 
#    z 0.000000 0.000000 1.849290 
# 
# From -- ./inp_files/2859.got.cif
#   From: 2010.05.17/outbox.cif.g08.bks.cpg/sg27_2_cif.got.tgz:2859.got - 2010.06.04 01:11:05.
