data_PCOD9339276
_publ_section_title
;
Structure prediction by ZEFSAII (Michael W. Deem and Ramdas Pophale) SiO2 
 PCOD9339276
Probable space group: P M A 2
;
_chemical_formula_sum "Si O2"
_cell_formula_units_Z 24
_cell_length_a 9.171658
_cell_length_b 13.245250
_cell_length_c 11.787494
_cell_angle_alpha 90.000000
_cell_angle_beta 90.000000
_cell_angle_gamma 90.000000
_cell_volume 1431.955417
_symmetry_space_group_name_H-M "P M A 2"
_symmetry_group_IT_number 28
_symmetry_cell_setting 'orthorhombic'
loop_
_space_group_symop_operation_xyz
x,y,z
-x,-y,z
1/2-x,y,z
1/2+x,-y,z
loop_
_atom_site_type_symbol
_atom_site_label
_atom_site_fract_x
_atom_site_fract_y
_atom_site_fract_z
Si Si1 0.923585 0.785995 0.367700
Si Si2 0.913043 0.089209 0.186672
Si Si3 0.084766 0.731324 0.006835
Si Si4 0.922998 0.106641 0.828578
Si Si5 0.575999 0.606213 0.190585
Si Si6 0.422525 0.892763 0.559063
O O1 0.750000 0.794143 0.379826
O O2 0.955356 0.685376 0.293460
O O3 0.989868 0.875831 0.291694
O O4 0.003162 0.803450 0.487050
O O5 0.750000 0.059764 0.220680
O O6 0.903350 0.181642 0.101555
O O7 0.000000 0.000000 0.127798
O O8 0.250000 0.693128 0.983883
O O9 0.986311 0.649475 0.071169
O O10 0.026944 0.794454 0.898729
O O11 0.750000 0.096092 0.853730
O O12 0.940421 0.123276 0.693980
O O13 0.000000 0.000000 0.856058
O O14 0.500000 0.500000 0.214056
O O15 0.750000 0.596238 0.183138
O O16 0.250000 0.898898 0.533943
O O17 0.500000 0.000000 0.532560
#
# Coordination Sequence:
#
# PCOD9339276 Si02
#       6
#     4   4   4   4   4   4
#     4  10  20  33  48  68  94 124 160 199 240 288
#     4  10  18  27  42  65  94 126 156 191 235 283
#     4   9  18  32  49  70  97 127 160 197 238 286
#     4   9  18  31  48  72 102 136 169 200 234 276
#     4  10  21  36  55  76  96 121 155 200 252 300
#     4  10  19  31  48  71 101 136 170 201 235 277
#
# _framework density 16.760297999999999
#
# number of rings (size 3 to 8) (size 9 to 14) (size 15 to 20)
#    0.000    2.333    0.000    3.000    0.000    4.000 
#    0.000    0.000    0.000    1.000    0.000    2.333 
#    0.000    0.000    0.000    0.000    0.000    0.000 
#
# Total GULP energy -133700.460304 kJ/mol
# GULP energy per Si atom -5570.852513 kJ/mol
# Density = 1.672215 g / cm^3
# Si number density = 16.760298 Si / 1000 Ang^3
#
#
#
# Elastic Constant Matrix: (Units=GPa)
#
#
# Indices 1 2 3 4 5 6 
#
# 1 95.7589 63.9367 46.7735 0.0000 0.0000 0.0000
# 2 63.9367 81.8706 37.5326 0.0000 0.0000 0.0000
# 3 46.7735 37.5326 84.9140 0.0000 0.0000 0.0000
# 4 0.0000 0.0000 0.0000 20.9028 0.0000 0.0000
# 5 0.0000 0.0000 0.0000 0.0000 21.6052 0.0000
# 6 0.0000 0.0000 0.0000 0.0000 0.0000 27.2051
#
#
#
# Elastic Compliance Matrix: (Units=1/GPa)
#
#
# Indices 1 2 3 4 5 6 
#
# 1 0.024199 -0.016037 -0.006241 0.000000 0.000000 0.000000
# 2 -0.016037 0.025946 -0.002635 0.000000 0.000000 0.000000
# 3 -0.006241 -0.002635 0.016379 0.000000 0.000000 0.000000
# 4 0.000000 0.000000 0.000000 0.047840 0.000000 0.000000
# 5 0.000000 0.000000 0.000000 0.000000 0.046285 0.000000
# 6 0.000000 0.000000 0.000000 0.000000 0.000000 0.036758
#
#
# Mechanical properties :
#
#
# Convention : Reuss Voigt Hill
#
# Bulk Modulus (GPa) = 59.88535 62.11434 60.99985
# Shear Modulus (GPa) = 19.77847 21.56266 20.67057
#
# Velocity S-wave (km/s) = 3.43895 3.59072 3.51565
# Velocity P-wave (km/s) = 7.18168 7.37101 7.27697
#
# Compressibility (1/GPa) = 0.01669857
#
# Stress axis : x y z
#
# Youngs Moduli (GPa) = 41.32383 38.54108 61.05357
#
# Poissons Ratio (x) = 0.61809 0.38105
# Poissons Ratio (y) = 0.66271 0.16086
# Poissons Ratio (z) = 0.25791 0.10154
#
# Static dielectric constant tensor:
#      x y z
#    x 1.517810 0.000000 0.000000 
#    y 0.000000 1.586470 0.000000 
#    z 0.000000 0.000000 1.597370 
# 
# From -- ./inp_files/4688.got.cif
#   From: 2010.05.17/outbox.cif.g08.bks.cpg/sg28_3_cif.got.tgz:4688.got - 2010.06.04 01:15:21.
