data_PCOD9339789
_publ_section_title
;
Structure prediction by ZEFSAII (Michael W. Deem and Ramdas Pophale) SiO2 
 PCOD9339789
Probable space group: P M A 2
;
_chemical_formula_sum "Si O2"
_cell_formula_units_Z 24
_cell_length_a 8.728802
_cell_length_b 9.459611
_cell_length_c 15.662924
_cell_angle_alpha 90.000000
_cell_angle_beta 90.000000
_cell_angle_gamma 90.000000
_cell_volume 1293.304416
_symmetry_space_group_name_H-M "P M A 2"
_symmetry_group_IT_number 28
_symmetry_cell_setting 'orthorhombic'
loop_
_space_group_symop_operation_xyz
x,y,z
-x,-y,z
1/2-x,y,z
1/2+x,-y,z
loop_
_atom_site_type_symbol
_atom_site_label
_atom_site_fract_x
_atom_site_fract_y
_atom_site_fract_z
Si Si1 0.933274 0.842658 0.301560
Si Si2 0.432667 0.842877 0.481138
Si Si3 0.432937 0.343566 0.631744
Si Si4 0.066811 0.842291 0.979846
Si Si5 0.933710 0.657842 0.134758
Si Si6 0.433429 0.342162 0.828449
O O1 0.750000 0.854403 0.310539
O O2 0.968068 0.739761 0.222945
O O3 0.003856 0.787949 0.390372
O O4 0.000000 0.000000 0.285881
O O5 0.250000 0.847135 0.478623
O O6 0.490781 0.754265 0.561210
O O7 0.500000 0.000000 0.488969
O O8 0.500000 0.500000 0.621589
O O9 0.250000 0.344900 0.620361
O O10 0.464825 0.300821 0.729953
O O11 0.250000 0.847700 0.981463
O O12 0.008878 0.765968 0.893956
O O13 0.000000 0.000000 0.985927
O O14 0.005605 0.747926 0.058022
O O15 0.750000 0.652544 0.124244
O O16 0.000000 0.500000 0.135301
O O17 0.500000 0.500000 0.842021
O O18 0.250000 0.345993 0.840786
#
# Coordination Sequence:
#
# PCOD9339789 Si02
#       6
#     4   4   4   4   4   4
#     4  10  21  38  60  85 115 151 193 240 290 344
#     4  11  22  37  59  85 117 155 195 240 289 343
#     4  10  21  38  60  86 117 153 194 239 288 343
#     4  12  25  41  62  87 118 153 192 238 287 343
#     4  11  24  41  62  88 118 153 193 237 286 341
#     4  10  21  39  62  87 117 153 193 238 288 342
#
# _framework density 18.557115
#
# number of rings (size 3 to 8) (size 9 to 14) (size 15 to 20)
#    0.000    1.333    0.000    7.000    0.000    7.333 
#    0.000    1.667    0.000    0.000    0.000    0.000 
#    0.000    0.000    0.000    0.000    0.000    0.000 
#
# Total GULP energy -134208.166249 kJ/mol
# GULP energy per Si atom -5592.006927 kJ/mol
# Density = 1.851488 g / cm^3
# Si number density = 18.557115 Si / 1000 Ang^3
#
#
#
# Elastic Constant Matrix: (Units=GPa)
#
#
# Indices 1 2 3 4 5 6 
#
# 1 142.4147 78.9167 108.0456 0.0000 0.0000 0.0000
# 2 78.9167 128.4156 113.8587 0.0000 0.0000 0.0000
# 3 108.0456 113.8587 177.9098 0.0000 0.0000 0.0000
# 4 0.0000 0.0000 0.0000 41.1392 0.0000 0.0000
# 5 0.0000 0.0000 0.0000 0.0000 49.1943 0.0000
# 6 0.0000 0.0000 0.0000 0.0000 0.0000 36.8872
#
#
#
# Elastic Compliance Matrix: (Units=1/GPa)
#
#
# Indices 1 2 3 4 5 6 
#
# 1 0.013319 -0.002343 -0.006590 0.000000 0.000000 0.000000
# 2 -0.002343 0.018414 -0.010362 0.000000 0.000000 0.000000
# 3 -0.006590 -0.010362 0.016254 0.000000 0.000000 0.000000
# 4 0.000000 0.000000 0.000000 0.024308 0.000000 0.000000
# 5 0.000000 0.000000 0.000000 0.000000 0.020328 0.000000
# 6 0.000000 0.000000 0.000000 0.000000 0.000000 0.027110
#
#
# Mechanical properties :
#
#
# Convention : Reuss Voigt Hill
#
# Bulk Modulus (GPa) = 106.39249 116.70914 111.55082
# Shear Modulus (GPa) = 30.96848 35.30542 33.13695
#
# Velocity S-wave (km/s) = 4.08955 4.36653 4.23031
# Velocity P-wave (km/s) = 8.93063 9.40481 9.17079
#
# Compressibility (1/GPa) = 0.00939916
#
# Stress axis : x y z
#
# Youngs Moduli (GPa) = 75.07974 54.30554 61.52206
#
# Poissons Ratio (x) = 0.12721 0.40541
# Poissons Ratio (y) = 0.17588 0.63750
# Poissons Ratio (z) = 0.49475 0.56272
#
# Static dielectric constant tensor:
#      x y z
#    x 1.616980 0.000000 0.000000 
#    y 0.000000 1.594350 0.000000 
#    z 0.000000 0.000000 1.637870 
# 
# From -- ./inp_files/6056.got.cif
#   From: 2010.05.17/outbox.cif.g08.bks.cpg/sg28_4_cif.got.tgz:6056.got - 2010.06.04 01:15:21.
