data_PCOD9339817
_publ_section_title
;
Structure prediction by ZEFSAII (Michael W. Deem and Ramdas Pophale) SiO2 
 PCOD9339817
Probable space group: P M A 2
;
_chemical_formula_sum "Si O2"
_cell_formula_units_Z 24
_cell_length_a 16.606328
_cell_length_b 4.847326
_cell_length_c 13.151453
_cell_angle_alpha 90.000000
_cell_angle_beta 90.000000
_cell_angle_gamma 90.000000
_cell_volume 1058.643115
_symmetry_space_group_name_H-M "P M A 2"
_symmetry_group_IT_number 28
_symmetry_cell_setting 'orthorhombic'
loop_
_space_group_symop_operation_xyz
x,y,z
-x,-y,z
1/2-x,y,z
1/2+x,-y,z
loop_
_atom_site_type_symbol
_atom_site_label
_atom_site_fract_x
_atom_site_fract_y
_atom_site_fract_z
Si Si1 0.657729 0.545809 0.630580
Si Si2 0.088348 0.603935 0.845696
Si Si3 0.155677 0.094094 0.187583
Si Si4 0.340601 0.970368 0.488762
Si Si5 0.911550 0.383347 0.303035
Si Si6 0.158871 0.116707 0.949459
O O1 0.750000 0.639643 0.656853
O O2 0.605303 0.485519 0.729552
O O3 0.664913 0.252921 0.577159
O O4 0.624431 0.759575 0.545201
O O5 0.151400 0.423143 0.907930
O O6 0.000000 0.500000 0.874144
O O7 0.103634 0.917228 0.880216
O O8 0.250000 0.013289 0.198924
O O9 0.139458 0.354044 0.262370
O O10 0.097106 0.843944 0.215813
O O11 0.140284 0.143291 0.068782
O O12 0.250000 0.046787 0.453884
O O13 0.382598 0.800121 0.398859
O O14 0.000000 0.500000 0.320820
O O15 0.250000 0.014432 0.938983
#
# Coordination Sequence:
#
# PCOD9339817 Si02
#       6
#     4   4   4   4   4   4
#     4  10  21  39  64  90 119 161 209 255 307 374
#     4  12  25  41  64  97 134 168 210 271 336 390
#     4  11  24  43  67  93 126 173 223 267 318 390
#     4  10  21  39  64  90 119 161 209 255 307 374
#     4  12  25  41  64  97 134 168 210 271 336 390
#     4  11  24  43  67  93 126 173 223 267 318 390
#
# _framework density 22.670531
#
# number of rings (size 3 to 8) (size 9 to 14) (size 15 to 20)
#    0.000    1.000    0.000    7.000    0.000   10.000 
#    0.000    1.667    0.000    0.000    0.000    0.000 
#    0.000    0.000    0.000    0.000    0.000    0.000 
#
# Total GULP energy -134051.102647 kJ/mol
# GULP energy per Si atom -5585.462610 kJ/mol
# Density = 2.261893 g / cm^3
# Si number density = 22.670531 Si / 1000 Ang^3
#
#
#
# Elastic Constant Matrix: (Units=GPa)
#
#
# Indices 1 2 3 4 5 6 
#
# 1 49.6923 1.1642 22.0173 0.0000 0.0000 0.0000
# 2 1.1642 103.5179 2.9784 0.0000 0.0000 0.0000
# 3 22.0173 2.9784 75.5351 0.0000 0.0000 0.0000
# 4 0.0000 0.0000 0.0000 88.5663 0.0000 0.0000
# 5 0.0000 0.0000 0.0000 0.0000 36.4490 0.0000
# 6 0.0000 0.0000 0.0000 0.0000 0.0000 -126.3969
#
#
#
# Elastic Compliance Matrix: (Units=1/GPa)
#
#
# Indices 1 2 3 4 5 6 
#
# 1 0.023109 -0.000066 -0.006733 0.000000 0.000000 0.000000
# 2 -0.000066 0.009671 -0.000362 0.000000 0.000000 0.000000
# 3 -0.006733 -0.000362 0.015216 0.000000 0.000000 0.000000
# 4 0.000000 0.000000 0.000000 0.011291 0.000000 0.000000
# 5 0.000000 0.000000 0.000000 0.000000 0.027436 0.000000
# 6 0.000000 0.000000 0.000000 0.000000 0.000000 -0.007912
#
#
# Mechanical properties :
#
#
# Convention : Reuss Voigt Hill
#
# Bulk Modulus (GPa) = 29.69745 31.22945 30.46345
# Shear Modulus (GPa) = 47.91196 13.22937 30.57067
#
# Velocity S-wave (km/s) = 4.60216 2.41830 3.67614
# Velocity P-wave (km/s) = 6.43179 4.64788 5.61118
#
# Compressibility (1/GPa) = 0.03367293
#
# Stress axis : x y z
#
# Youngs Moduli (GPa) = 43.27370 103.39840 65.72120
#
# Poissons Ratio (x) = 0.00684 0.44252
# Poissons Ratio (y) = 0.00286 0.02379
# Poissons Ratio (z) = 0.29137 0.03744
#
# Static dielectric constant tensor:
#      x y z
#    x 1.878580 0.000000 0.000000 
#    y 0.000000 1.773910 0.000000 
#    z 0.000000 0.000000 1.866840 
# 
# From -- ./inp_files/5672.got.cif
#   From: 2010.05.17/outbox.cif.g08.bks.cpg/sg28_3_cif.got.tgz:5672.got - 2010.06.04 01:15:21.
