data_PCOD9339715
_publ_section_title
;
Structure prediction by ZEFSAII (Michael W. Deem and Ramdas Pophale) SiO2 
 PCOD9339715
Probable space group: P M A 2
;
_chemical_formula_sum "Si O2"
_cell_formula_units_Z 32
_cell_length_a 8.593750
_cell_length_b 14.952097
_cell_length_c 12.767048
_cell_angle_alpha 90.000000
_cell_angle_beta 90.000000
_cell_angle_gamma 90.000000
_cell_volume 1640.496516
_symmetry_space_group_name_H-M "P M A 2"
_symmetry_group_IT_number 28
_symmetry_cell_setting 'orthorhombic'
loop_
_space_group_symop_operation_xyz
x,y,z
-x,-y,z
1/2-x,y,z
1/2+x,-y,z
loop_
_atom_site_type_symbol
_atom_site_label
_atom_site_fract_x
_atom_site_fract_y
_atom_site_fract_z
Si Si1 0.562441 0.898773 0.572420
Si Si2 0.435171 0.748431 0.422003
Si Si3 0.064727 0.601077 0.028250
Si Si4 0.561976 0.899288 0.031751
Si Si5 0.937649 0.898694 0.802301
Si Si6 0.062960 0.255600 0.187519
Si Si7 0.563056 0.601124 0.577978
Si Si8 0.563521 0.601425 0.810469
O O1 0.750000 0.899408 0.567000
O O2 0.495761 0.835749 0.482994
O O3 0.515035 0.862312 0.688493
O O4 0.500000 0.000000 0.563096
O O5 0.250000 0.748813 0.418418
O O6 0.501754 0.745188 0.305165
O O7 0.493685 0.664011 0.489372
O O8 0.250000 0.598217 0.029574
O O9 0.000000 0.500000 0.035969
O O10 0.999995 0.660432 0.122196
O O11 0.007774 0.640515 0.916318
O O12 0.750000 0.902954 0.032696
O O13 0.511678 0.832676 0.123171
O O14 0.500000 0.000000 0.044434
O O15 0.513063 0.863136 0.916174
O O16 0.750000 0.898215 0.802072
O O17 0.000000 0.000000 0.802168
O O18 0.250000 0.258186 0.187968
O O19 0.500000 0.500000 0.569382
O O20 0.750000 0.599661 0.570335
O O21 0.523824 0.637489 0.695121
O O22 0.500000 0.500000 0.807863
O O23 0.750000 0.601792 0.820840
#
# Coordination Sequence:
#
# PCOD9339715 Si02
#       8
#     4   4   4   4   4   4   4   4
#     4  10  20  37  61  88 119 154 191 236 290 348
#     4  12  26  42  59  83 115 153 201 249 294 349
#     4  11  22  38  61  89 120 154 192 237 290 346
#     4   9  19  36  60  87 116 149 184 229 283 339
#     4   8  15  30  54  85 116 145 180 223 278 341
#     4  11  24  42  60  82 114 153 200 247 291 343
#     4  10  21  39  63  90 120 154 192 237 291 349
#     4   9  17  32  57  88 120 152 187 230 283 345
#
# _framework density 19.50629
#
# number of rings (size 3 to 8) (size 9 to 14) (size 15 to 20)
#    0.000    2.000    0.000    4.500    0.000    5.000 
#    0.000    6.250    0.000    0.000    0.000    0.000 
#    0.000    0.000    0.000    0.000    0.000    0.000 
#
# Total GULP energy -178640.940626 kJ/mol
# GULP energy per Si atom -5582.529395 kJ/mol
# Density = 1.946189 g / cm^3
# Si number density = 19.506290 Si / 1000 Ang^3
#
#
#
# Elastic Constant Matrix: (Units=GPa)
#
#
# Indices 1 2 3 4 5 6 
#
# 1 94.0977 39.6477 73.6207 0.0000 0.0000 0.0000
# 2 39.6477 111.7522 91.1161 0.0000 0.0000 0.0000
# 3 73.6207 91.1161 233.3228 0.0000 0.0000 0.0000
# 4 0.0000 0.0000 0.0000 36.3057 0.0000 0.0000
# 5 0.0000 0.0000 0.0000 0.0000 30.1841 0.0000
# 6 0.0000 0.0000 0.0000 0.0000 0.0000 24.9270
#
#
#
# Elastic Compliance Matrix: (Units=1/GPa)
#
#
# Indices 1 2 3 4 5 6 
#
# 1 0.014428 -0.002064 -0.003746 0.000000 0.000000 0.000000
# 2 -0.002064 0.013424 -0.004591 0.000000 0.000000 0.000000
# 3 -0.003746 -0.004591 0.007261 0.000000 0.000000 0.000000
# 4 0.000000 0.000000 0.000000 0.027544 0.000000 0.000000
# 5 0.000000 0.000000 0.000000 0.000000 0.033130 0.000000
# 6 0.000000 0.000000 0.000000 0.000000 0.000000 0.040117
#
#
# Mechanical properties :
#
#
# Convention : Reuss Voigt Hill
#
# Bulk Modulus (GPa) = 69.88242 94.21575 82.04909
# Shear Modulus (GPa) = 30.96417 33.93591 32.45004
#
# Velocity S-wave (km/s) = 3.98853 4.17555 4.08311
# Velocity P-wave (km/s) = 7.55742 8.46475 8.02392
#
# Compressibility (1/GPa) = 0.01430975
#
# Stress axis : x y z
#
# Youngs Moduli (GPa) = 69.30889 74.49420 137.72521
#
# Poissons Ratio (x) = 0.15377 0.51598
# Poissons Ratio (y) = 0.14307 0.63228
# Poissons Ratio (z) = 0.25966 0.34199
#
# Static dielectric constant tensor:
#      x y z
#    x 1.649090 0.000000 0.000000 
#    y 0.000000 1.671530 0.000000 
#    z 0.000000 0.000000 1.697920 
# 
# From -- ./inp_files/4980.got.cif
#   From: 2010.05.17/outbox.cif.g08.bks.cpg/sg28_3_cif.got.tgz:4980.got - 2010.06.04 01:15:21.
