data_PCOD9339191
_publ_section_title
;
Structure prediction by ZEFSAII (Michael W. Deem and Ramdas Pophale) SiO2 
 PCOD9339191
Probable space group: P C C 2
;
_chemical_formula_sum "Si O2"
_cell_formula_units_Z 24
_cell_length_a 5.122878
_cell_length_b 17.371564
_cell_length_c 12.203858
_cell_angle_alpha 90.000000
_cell_angle_beta 90.000000
_cell_angle_gamma 90.000000
_cell_volume 1086.050650
_symmetry_space_group_name_H-M "P C C 2"
_symmetry_group_IT_number 27
_symmetry_cell_setting 'orthorhombic'
loop_
_space_group_symop_operation_xyz
x,y,z
-x,-y,z
-x,y,1/2+z
x,-y,1/2+z
loop_
_atom_site_type_symbol
_atom_site_label
_atom_site_fract_x
_atom_site_fract_y
_atom_site_fract_z
Si Si1 0.396922 0.579759 0.122180
Si Si2 0.114601 0.635755 0.509087
Si Si3 0.477581 0.159474 0.332689
Si Si4 0.972205 0.090481 0.448781
Si Si5 0.132352 0.205076 0.143153
Si Si6 0.247780 0.702125 0.298144
O O1 0.500000 0.500000 0.172557
O O2 0.391450 0.646644 0.213392
O O3 0.609906 0.595476 0.028723
O O4 0.113150 0.587327 0.067042
O O5 0.142711 0.718134 0.569634
O O6 0.075031 0.652558 0.381345
O O7 0.227874 0.123707 0.390465
O O8 0.389743 0.174801 0.206737
O O9 0.549565 0.246669 0.368020
O O10 0.722112 0.108255 0.371246
O O11 0.947061 0.136628 0.562492
O O12 0.000000 0.000000 0.466617
O O13 0.928890 0.234840 0.235384
#
# Coordination Sequence:
#
# PCOD9339191 Si02
#       6
#     4   4   4   4   4   4
#     4  11  26  46  70 107 147 185 234 296 362 428
#     4  11  24  42  74 103 141 187 237 291 356 427
#     4  12  24  47  74 105 141 190 247 301 354 446
#     4  12  29  48  71 107 151 185 242 308 376 430
#     4  11  24  45  76 104 139 191 243 297 359 437
#     4  11  25  44  77 107 140 191 251 296 353 435
#
# _framework density 22.098419
#
# number of rings (size 3 to 8) (size 9 to 14) (size 15 to 20)
#    0.000    0.667    5.000    1.000    9.333    1.333 
#    3.000    3.333    0.000    0.000    0.000    0.000 
#    0.000    0.000    0.000    0.000    0.000    0.000 
#
# Total GULP energy -134031.213111 kJ/mol
# GULP energy per Si atom -5584.633880 kJ/mol
# Density = 2.204812 g / cm^3
# Si number density = 22.098419 Si / 1000 Ang^3
#
#
#
# Elastic Constant Matrix: (Units=GPa)
#
#
# Indices 1 2 3 4 5 6 
#
# 1 129.0409 44.9311 35.0293 0.0000 0.0000 0.0000
# 2 44.9311 137.7882 34.5203 0.0000 0.0000 0.0000
# 3 35.0293 34.5203 58.2209 0.0000 0.0000 0.0000
# 4 0.0000 0.0000 0.0000 24.1252 0.0000 0.0000
# 5 0.0000 0.0000 0.0000 0.0000 24.1037 0.0000
# 6 0.0000 0.0000 0.0000 0.0000 0.0000 33.5765
#
#
#
# Elastic Compliance Matrix: (Units=1/GPa)
#
#
# Indices 1 2 3 4 5 6 
#
# 1 0.009710 -0.002000 -0.004656 0.000000 0.000000 0.000000
# 2 -0.002000 0.008935 -0.004095 0.000000 0.000000 0.000000
# 3 -0.004656 -0.004095 0.022405 0.000000 0.000000 0.000000
# 4 0.000000 0.000000 0.000000 0.041450 0.000000 0.000000
# 5 0.000000 0.000000 0.000000 0.000000 0.041487 0.000000
# 6 0.000000 0.000000 0.000000 0.000000 0.000000 0.029783
#
#
# Mechanical properties :
#
#
# Convention : Reuss Voigt Hill
#
# Bulk Modulus (GPa) = 51.15387 61.55684 56.35535
# Shear Modulus (GPa) = 27.50437 30.39905 28.95171
#
# Velocity S-wave (km/s) = 3.53176 3.71296 3.62349
# Velocity P-wave (km/s) = 6.31107 6.80424 6.56229
#
# Compressibility (1/GPa) = 0.01954886
#
# Stress axis : x y z
#
# Youngs Moduli (GPa) = 102.98914 111.91335 44.63198
#
# Poissons Ratio (x) = 0.22379 0.20782
# Poissons Ratio (y) = 0.20595 0.18276
# Poissons Ratio (z) = 0.47955 0.45827
#
# Static dielectric constant tensor:
#      x y z
#    x 1.915710 0.000000 0.000000 
#    y 0.000000 1.822380 0.000000 
#    z 0.000000 0.000000 1.838690 
# 
# From -- ./inp_files/2045.got.cif
#   From: 2010.05.17/outbox.cif.g08.bks.cpg/sg27_2_cif.got.tgz:2045.got - 2010.06.04 01:11:05.
