data_PCOD9339916
_publ_section_title
;
Structure prediction by ZEFSAII (Michael W. Deem and Ramdas Pophale) SiO2 
 PCOD9339916
Probable space group: P M A 2
;
_chemical_formula_sum "Si O2"
_cell_formula_units_Z 20
_cell_length_a 20.196290
_cell_length_b 6.564623
_cell_length_c 7.406108
_cell_angle_alpha 90.000000
_cell_angle_beta 90.000000
_cell_angle_gamma 90.000000
_cell_volume 981.909426
_symmetry_space_group_name_H-M "P M A 2"
_symmetry_group_IT_number 28
_symmetry_cell_setting 'orthorhombic'
loop_
_space_group_symop_operation_xyz
x,y,z
-x,-y,z
1/2-x,y,z
1/2+x,-y,z
loop_
_atom_site_type_symbol
_atom_site_label
_atom_site_fract_x
_atom_site_fract_y
_atom_site_fract_z
Si Si1 0.750000 0.366137 0.623910
Si Si2 0.500000 0.500000 0.581481
Si Si3 0.750000 0.690165 0.914162
Si Si4 0.750000 0.317009 0.195257
Si Si5 0.434904 0.123627 0.399328
Si Si6 0.893900 0.180969 0.716758
Si Si7 0.643878 0.992089 0.062755
O O1 0.750000 0.586166 0.719143
O O2 0.750000 0.371705 0.406825
O O3 0.817876 0.257703 0.691906
O O4 0.456694 0.344863 0.463355
O O5 0.552927 0.360540 0.686717
O O6 0.750000 0.511036 0.063782
O O7 0.687977 0.834953 0.949362
O O8 0.687660 0.174348 0.146429
O O9 0.386847 0.124959 0.230478
O O10 0.500000 0.000000 0.340899
O O11 0.406399 0.992663 0.566599
O O12 0.903979 0.091408 0.915849
#
# Coordination Sequence:
#
# PCOD9339916 Si02
#       7
#     2   2   2   2   4   4   4
#     4  12  23  44  73  99 139 181 228 293 346 408
#     4  10  26  48  70 102 140 190 238 278 354 420
#     4  11  26  39  65 110 136 168 232 284 351 417
#     4  11  23  43  68 101 137 179 224 283 349 417
#     4  10  24  45  67  97 134 183 232 285 341 414
#     4  11  24  46  72 101 142 181 235 292 348 413
#     4  11  24  44  69 100 137 179 227 286 350 411
#
# _framework density 20.368476999999999
#
# number of rings (size 3 to 8) (size 9 to 14) (size 15 to 20)
#    0.000    1.200    4.000    0.600    5.600    2.400 
#    0.000    2.000    0.000    0.000    0.000    0.000 
#    0.000    0.000    0.000    0.000    0.000    0.000 
#
# Total GULP energy -111810.191571 kJ/mol
# GULP energy per Si atom -5590.509579 kJ/mol
# Density = 2.032212 g / cm^3
# Si number density = 20.368477 Si / 1000 Ang^3
#
#
#
# Elastic Constant Matrix: (Units=GPa)
#
#
# Indices 1 2 3 4 5 6 
#
# 1 75.9097 46.7419 42.2393 0.0000 0.0000 0.0000
# 2 46.7419 144.4332 61.5186 0.0000 0.0000 0.0000
# 3 42.2393 61.5186 122.6261 0.0000 0.0000 0.0000
# 4 0.0000 0.0000 0.0000 8.5046 0.0000 0.0000
# 5 0.0000 0.0000 0.0000 0.0000 8.9238 0.0000
# 6 0.0000 0.0000 0.0000 0.0000 0.0000 1286.5164
#
#
#
# Elastic Compliance Matrix: (Units=1/GPa)
#
#
# Indices 1 2 3 4 5 6 
#
# 1 0.017982 -0.004046 -0.004164 0.000000 0.000000 0.000000
# 2 -0.004046 0.009715 -0.003480 0.000000 0.000000 0.000000
# 3 -0.004164 -0.003480 0.011335 0.000000 0.000000 0.000000
# 4 0.000000 0.000000 0.000000 0.117583 0.000000 0.000000
# 5 0.000000 0.000000 0.000000 0.000000 0.112060 0.000000
# 6 0.000000 0.000000 0.000000 0.000000 0.000000 0.000777
#
#
# Mechanical properties :
#
#
# Convention : Reuss Voigt Hill
#
# Bulk Modulus (GPa) = 63.89064 71.55208 67.72136
# Shear Modulus (GPa) = 16.77567 273.62025 145.19796
#
# Velocity S-wave (km/s) = 2.87297 11.60288 8.45224
# Velocity P-wave (km/s) = 6.51466 14.65290 11.33905
#
# Compressibility (1/GPa) = 0.01565175
#
# Stress axis : x y z
#
# Youngs Moduli (GPa) = 55.61150 102.93066 88.21962
#
# Poissons Ratio (x) = 0.41642 0.36738
# Poissons Ratio (y) = 0.22498 0.30704
# Poissons Ratio (z) = 0.23159 0.35824
#
# Static dielectric constant tensor:
#      x y z
#    x 1.737190 0.000000 0.000000 
#    y 0.000000 1.702950 0.000000 
#    z 0.000000 0.000000 1.689150 
# 
# From -- ./inp_files/3728.got.cif
#   From: 2010.05.17/outbox.cif.g08.bks.cpg/sg28_2_cif.got.tgz:3728.got - 2010.06.04 01:15:21.
