data_PCOD9339721
_publ_section_title
;
Structure prediction by ZEFSAII (Michael W. Deem and Ramdas Pophale) SiO2 
 PCOD9339721
Probable space group: P M A 2
;
_chemical_formula_sum "Si O2"
_cell_formula_units_Z 32
_cell_length_a 14.902774
_cell_length_b 9.092200
_cell_length_c 10.243187
_cell_angle_alpha 90.000000
_cell_angle_beta 90.000000
_cell_angle_gamma 90.000000
_cell_volume 1387.941613
_symmetry_space_group_name_H-M "P M A 2"
_symmetry_group_IT_number 28
_symmetry_cell_setting 'orthorhombic'
loop_
_space_group_symop_operation_xyz
x,y,z
-x,-y,z
1/2-x,y,z
1/2+x,-y,z
loop_
_atom_site_type_symbol
_atom_site_label
_atom_site_fract_x
_atom_site_fract_y
_atom_site_fract_z
Si Si1 0.514478 0.165707 0.600170
Si Si2 0.852461 0.392065 0.530126
Si Si3 0.855175 0.344959 0.105166
Si Si4 0.014479 0.165707 0.215355
Si Si5 0.352461 0.392067 0.285394
Si Si6 0.644824 0.655038 0.710358
Si Si7 0.853828 0.835623 0.968354
Si Si8 0.853827 0.164373 0.847168
O O1 0.577488 0.263415 0.510123
O O2 0.420334 0.242280 0.627917
O O3 0.572635 0.167789 0.734678
O O4 0.500000 0.000000 0.559223
O O5 0.750000 0.339869 0.538147
O O6 0.858314 0.500000 0.407760
O O7 0.873237 0.488804 0.660878
O O8 0.750000 0.319472 0.134224
O O9 0.873238 0.511193 0.154642
O O10 0.920335 0.242279 0.187608
O O11 0.868616 0.291115 0.956243
O O12 0.077490 0.263415 0.305400
O O13 0.072636 0.167788 0.080847
O O14 0.000000 0.000000 0.256303
O O15 0.250000 0.339873 0.277370
O O16 0.750000 0.680531 0.681306
O O17 0.631381 0.708877 0.859284
O O18 0.750000 0.819874 0.013491
O O19 0.860126 0.999997 0.907757
O O20 0.750000 0.180123 0.802029
#
# Coordination Sequence:
#
# PCOD9339721 Si02
#       8
#     4   4   4   4   4   4   4   4
#     4  12  23  37  68 101 136 173 225 284 349 415
#     4  10  24  48  71  94 133 181 234 290 344 404
#     4  10  22  39  63  94 134 184 224 273 338 407
#     4  12  23  37  68 101 136 173 225 284 349 415
#     4  10  24  48  71  94 133 181 234 290 344 404
#     4  10  22  39  63  94 134 184 224 273 338 407
#     4  10  20  37  63  96 140 178 220 280 345 411
#     4  10  20  37  63  96 140 178 220 280 345 411
#
# _framework density 23.055724000000001
#
# number of rings (size 3 to 8) (size 9 to 14) (size 15 to 20)
#    0.000    1.500    2.500    2.250    0.000    4.000 
#    0.000    8.750    0.000    4.500    0.000    0.000 
#    0.000    0.000    0.000    0.000    0.000    0.000 
#
# Total GULP energy -179108.625563 kJ/mol
# GULP energy per Si atom -5597.144549 kJ/mol
# Density = 2.300325 g / cm^3
# Si number density = 23.055724 Si / 1000 Ang^3
#
#
#
# Elastic Constant Matrix: (Units=GPa)
#
#
# Indices 1 2 3 4 5 6 
#
# 1 92.3915 72.7257 33.7999 0.0000 0.0000 0.0000
# 2 72.7257 123.3345 36.6733 0.0000 0.0000 0.0000
# 3 33.7999 36.6733 95.1045 0.0000 0.0000 0.0000
# 4 0.0000 0.0000 0.0000 29.5412 0.0000 0.0000
# 5 0.0000 0.0000 0.0000 0.0000 27.8750 0.0000
# 6 0.0000 0.0000 0.0000 0.0000 0.0000 25.6256
#
#
#
# Elastic Compliance Matrix: (Units=1/GPa)
#
#
# Indices 1 2 3 4 5 6 
#
# 1 0.020944 -0.011449 -0.003028 0.000000 0.000000 0.000000
# 2 -0.011449 0.015417 -0.001876 0.000000 0.000000 0.000000
# 3 -0.003028 -0.001876 0.012314 0.000000 0.000000 0.000000
# 4 0.000000 0.000000 0.000000 0.033851 0.000000 0.000000
# 5 0.000000 0.000000 0.000000 0.000000 0.035874 0.000000
# 6 0.000000 0.000000 0.000000 0.000000 0.000000 0.039024
#
#
# Mechanical properties :
#
#
# Convention : Reuss Voigt Hill
#
# Bulk Modulus (GPa) = 62.62525 66.35870 64.49198
# Shear Modulus (GPa) = 25.58151 27.78378 26.68265
#
# Velocity S-wave (km/s) = 3.33461 3.47518 3.40562
# Velocity P-wave (km/s) = 6.48442 6.70424 6.59525
#
# Compressibility (1/GPa) = 0.01596800
#
# Stress axis : x y z
#
# Youngs Moduli (GPa) = 47.74737 64.86351 81.20570
#
# Poissons Ratio (x) = 0.74263 0.24592
# Poissons Ratio (y) = 0.54667 0.15234
# Poissons Ratio (z) = 0.14460 0.12168
#
# Static dielectric constant tensor:
#      x y z
#    x 1.803530 0.000000 0.000000 
#    y 0.000000 1.838700 0.000000 
#    z 0.000000 0.000000 1.935710 
# 
# From -- ./inp_files/5630.got.cif
#   From: 2010.05.17/outbox.cif.g08.bks.cpg/sg28_3_cif.got.tgz:5630.got - 2010.06.04 01:15:21.
