data_PCOD9339927
_publ_section_title
;
Structure prediction by ZEFSAII (Michael W. Deem and Ramdas Pophale) SiO2 
 PCOD9339927
Probable space group: P M A 2
;
_chemical_formula_sum "Si O2"
_cell_formula_units_Z 32
_cell_length_a 8.950929
_cell_length_b 15.000040
_cell_length_c 12.624795
_cell_angle_alpha 90.000000
_cell_angle_beta 90.000000
_cell_angle_gamma 90.000000
_cell_volume 1695.059175
_symmetry_space_group_name_H-M "P M A 2"
_symmetry_group_IT_number 28
_symmetry_cell_setting 'orthorhombic'
loop_
_space_group_symop_operation_xyz
x,y,z
-x,-y,z
1/2-x,y,z
1/2+x,-y,z
loop_
_atom_site_type_symbol
_atom_site_label
_atom_site_fract_x
_atom_site_fract_y
_atom_site_fract_z
Si Si1 0.577728 0.635118 0.394810
Si Si2 0.080216 0.158339 0.330136
Si Si3 0.928947 0.407528 0.617773
Si Si4 0.930285 0.099122 0.900822
Si Si5 0.069632 0.408769 0.156204
Si Si6 0.568796 0.222093 0.702941
Si Si7 0.925877 0.088727 0.525110
Si Si8 0.929952 0.790232 0.091776
O O1 0.750000 0.606197 0.412688
O O2 0.578635 0.741188 0.375867
O O3 0.481391 0.609805 0.496521
O O4 0.525378 0.598646 0.280689
O O5 0.250000 0.124135 0.339381
O O6 0.040402 0.167164 0.207281
O O7 0.972877 0.102669 0.404315
O O8 0.750000 0.412292 0.619752
O O9 0.980150 0.324133 0.690104
O O10 0.000000 0.500000 0.653246
O O11 0.750000 0.091530 0.900674
O O12 0.977965 0.161385 0.801503
O O13 0.000000 0.000000 0.895839
O O14 0.986351 0.152980 0.003594
O O15 0.250000 0.413152 0.153832
O O16 0.027319 0.314950 0.100407
O O17 0.000000 0.500000 0.112528
O O18 0.750000 0.224100 0.705885
O O19 0.522704 0.171497 0.595928
O O20 0.750000 0.081559 0.534105
O O21 0.000000 0.000000 0.568567
O O22 0.750000 0.793584 0.075389
#
# Coordination Sequence:
#
# PCOD9339927 Si02
#       8
#     4   4   4   4   4   4   4   4
#     4   9  17  31  51  79 113 152 192 230 273 325
#     4   9  18  34  55  80 115 152 186 229 279 333
#     4  11  21  35  54  81 115 152 190 231 277 331
#     4  11  23  42  66  88 109 142 189 241 293 345
#     4   9  18  32  52  80 117 155 191 232 277 330
#     4   9  21  40  59  81 114 147 184 236 285 332
#     4  11  21  35  55  82 113 148 185 227 283 343
#     4   9  20  39  59  83 116 150 189 238 285 333
#
# _framework density 18.878395999999999
#
# number of rings (size 3 to 8) (size 9 to 14) (size 15 to 20)
#    0.000    2.250    1.250    3.375    0.000    3.000 
#    0.000    7.500    0.000    3.000    0.000    0.000 
#    0.000    0.000    0.000    0.000    0.000    0.000 
#
# Total GULP energy -178498.920781 kJ/mol
# GULP energy per Si atom -5578.091274 kJ/mol
# Density = 1.883543 g / cm^3
# Si number density = 18.878396 Si / 1000 Ang^3
#
#
#
# Elastic Constant Matrix: (Units=GPa)
#
#
# Indices 1 2 3 4 5 6 
#
# 1 44.9280 47.1597 40.2870 0.0000 0.0000 0.0000
# 2 47.1597 156.6978 68.4472 0.0000 0.0000 0.0000
# 3 40.2870 68.4472 93.9048 0.0000 0.0000 0.0000
# 4 0.0000 0.0000 0.0000 17.4177 0.0000 0.0000
# 5 0.0000 0.0000 0.0000 0.0000 16.0612 0.0000
# 6 0.0000 0.0000 0.0000 0.0000 0.0000 31.7205
#
#
#
# Elastic Compliance Matrix: (Units=1/GPa)
#
#
# Indices 1 2 3 4 5 6 
#
# 1 0.040520 -0.006751 -0.012463 0.000000 0.000000 0.000000
# 2 -0.006751 0.010487 -0.004748 0.000000 0.000000 0.000000
# 3 -0.012463 -0.004748 0.019457 0.000000 0.000000 0.000000
# 4 0.000000 0.000000 0.000000 0.057413 0.000000 0.000000
# 5 0.000000 0.000000 0.000000 0.000000 0.062262 0.000000
# 6 0.000000 0.000000 0.000000 0.000000 0.000000 0.031525
#
#
# Mechanical properties :
#
#
# Convention : Reuss Voigt Hill
#
# Bulk Modulus (GPa) = 44.36543 67.47983 55.92263
# Shear Modulus (GPa) = 18.04396 22.34901 20.19648
#
# Velocity S-wave (km/s) = 3.09495 3.44443 3.27436
# Velocity P-wave (km/s) = 6.02688 7.18616 6.63190
#
# Compressibility (1/GPa) = 0.02254007
#
# Stress axis : x y z
#
# Youngs Moduli (GPa) = 24.67938 95.35238 51.39577
#
# Poissons Ratio (x) = 0.64370 0.64055
# Poissons Ratio (y) = 0.16660 0.24403
# Poissons Ratio (z) = 0.30758 0.45274
#
# Static dielectric constant tensor:
#      x y z
#    x 1.641260 0.000000 0.000000 
#    y 0.000000 1.689200 0.000000 
#    z 0.000000 0.000000 1.644210 
# 
# From -- ./inp_files/5006.got.cif
#   From: 2010.05.17/outbox.cif.g08.bks.cpg/sg28_3_cif.got.tgz:5006.got - 2010.06.04 01:15:21.
