data_PCOD9339330
_publ_section_title
;
Structure prediction by ZEFSAII (Michael W. Deem and Ramdas Pophale) SiO2 
 PCOD9339330
Probable space group: P M A 2
;
_chemical_formula_sum "Si O2"
_cell_formula_units_Z 24
_cell_length_a 8.670461
_cell_length_b 9.188799
_cell_length_c 15.972694
_cell_angle_alpha 90.000000
_cell_angle_beta 90.000000
_cell_angle_gamma 90.000000
_cell_volume 1272.562474
_symmetry_space_group_name_H-M "P M A 2"
_symmetry_group_IT_number 28
_symmetry_cell_setting 'orthorhombic'
loop_
_space_group_symop_operation_xyz
x,y,z
-x,-y,z
1/2-x,y,z
1/2+x,-y,z
loop_
_atom_site_type_symbol
_atom_site_label
_atom_site_fract_x
_atom_site_fract_y
_atom_site_fract_z
Si Si1 0.065309 0.162295 0.682370
Si Si2 0.934520 0.664374 0.166649
Si Si3 0.065543 0.665132 0.340747
Si Si4 0.564909 0.663694 0.514272
Si Si5 0.435410 0.837582 0.008652
Si Si6 0.434620 0.662328 0.839987
O O1 0.250000 0.157925 0.688362
O O2 0.024459 0.241696 0.595278
O O3 0.000049 0.253531 0.759914
O O4 0.000000 0.000000 0.684337
O O5 0.750000 0.657944 0.169698
O O6 0.000000 0.500000 0.157820
O O7 0.998910 0.727673 0.254420
O O8 0.992481 0.757964 0.088769
O O9 0.250000 0.662830 0.338566
O O10 0.000000 0.500000 0.341848
O O11 0.005359 0.728042 0.428444
O O12 0.500000 0.500000 0.525321
O O13 0.750000 0.655436 0.506107
O O14 0.250000 0.840319 0.016565
O O15 0.475691 0.748382 0.924770
O O16 0.500000 0.000000 0.002079
O O17 0.500000 0.500000 0.843067
O O18 0.250000 0.656711 0.834045
#
# Coordination Sequence:
#
# PCOD9339330 Si02
#       6
#     4   4   4   4   4   4
#     4  11  24  40  60  85 118 155 193 237 289 345
#     4  11  21  36  59  86 117 153 194 242 289 341
#     4  10  18  31  54  83 114 149 190 239 289 340
#     4  10  20  35  56  84 114 149 192 239 288 341
#     4  11  24  41  60  86 118 154 192 235 287 344
#     4  11  24  41  64  90 118 150 191 238 285 339
#
# _framework density 18.859584999999999
#
# number of rings (size 3 to 8) (size 9 to 14) (size 15 to 20)
#    0.000    1.333    0.000    8.500    0.000    9.333 
#    0.000    0.833    0.000    2.000    0.000    0.000 
#    0.000    0.000    0.000    0.000    0.000    0.000 
#
# Total GULP energy -134173.385884 kJ/mol
# GULP energy per Si atom -5590.557745 kJ/mol
# Density = 1.881666 g / cm^3
# Si number density = 18.859585 Si / 1000 Ang^3
#
#
#
# Elastic Constant Matrix: (Units=GPa)
#
#
# Indices 1 2 3 4 5 6 
#
# 1 120.0331 56.4815 98.1808 0.0000 0.0000 0.0000
# 2 56.4815 130.0938 104.0579 0.0000 0.0000 0.0000
# 3 98.1808 104.0579 233.3423 0.0000 0.0000 0.0000
# 4 0.0000 0.0000 0.0000 -21.1642 0.0000 0.0000
# 5 0.0000 0.0000 0.0000 0.0000 33.6361 0.0000
# 6 0.0000 0.0000 0.0000 0.0000 0.0000 30.5382
#
#
#
# Elastic Compliance Matrix: (Units=1/GPa)
#
#
# Indices 1 2 3 4 5 6 
#
# 1 0.013022 -0.001976 -0.004598 0.000000 0.000000 0.000000
# 2 -0.001976 0.012249 -0.004631 0.000000 0.000000 0.000000
# 3 -0.004598 -0.004631 0.008285 0.000000 0.000000 0.000000
# 4 0.000000 0.000000 0.000000 -0.047250 0.000000 0.000000
# 5 0.000000 0.000000 0.000000 0.000000 0.029730 0.000000
# 6 0.000000 0.000000 0.000000 0.000000 0.000000 0.032746
#
#
# Mechanical properties :
#
#
# Convention : Reuss Voigt Hill
#
# Bulk Modulus (GPa) = 89.71480 111.21219 100.46349
# Shear Modulus (GPa) = 66.75012 23.58528 45.16770
#
# Velocity S-wave (km/s) = 5.95567 3.54018 4.89913
# Velocity P-wave (km/s) = 9.74508 8.70672 9.24050
#
# Compressibility (1/GPa) = 0.01114643
#
# Stress axis : x y z
#
# Youngs Moduli (GPa) = 76.79591 81.64134 120.69607
#
# Poissons Ratio (x) = 0.16130 0.55494
# Poissons Ratio (y) = 0.15173 0.55894
# Poissons Ratio (z) = 0.35310 0.37808
#
# Static dielectric constant tensor:
#      x y z
#    x 1.630930 0.000000 0.000000 
#    y 0.000000 1.622550 0.000000 
#    z 0.000000 0.000000 1.671140 
# 
# From -- ./inp_files/6091.got.cif
#   From: 2010.05.17/outbox.cif.g08.bks.cpg/sg28_4_cif.got.tgz:6091.got - 2010.06.04 01:15:21.
