data_PCOD9339713
_publ_section_title
;
Structure prediction by ZEFSAII (Michael W. Deem and Ramdas Pophale) SiO2 
 PCOD9339713
Probable space group: P M A 2
;
_chemical_formula_sum "Si O2"
_cell_formula_units_Z 22
_cell_length_a 7.651984
_cell_length_b 14.050901
_cell_length_c 9.372061
_cell_angle_alpha 90.000000
_cell_angle_beta 90.000000
_cell_angle_gamma 90.000000
_cell_volume 1007.658410
_symmetry_space_group_name_H-M "P M A 2"
_symmetry_group_IT_number 28
_symmetry_cell_setting 'orthorhombic'
loop_
_space_group_symop_operation_xyz
x,y,z
-x,-y,z
1/2-x,y,z
1/2+x,-y,z
loop_
_atom_site_type_symbol
_atom_site_label
_atom_site_fract_x
_atom_site_fract_y
_atom_site_fract_z
Si Si1 0.541524 0.893321 0.921860
Si Si2 0.951287 0.289312 0.416727
Si Si3 0.948693 0.609958 0.694093
Si Si4 0.453122 0.294099 0.091236
Si Si5 0.541035 0.892767 0.594612
Si Si6 0.750000 0.350054 0.905298
O O1 0.750000 0.886118 0.915682
O O2 0.482092 0.807280 0.022430
O O3 0.475231 0.884673 0.758775
O O4 0.500000 0.000000 0.973298
O O5 0.750000 0.316682 0.402422
O O6 0.039476 0.359512 0.530051
O O7 0.964529 0.185841 0.490506
O O8 0.033878 0.288730 0.261048
O O9 0.750000 0.626296 0.742642
O O10 0.000000 0.500000 0.711671
O O11 0.095133 0.664487 0.783312
O O12 0.250000 0.310433 0.053569
O O13 0.593137 0.365805 0.024822
O O14 0.750000 0.878748 0.597074
O O15 0.500000 0.000000 0.547766
#
# Coordination Sequence:
#
# PCOD9339713 Si02
#       6
#     4   4   4   4   4   2
#     4   9  20  35  59  90 132 182 232 287 339 397
#     4  12  24  43  69 100 139 189 231 286 350 411
#     4  12  25  48  78 107 136 174 230 286 341 408
#     4  11  24  43  65 101 143 186 232 278 352 419
#     4  10  20  37  60  96 133 181 237 290 341 400
#     4  12  24  44  74 102 138 172 226 280 340 412
#
# _framework density 21.832794
#
# number of rings (size 3 to 8) (size 9 to 14) (size 15 to 20)
#    0.000    1.091    2.727    3.818    1.273    2.909 
#    0.000    2.727    0.000    0.000    0.000    0.000 
#    0.000    0.000    0.000    0.000    0.000    0.000 
#
# Total GULP energy -122498.921211 kJ/mol
# GULP energy per Si atom -5568.132782 kJ/mol
# Density = 2.178310 g / cm^3
# Si number density = 21.832794 Si / 1000 Ang^3
#
#
#
# Elastic Constant Matrix: (Units=GPa)
#
#
# Indices 1 2 3 4 5 6 
#
# 1 176.1041 13.0499 38.9055 0.0000 0.0000 0.0000
# 2 13.0499 40.6530 5.5853 0.0000 0.0000 0.0000
# 3 38.9055 5.5853 128.6278 0.0000 0.0000 0.0000
# 4 0.0000 0.0000 0.0000 -1.4372 0.0000 0.0000
# 5 0.0000 0.0000 0.0000 0.0000 32.0431 0.0000
# 6 0.0000 0.0000 0.0000 0.0000 0.0000 -3.9751
#
#
#
# Elastic Compliance Matrix: (Units=1/GPa)
#
#
# Indices 1 2 3 4 5 6 
#
# 1 0.006206 -0.001745 -0.001801 0.000000 0.000000 0.000000
# 2 -0.001745 0.025237 -0.000568 0.000000 0.000000 0.000000
# 3 -0.001801 -0.000568 0.008344 0.000000 0.000000 0.000000
# 4 0.000000 0.000000 0.000000 -0.695781 0.000000 0.000000
# 5 0.000000 0.000000 0.000000 0.000000 0.031208 0.000000
# 6 0.000000 0.000000 0.000000 0.000000 0.000000 -0.251567
#
#
# Mechanical properties :
#
#
# Convention : Reuss Voigt Hill
#
# Bulk Modulus (GPa) = 31.68762 51.16293 41.42527
# Shear Modulus (GPa) = -5.83018 24.51577 9.34279
#
# Velocity S-wave (km/s) = -1.63590 3.35459 2.07088
# Velocity P-wave (km/s) = 3.31316 6.20397 4.97324
#
# Compressibility (1/GPa) = 0.03155807
#
# Stress axis : x y z
#
# Youngs Moduli (GPa) = 161.14278 39.62511 119.84866
#
# Poissons Ratio (x) = 0.06913 0.21588
# Poissons Ratio (y) = 0.28113 0.06809
# Poissons Ratio (z) = 0.29026 0.02251
#
# Static dielectric constant tensor:
#      x y z
#    x 1.827900 0.000000 0.000000 
#    y 0.000000 1.859450 0.000000 
#    z 0.000000 0.000000 1.784970 
# 
# From -- ./inp_files/2473.got.cif
#   From: 2010.05.17/outbox.cif.g08.bks.cpg/sg28_2_cif.got.tgz:2473.got - 2010.06.04 01:15:21.
