data_PCOD9339432
_publ_section_title
;
Structure prediction by ZEFSAII (Michael W. Deem and Ramdas Pophale) SiO2 
 PCOD9339432
Probable space group: P M A 2
;
_chemical_formula_sum "Si O2"
_cell_formula_units_Z 32
_cell_length_a 8.983808
_cell_length_b 14.931939
_cell_length_c 12.527398
_cell_angle_alpha 90.000000
_cell_angle_beta 90.000000
_cell_angle_gamma 90.000000
_cell_volume 1680.496236
_symmetry_space_group_name_H-M "P M A 2"
_symmetry_group_IT_number 28
_symmetry_cell_setting 'orthorhombic'
loop_
_space_group_symop_operation_xyz
x,y,z
-x,-y,z
1/2-x,y,z
1/2+x,-y,z
loop_
_atom_site_type_symbol
_atom_site_label
_atom_site_fract_x
_atom_site_fract_y
_atom_site_fract_z
Si Si1 0.928670 0.781110 0.548210
Si Si2 0.424247 0.592304 0.604700
Si Si3 0.924466 0.087152 0.976820
Si Si4 0.425886 0.649434 0.846949
Si Si5 0.574224 0.834796 0.784103
Si Si6 0.072659 0.411281 0.066310
Si Si7 0.929166 0.901204 0.346473
Si Si8 0.426230 0.215280 0.137142
O O1 0.750000 0.767782 0.541881
O O2 0.959481 0.833475 0.658703
O O3 0.976056 0.842925 0.449586
O O4 0.002978 0.683189 0.558146
O O5 0.500000 0.500000 0.568723
O O6 0.250000 0.591754 0.578815
O O7 0.437151 0.597527 0.734361
O O8 0.750000 0.078336 0.979757
O O9 0.982717 0.097834 0.856672
O O10 0.000000 0.000000 0.027053
O O11 0.979520 0.172392 0.042379
O O12 0.250000 0.669892 0.863498
O O13 0.522735 0.737823 0.825851
O O14 0.493458 0.603362 0.951433
O O15 0.750000 0.847559 0.800565
O O16 0.250000 0.422160 0.050986
O O17 0.048201 0.321705 0.136017
O O18 0.000000 0.500000 0.114818
O O19 0.750000 0.911814 0.350833
O O20 0.963472 0.839569 0.243662
O O21 0.000000 0.000000 0.341900
O O22 0.250000 0.201928 0.115003
#
# Coordination Sequence:
#
# PCOD9339432 Si02
#       8
#     4   4   4   4   4   4   4   4
#     4   9  20  38  60  85 117 154 193 241 295 348
#     4  10  20  33  53  83 119 158 200 241 288 343
#     4  12  24  37  57  84 117 154 194 238 292 355
#     4  10  19  32  52  81 116 156 198 238 284 343
#     4  10  19  34  55  82 118 156 192 234 290 348
#     4  11  22  35  55  82 116 156 196 240 289 347
#     4  10  22  42  66  90 114 147 194 245 299 353
#     4  10  22  41  62  85 117 153 193 242 294 348
#
# _framework density 19.041993999999999
#
# number of rings (size 3 to 8) (size 9 to 14) (size 15 to 20)
#    0.000    1.750    1.250    3.375    0.000    6.000 
#    0.000    1.875    0.000    1.500    0.000    0.000 
#    0.000    0.000    0.000    0.000    0.000    0.000 
#
# Total GULP energy -178654.809415 kJ/mol
# GULP energy per Si atom -5582.962794 kJ/mol
# Density = 1.899865 g / cm^3
# Si number density = 19.041994 Si / 1000 Ang^3
#
#
#
# Elastic Constant Matrix: (Units=GPa)
#
#
# Indices 1 2 3 4 5 6 
#
# 1 82.0665 61.0506 55.7287 0.0000 0.0000 0.0000
# 2 61.0506 129.7929 59.5428 0.0000 0.0000 0.0000
# 3 55.7287 59.5428 96.0181 0.0000 0.0000 0.0000
# 4 0.0000 0.0000 0.0000 7.9122 0.0000 0.0000
# 5 0.0000 0.0000 0.0000 0.0000 14.7897 0.0000
# 6 0.0000 0.0000 0.0000 0.0000 0.0000 31.8813
#
#
#
# Elastic Compliance Matrix: (Units=1/GPa)
#
#
# Indices 1 2 3 4 5 6 
#
# 1 0.023717 -0.006765 -0.009570 0.000000 0.000000 0.000000
# 2 -0.006765 0.012698 -0.003947 0.000000 0.000000 0.000000
# 3 -0.009570 -0.003947 0.018417 0.000000 0.000000 0.000000
# 4 0.000000 0.000000 0.000000 0.126387 0.000000 0.000000
# 5 0.000000 0.000000 0.000000 0.000000 0.067615 0.000000
# 6 0.000000 0.000000 0.000000 0.000000 0.000000 0.031366
#
#
# Mechanical properties :
#
#
# Convention : Reuss Voigt Hill
#
# Bulk Modulus (GPa) = 70.09682 73.39131 71.74406
# Shear Modulus (GPa) = 15.36005 19.68701 17.52353
#
# Velocity S-wave (km/s) = 2.84322 3.21888 3.03686
# Velocity P-wave (km/s) = 6.90436 7.24157 7.07498
#
# Compressibility (1/GPa) = 0.01426598
#
# Stress axis : x y z
#
# Youngs Moduli (GPa) = 42.16449 78.75399 54.29810
#
# Poissons Ratio (x) = 0.53281 0.51962
# Poissons Ratio (y) = 0.28526 0.21434
# Poissons Ratio (z) = 0.40350 0.31088
#
# Static dielectric constant tensor:
#      x y z
#    x 1.635110 0.000000 0.000000 
#    y 0.000000 1.778460 0.000000 
#    z 0.000000 0.000000 1.678100 
# 
# From -- ./inp_files/4990.got.cif
#   From: 2010.05.17/outbox.cif.g08.bks.cpg/sg28_3_cif.got.tgz:4990.got - 2010.06.04 01:15:21.
