data_PCOD9339263
_publ_section_title
;
Structure prediction by ZEFSAII (Michael W. Deem and Ramdas Pophale) SiO2 
 PCOD9339263
Probable space group: P M A 2
;
_chemical_formula_sum "Si O2"
_cell_formula_units_Z 28
_cell_length_a 8.634957
_cell_length_b 15.792761
_cell_length_c 13.014253
_cell_angle_alpha 90.000000
_cell_angle_beta 90.000000
_cell_angle_gamma 90.000000
_cell_volume 1774.751237
_symmetry_space_group_name_H-M "P M A 2"
_symmetry_group_IT_number 28
_symmetry_cell_setting 'orthorhombic'
loop_
_space_group_symop_operation_xyz
x,y,z
-x,-y,z
1/2-x,y,z
1/2+x,-y,z
loop_
_atom_site_type_symbol
_atom_site_label
_atom_site_fract_x
_atom_site_fract_y
_atom_site_fract_z
Si Si1 0.563451 0.264395 0.227650
Si Si2 0.064981 0.404882 0.830848
Si Si3 0.935180 0.087092 0.993957
Si Si4 0.563494 0.405025 0.390590
Si Si5 0.935556 0.404276 0.617500
Si Si6 0.935108 0.913033 0.227776
Si Si7 0.436118 0.264388 0.996538
O O1 0.750000 0.259500 0.224186
O O2 0.514900 0.341558 0.300806
O O3 0.497553 0.175591 0.270671
O O4 0.501191 0.276095 0.111761
O O5 0.250000 0.410728 0.825910
O O6 0.000000 0.500000 0.844300
O O7 0.004352 0.367689 0.722393
O O8 0.021879 0.343036 0.924018
O O9 0.750000 0.085092 0.996230
O O10 0.000455 0.087851 0.110761
O O11 0.995984 0.176456 0.951776
O O12 0.000000 0.000000 0.946198
O O13 0.500000 0.500000 0.377877
O O14 0.750000 0.410368 0.388497
O O15 0.520483 0.370630 0.504530
O O16 0.750000 0.405258 0.625556
O O17 0.000000 0.500000 0.616198
O O18 0.750000 0.914616 0.225898
O O19 0.000000 0.000000 0.275406
O O20 0.250000 0.257322 0.002142
#
# Coordination Sequence:
#
# PCOD9339263 Si02
#       7
#     4   4   4   4   4   4   4
#     4  10  19  31  45  65  93 122 152 183 220 266
#     4  10  20  32  47  66  90 119 151 189 226 263
#     4  10  17  27  44  64  87 116 148 183 222 262
#     4   9  19  32  47  67  91 119 150 187 225 263
#     4   9  16  29  48  67  86 110 146 189 229 265
#     4  10  17  27  43  63  87 116 149 184 222 261
#     4  10  20  32  44  64  93 122 153 185 220 264
#
# _framework density 15.776858000000001
#
# number of rings (size 3 to 8) (size 9 to 14) (size 15 to 20)
#    0.000    2.286    0.000    7.714    0.000    4.571 
#    0.000    2.857    0.000    0.000    0.000    1.000 
#    0.000    6.857    0.000    0.000    0.000    0.000 
#
# Total GULP energy -155951.125553 kJ/mol
# GULP energy per Si atom -5569.683055 kJ/mol
# Density = 1.574095 g / cm^3
# Si number density = 15.776858 Si / 1000 Ang^3
#
#
#
# Elastic Constant Matrix: (Units=GPa)
#
#
# Indices 1 2 3 4 5 6 
#
# 1 80.1084 42.4151 31.7981 0.0000 0.0000 0.0000
# 2 42.4151 120.5713 62.1093 0.0000 0.0000 0.0000
# 3 31.7981 62.1093 83.7491 0.0000 0.0000 0.0000
# 4 0.0000 0.0000 0.0000 -0.3214 0.0000 0.0000
# 5 0.0000 0.0000 0.0000 0.0000 48.9624 0.0000
# 6 0.0000 0.0000 0.0000 0.0000 0.0000 35.5902
#
#
#
# Elastic Compliance Matrix: (Units=1/GPa)
#
#
# Indices 1 2 3 4 5 6 
#
# 1 0.015804 -0.003995 -0.003038 0.000000 0.000000 0.000000
# 2 -0.003995 0.014431 -0.009185 0.000000 0.000000 0.000000
# 3 -0.003038 -0.009185 0.019906 0.000000 0.000000 0.000000
# 4 0.000000 0.000000 0.000000 -3.110929 0.000000 0.000000
# 5 0.000000 0.000000 0.000000 0.000000 0.020424 0.000000
# 6 0.000000 0.000000 0.000000 0.000000 0.000000 0.028098
#
#
# Mechanical properties :
#
#
# Convention : Reuss Voigt Hill
#
# Bulk Modulus (GPa) = 56.48237 61.89707 59.18972
# Shear Modulus (GPa) = -1.68128 26.72000 12.51936
#
# Velocity S-wave (km/s) = -1.03343 4.11983 2.82002
# Velocity P-wave (km/s) = 5.86980 7.87074 6.94274
#
# Compressibility (1/GPa) = 0.01770464
#
# Stress axis : x y z
#
# Youngs Moduli (GPa) = 63.27498 69.29693 50.23656
#
# Poissons Ratio (x) = 0.27682 0.15262
# Poissons Ratio (y) = 0.25276 0.46144
# Poissons Ratio (z) = 0.19223 0.63651
#
# Static dielectric constant tensor:
#      x y z
#    x 1.529200 0.000000 0.000000 
#    y 0.000000 1.555490 0.000000 
#    z 0.000000 0.000000 1.537220 
# 
# From -- ./inp_files/6363.got.cif
#   From: 2010.05.17/outbox.cif.g08.bks.cpg/sg28_4_cif.got.tgz:6363.got - 2010.06.04 01:15:21.
