data_PCOD9339889
_publ_section_title
;
Structure prediction by ZEFSAII (Michael W. Deem and Ramdas Pophale) SiO2 
 PCOD9339889
Probable space group: P M A 2
;
_chemical_formula_sum "Si O2"
_cell_formula_units_Z 32
_cell_length_a 9.236497
_cell_length_b 14.840017
_cell_length_c 12.447724
_cell_angle_alpha 90.000000
_cell_angle_beta 90.000000
_cell_angle_gamma 90.000000
_cell_volume 1706.206697
_symmetry_space_group_name_H-M "P M A 2"
_symmetry_group_IT_number 28
_symmetry_cell_setting 'orthorhombic'
loop_
_space_group_symop_operation_xyz
x,y,z
-x,-y,z
1/2-x,y,z
1/2+x,-y,z
loop_
_atom_site_type_symbol
_atom_site_label
_atom_site_fract_x
_atom_site_fract_y
_atom_site_fract_z
Si Si1 0.915488 0.418849 0.064310
Si Si2 0.076660 0.909257 0.151174
Si Si3 0.576056 0.909746 0.686438
Si Si4 0.075727 0.402380 0.422714
Si Si5 0.416459 0.344292 0.869572
Si Si6 0.084400 0.135034 0.932617
Si Si7 0.074413 0.291317 0.636097
Si Si8 0.081392 0.721175 0.250665
O O1 0.750000 0.444765 0.052721
O O2 0.924684 0.330539 0.136968
O O3 0.000000 0.500000 0.120410
O O4 0.987416 0.400655 0.950137
O O5 0.250000 0.917298 0.149477
O O6 0.038574 0.823672 0.225694
O O7 0.000000 0.000000 0.189686
O O8 0.018618 0.891563 0.030121
O O9 0.750000 0.916858 0.675159
O O10 0.545056 0.901728 0.814598
O O11 0.528302 0.813983 0.634788
O O12 0.500000 0.000000 0.644833
O O13 0.250000 0.412431 0.416261
O O14 0.037132 0.352210 0.534670
O O15 0.000000 0.500000 0.415278
O O16 0.017649 0.334895 0.331267
O O17 0.250000 0.376483 0.868333
O O18 0.415002 0.242556 0.915745
O O19 0.473420 0.336101 0.748213
O O20 0.250000 0.106497 0.957617
O O21 0.250000 0.287585 0.642804
O O22 0.250000 0.718520 0.286576
#
# Coordination Sequence:
#
# PCOD9339889 Si02
#       8
#     4   4   4   4   4   4   4   4
#     4  11  22  36  54  81 114 148 185 229 285 342
#     4  11  22  36  55  82 116 152 190 234 280 334
#     4   9  17  31  51  79 115 153 191 228 271 327
#     4  11  23  41  66  88 109 143 190 241 292 346
#     4   9  17  33  56  81 114 152 187 227 278 336
#     4   9  17  30  51  79 113 154 192 228 273 328
#     4   8  18  37  58  82 114 149 186 231 283 337
#     4  10  23  42  60  82 115 148 188 241 286 333
#
# _framework density 18.755054999999999
#
# number of rings (size 3 to 8) (size 9 to 14) (size 15 to 20)
#    0.000    2.250    1.250    3.375    0.000    5.000 
#    0.000    6.250    0.000    3.000    0.000    0.000 
#    0.000    0.000    0.000    0.000    0.000    0.000 
#
# Total GULP energy -178528.664643 kJ/mol
# GULP energy per Si atom -5579.020770 kJ/mol
# Density = 1.871237 g / cm^3
# Si number density = 18.755055 Si / 1000 Ang^3
#
#
#
# Elastic Constant Matrix: (Units=GPa)
#
#
# Indices 1 2 3 4 5 6 
#
# 1 73.8443 59.3108 46.2778 0.0000 0.0000 0.0000
# 2 59.3108 140.0955 51.6162 0.0000 0.0000 0.0000
# 3 46.2778 51.6162 77.7379 0.0000 0.0000 0.0000
# 4 0.0000 0.0000 0.0000 16.8595 0.0000 0.0000
# 5 0.0000 0.0000 0.0000 0.0000 14.1930 0.0000
# 6 0.0000 0.0000 0.0000 0.0000 0.0000 26.7286
#
#
#
# Elastic Compliance Matrix: (Units=1/GPa)
#
#
# Indices 1 2 3 4 5 6 
#
# 1 0.025924 -0.007002 -0.010783 0.000000 0.000000 0.000000
# 2 -0.007002 0.011341 -0.003362 0.000000 0.000000 0.000000
# 3 -0.010783 -0.003362 0.021515 0.000000 0.000000 0.000000
# 4 0.000000 0.000000 0.000000 0.059314 0.000000 0.000000
# 5 0.000000 0.000000 0.000000 0.000000 0.070457 0.000000
# 6 0.000000 0.000000 0.000000 0.000000 0.000000 0.037413
#
#
# Mechanical properties :
#
#
# Convention : Reuss Voigt Hill
#
# Bulk Modulus (GPa) = 60.65891 67.34304 64.00098
# Shear Modulus (GPa) = 18.26456 20.52108 19.39282
#
# Velocity S-wave (km/s) = 3.12404 3.31140 3.21908
# Velocity P-wave (km/s) = 6.73986 7.11372 6.92931
#
# Compressibility (1/GPa) = 0.01648562
#
# Stress axis : x y z
#
# Youngs Moduli (GPa) = 38.57433 88.17552 46.47865
#
# Poissons Ratio (x) = 0.61742 0.50120
# Poissons Ratio (y) = 0.27010 0.15625
# Poissons Ratio (z) = 0.41596 0.29642
#
# Static dielectric constant tensor:
#      x y z
#    x 1.636770 0.000000 0.000000 
#    y 0.000000 1.682150 0.000000 
#    z 0.000000 0.000000 1.642060 
# 
# From -- ./inp_files/5108.got.cif
#   From: 2010.05.17/outbox.cif.g08.bks.cpg/sg28_3_cif.got.tgz:5108.got - 2010.06.04 01:15:21.
