data_PCOD9339870
_publ_section_title
;
Structure prediction by ZEFSAII (Michael W. Deem and Ramdas Pophale) SiO2 
 PCOD9339870
Probable space group: P M A 2
;
_chemical_formula_sum "Si O2"
_cell_formula_units_Z 32
_cell_length_a 14.180649
_cell_length_b 9.501949
_cell_length_c 11.954282
_cell_angle_alpha 90.000000
_cell_angle_beta 90.000000
_cell_angle_gamma 90.000000
_cell_volume 1610.765426
_symmetry_space_group_name_H-M "P M A 2"
_symmetry_group_IT_number 28
_symmetry_cell_setting 'orthorhombic'
loop_
_space_group_symop_operation_xyz
x,y,z
-x,-y,z
1/2-x,y,z
1/2+x,-y,z
loop_
_atom_site_type_symbol
_atom_site_label
_atom_site_fract_x
_atom_site_fract_y
_atom_site_fract_z
Si Si1 0.028270 0.647534 0.772630
Si Si2 0.644509 0.853112 0.770092
Si Si3 0.141016 0.651250 0.545401
Si Si4 0.363582 0.880720 0.915782
Si Si5 0.855491 0.853114 0.320709
Si Si6 0.971730 0.352465 0.318172
Si Si7 0.612684 0.016518 0.545401
Si Si8 0.863582 0.119280 0.175018
O O1 0.084382 0.612284 0.657986
O O2 0.090706 0.754359 0.845692
O O3 0.000000 0.500000 0.828209
O O4 0.931839 0.732644 0.751812
O O5 0.750000 0.801176 0.797027
O O6 0.648102 0.941883 0.656284
O O7 0.612852 0.966755 0.863130
O O8 0.250000 0.601862 0.545401
O O9 0.084382 0.612287 0.432816
O O10 0.140151 0.821235 0.545403
O O11 0.250000 0.869114 0.907251
O O12 0.390905 0.873638 0.045400
O O13 0.750000 0.801178 0.293775
O O14 0.851899 0.941888 0.434516
O O15 0.931839 0.732646 0.338990
O O16 0.887148 0.966755 0.227669
O O17 0.909294 0.245641 0.245108
O O18 0.000000 0.500000 0.262594
O O19 0.500000 0.000000 0.545402
O O20 0.750000 0.130888 0.183549
#
# Coordination Sequence:
#
# PCOD9339870 Si02
#       8
#     4   4   4   4   4   4   4   4
#     4  12  25  40  60  90 128 164 198 241 300 367
#     4  11  22  38  62  90 119 156 203 254 300 351
#     4  12  23  39  62  89 122 161 203 247 299 358
#     4  10  22  42  67  91 116 154 205 256 303 352
#     4  11  22  38  62  90 119 156 203 254 300 351
#     4  12  25  40  60  90 128 164 198 241 300 367
#     4  12  18  35  64  90 119 150 200 257 305 349
#     4  10  22  42  67  91 116 154 205 256 303 352
#
# _framework density 19.866330000000001
#
# number of rings (size 3 to 8) (size 9 to 14) (size 15 to 20)
#    0.000    0.750    5.000    3.000    0.000    4.500 
#    0.000    0.000    0.000    3.000    0.000    0.000 
#    0.000    0.000    0.000    0.000    0.000    0.000 
#
# Total GULP energy -178911.507194 kJ/mol
# GULP energy per Si atom -5590.984600 kJ/mol
# Density = 1.982111 g / cm^3
# Si number density = 19.866330 Si / 1000 Ang^3
#
#
#
# Elastic Constant Matrix: (Units=GPa)
#
#
# Indices 1 2 3 4 5 6 
#
# 1 127.9305 22.7389 27.1549 0.0000 0.0000 0.0000
# 2 22.7389 67.1985 4.6528 0.0000 0.0000 0.0000
# 3 27.1549 4.6528 91.7734 0.0000 0.0000 0.0000
# 4 0.0000 0.0000 0.0000 5.7035 0.0000 0.0000
# 5 0.0000 0.0000 0.0000 0.0000 28.5558 0.0000
# 6 0.0000 0.0000 0.0000 0.0000 0.0000 -0.4733
#
#
#
# Elastic Compliance Matrix: (Units=1/GPa)
#
#
# Indices 1 2 3 4 5 6 
#
# 1 0.008843 -0.002821 -0.002474 0.000000 0.000000 0.000000
# 2 -0.002821 0.015834 0.000032 0.000000 0.000000 0.000000
# 3 -0.002474 0.000032 0.011627 0.000000 0.000000 0.000000
# 4 0.000000 0.000000 0.000000 0.175330 0.000000 0.000000
# 5 0.000000 0.000000 0.000000 0.000000 0.035019 0.000000
# 6 0.000000 0.000000 0.000000 0.000000 0.000000 -2.113003
#
#
# Mechanical properties :
#
#
# Convention : Reuss Voigt Hill
#
# Bulk Modulus (GPa) = 38.79257 43.99953 41.39605
# Shear Modulus (GPa) = -2.70675 22.24760 9.77042
#
# Velocity S-wave (km/s) = -1.16852 3.35007 2.22008
# Velocity P-wave (km/s) = 4.21291 6.09588 5.23968
#
# Compressibility (1/GPa) = 0.02577813
#
# Stress axis : x y z
#
# Youngs Moduli (GPa) = 113.08069 63.15647 86.00896
#
# Poissons Ratio (x) = 0.17817 0.21275
# Poissons Ratio (y) = 0.31902 -0.00275
# Poissons Ratio (z) = 0.27972 -0.00202
#
# Static dielectric constant tensor:
#      x y z
#    x 1.985190 0.000000 0.000000 
#    y 0.000000 1.651280 0.000000 
#    z 0.000000 0.000000 1.686940 
# 
# From -- ./inp_files/5608.got.cif
#   From: 2010.05.17/outbox.cif.g08.bks.cpg/sg28_3_cif.got.tgz:5608.got - 2010.06.04 01:15:21.
