data_PCOD9339821
_publ_section_title
;
Structure prediction by ZEFSAII (Michael W. Deem and Ramdas Pophale) SiO2 
 PCOD9339821
Probable space group: P M A 2
;
_chemical_formula_sum "Si O2"
_cell_formula_units_Z 24
_cell_length_a 21.503180
_cell_length_b 6.610200
_cell_length_c 8.146363
_cell_angle_alpha 90.000000
_cell_angle_beta 90.000000
_cell_angle_gamma 90.000000
_cell_volume 1157.926647
_symmetry_space_group_name_H-M "P M A 2"
_symmetry_group_IT_number 28
_symmetry_cell_setting 'orthorhombic'
loop_
_space_group_symop_operation_xyz
x,y,z
-x,-y,z
1/2-x,y,z
1/2+x,-y,z
loop_
_atom_site_type_symbol
_atom_site_label
_atom_site_fract_x
_atom_site_fract_y
_atom_site_fract_z
Si Si1 0.418300 0.070658 0.750000
Si Si2 0.179488 0.193807 0.533365
Si Si3 0.177026 0.890875 0.238575
Si Si4 0.975134 0.294405 0.614040
Si Si5 0.559135 0.861509 0.116607
Si Si6 0.899230 0.488804 0.324868
O O1 0.350280 0.143249 0.707963
O O2 0.462038 0.162160 0.605077
O O3 0.427812 0.831938 0.725988
O O4 0.444627 0.150429 0.919863
O O5 0.250000 0.256747 0.546146
O O6 0.141674 0.369037 0.442896
O O7 0.175592 0.992109 0.420517
O O8 0.250000 0.898497 0.185991
O O9 0.148107 0.666710 0.238713
O O10 0.125323 0.025298 0.145200
O O11 0.944011 0.356229 0.442585
O O12 0.000000 0.500000 0.692426
O O13 0.500000 0.000000 0.171741
O O14 0.564951 0.644233 0.204694
#
# Coordination Sequence:
#
# PCOD9339821 Si02
#       6
#     4   4   4   4   4   4
#     4  11  23  43  63  93 134 168 208 275 340 385
#     4  10  21  39  66  93 124 171 221 264 316 395
#     4  10  23  42  63  91 132 173 215 269 330 397
#     4  11  22  37  67  93 127 165 216 269 323 391
#     4  11  26  41  64  99 133 169 217 275 340 397
#     4  11  23  39  66  94 125 167 225 269 326 394
#
# _framework density 20.726700999999998
#
# number of rings (size 3 to 8) (size 9 to 14) (size 15 to 20)
#    0.000    1.333    5.000    0.500    2.333    2.667 
#    0.000    0.000    0.000    0.000    0.000    0.000 
#    0.000    0.000    0.000    0.000    0.000    0.000 
#
# Total GULP energy -133843.735796 kJ/mol
# GULP energy per Si atom -5576.822325 kJ/mol
# Density = 2.067953 g / cm^3
# Si number density = 20.726701 Si / 1000 Ang^3
#
#
#
# Elastic Constant Matrix: (Units=GPa)
#
#
# Indices 1 2 3 4 5 6 
#
# 1 125.8239 33.1487 44.8676 0.0000 0.0000 0.0000
# 2 33.1487 95.8248 31.5788 0.0000 0.0000 0.0000
# 3 44.8676 31.5788 68.2749 0.0000 0.0000 0.0000
# 4 0.0000 0.0000 0.0000 24.4376 0.0000 0.0000
# 5 0.0000 0.0000 0.0000 0.0000 24.2709 0.0000
# 6 0.0000 0.0000 0.0000 0.0000 0.0000 27.3047
#
#
#
# Elastic Compliance Matrix: (Units=1/GPa)
#
#
# Indices 1 2 3 4 5 6 
#
# 1 0.010588 -0.001616 -0.006211 0.000000 0.000000 0.000000
# 2 -0.001616 0.012559 -0.004747 0.000000 0.000000 0.000000
# 3 -0.006211 -0.004747 0.020924 0.000000 0.000000 0.000000
# 4 0.000000 0.000000 0.000000 0.040921 0.000000 0.000000
# 5 0.000000 0.000000 0.000000 0.000000 0.041202 0.000000
# 6 0.000000 0.000000 0.000000 0.000000 0.000000 0.036624
#
#
# Mechanical properties :
#
#
# Convention : Reuss Voigt Hill
#
# Bulk Modulus (GPa) = 52.84389 56.56821 54.70605
# Shear Modulus (GPa) = 25.73720 27.22454 26.48087
#
# Velocity S-wave (km/s) = 3.52766 3.62816 3.57826
# Velocity P-wave (km/s) = 6.49180 6.70097 6.59721
#
# Compressibility (1/GPa) = 0.01892366
#
# Stress axis : x y z
#
# Youngs Moduli (GPa) = 94.44665 79.62371 47.79306
#
# Poissons Ratio (x) = 0.12867 0.29682
# Poissons Ratio (y) = 0.15263 0.22687
# Poissons Ratio (z) = 0.58657 0.37796
#
# Static dielectric constant tensor:
#      x y z
#    x 1.772890 0.000000 0.000000 
#    y 0.000000 1.816520 0.000000 
#    z 0.000000 0.000000 1.758550 
# 
# From -- ./inp_files/4146.got.cif
#   From: 2010.05.17/outbox.cif.g08.bks.cpg/sg28_3_cif.got.tgz:4146.got - 2010.06.04 01:15:21.
