data_PCOD9339866
_publ_section_title
;
Structure prediction by ZEFSAII (Michael W. Deem and Ramdas Pophale) SiO2 
 PCOD9339866
Probable space group: P M A 2
;
_chemical_formula_sum "Si O2"
_cell_formula_units_Z 32
_cell_length_a 17.366231
_cell_length_b 16.178965
_cell_length_c 5.433311
_cell_angle_alpha 90.000000
_cell_angle_beta 90.000000
_cell_angle_gamma 90.000000
_cell_volume 1526.584588
_symmetry_space_group_name_H-M "P M A 2"
_symmetry_group_IT_number 28
_symmetry_cell_setting 'orthorhombic'
loop_
_space_group_symop_operation_xyz
x,y,z
-x,-y,z
1/2-x,y,z
1/2+x,-y,z
loop_
_atom_site_type_symbol
_atom_site_label
_atom_site_fract_x
_atom_site_fract_y
_atom_site_fract_z
Si Si1 0.162962 0.965404 0.380390
Si Si2 0.333829 0.831664 0.770984
Si Si3 0.434339 0.818043 0.150294
Si Si4 0.343610 0.499343 0.503413
Si Si5 0.344149 0.410275 0.001100
Si Si6 0.663504 0.315448 0.377009
Si Si7 0.599457 0.854594 0.364958
Si Si8 0.659457 0.775234 0.872119
O O1 0.250000 0.984742 0.296699
O O2 0.169252 0.920432 0.642266
O O3 0.123816 0.892320 0.224973
O O4 0.113217 0.047646 0.389216
O O5 0.250000 0.824965 0.910583
O O6 0.329766 0.753492 0.588572
O O7 0.422720 0.826008 0.861201
O O8 0.395810 0.729393 0.198261
O O9 0.513440 0.832049 0.282240
O O10 0.250000 0.494785 0.506645
O O11 0.369119 0.465357 0.768012
O O12 0.363365 0.595276 0.465807
O O13 0.369428 0.445808 0.266112
O O14 0.250000 0.410294 0.007955
O O15 0.368874 0.316855 0.941189
O O16 0.750000 0.327001 0.270723
O O17 0.621388 0.812220 0.624766
O O18 0.648118 0.826069 0.124804
O O19 0.750000 0.770422 0.814984
#
# Coordination Sequence:
#
# PCOD9339866 Si02
#       8
#     4   4   4   4   4   4   4   4
#     4  10  22  42  64  92 124 167 216 264 315 375
#     4   9  19  36  63  91 129 175 213 258 317 383
#     4  11  23  39  60  91 134 170 207 260 322 382
#     4   9  17  30  56  94 123 156 208 265 313 367
#     4   9  18  34  59  89 123 156 204 271 323 360
#     4   9  19  34  58  92 130 171 215 259 314 382
#     4  12  27  42  68  96 128 169 217 269 317 383
#     4  11  24  45  68  93 125 168 217 271 327 379
#
# _framework density 20.961827
#
# number of rings (size 3 to 8) (size 9 to 14) (size 15 to 20)
#    0.000    2.000    0.000    4.125    7.000    2.000 
#    0.000    0.000    0.000    4.500    0.000    0.000 
#    0.000    0.000    0.000    0.000    0.000    0.000 
#
# Total GULP energy -178202.590344 kJ/mol
# GULP energy per Si atom -5568.830948 kJ/mol
# Density = 2.091412 g / cm^3
# Si number density = 20.961827 Si / 1000 Ang^3
#
#
#
# Elastic Constant Matrix: (Units=GPa)
#
#
# Indices 1 2 3 4 5 6 
#
# 1 34.6729 -10.5861 7.9744 0.0000 0.0000 0.0000
# 2 -10.5861 81.1025 9.8638 0.0000 0.0000 0.0000
# 3 7.9744 9.8638 60.1440 0.0000 0.0000 0.0000
# 4 0.0000 0.0000 0.0000 16.9435 0.0000 0.0000
# 5 0.0000 0.0000 0.0000 0.0000 20.6478 0.0000
# 6 0.0000 0.0000 0.0000 0.0000 0.0000 -27.7207
#
#
#
# Elastic Compliance Matrix: (Units=1/GPa)
#
#
# Indices 1 2 3 4 5 6 
#
# 1 0.031411 0.004700 -0.004936 0.000000 0.000000 0.000000
# 2 0.004700 0.013284 -0.002802 0.000000 0.000000 0.000000
# 3 -0.004936 -0.002802 0.017741 0.000000 0.000000 0.000000
# 4 0.000000 0.000000 0.000000 0.059020 0.000000 0.000000
# 5 0.000000 0.000000 0.000000 0.000000 0.048431 0.000000
# 6 0.000000 0.000000 0.000000 0.000000 0.000000 -0.036074
#
#
# Mechanical properties :
#
#
# Convention : Reuss Voigt Hill
#
# Bulk Modulus (GPa) = 17.74249 21.15816 19.45033
# Shear Modulus (GPa) = 31.51103 13.21861 22.36482
#
# Velocity S-wave (km/s) = 3.88139 2.51391 3.26993
# Velocity P-wave (km/s) = 5.34505 4.30603 4.85342
#
# Compressibility (1/GPa) = 0.05636186
#
# Stress axis : x y z
#
# Youngs Moduli (GPa) = 31.83580 75.27645 56.36764
#
# Poissons Ratio (x) = -0.35382 0.27821
# Poissons Ratio (y) = -0.14964 0.15794
# Poissons Ratio (z) = 0.15713 0.21092
#
# Static dielectric constant tensor:
#      x y z
#    x 1.815870 0.000000 0.000000 
#    y 0.000000 1.716910 0.000000 
#    z 0.000000 0.000000 1.890600 
# 
# From -- ./inp_files/1214.got.cif
#   From: 2010.05.17/outbox.cif.g08.bks.cpg/sg28_1_cif.got.tgz:1214.got - 2010.06.04 01:15:21.
