data_PCOD9339536
_publ_section_title
;
Structure prediction by ZEFSAII (Michael W. Deem and Ramdas Pophale) SiO2 
 PCOD9339536
Probable space group: P M A 2
;
_chemical_formula_sum "Si O2"
_cell_formula_units_Z 24
_cell_length_a 8.712785
_cell_length_b 14.482551
_cell_length_c 10.476279
_cell_angle_alpha 90.000000
_cell_angle_beta 90.000000
_cell_angle_gamma 90.000000
_cell_volume 1321.932012
_symmetry_space_group_name_H-M "P M A 2"
_symmetry_group_IT_number 28
_symmetry_cell_setting 'orthorhombic'
loop_
_space_group_symop_operation_xyz
x,y,z
-x,-y,z
1/2-x,y,z
1/2+x,-y,z
loop_
_atom_site_type_symbol
_atom_site_label
_atom_site_fract_x
_atom_site_fract_y
_atom_site_fract_z
Si Si1 0.065625 0.715512 0.972750
Si Si2 0.565455 0.397394 0.717667
Si Si3 0.433518 0.099120 0.875926
Si Si4 0.565299 0.706928 0.471577
Si Si5 0.565448 0.901236 0.578993
Si Si6 0.934539 0.396413 0.225570
O O1 0.250000 0.724875 0.975707
O O2 0.024510 0.659010 0.845172
O O3 0.993207 0.816431 0.959906
O O4 0.018466 0.657801 0.097053
O O5 0.500000 0.500000 0.727555
O O6 0.750000 0.399558 0.705676
O O7 0.492954 0.348305 0.595113
O O8 0.250000 0.096178 0.878865
O O9 0.482375 0.114577 0.727251
O O10 0.500000 0.000000 0.914978
O O11 0.750000 0.702500 0.465759
O O12 0.518693 0.813686 0.494331
O O13 0.494931 0.660250 0.346900
O O14 0.750000 0.906026 0.578020
O O15 0.500000 0.000000 0.538169
O O16 0.750000 0.401291 0.229460
O O17 0.000000 0.500000 0.226607
#
# Coordination Sequence:
#
# PCOD9339536 Si02
#       6
#     4   4   4   4   4   4
#     4  10  22  39  59  85 116 151 195 240 289 346
#     4  11  22  36  57  84 113 147 188 242 294 342
#     4  10  19  34  58  88 120 153 190 237 290 344
#     4  11  22  39  59  85 117 152 195 238 287 346
#     4   9  19  34  56  86 117 149 186 233 286 341
#     4  11  24  42  61  84 115 156 198 240 292 347
#
# _framework density 18.155244
#
# number of rings (size 3 to 8) (size 9 to 14) (size 15 to 20)
#    0.000    1.667    1.667    3.000    0.000    4.000 
#    0.000    0.833    0.000    2.000    0.000    0.000 
#    0.000    0.000    0.000    0.000    0.000    0.000 
#
# Total GULP energy -134091.545029 kJ/mol
# GULP energy per Si atom -5587.147710 kJ/mol
# Density = 1.811392 g / cm^3
# Si number density = 18.155244 Si / 1000 Ang^3
#
#
#
# Elastic Constant Matrix: (Units=GPa)
#
#
# Indices 1 2 3 4 5 6 
#
# 1 40.1245 50.5267 43.1964 0.0000 0.0000 0.0000
# 2 50.5267 200.4783 90.2618 0.0000 0.0000 0.0000
# 3 43.1964 90.2618 137.0349 0.0000 0.0000 0.0000
# 4 0.0000 0.0000 0.0000 31.6768 0.0000 0.0000
# 5 0.0000 0.0000 0.0000 0.0000 -27.3505 0.0000
# 6 0.0000 0.0000 0.0000 0.0000 0.0000 35.9909
#
#
#
# Elastic Compliance Matrix: (Units=1/GPa)
#
#
# Indices 1 2 3 4 5 6 
#
# 1 0.043379 -0.006790 -0.009201 0.000000 0.000000 0.000000
# 2 -0.006790 0.008154 -0.003230 0.000000 0.000000 0.000000
# 3 -0.009201 -0.003230 0.012326 0.000000 0.000000 0.000000
# 4 0.000000 0.000000 0.000000 0.031569 0.000000 0.000000
# 5 0.000000 0.000000 0.000000 0.000000 -0.036562 0.000000
# 6 0.000000 0.000000 0.000000 0.000000 0.000000 0.027785
#
#
# Mechanical properties :
#
#
# Convention : Reuss Voigt Hill
#
# Bulk Modulus (GPa) = 39.34768 82.84528 61.09648
# Shear Modulus (GPa) = 37.43515 20.97363 29.20439
#
# Velocity S-wave (km/s) = 4.54579 3.40257 4.01508
# Velocity P-wave (km/s) = 7.01942 7.82095 7.43100
#
# Compressibility (1/GPa) = 0.02541446
#
# Stress axis : x y z
#
# Youngs Moduli (GPa) = 23.05285 122.64279 81.13141
#
# Poissons Ratio (x) = 0.83274 0.74653
# Poissons Ratio (y) = 0.15653 0.26208
# Poissons Ratio (z) = 0.21212 0.39618
#
# Static dielectric constant tensor:
#      x y z
#    x 1.610190 0.000000 0.000000 
#    y 0.000000 1.608260 0.000000 
#    z 0.000000 0.000000 1.603660 
# 
# From -- ./inp_files/2439.got.cif
#   From: 2010.05.17/outbox.cif.g08.bks.cpg/sg28_2_cif.got.tgz:2439.got - 2010.06.04 01:15:21.
