data_PCOD9339465
_publ_section_title
;
Structure prediction by ZEFSAII (Michael W. Deem and Ramdas Pophale) SiO2 
 PCOD9339465
Probable space group: P M A 2
;
_chemical_formula_sum "Si O2"
_cell_formula_units_Z 32
_cell_length_a 8.437648
_cell_length_b 9.348911
_cell_length_c 21.869893
_cell_angle_alpha 90.000000
_cell_angle_beta 90.000000
_cell_angle_gamma 90.000000
_cell_volume 1725.158837
_symmetry_space_group_name_H-M "P M A 2"
_symmetry_group_IT_number 28
_symmetry_cell_setting 'orthorhombic'
loop_
_space_group_symop_operation_xyz
x,y,z
-x,-y,z
1/2-x,y,z
1/2+x,-y,z
loop_
_atom_site_type_symbol
_atom_site_label
_atom_site_fract_x
_atom_site_fract_y
_atom_site_fract_z
Si Si1 0.941705 0.661988 0.395310
Si Si2 0.940514 0.336304 0.630464
Si Si3 0.941063 0.336325 0.764295
Si Si4 0.439769 0.161700 0.514460
Si Si5 0.439815 0.835988 0.147858
Si Si6 0.558391 0.162644 0.014397
Si Si7 0.558060 0.337085 0.896966
Si Si8 0.939477 0.836746 0.276489
O O1 0.750000 0.661502 0.395240
O O2 0.995394 0.749381 0.455100
O O3 0.995207 0.742981 0.333791
O O4 0.000000 0.500000 0.397305
O O5 0.750000 0.338074 0.628459
O O6 0.992252 0.279325 0.697892
O O7 0.000000 0.500000 0.624182
O O8 0.003746 0.240717 0.575629
O O9 0.750000 0.335194 0.764177
O O10 0.992684 0.275733 0.830278
O O11 0.000000 0.500000 0.764749
O O12 0.250000 0.160356 0.513764
O O13 0.500000 0.000000 0.511961
O O14 0.250000 0.835486 0.151323
O O15 0.489102 0.776543 0.081338
O O16 0.506083 0.774532 0.211002
O O17 0.500000 0.000000 0.147187
O O18 0.750000 0.161588 0.013368
O O19 0.500000 0.000000 0.010319
O O20 0.500666 0.250208 0.955804
O O21 0.500000 0.500000 0.900824
O O22 0.750000 0.337137 0.898083
O O23 0.750000 0.841872 0.276870
O O24 0.000000 0.000000 0.282188
#
# Coordination Sequence:
#
# PCOD9339465 Si02
#       8
#     4   4   4   4   4   4   4   4
#     4  10  23  39  56  78 104 133 168 205 246 294
#     4  10  19  33  54  80 106 135 170 211 255 303
#     4   8  15  28  48  71  98 130 166 205 247 293
#     4  11  23  39  57  79 105 136 171 209 252 301
#     4   9  16  28  47  71  97 129 165 203 245 293
#     4   9  18  31  48  70  98 129 166 207 248 294
#     4   9  17  31  49  71  98 130 167 208 249 295
#     4  10  19  33  53  78 102 128 163 204 247 295
#
# _framework density 18.549016000000002
#
# number of rings (size 3 to 8) (size 9 to 14) (size 15 to 20)
#    0.000    2.500    0.000    3.000    0.000    4.500 
#    0.000    1.250    0.000    4.500    0.000    0.000 
#    0.000    0.000    0.000    0.000    0.000    0.000 
#
# Total GULP energy -178337.964035 kJ/mol
# GULP energy per Si atom -5573.061376 kJ/mol
# Density = 1.850680 g / cm^3
# Si number density = 18.549016 Si / 1000 Ang^3
#
#
#
# Elastic Constant Matrix: (Units=GPa)
#
#
# Indices 1 2 3 4 5 6 
#
# 1 26.1098 14.0446 34.0511 0.0000 0.0000 0.0000
# 2 14.0446 80.2037 87.8115 0.0000 0.0000 0.0000
# 3 34.0511 87.8115 247.4407 0.0000 0.0000 0.0000
# 4 0.0000 0.0000 0.0000 33.2890 0.0000 0.0000
# 5 0.0000 0.0000 0.0000 0.0000 28.5398 0.0000
# 6 0.0000 0.0000 0.0000 0.0000 0.0000 23.0141
#
#
#
# Elastic Compliance Matrix: (Units=1/GPa)
#
#
# Indices 1 2 3 4 5 6 
#
# 1 0.046848 -0.001873 -0.005782 0.000000 0.000000 0.000000
# 2 -0.001873 0.020466 -0.007005 0.000000 0.000000 0.000000
# 3 -0.005782 -0.007005 0.007323 0.000000 0.000000 0.000000
# 4 0.000000 0.000000 0.000000 0.030040 0.000000 0.000000
# 5 0.000000 0.000000 0.000000 0.000000 0.035039 0.000000
# 6 0.000000 0.000000 0.000000 0.000000 0.000000 0.043452
#
#
# Mechanical properties :
#
#
# Convention : Reuss Voigt Hill
#
# Bulk Modulus (GPa) = 22.06703 69.50761 45.78732
# Shear Modulus (GPa) = 21.96897 31.49172 26.73034
#
# Velocity S-wave (km/s) = 3.44521 4.12485 3.80025
# Velocity P-wave (km/s) = 5.26767 7.76142 6.63280
#
# Compressibility (1/GPa) = 0.04531648
#
# Stress axis : x y z
#
# Youngs Moduli (GPa) = 21.34551 48.86186 136.55471
#
# Poissons Ratio (x) = 0.09151 0.78960
# Poissons Ratio (y) = 0.03998 0.95659
# Poissons Ratio (z) = 0.12343 0.34229
#
# Static dielectric constant tensor:
#      x y z
#    x 1.633700 0.000000 0.000000 
#    y 0.000000 1.586620 0.000000 
#    z 0.000000 0.000000 1.710800 
# 
# From -- ./inp_files/7053.got.cif
#   From: 2010.05.17/outbox.cif.g08.bks.cpg/sg28_4_cif.got.tgz:7053.got - 2010.06.04 01:15:21.
