data_PCOD9339218
_publ_section_title
;
Structure prediction by ZEFSAII (Michael W. Deem and Ramdas Pophale) SiO2 
 PCOD9339218
Probable space group: P C C 2
;
_chemical_formula_sum "Si O2"
_cell_formula_units_Z 24
_cell_length_a 8.903015
_cell_length_b 8.678906
_cell_length_c 13.536222
_cell_angle_alpha 90.000000
_cell_angle_beta 90.000000
_cell_angle_gamma 90.000000
_cell_volume 1045.922626
_symmetry_space_group_name_H-M "P C C 2"
_symmetry_group_IT_number 27
_symmetry_cell_setting 'orthorhombic'
loop_
_space_group_symop_operation_xyz
x,y,z
-x,-y,z
-x,y,1/2+z
x,-y,1/2+z
loop_
_atom_site_type_symbol
_atom_site_label
_atom_site_fract_x
_atom_site_fract_y
_atom_site_fract_z
Si Si1 0.500000 0.500000 0.936430
Si Si2 0.008604 0.786396 0.536894
Si Si3 0.500000 0.000000 0.652506
Si Si4 0.683190 0.728522 0.577345
Si Si5 0.779145 0.187258 0.727685
Si Si6 0.000000 0.500000 0.904279
Si Si7 0.278822 0.458601 0.778802
Si Si8 0.000000 0.000000 0.370656
O O1 0.398694 0.404805 0.859726
O O2 0.384919 0.605792 0.998561
O O3 0.838817 0.827345 0.569806
O O4 0.121547 0.781133 0.628543
O O5 0.959593 0.631170 0.481401
O O6 0.079514 0.888116 0.449926
O O7 0.442711 0.142561 0.588700
O O8 0.640109 0.071718 0.712220
O O9 0.701085 0.628931 0.677065
O O10 0.720352 0.355592 0.762020
O O11 0.890600 0.104427 0.805172
O O12 0.878798 0.568930 0.830655
#
# Coordination Sequence:
#
# PCOD9339218 Si02
#       8
#     2   4   2   4   4   2   4   2
#     4  12  24  48  72 106 154 196 246 320 386 462
#     4  12  26  48  75 109 149 198 260 321 382 456
#     4  12  28  44  74 104 144 214 236 304 410 460
#     4  12  26  49  72 110 153 200 256 322 386 461
#     4  12  26  49  72 110 153 200 256 322 386 461
#     4  12  24  46  80 108 134 200 264 318 380 452
#     4  12  26  48  75 109 149 198 260 321 382 456
#     4  12  24  48  72 106 154 196 246 320 386 462
#
# _framework density 22.946247
#
# number of rings (size 3 to 8) (size 9 to 14) (size 15 to 20)
#    0.000    0.000    3.333    7.000    4.667    0.000 
#    0.000    6.667    0.000    0.000    0.000    0.000 
#    0.000    0.000    0.000    0.000    0.000    0.000 
#
# Total GULP energy -134016.129387 kJ/mol
# GULP energy per Si atom -5584.005391 kJ/mol
# Density = 2.289402 g / cm^3
# Si number density = 22.946247 Si / 1000 Ang^3
#
#
#
# Elastic Constant Matrix: (Units=GPa)
#
#
# Indices 1 2 3 4 5 6 
#
# 1 118.6971 8.3586 55.3922 0.0000 0.0000 0.0000
# 2 8.3586 87.6561 25.8667 0.0000 0.0000 0.0000
# 3 55.3922 25.8667 137.4782 0.0000 0.0000 0.0000
# 4 0.0000 0.0000 0.0000 84.6721 0.0000 0.0000
# 5 0.0000 0.0000 0.0000 0.0000 27.9409 0.0000
# 6 0.0000 0.0000 0.0000 0.0000 0.0000 41.5713
#
#
#
# Elastic Compliance Matrix: (Units=1/GPa)
#
#
# Indices 1 2 3 4 5 6 
#
# 1 0.010381 0.000259 -0.004231 0.000000 0.000000 0.000000
# 2 0.000259 0.012085 -0.002378 0.000000 0.000000 0.000000
# 3 -0.004231 -0.002378 0.009426 0.000000 0.000000 0.000000
# 4 0.000000 0.000000 0.000000 0.011810 0.000000 0.000000
# 5 0.000000 0.000000 0.000000 0.000000 0.035790 0.000000
# 6 0.000000 0.000000 0.000000 0.000000 0.000000 0.024055
#
#
# Mechanical properties :
#
#
# Convention : Reuss Voigt Hill
#
# Bulk Modulus (GPa) = 52.10729 58.11847 55.11288
# Shear Modulus (GPa) = 40.76749 47.78446 44.27597
#
# Velocity S-wave (km/s) = 4.21961 4.56834 4.39743
# Velocity P-wave (km/s) = 6.81893 7.29448 7.06071
#
# Compressibility (1/GPa) = 0.01919117
#
# Stress axis : x y z
#
# Youngs Moduli (GPa) = 96.32724 82.74505 106.08662
#
# Poissons Ratio (x) = -0.02141 0.44890
# Poissons Ratio (y) = -0.02493 0.25229
# Poissons Ratio (z) = 0.40761 0.19678
#
# Static dielectric constant tensor:
#      x y z
#    x 1.503850 0.000000 0.000000 
#    y 0.000000 1.659320 0.000000 
#    z 0.000000 0.000000 1.843840 
# 
# From -- ./inp_files/3344.got.cif
#   From: 2010.05.17/outbox.cif.g08.bks.cpg/sg27_2_cif.got.tgz:3344.got - 2010.06.04 01:11:05.
