data_PCOD9339227
_publ_section_title
;
Structure prediction by ZEFSAII (Michael W. Deem and Ramdas Pophale) SiO2 
 PCOD9339227
Probable space group: P C C 2
;
_chemical_formula_sum "Si O2"
_cell_formula_units_Z 30
_cell_length_a 12.000000
_cell_length_b 15.000000
_cell_length_c 9.000000
_cell_angle_alpha 90.000000
_cell_angle_beta 90.000000
_cell_angle_gamma 90.000000
_cell_volume 1620.000000
_symmetry_space_group_name_H-M "P C C 2"
_symmetry_group_IT_number 27
_symmetry_cell_setting 'orthorhombic'
loop_
_space_group_symop_operation_xyz
x,y,z
-x,-y,z
-x,y,1/2+z
x,-y,1/2+z
loop_
_atom_site_type_symbol
_atom_site_label
_atom_site_fract_x
_atom_site_fract_y
_atom_site_fract_z
Si Si1 0.500000 0.500000 0.340540
Si Si2 0.543473 0.639186 0.092865
Si Si3 0.695917 0.735371 0.551573
Si Si4 0.868326 0.423879 0.063034
Si Si5 0.115855 0.089705 0.218079
Si Si6 0.728800 0.755365 0.206674
Si Si7 0.897151 0.596700 0.218587
Si Si8 0.122407 0.893035 0.078928
O O1 0.561410 0.569255 0.229628
O O2 0.446369 0.572881 0.451920
O O3 0.637795 0.713991 0.098718
O O4 0.425479 0.694793 0.102672
O O5 0.775904 0.651020 0.577941
O O6 0.682160 0.753587 0.375166
O O7 0.774908 0.821399 0.603851
O O8 0.834538 0.519725 0.126430
O O9 0.979213 0.397922 0.153116
O O10 0.898247 0.430536 0.890234
O O11 0.220874 0.149216 0.170579
O O12 0.109658 0.094554 0.399181
O O13 0.000711 0.129542 0.147379
O O14 0.137538 0.989799 0.157327
O O15 0.833364 0.688716 0.206934
#
# Coordination Sequence:
#
# PCOD9339227 Si02
#       8
#     2   4   4   4   4   4   4   4
#     4  10  24  38  64  78 116 158 208 246 276 344
#     4  11  22  42  57  88 114 156 203 242 295 330
#     4  10  22  38  58  82 115 149 192 241 287 344
#     4  10  20  34  50  75 108 144 180 225 280 337
#     4  10  20  39  63  90 119 152 191 239 296 355
#     4  10  22  38  58  82 115 149 192 241 287 344
#     4  10  20  34  50  75 108 144 180 225 280 337
#     4  10  20  39  63  90 119 152 191 239 296 355
#
# _framework density 18.518519000000001
#
# number of rings (size 3 to 8) (size 9 to 14) (size 15 to 20)
#    0.000    1.867    1.333    4.000    3.733    0.000 
#    7.200    0.667    0.000    3.200    0.000    0.000 
#    0.000    0.000    0.000    0.000    0.000    0.000 
#
# Total GULP energy -167090.956707 kJ/mol
# GULP energy per Si atom -5569.698557 kJ/mol
# Density = 1.847637 g / cm^3
# Si number density = 18.518519 Si / 1000 Ang^3
#
#
#
# Elastic Constant Matrix: (Units=GPa)
#
#
# Indices 1 2 3 4 5 6 
#
# 1 75.0791 38.6780 18.6062 0.0000 0.0000 0.0000
# 2 38.6780 80.6756 17.8183 0.0000 0.0000 0.0000
# 3 18.6062 17.8183 80.6600 0.0000 0.0000 0.0000
# 4 0.0000 0.0000 0.0000 22.3042 0.0000 0.0000
# 5 0.0000 0.0000 0.0000 0.0000 6.9728 0.0000
# 6 0.0000 0.0000 0.0000 0.0000 0.0000 29.1525
#
#
#
# Elastic Compliance Matrix: (Units=1/GPa)
#
#
# Indices 1 2 3 4 5 6 
#
# 1 0.018111 -0.008158 -0.002376 0.000000 0.000000 0.000000
# 2 -0.008158 0.016706 -0.001809 0.000000 0.000000 0.000000
# 3 -0.002376 -0.001809 0.013345 0.000000 0.000000 0.000000
# 4 0.000000 0.000000 0.000000 0.044835 0.000000 0.000000
# 5 0.000000 0.000000 0.000000 0.000000 0.143415 0.000000
# 6 0.000000 0.000000 0.000000 0.000000 0.000000 0.034302
#
#
# Mechanical properties :
#
#
# Convention : Reuss Voigt Hill
#
# Bulk Modulus (GPa) = 42.59389 42.95773 42.77581
# Shear Modulus (GPa) = 16.48946 22.44004 19.46475
#
# Velocity S-wave (km/s) = 2.98725 3.48481 3.24558
# Velocity P-wave (km/s) = 5.91175 6.28008 6.09870
#
# Compressibility (1/GPa) = 0.02347755
#
# Stress axis : x y z
#
# Youngs Moduli (GPa) = 55.21586 59.85878 74.93321
#
# Poissons Ratio (x) = 0.48833 0.17800
# Poissons Ratio (y) = 0.45046 0.13552
# Poissons Ratio (z) = 0.13117 0.10826
#
# Static dielectric constant tensor:
#      x y z
#    x 1.662590 0.000000 0.000000 
#    y 0.000000 1.649140 0.000000 
#    z 0.000000 0.000000 1.659940 
# 
# From -- ./inp_files/1463.got.cif
#   From: 2010.05.17/outbox.ucp.g08.bks.cvg/sg27_1_cif.got.tgz:1463.got - 2010.06.11 15:23:43.
