data_PCOD9339516
_publ_section_title
;
Structure prediction by ZEFSAII (Michael W. Deem and Ramdas Pophale) SiO2 
 PCOD9339516
Probable space group: P M A 2
;
_chemical_formula_sum "Si O2"
_cell_formula_units_Z 32
_cell_length_a 8.947183
_cell_length_b 14.889242
_cell_length_c 12.545744
_cell_angle_alpha 90.000000
_cell_angle_beta 90.000000
_cell_angle_gamma 90.000000
_cell_volume 1671.303529
_symmetry_space_group_name_H-M "P M A 2"
_symmetry_group_IT_number 28
_symmetry_cell_setting 'orthorhombic'
loop_
_space_group_symop_operation_xyz
x,y,z
-x,-y,z
1/2-x,y,z
1/2+x,-y,z
loop_
_atom_site_type_symbol
_atom_site_label
_atom_site_fract_x
_atom_site_fract_y
_atom_site_fract_z
Si Si1 0.073001 0.646797 0.305700
Si Si2 0.575157 0.408402 0.547537
Si Si3 0.424672 0.915765 0.176421
Si Si4 0.572291 0.834234 0.373136
Si Si5 0.570221 0.099060 0.808507
Si Si6 0.071465 0.408558 0.083515
Si Si7 0.430232 0.794655 0.591784
Si Si8 0.073460 0.767734 0.998951
O O1 0.250000 0.661159 0.284867
O O2 0.060659 0.595462 0.418418
O O3 0.989967 0.739596 0.329842
O O4 0.997236 0.603935 0.202485
O O5 0.500000 0.500000 0.586501
O O6 0.750000 0.413207 0.572853
O O7 0.520801 0.310817 0.590248
O O8 0.250000 0.931791 0.192948
O O9 0.509283 0.903156 0.287330
O O10 0.440828 0.826907 0.105816
O O11 0.500000 0.000000 0.118127
O O12 0.750000 0.835378 0.376009
O O13 0.504707 0.842646 0.490718
O O14 0.750000 0.089063 0.815447
O O15 0.535082 0.151003 0.698570
O O16 0.500000 0.000000 0.813792
O O17 0.525099 0.166480 0.903643
O O18 0.250000 0.414235 0.089577
O O19 0.000000 0.500000 0.039667
O O20 0.019170 0.322641 0.015471
O O21 0.250000 0.793568 0.576637
O O22 0.250000 0.746181 0.984472
#
# Coordination Sequence:
#
# PCOD9339516 Si02
#       8
#     4   4   4   4   4   4   4   4
#     4  10  19  34  54  80 118 160 200 244 296 352
#     4   9  18  31  51  79 113 154 194 235 286 344
#     4  11  22  36  57  84 119 156 194 242 302 365
#     4  11  21  34  55  85 120 158 200 243 298 358
#     4  10  22  42  68  92 115 151 199 252 308 364
#     4  12  24  37  58  87 121 162 205 248 296 355
#     4   9  20  39  59  82 118 159 197 244 303 358
#     4  10  22  41  63  87 119 156 196 249 306 359
#
# _framework density 19.146732
#
# number of rings (size 3 to 8) (size 9 to 14) (size 15 to 20)
#    0.000    1.750    1.250    4.500    0.000    5.500 
#    0.000    1.875    0.000    1.500    0.000    0.000 
#    0.000    0.000    0.000    0.000    0.000    0.000 
#
# Total GULP energy -178663.325747 kJ/mol
# GULP energy per Si atom -5583.228930 kJ/mol
# Density = 1.910315 g / cm^3
# Si number density = 19.146732 Si / 1000 Ang^3
#
#
#
# Elastic Constant Matrix: (Units=GPa)
#
#
# Indices 1 2 3 4 5 6 
#
# 1 95.8572 62.9215 53.8022 0.0000 0.0000 0.0000
# 2 62.9215 122.9649 54.5787 0.0000 0.0000 0.0000
# 3 53.8022 54.5787 98.4456 0.0000 0.0000 0.0000
# 4 0.0000 0.0000 0.0000 13.5293 0.0000 0.0000
# 5 0.0000 0.0000 0.0000 0.0000 16.0666 0.0000
# 6 0.0000 0.0000 0.0000 0.0000 0.0000 34.1807
#
#
#
# Elastic Compliance Matrix: (Units=1/GPa)
#
#
# Indices 1 2 3 4 5 6 
#
# 1 0.018302 -0.006533 -0.006380 0.000000 0.000000 0.000000
# 2 -0.006533 0.013119 -0.003703 0.000000 0.000000 0.000000
# 3 -0.006380 -0.003703 0.015698 0.000000 0.000000 0.000000
# 4 0.000000 0.000000 0.000000 0.073914 0.000000 0.000000
# 5 0.000000 0.000000 0.000000 0.000000 0.062241 0.000000
# 6 0.000000 0.000000 0.000000 0.000000 0.000000 0.029256
#
#
# Mechanical properties :
#
#
# Convention : Reuss Voigt Hill
#
# Bulk Modulus (GPa) = 72.01451 73.31916 72.66684
# Shear Modulus (GPa) = 19.96887 22.48634 21.22760
#
# Velocity S-wave (km/s) = 3.23296 3.43070 3.33330
# Velocity P-wave (km/s) = 7.18537 7.35319 7.26977
#
# Compressibility (1/GPa) = 0.01388609
#
# Stress axis : x y z
#
# Youngs Moduli (GPa) = 54.64011 76.22593 63.70422
#
# Poissons Ratio (x) = 0.49799 0.40644
# Poissons Ratio (y) = 0.35697 0.23588
# Poissons Ratio (z) = 0.34861 0.28224
#
# Static dielectric constant tensor:
#      x y z
#    x 1.638210 0.000000 0.000000 
#    y 0.000000 1.659220 0.000000 
#    z 0.000000 0.000000 1.676640 
# 
# From -- ./inp_files/5082.got.cif
#   From: 2010.05.17/outbox.cif.g08.bks.cpg/sg28_3_cif.got.tgz:5082.got - 2010.06.04 01:15:21.
