data_PCOD9339543
_publ_section_title
;
Structure prediction by ZEFSAII (Michael W. Deem and Ramdas Pophale) SiO2 
 PCOD9339543
Probable space group: P M A 2
;
_chemical_formula_sum "Si O2"
_cell_formula_units_Z 32
_cell_length_a 8.744752
_cell_length_b 14.603322
_cell_length_c 15.921621
_cell_angle_alpha 90.000000
_cell_angle_beta 90.000000
_cell_angle_gamma 90.000000
_cell_volume 2033.229680
_symmetry_space_group_name_H-M "P M A 2"
_symmetry_group_IT_number 28
_symmetry_cell_setting 'orthorhombic'
loop_
_space_group_symop_operation_xyz
x,y,z
-x,-y,z
1/2-x,y,z
1/2+x,-y,z
loop_
_atom_site_type_symbol
_atom_site_label
_atom_site_fract_x
_atom_site_fract_y
_atom_site_fract_z
Si Si1 0.066304 0.597538 0.336760
Si Si2 0.932624 0.784754 0.594677
Si Si3 0.432720 0.897432 0.936585
Si Si4 0.566549 0.103018 0.749143
Si Si5 0.431977 0.102845 0.108708
Si Si6 0.933666 0.401488 0.533800
Si Si7 0.934081 0.209460 0.265864
Si Si8 0.566642 0.101892 0.438456
O O1 0.250000 0.593198 0.333729
O O2 0.024583 0.611896 0.434995
O O3 0.017459 0.685973 0.283924
O O4 0.000000 0.500000 0.309554
O O5 0.750000 0.784891 0.594244
O O6 0.994962 0.834097 0.677769
O O7 0.996301 0.682189 0.585098
O O8 0.994863 0.841358 0.514756
O O9 0.250000 0.900818 0.946762
O O10 0.466820 0.860142 0.843509
O O11 0.500000 0.000000 0.934148
O O12 0.506442 0.856498 0.020417
O O13 0.750000 0.098212 0.739631
O O14 0.500000 0.000000 0.741856
O O15 0.250000 0.095827 0.105953
O O16 0.486533 0.163344 0.186626
O O17 0.500000 0.000000 0.118153
O O18 0.750000 0.400871 0.539839
O O19 0.000000 0.500000 0.559020
O O20 0.750000 0.207739 0.253911
O O21 0.967046 0.151763 0.350274
O O22 0.750000 0.099645 0.448922
O O23 0.500000 0.000000 0.437938
#
# Coordination Sequence:
#
# PCOD9339543 Si02
#       8
#     4   4   4   4   4   4   4   4
#     4   9  18  33  52  73  96 126 161 206 252 292
#     4  12  23  34  50  73 100 135 171 206 249 298
#     4   9  17  31  51  72  96 128 164 205 251 294
#     4  10  20  34  52  74 101 133 169 209 250 298
#     4  11  21  32  49  73 101 133 167 206 248 295
#     4  10  19  35  54  75  99 128 166 210 256 297
#     4  10  20  35  51  70  98 132 168 205 247 293
#     4  11  22  36  49  66  97 135 173 209 245 291
#
# _framework density 15.738505999999999
#
# number of rings (size 3 to 8) (size 9 to 14) (size 15 to 20)
#    0.000    1.750    1.250    5.250    0.000    4.500 
#    0.000    0.000    0.000    0.000    0.000    0.875 
#    0.000    4.000    0.000    0.000    0.000    0.000 
#
# Total GULP energy -178611.211666 kJ/mol
# GULP energy per Si atom -5581.600365 kJ/mol
# Density = 1.570268 g / cm^3
# Si number density = 15.738506 Si / 1000 Ang^3
#
#
#
# Elastic Constant Matrix: (Units=GPa)
#
#
# Indices 1 2 3 4 5 6 
#
# 1 90.4564 52.1980 70.2815 0.0000 0.0000 0.0000
# 2 52.1980 123.1888 73.4931 0.0000 0.0000 0.0000
# 3 70.2815 73.4931 140.7982 0.0000 0.0000 0.0000
# 4 0.0000 0.0000 0.0000 3.3368 0.0000 0.0000
# 5 0.0000 0.0000 0.0000 0.0000 30.5758 0.0000
# 6 0.0000 0.0000 0.0000 0.0000 0.0000 26.1794
#
#
#
# Elastic Compliance Matrix: (Units=1/GPa)
#
#
# Indices 1 2 3 4 5 6 
#
# 1 0.019034 -0.003481 -0.007684 0.000000 0.000000 0.000000
# 2 -0.003481 0.012425 -0.004748 0.000000 0.000000 0.000000
# 3 -0.007684 -0.004748 0.013416 0.000000 0.000000 0.000000
# 4 0.000000 0.000000 0.000000 0.299688 0.000000 0.000000
# 5 0.000000 0.000000 0.000000 0.000000 0.032706 0.000000
# 6 0.000000 0.000000 0.000000 0.000000 0.000000 0.038198
#
#
# Mechanical properties :
#
#
# Convention : Reuss Voigt Hill
#
# Bulk Modulus (GPa) = 76.63229 82.93208 79.78218
# Shear Modulus (GPa) = 11.07069 22.58312 16.82690
#
# Velocity S-wave (km/s) = 2.65507 3.79211 3.27334
# Velocity P-wave (km/s) = 7.62862 8.48420 8.06776
#
# Compressibility (1/GPa) = 0.01304933
#
# Stress axis : x y z
#
# Youngs Moduli (GPa) = 52.53741 80.48142 74.53531
#
# Poissons Ratio (x) = 0.28015 0.57275
# Poissons Ratio (y) = 0.18288 0.35390
# Poissons Ratio (z) = 0.40371 0.38214
#
# Static dielectric constant tensor:
#      x y z
#    x 1.523560 0.000000 0.000000 
#    y 0.000000 1.503380 0.000000 
#    z 0.000000 0.000000 1.532920 
# 
# From -- ./inp_files/6411.got.cif
#   From: 2010.05.17/outbox.cif.g08.bks.cpg/sg28_4_cif.got.tgz:6411.got - 2010.06.04 01:15:21.
