data_PCOD9339526
_publ_section_title
;
Structure prediction by ZEFSAII (Michael W. Deem and Ramdas Pophale) SiO2 
 PCOD9339526
Probable space group: P M A 2
;
_chemical_formula_sum "Si O2"
_cell_formula_units_Z 32
_cell_length_a 14.653153
_cell_length_b 5.108208
_cell_length_c 16.888303
_cell_angle_alpha 90.000000
_cell_angle_beta 90.000000
_cell_angle_gamma 90.000000
_cell_volume 1264.112336
_symmetry_space_group_name_H-M "P M A 2"
_symmetry_group_IT_number 28
_symmetry_cell_setting 'orthorhombic'
loop_
_space_group_symop_operation_xyz
x,y,z
-x,-y,z
1/2-x,y,z
1/2+x,-y,z
loop_
_atom_site_type_symbol
_atom_site_label
_atom_site_fract_x
_atom_site_fract_y
_atom_site_fract_z
Si Si1 0.640370 0.656504 0.919150
Si Si2 0.139692 0.820130 0.324406
Si Si3 0.105857 0.553244 0.157333
Si Si4 0.143490 0.845613 0.843170
Si Si5 0.645299 0.902461 0.580695
Si Si6 0.361845 0.320000 0.413795
Si Si7 0.607599 0.946130 0.083961
Si Si8 0.599629 0.399211 0.676996
O O1 0.750000 0.623338 0.912356
O O2 0.601781 0.367941 0.903289
O O3 0.605387 0.862931 0.853066
O O4 0.621984 0.800071 0.001490
O O5 0.250000 0.825510 0.324164
O O6 0.111575 0.694980 0.241377
O O7 0.109568 0.612092 0.391359
O O8 0.108779 0.111023 0.346909
O O9 0.144792 0.261546 0.148592
O O10 0.000000 0.500000 0.139240
O O11 0.146816 0.763781 0.095951
O O12 0.250000 0.879306 0.863619
O O13 0.140239 0.723677 0.756390
O O14 0.750000 0.989152 0.567146
O O15 0.607943 0.788439 0.498455
O O16 0.646733 0.655972 0.640550
O O17 0.596909 0.158622 0.615131
O O18 0.250000 0.323517 0.415610
O O19 0.500000 0.000000 0.094259
O O20 0.500000 0.500000 0.696292
#
# Coordination Sequence:
#
# PCOD9339526 Si02
#       8
#     4   4   4   4   4   4   4   4
#     4  10  21  36  57  83 109 138 185 238 278 328
#     4  10  19  34  56  82 108 138 181 234 280 324
#     4  10  21  36  52  76 108 144 181 218 268 338
#     4  10  21  38  58  82 112 150 189 228 282 350
#     4  11  22  41  66  87 116 163 204 239 294 364
#     4   9  19  35  57  83 109 141 188 235 278 334
#     4  10  21  36  54  75 106 144 181 220 272 336
#     4  12  25  40  60  92 126 154 195 252 298 344
#
# _framework density 25.314205999999999
#
# number of rings (size 3 to 8) (size 9 to 14) (size 15 to 20)
#    0.000    1.750    0.000    4.500    0.000    5.000 
#    0.000    3.750    0.000    0.000    0.000    0.000 
#    0.000    0.000    0.000    0.000    0.000    0.000 
#
# Total GULP energy -179033.431655 kJ/mol
# GULP energy per Si atom -5594.794739 kJ/mol
# Density = 2.525659 g / cm^3
# Si number density = 25.314206 Si / 1000 Ang^3
#
#
#
# Elastic Constant Matrix: (Units=GPa)
#
#
# Indices 1 2 3 4 5 6 
#
# 1 56.3412 14.1215 -19.4803 0.0000 0.0000 0.0000
# 2 14.1215 132.6603 10.2029 0.0000 0.0000 0.0000
# 3 -19.4803 10.2029 69.6641 0.0000 0.0000 0.0000
# 4 0.0000 0.0000 0.0000 44.7878 0.0000 0.0000
# 5 0.0000 0.0000 0.0000 0.0000 -0.0233 0.0000
# 6 0.0000 0.0000 0.0000 0.0000 0.0000 81.5706
#
#
#
# Elastic Compliance Matrix: (Units=1/GPa)
#
#
# Indices 1 2 3 4 5 6 
#
# 1 0.020535 -0.002658 0.006131 0.000000 0.000000 0.000000
# 2 -0.002658 0.007968 -0.001910 0.000000 0.000000 0.000000
# 3 0.006131 -0.001910 0.016349 0.000000 0.000000 0.000000
# 4 0.000000 0.000000 0.000000 0.022328 0.000000 0.000000
# 5 0.000000 0.000000 0.000000 0.000000-42.868160 0.000000
# 6 0.000000 0.000000 0.000000 0.000000 0.000000 0.012259
#
#
# Mechanical properties :
#
#
# Convention : Reuss Voigt Hill
#
# Bulk Modulus (GPa) = 20.84220 29.81711 25.32965
# Shear Modulus (GPa) = -0.11689 42.18844 21.03577
#
# Velocity S-wave (km/s) = -0.21512 4.08682 2.88581
# Velocity P-wave (km/s) = 2.86174 5.83728 4.59692
#
# Compressibility (1/GPa) = 0.04797958
#
# Stress axis : x y z
#
# Youngs Moduli (GPa) = 48.69720 125.50453 61.16620
#
# Poissons Ratio (x) = 0.33353 -0.37504
# Poissons Ratio (y) = 0.12941 0.11683
# Poissons Ratio (z) = -0.29859 0.23972
#
# Static dielectric constant tensor:
#      x y z
#    x 2.057360 0.000000 0.000000 
#    y 0.000000 2.007020 0.000000 
#    z 0.000000 0.000000 2.006860 
# 
# From -- ./inp_files/6636.got.cif
#   From: 2010.05.17/outbox.cif.g08.bks.cpg/sg28_4_cif.got.tgz:6636.got - 2010.06.04 01:15:21.
