data_PCOD9339193
_publ_section_title
;
Structure prediction by ZEFSAII (Michael W. Deem and Ramdas Pophale) SiO2 
 PCOD9339193
Probable space group: P C C 2
;
_chemical_formula_sum "Si O2"
_cell_formula_units_Z 26
_cell_length_a 5.472457
_cell_length_b 17.125569
_cell_length_c 11.608366
_cell_angle_alpha 90.000000
_cell_angle_beta 90.000000
_cell_angle_gamma 90.000000
_cell_volume 1087.923756
_symmetry_space_group_name_H-M "P C C 2"
_symmetry_group_IT_number 27
_symmetry_cell_setting 'orthorhombic'
loop_
_space_group_symop_operation_xyz
x,y,z
-x,-y,z
-x,y,1/2+z
x,-y,1/2+z
loop_
_atom_site_type_symbol
_atom_site_label
_atom_site_fract_x
_atom_site_fract_y
_atom_site_fract_z
Si Si1 0.434950 0.292778 0.773890
Si Si2 0.919413 0.660215 0.973648
Si Si3 0.378773 0.431125 0.155221
Si Si4 0.553664 0.860340 0.618513
Si Si5 0.048240 0.086392 0.231564
Si Si6 0.207638 0.209491 0.417770
Si Si7 0.000000 0.500000 0.336379
O O1 0.243643 0.298419 0.876038
O O2 0.421481 0.373929 0.708731
O O3 0.431987 0.218950 0.692029
O O4 0.692698 0.279917 0.838154
O O5 0.992517 0.577319 0.916148
O O6 0.074694 0.736171 0.011702
O O7 0.781084 0.628968 0.084523
O O8 0.500000 0.500000 0.080322
O O9 0.223315 0.476658 0.251279
O O10 0.303661 0.902885 0.659629
O O11 0.578616 0.837688 0.483972
O O12 0.809933 0.901248 0.651554
O O13 0.068056 0.148834 0.335913
O O14 0.000000 0.000000 0.280142
#
# Coordination Sequence:
#
# PCOD9339193 Si02
#       7
#     4   4   4   4   4   4   2
#     4  11  24  45  67 101 141 191 243 312 368 445
#     4  12  26  42  70  99 140 195 255 310 380 451
#     4  12  27  42  67  98 143 192 249 315 387 444
#     4  11  26  45  78 113 149 193 249 304 373 443
#     4  11  26  51  77 113 156 195 238 306 373 455
#     4  11  26  45  76 107 144 192 251 303 369 451
#     4  12  26  44  62 102 140 188 246 314 380 444
#
# _framework density 23.898731999999999
#
# number of rings (size 3 to 8) (size 9 to 14) (size 15 to 20)
#    0.000    0.615    4.615    1.846   10.769    3.077 
#    0.000    3.077    0.000    0.000    0.000    0.000 
#    0.000    0.000    0.000    0.000    0.000    0.000 
#
# Total GULP energy -145075.770373 kJ/mol
# GULP energy per Si atom -5579.837322 kJ/mol
# Density = 2.384434 g / cm^3
# Si number density = 23.898732 Si / 1000 Ang^3
#
#
#
# Elastic Constant Matrix: (Units=GPa)
#
#
# Indices 1 2 3 4 5 6 
#
# 1 96.2041 39.2658 11.9750 0.0000 0.0000 0.0000
# 2 39.2658 129.2676 11.1191 0.0000 0.0000 0.0000
# 3 11.9750 11.1191 45.4980 0.0000 0.0000 0.0000
# 4 0.0000 0.0000 0.0000 12.4304 0.0000 0.0000
# 5 0.0000 0.0000 0.0000 0.0000 45.0541 0.0000
# 6 0.0000 0.0000 0.0000 0.0000 0.0000 34.1120
#
#
#
# Elastic Compliance Matrix: (Units=1/GPa)
#
#
# Indices 1 2 3 4 5 6 
#
# 1 0.012104 -0.003476 -0.002336 0.000000 0.000000 0.000000
# 2 -0.003476 0.008900 -0.001260 0.000000 0.000000 0.000000
# 3 -0.002336 -0.001260 0.022902 0.000000 0.000000 0.000000
# 4 0.000000 0.000000 0.000000 0.080448 0.000000 0.000000
# 5 0.000000 0.000000 0.000000 0.000000 0.022196 0.000000
# 6 0.000000 0.000000 0.000000 0.000000 0.000000 0.029315
#
#
# Mechanical properties :
#
#
# Convention : Reuss Voigt Hill
#
# Bulk Modulus (GPa) = 33.60061 43.96550 38.78306
# Shear Modulus (GPa) = 25.00877 32.22663 28.61770
#
# Velocity S-wave (km/s) = 3.23839 3.67613 3.46418
# Velocity P-wave (km/s) = 5.29840 6.03781 5.68015
#
# Compressibility (1/GPa) = 0.02976136
#
# Stress axis : x y z
#
# Youngs Moduli (GPa) = 82.61743 112.35888 43.66453
#
# Poissons Ratio (x) = 0.39053 0.10201
# Poissons Ratio (y) = 0.28715 0.05503
# Poissons Ratio (z) = 0.19302 0.14160
#
# Static dielectric constant tensor:
#      x y z
#    x 2.066500 0.000000 0.000000 
#    y 0.000000 1.886100 0.000000 
#    z 0.000000 0.000000 1.932490 
# 
# From -- ./inp_files/2052.got.cif
#   From: 2010.05.17/outbox.cif.g08.bks.cpg/sg27_2_cif.got.tgz:2052.got - 2010.06.04 01:11:05.
