data_PCOD9339812
_publ_section_title
;
Structure prediction by ZEFSAII (Michael W. Deem and Ramdas Pophale) SiO2 
 PCOD9339812
Probable space group: P M A 2
;
_chemical_formula_sum "Si O2"
_cell_formula_units_Z 32
_cell_length_a 8.614960
_cell_length_b 15.829283
_cell_length_c 12.142591
_cell_angle_alpha 90.000000
_cell_angle_beta 90.000000
_cell_angle_gamma 90.000000
_cell_volume 1655.868619
_symmetry_space_group_name_H-M "P M A 2"
_symmetry_group_IT_number 28
_symmetry_cell_setting 'orthorhombic'
loop_
_space_group_symop_operation_xyz
x,y,z
-x,-y,z
1/2-x,y,z
1/2+x,-y,z
loop_
_atom_site_type_symbol
_atom_site_label
_atom_site_fract_x
_atom_site_fract_y
_atom_site_fract_z
Si Si1 0.937257 0.590340 0.597680
Si Si2 0.934889 0.090192 0.597055
Si Si3 0.436594 0.147469 0.363861
Si Si4 0.938332 0.654517 0.360834
Si Si5 0.563990 0.089198 0.130677
Si Si6 0.063609 0.748369 0.984737
Si Si7 0.436662 0.245843 0.738236
Si Si8 0.063388 0.408865 0.122474
O O1 0.750000 0.587722 0.596452
O O2 0.992347 0.610333 0.472963
O O3 0.984035 0.668121 0.675252
O O4 0.000000 0.500000 0.634204
O O5 0.750000 0.089503 0.600353
O O6 0.992058 0.106115 0.472349
O O7 0.999401 0.166194 0.670964
O O8 0.000000 0.000000 0.634871
O O9 0.250000 0.141844 0.369576
O O10 0.481374 0.246699 0.361569
O O11 0.495959 0.105437 0.252111
O O12 0.750000 0.651998 0.361534
O O13 0.990328 0.611135 0.247855
O O14 0.750000 0.085932 0.136947
O O15 0.500000 0.000000 0.088504
O O16 0.518744 0.168141 0.054013
O O17 0.250000 0.743774 0.982731
O O18 0.999230 0.753929 0.861756
O O19 0.997270 0.666201 0.045832
O O20 0.250000 0.242321 0.738047
O O21 0.250000 0.409284 0.120575
O O22 0.000000 0.500000 0.088590
#
# Coordination Sequence:
#
# PCOD9339812 Si02
#       8
#     4   4   4   4   4   4   4   4
#     4  10  21  39  62  92 125 160 201 248 305 367
#     4  12  25  42  65  95 128 165 208 256 312 374
#     4  11  20  38  65  93 128 165 204 252 309 374
#     4   9  18  35  61  91 125 161 199 246 308 371
#     4  11  24  41  63  93 126 162 205 254 310 373
#     4  11  25  44  64  90 124 162 213 267 312 373
#     4  11  24  44  67  90 123 166 212 262 315 370
#     4  11  22  39  64  94 126 166 207 256 315 376
#
# _framework density 19.325203999999999
#
# number of rings (size 3 to 8) (size 9 to 14) (size 15 to 20)
#    0.000    1.250    2.500    3.750    0.000    3.500 
#    0.000    3.125    0.000    0.000    0.000    0.000 
#    0.000    0.000    0.000    0.000    0.000    0.000 
#
# Total GULP energy -178980.746322 kJ/mol
# GULP energy per Si atom -5593.148323 kJ/mol
# Density = 1.928122 g / cm^3
# Si number density = 19.325204 Si / 1000 Ang^3
#
#
#
# Elastic Constant Matrix: (Units=GPa)
#
#
# Indices 1 2 3 4 5 6 
#
# 1 71.2086 58.0597 48.5510 0.0000 0.0000 0.0000
# 2 58.0597 202.5866 88.0900 0.0000 0.0000 0.0000
# 3 48.5510 88.0900 154.5293 0.0000 0.0000 0.0000
# 4 0.0000 0.0000 0.0000 -5.9982 0.0000 0.0000
# 5 0.0000 0.0000 0.0000 0.0000 30.8391 0.0000
# 6 0.0000 0.0000 0.0000 0.0000 0.0000 31.5005
#
#
#
# Elastic Compliance Matrix: (Units=1/GPa)
#
#
# Indices 1 2 3 4 5 6 
#
# 1 0.020042 -0.003996 -0.004019 0.000000 0.000000 0.000000
# 2 -0.003996 0.007360 -0.002940 0.000000 0.000000 0.000000
# 3 -0.004019 -0.002940 0.009410 0.000000 0.000000 0.000000
# 4 0.000000 0.000000 0.000000 -0.166718 0.000000 0.000000
# 5 0.000000 0.000000 0.000000 0.000000 0.032426 0.000000
# 6 0.000000 0.000000 0.000000 0.000000 0.000000 0.031746
#
#
# Mechanical properties :
#
#
# Convention : Reuss Voigt Hill
#
# Bulk Modulus (GPa) = 67.10777 90.85845 78.98311
# Shear Modulus (GPa) = -128.67552 26.84319 -50.91617
#
# Velocity S-wave (km/s) = -8.16877 3.73101 -5.13850
# Velocity P-wave (km/s) = 7.36009 8.10420 2.39867
#
# Compressibility (1/GPa) = 0.01490140
#
# Stress axis : x y z
#
# Youngs Moduli (GPa) = 49.89606 135.87263 106.27240
#
# Poissons Ratio (x) = 0.54300 0.42707
# Poissons Ratio (y) = 0.19940 0.31243
# Poissons Ratio (z) = 0.20052 0.39945
#
# Static dielectric constant tensor:
#      x y z
#    x 1.659050 0.000000 0.000000 
#    y 0.000000 1.663520 0.000000 
#    z 0.000000 0.000000 1.647690 
# 
# From -- ./inp_files/5113.got.cif
#   From: 2010.05.17/outbox.cif.g08.bks.cpg/sg28_3_cif.got.tgz:5113.got - 2010.06.04 01:15:21.
