data_PCOD9339787
_publ_section_title
;
Structure prediction by ZEFSAII (Michael W. Deem and Ramdas Pophale) SiO2 
 PCOD9339787
Probable space group: P M A 2
;
_chemical_formula_sum "Si O2"
_cell_formula_units_Z 32
_cell_length_a 17.243145
_cell_length_b 14.040344
_cell_length_c 7.085858
_cell_angle_alpha 90.000000
_cell_angle_beta 90.000000
_cell_angle_gamma 90.000000
_cell_volume 1715.484007
_symmetry_space_group_name_H-M "P M A 2"
_symmetry_group_IT_number 28
_symmetry_cell_setting 'orthorhombic'
loop_
_space_group_symop_operation_xyz
x,y,z
-x,-y,z
1/2-x,y,z
1/2+x,-y,z
loop_
_atom_site_type_symbol
_atom_site_label
_atom_site_fract_x
_atom_site_fract_y
_atom_site_fract_z
Si Si1 0.159037 0.280359 0.292720
Si Si2 0.421068 0.292399 0.894314
Si Si3 0.658966 0.352589 0.530456
Si Si4 0.841480 0.857516 0.622986
Si Si5 0.656499 0.190728 0.252086
Si Si6 0.081182 0.948820 0.549231
Si Si7 0.091030 0.778789 0.841399
Si Si8 0.157657 0.436873 0.617382
O O1 0.250000 0.271396 0.240199
O O2 0.136394 0.189838 0.421666
O O3 0.151444 0.369912 0.433450
O O4 0.108364 0.291260 0.107698
O O5 0.384453 0.201943 0.784102
O O6 0.512812 0.279670 0.881055
O O7 0.388829 0.384463 0.783438
O O8 0.750000 0.366437 0.496341
O O9 0.629838 0.289126 0.355207
O O10 0.645781 0.287558 0.713755
O O11 0.627408 0.457918 0.568249
O O12 0.750000 0.841707 0.645848
O O13 0.862426 0.967683 0.620038
O O14 0.750000 0.183913 0.267636
O O15 0.617442 0.105871 0.370819
O O16 0.630513 0.191787 0.036404
O O17 0.071201 0.870580 0.713499
O O18 0.000000 0.000000 0.505313
O O19 0.250000 0.440511 0.667649
#
# Coordination Sequence:
#
# PCOD9339787 Si02
#       8
#     4   4   4   4   4   4   4   4
#     4   9  19  34  56  86 116 149 190 237 288 345
#     4  11  21  35  56  87 121 154 188 236 296 353
#     4   9  20  41  63  83 113 154 197 245 293 344
#     4  10  21  38  59  83 114 152 196 240 288 351
#     4  10  23  41  63  88 117 156 204 247 292 354
#     4  11  23  41  62  85 118 156 196 246 300 350
#     4  11  24  38  59  88 120 155 193 242 299 352
#     4   9  19  37  61  85 113 152 199 243 288 346
#
# _framework density 18.653627
#
# number of rings (size 3 to 8) (size 9 to 14) (size 15 to 20)
#    0.000    2.000    1.250    2.625    1.750    5.500 
#    0.000    2.500    0.000    0.000    0.000    0.000 
#    0.000    0.000    0.000    0.000    0.000    0.000 
#
# Total GULP energy -178635.955524 kJ/mol
# GULP energy per Si atom -5582.373610 kJ/mol
# Density = 1.861117 g / cm^3
# Si number density = 18.653627 Si / 1000 Ang^3
#
#
#
# Elastic Constant Matrix: (Units=GPa)
#
#
# Indices 1 2 3 4 5 6 
#
# 1 22.6422 16.4478 21.3048 0.0000 0.0000 0.0000
# 2 16.4478 98.4016 13.7017 0.0000 0.0000 0.0000
# 3 21.3048 13.7017 84.5696 0.0000 0.0000 0.0000
# 4 0.0000 0.0000 0.0000 6.5626 0.0000 0.0000
# 5 0.0000 0.0000 0.0000 0.0000 2.7205 0.0000
# 6 0.0000 0.0000 0.0000 0.0000 0.0000 24.8729
#
#
#
# Elastic Compliance Matrix: (Units=1/GPa)
#
#
# Indices 1 2 3 4 5 6 
#
# 1 0.064437 -0.008707 -0.014822 0.000000 0.000000 0.000000
# 2 -0.008707 0.011573 0.000318 0.000000 0.000000 0.000000
# 3 -0.014822 0.000318 0.015507 0.000000 0.000000 0.000000
# 4 0.000000 0.000000 0.000000 0.152379 0.000000 0.000000
# 5 0.000000 0.000000 0.000000 0.000000 0.367582 0.000000
# 6 0.000000 0.000000 0.000000 0.000000 0.000000 0.040204
#
#
# Mechanical properties :
#
#
# Convention : Reuss Voigt Hill
#
# Bulk Modulus (GPa) = 22.17493 34.28022 28.22757
# Shear Modulus (GPa) = 7.01129 17.10847 12.05988
#
# Velocity S-wave (km/s) = 1.94083 3.03176 2.54543
# Velocity P-wave (km/s) = 4.11533 5.53828 4.87896
#
# Compressibility (1/GPa) = 0.04509597
#
# Stress axis : x y z
#
# Youngs Moduli (GPa) = 15.51906 86.40468 64.48686
#
# Poissons Ratio (x) = 0.75230 0.95584
# Poissons Ratio (y) = 0.13512 -0.02053
# Poissons Ratio (z) = 0.23003 -0.02750
#
# Static dielectric constant tensor:
#      x y z
#    x 1.660600 0.000000 0.000000 
#    y 0.000000 1.645160 0.000000 
#    z 0.000000 0.000000 1.608330 
# 
# From -- ./inp_files/1201.got.cif
#   From: 2010.05.17/outbox.cif.g08.bks.cpg/sg28_1_cif.got.tgz:1201.got - 2010.06.04 01:15:21.
