data_PCOD9339777
_publ_section_title
;
Structure prediction by ZEFSAII (Michael W. Deem and Ramdas Pophale) SiO2 
 PCOD9339777
Probable space group: P M A 2
;
_chemical_formula_sum "Si O2"
_cell_formula_units_Z 32
_cell_length_a 8.676347
_cell_length_b 15.849376
_cell_length_c 12.206720
_cell_angle_alpha 90.000000
_cell_angle_beta 90.000000
_cell_angle_gamma 90.000000
_cell_volume 1678.603267
_symmetry_space_group_name_H-M "P M A 2"
_symmetry_group_IT_number 28
_symmetry_cell_setting 'orthorhombic'
loop_
_space_group_symop_operation_xyz
x,y,z
-x,-y,z
1/2-x,y,z
1/2+x,-y,z
loop_
_atom_site_type_symbol
_atom_site_label
_atom_site_fract_x
_atom_site_fract_y
_atom_site_fract_z
Si Si1 0.565148 0.590743 0.125000
Si Si2 0.436492 0.747273 0.988746
Si Si3 0.565808 0.409888 0.594087
Si Si4 0.934998 0.089547 0.592590
Si Si5 0.565639 0.851695 0.361499
Si Si6 0.065210 0.348342 0.365630
Si Si7 0.562286 0.249796 0.736241
Si Si8 0.934708 0.089577 0.130228
O O1 0.500000 0.500000 0.091886
O O2 0.750000 0.589815 0.121547
O O3 0.517087 0.610676 0.250551
O O4 0.503631 0.666037 0.049713
O O5 0.250000 0.742192 0.991659
O O6 0.486504 0.750474 0.862328
O O7 0.481932 0.832219 0.053265
O O8 0.500000 0.500000 0.628370
O O9 0.750000 0.412739 0.597823
O O10 0.513696 0.389619 0.470421
O O11 0.511271 0.333272 0.671318
O O12 0.750000 0.087106 0.590994
O O13 0.986235 0.166537 0.670208
O O14 0.995510 0.107954 0.470466
O O15 0.000000 0.000000 0.630415
O O16 0.750000 0.862150 0.361671
O O17 0.530323 0.751544 0.362074
O O18 0.497081 0.891900 0.251909
O O19 0.250000 0.357641 0.376556
O O20 0.750000 0.250054 0.735308
O O21 0.750000 0.085934 0.132919
O O22 0.000000 0.000000 0.091817
#
# Coordination Sequence:
#
# PCOD9339777 Si02
#       8
#     4   4   4   4   4   4   4   4
#     4  11  23  40  61  90 122 156 194 242 295 352
#     4  10  22  42  64  86 115 156 202 248 295 346
#     4  11  22  38  61  88 119 155 194 239 290 348
#     4  11  22  39  61  89 121 156 196 240 293 352
#     4  11  21  37  61  89 122 154 192 242 293 352
#     4  10  21  37  60  89 121 153 190 238 293 351
#     4   9  21  41  62  84 116 155 198 244 292 345
#     4  11  23  38  61  89 120 157 196 241 295 354
#
# _framework density 19.063466999999999
#
# number of rings (size 3 to 8) (size 9 to 14) (size 15 to 20)
#    0.000    1.500    2.500    2.625    0.000    4.000 
#    0.000    3.750    0.000    0.000    0.000    0.000 
#    0.000    0.000    0.000    0.000    0.000    0.000 
#
# Total GULP energy -178908.034995 kJ/mol
# GULP energy per Si atom -5590.876094 kJ/mol
# Density = 1.902008 g / cm^3
# Si number density = 19.063467 Si / 1000 Ang^3
#
#
#
# Elastic Constant Matrix: (Units=GPa)
#
#
# Indices 1 2 3 4 5 6 
#
# 1 36.4736 49.4709 30.1278 0.0000 0.0000 0.0000
# 2 49.4709 203.1988 94.9158 0.0000 0.0000 0.0000
# 3 30.1278 94.9158 157.3836 0.0000 0.0000 0.0000
# 4 0.0000 0.0000 0.0000 -5.3877 0.0000 0.0000
# 5 0.0000 0.0000 0.0000 0.0000 -4.0524 0.0000
# 6 0.0000 0.0000 0.0000 0.0000 0.0000 33.0250
#
#
#
# Elastic Compliance Matrix: (Units=1/GPa)
#
#
# Indices 1 2 3 4 5 6 
#
# 1 0.041678 -0.008938 -0.002588 0.000000 0.000000 0.000000
# 2 -0.008938 0.008768 -0.003577 0.000000 0.000000 0.000000
# 3 -0.002588 -0.003577 0.009007 0.000000 0.000000 0.000000
# 4 0.000000 0.000000 0.000000 -0.185610 0.000000 0.000000
# 5 0.000000 0.000000 0.000000 0.000000 -0.246768 0.000000
# 6 0.000000 0.000000 0.000000 0.000000 0.000000 0.030280
#
#
# Mechanical properties :
#
#
# Convention : Reuss Voigt Hill
#
# Bulk Modulus (GPa) = 34.19193 82.89834 58.54513
# Shear Modulus (GPa) = -16.51857 19.55309 1.51726
#
# Velocity S-wave (km/s) = -2.94684 3.20610 0.89310
# Velocity P-wave (km/s) = 2.52909 7.56871 5.64277
#
# Compressibility (1/GPa) = 0.02924666
#
# Stress axis : x y z
#
# Youngs Moduli (GPa) = 23.99352 114.04870 111.03065
#
# Poissons Ratio (x) = 1.01938 0.28734
# Poissons Ratio (y) = 0.21446 0.39715
# Poissons Ratio (z) = 0.06209 0.40795
#
# Static dielectric constant tensor:
#      x y z
#    x 1.640410 0.000000 0.000000 
#    y 0.000000 1.654830 0.000000 
#    z 0.000000 0.000000 1.631570 
# 
# From -- ./inp_files/5023.got.cif
#   From: 2010.05.17/outbox.cif.g08.bks.cpg/sg28_3_cif.got.tgz:5023.got - 2010.06.04 01:15:21.
