data_PCOD9339637
_publ_section_title
;
Structure prediction by ZEFSAII (Michael W. Deem and Ramdas Pophale) SiO2 
 PCOD9339637
Probable space group: P M A 2
;
_chemical_formula_sum "Si O2"
_cell_formula_units_Z 16
_cell_length_a 5.712252
_cell_length_b 13.055395
_cell_length_c 9.348518
_cell_angle_alpha 90.000000
_cell_angle_beta 90.000000
_cell_angle_gamma 90.000000
_cell_volume 697.172332
_symmetry_space_group_name_H-M "P M A 2"
_symmetry_group_IT_number 28
_symmetry_cell_setting 'orthorhombic'
loop_
_space_group_symop_operation_xyz
x,y,z
-x,-y,z
1/2-x,y,z
1/2+x,-y,z
loop_
_atom_site_type_symbol
_atom_site_label
_atom_site_fract_x
_atom_site_fract_y
_atom_site_fract_z
Si Si1 0.750000 0.778748 0.614640
Si Si2 0.750000 0.108370 0.000649
Si Si3 0.750000 0.994924 0.451828
Si Si4 0.250000 0.295205 0.307544
Si Si5 0.499405 0.376857 0.052244
Si Si6 0.750000 0.878269 0.108140
Si Si7 0.250000 0.830594 0.690845
O O1 0.750000 0.704556 0.476281
O O2 0.496652 0.769477 0.690032
O O3 0.750000 0.897383 0.557906
O O4 0.500482 0.156773 0.043539
O O5 0.750000 0.998393 0.077774
O O6 0.750000 0.097980 0.830438
O O7 0.750000 0.097440 0.550395
O O8 0.500000 0.000000 0.372774
O O9 0.465091 0.345488 0.220008
O O10 0.250000 0.175260 0.262369
O O11 0.500000 0.500000 0.045971
O O12 0.250000 0.344292 0.985213
O O13 0.750000 0.342190 0.994709
#
# Coordination Sequence:
#
# PCOD9339637 Si02
#       7
#     2   2   2   2   4   2   2
#     4  10  21  30  51  79  96 135 158 228 273 284
#     4  10  22  39  52  67 101 142 204 217 253 306
#     4   8  16  28  42  65  81 120 164 202 256 268
#     4  10  22  34  52  82 125 122 175 211 268 346
#     4   8  16  30  52  73 105 146 161 198 252 327
#     4  10  23  34  55  73  99 153 168 227 273 296
#     4  10  20  35  54  68  92 138 189 227 245 288
#
# _framework density 22.949850000000001
#
# number of rings (size 3 to 8) (size 9 to 14) (size 15 to 20)
#    0.750    2.000    0.000    0.750   14.000    0.000 
#   13.500    0.000    0.000    0.000    0.000    0.000 
#    0.000   20.000    0.000    0.000    0.000    0.000 
#
# Total GULP energy -89067.856141 kJ/mol
# GULP energy per Si atom -5566.741009 kJ/mol
# Density = 2.289761 g / cm^3
# Si number density = 22.949850 Si / 1000 Ang^3
#
#
#
# Elastic Constant Matrix: (Units=GPa)
#
#
# Indices 1 2 3 4 5 6 
#
# 1 283.2640 34.0875 31.5249 0.0000 0.0000 0.0000
# 2 34.0875 42.7560 -3.2572 0.0000 0.0000 0.0000
# 3 31.5249 -3.2572 70.0528 0.0000 0.0000 0.0000
# 4 0.0000 0.0000 0.0000 -7.7998 0.0000 0.0000
# 5 0.0000 0.0000 0.0000 0.0000 25.0300 0.0000
# 6 0.0000 0.0000 0.0000 0.0000 0.0000 35.7861
#
#
#
# Elastic Compliance Matrix: (Units=1/GPa)
#
#
# Indices 1 2 3 4 5 6 
#
# 1 0.004177 -0.003486 -0.002042 0.000000 0.000000 0.000000
# 2 -0.003486 0.026380 0.002795 0.000000 0.000000 0.000000
# 3 -0.002042 0.002795 0.015324 0.000000 0.000000 0.000000
# 4 0.000000 0.000000 0.000000 -0.128209 0.000000 0.000000
# 5 0.000000 0.000000 0.000000 0.000000 0.039952 0.000000
# 6 0.000000 0.000000 0.000000 0.000000 0.000000 0.027944
#
#
# Mechanical properties :
#
#
# Convention : Reuss Voigt Hill
#
# Bulk Modulus (GPa) = 24.74227 57.86480 41.30354
# Shear Modulus (GPa) = 1109.85330 32.85111 571.35220
#
# Velocity S-wave (km/s) = 22.01475 3.78753 15.79548
# Velocity P-wave (km/s) = 25.63208 6.66299 18.72697
#
# Compressibility (1/GPa) = 0.04041666
#
# Stress axis : x y z
#
# Youngs Moduli (GPa) = 239.40818 37.90691 65.25818
#
# Poissons Ratio (x) = 0.13213 0.13324
# Poissons Ratio (y) = 0.83450 -0.18241
# Poissons Ratio (z) = 0.48882 -0.10596
#
# Static dielectric constant tensor:
#      x y z
#    x 1.977060 0.000000 0.000000 
#    y 0.000000 1.916750 0.000000 
#    z 0.000000 0.000000 1.805760 
# 
# From -- ./inp_files/1998.got.cif
#   From: 2010.05.17/outbox.cif.g08.bks.cpg/sg28_1_cif.got.tgz:1998.got - 2010.06.04 01:15:21.
