data_PCOD9339653
_publ_section_title
;
Structure prediction by ZEFSAII (Michael W. Deem and Ramdas Pophale) SiO2 
 PCOD9339653
Probable space group: P M A 2
;
_chemical_formula_sum "Si O2"
_cell_formula_units_Z 32
_cell_length_a 8.778277
_cell_length_b 14.932856
_cell_length_c 12.536096
_cell_angle_alpha 90.000000
_cell_angle_beta 90.000000
_cell_angle_gamma 90.000000
_cell_volume 1643.290965
_symmetry_space_group_name_H-M "P M A 2"
_symmetry_group_IT_number 28
_symmetry_cell_setting 'orthorhombic'
loop_
_space_group_symop_operation_xyz
x,y,z
-x,-y,z
1/2-x,y,z
1/2+x,-y,z
loop_
_atom_site_type_symbol
_atom_site_label
_atom_site_fract_x
_atom_site_fract_y
_atom_site_fract_z
Si Si1 0.068416 0.593454 0.786850
Si Si2 0.068231 0.228178 0.705701
Si Si3 0.431875 0.099849 0.509534
Si Si4 0.067371 0.591620 0.246296
Si Si5 0.569012 0.208313 0.314669
Si Si6 0.926648 0.181839 0.073284
Si Si7 0.572838 0.092010 0.862195
Si Si8 0.928859 0.636341 0.018150
O O1 0.250000 0.591053 0.789979
O O2 0.000000 0.500000 0.747458
O O3 0.011496 0.676009 0.715156
O O4 0.005812 0.607395 0.907595
O O5 0.250000 0.240176 0.703889
O O6 0.021531 0.165067 0.607023
O O7 0.016788 0.173086 0.809286
O O8 0.250000 0.091445 0.512620
O O9 0.482861 0.151607 0.403016
O O10 0.500000 0.000000 0.516690
O O11 0.250000 0.587247 0.244414
O O12 0.024413 0.686277 0.302514
O O13 0.000000 0.500000 0.294273
O O14 0.005347 0.597371 0.125007
O O15 0.750000 0.205984 0.337303
O O16 0.545013 0.165596 0.197338
O O17 0.750000 0.216346 0.065825
O O18 0.937213 0.101692 0.990000
O O19 0.039952 0.258348 0.033513
O O20 0.750000 0.097393 0.832232
O O21 0.500000 0.000000 0.825142
O O22 0.750000 0.615287 0.015163
#
# Coordination Sequence:
#
# PCOD9339653 Si02
#       8
#     4   4   4   4   4   4   4   4
#     4  12  24  39  60  88 123 163 204 249 301 360
#     4  11  24  43  64  90 121 155 202 255 308 364
#     4  11  25  44  68  93 119 153 202 257 306 365
#     4  10  20  35  56  86 124 164 206 251 298 356
#     4   9  20  39  62  88 122 159 201 253 304 358
#     4   9  19  36  56  84 122 162 200 246 303 359
#     4  11  22  36  58  87 122 161 199 245 304 367
#     4  11  20  32  54  84 121 165 207 248 294 353
#
# _framework density 19.473120000000002
#
# number of rings (size 3 to 8) (size 9 to 14) (size 15 to 20)
#    0.000    1.500    1.250    5.250    0.000    6.500 
#    0.000    1.875    0.000    1.500    0.000    0.000 
#    0.000    0.000    0.000    0.000    0.000    0.000 
#
# Total GULP energy -178724.575569 kJ/mol
# GULP energy per Si atom -5585.142987 kJ/mol
# Density = 1.942880 g / cm^3
# Si number density = 19.473120 Si / 1000 Ang^3
#
#
#
# Elastic Constant Matrix: (Units=GPa)
#
#
# Indices 1 2 3 4 5 6 
#
# 1 89.5943 56.5158 37.6723 0.0000 0.0000 0.0000
# 2 56.5158 141.7307 57.3909 0.0000 0.0000 0.0000
# 3 37.6723 57.3909 90.2290 0.0000 0.0000 0.0000
# 4 0.0000 0.0000 0.0000 12.2183 0.0000 0.0000
# 5 0.0000 0.0000 0.0000 0.0000 -84.5769 0.0000
# 6 0.0000 0.0000 0.0000 0.0000 0.0000 33.7036
#
#
#
# Elastic Compliance Matrix: (Units=1/GPa)
#
#
# Indices 1 2 3 4 5 6 
#
# 1 0.015675 -0.004850 -0.003460 0.000000 0.000000 0.000000
# 2 -0.004850 0.011004 -0.004974 0.000000 0.000000 0.000000
# 3 -0.003460 -0.004974 0.015691 0.000000 0.000000 0.000000
# 4 0.000000 0.000000 0.000000 0.081844 0.000000 0.000000
# 5 0.000000 0.000000 0.000000 0.000000 -0.011824 0.000000
# 6 0.000000 0.000000 0.000000 0.000000 0.000000 0.029670
#
#
# Mechanical properties :
#
#
# Convention : Reuss Voigt Hill
#
# Bulk Modulus (GPa) = 63.28027 69.41244 66.34636
# Shear Modulus (GPa) = 28.75270 3.60069 16.17669
#
# Velocity S-wave (km/s) = 3.84674 1.36128 2.88535
# Velocity P-wave (km/s) = 7.23164 6.18008 6.72644
#
# Compressibility (1/GPa) = 0.01580271
#
# Stress axis : x y z
#
# Youngs Moduli (GPa) = 63.79413 90.87956 63.72888
#
# Poissons Ratio (x) = 0.44072 0.22052
# Poissons Ratio (y) = 0.30937 0.31700
# Poissons Ratio (z) = 0.22074 0.45205
#
# Static dielectric constant tensor:
#      x y z
#    x 1.665940 0.000000 0.000000 
#    y 0.000000 1.705990 0.000000 
#    z 0.000000 0.000000 1.682240 
# 
# From -- ./inp_files/5114.got.cif
#   From: 2010.05.17/outbox.cif.g08.bks.cpg/sg28_3_cif.got.tgz:5114.got - 2010.06.04 01:15:21.
