data_PCOD9339948
_publ_section_title
;
Structure prediction by ZEFSAII (Michael W. Deem and Ramdas Pophale) SiO2 
 PCOD9339948
Probable space group: P M A 2
;
_chemical_formula_sum "Si O2"
_cell_formula_units_Z 14
_cell_length_a 13.710498
_cell_length_b 7.455245
_cell_length_c 4.943682
_cell_angle_alpha 90.000000
_cell_angle_beta 90.000000
_cell_angle_gamma 90.000000
_cell_volume 505.319057
_symmetry_space_group_name_H-M "P M A 2"
_symmetry_group_IT_number 28
_symmetry_cell_setting 'orthorhombic'
loop_
_space_group_symop_operation_xyz
x,y,z
-x,-y,z
1/2-x,y,z
1/2+x,-y,z
loop_
_atom_site_type_symbol
_atom_site_label
_atom_site_fract_x
_atom_site_fract_y
_atom_site_fract_z
Si Si1 0.965964 0.206129 0.171560
Si Si2 0.250000 0.691616 0.336814
Si Si3 0.750000 0.965385 0.508758
Si Si4 0.082692 0.283509 0.674617
Si Si5 0.750000 0.657076 0.062727
O O1 0.852409 0.239258 0.216092
O O2 0.035031 0.316128 0.382459
O O3 0.000000 0.000000 0.212217
O O4 0.992060 0.254842 0.867825
O O5 0.250000 0.479354 0.315514
O O6 0.250000 0.825178 0.588418
O O7 0.848435 0.888676 0.634746
O O8 0.750000 0.854899 0.211129
O O9 0.158169 0.389360 0.869505
#
# Coordination Sequence:
#
# PCOD9339948 Si02
#       5
#     4   2   2   4   2
#     4  12  25  48  81 119 159 215 270 332 412 480
#     4  12  28  50  82 126 152 216 288 327 390 512
#     4  11  23  52  80 111 164 206 268 342 406 482
#     4  11  24  49  78 109 168 210 252 342 418 460
#     4  11  25  52  80 117 160 212 266 335 412 488
#
# _framework density 27.705268
#
# number of rings (size 3 to 8) (size 9 to 14) (size 15 to 20)
#    0.000    0.571    5.714    0.857    0.000    3.429 
#   15.429    0.000    0.000    0.000    0.000    0.000 
#    0.000    0.000    0.000    0.000    0.000    0.000 
#
# Total GULP energy -78126.954587 kJ/mol
# GULP energy per Si atom -5580.496756 kJ/mol
# Density = 2.764221 g / cm^3
# Si number density = 27.705268 Si / 1000 Ang^3
#
#
#
# Elastic Constant Matrix: (Units=GPa)
#
#
# Indices 1 2 3 4 5 6 
#
# 1 164.4393 -11.1561 13.5999 0.0000 0.0000 0.0000
# 2 -11.1561 115.4717 6.6652 0.0000 0.0000 0.0000
# 3 13.5999 6.6652 138.1251 0.0000 0.0000 0.0000
# 4 0.0000 0.0000 0.0000 7.4860 0.0000 0.0000
# 5 0.0000 0.0000 0.0000 0.0000 44.3474 0.0000
# 6 0.0000 0.0000 0.0000 0.0000 0.0000 332.2254
#
#
#
# Elastic Compliance Matrix: (Units=1/GPa)
#
#
# Indices 1 2 3 4 5 6 
#
# 1 0.006177 0.000634 -0.000639 0.000000 0.000000 0.000000
# 2 0.000634 0.008749 -0.000485 0.000000 0.000000 0.000000
# 3 -0.000639 -0.000485 0.007326 0.000000 0.000000 0.000000
# 4 0.000000 0.000000 0.000000 0.133582 0.000000 0.000000
# 5 0.000000 0.000000 0.000000 0.000000 0.022549 0.000000
# 6 0.000000 0.000000 0.000000 0.000000 0.000000 0.003010
#
#
# Mechanical properties :
#
#
# Convention : Reuss Voigt Hill
#
# Bulk Modulus (GPa) = 47.00775 48.47269 47.74022
# Shear Modulus (GPa) = 26.39017 104.07356 65.23187
#
# Velocity S-wave (km/s) = 3.08966 6.13564 4.85758
# Velocity P-wave (km/s) = 5.45270 8.22974 6.98071
#
# Compressibility (1/GPa) = 0.02127309
#
# Stress axis : x y z
#
# Youngs Moduli (GPa) = 161.88851 114.29455 136.49845
#
# Poissons Ratio (x) = -0.07242 0.08719
# Poissons Ratio (y) = -0.10258 0.06615
# Poissons Ratio (z) = 0.10341 0.05539
#
# Static dielectric constant tensor:
#      x y z
#    x 2.119980 0.000000 0.000000 
#    y 0.000000 2.410510 0.000000 
#    z 0.000000 0.000000 2.167230 
# 
# From -- ./inp_files/628.got.cif
#   From: 2010.05.17/outbox.cif.g08.bks.cpg/sg28_1_cif.got.tgz:628.got - 2010.06.04 01:15:21.
