data_PCOD9339356
_publ_section_title
;
Structure prediction by ZEFSAII (Michael W. Deem and Ramdas Pophale) SiO2 
 PCOD9339356
Probable space group: P M A 2
;
_chemical_formula_sum "Si O2"
_cell_formula_units_Z 24
_cell_length_a 22.429183
_cell_length_b 7.442731
_cell_length_c 6.585997
_cell_angle_alpha 90.000000
_cell_angle_beta 90.000000
_cell_angle_gamma 90.000000
_cell_volume 1099.429297
_symmetry_space_group_name_H-M "P M A 2"
_symmetry_group_IT_number 28
_symmetry_cell_setting 'orthorhombic'
loop_
_space_group_symop_operation_xyz
x,y,z
-x,-y,z
1/2-x,y,z
1/2+x,-y,z
loop_
_atom_site_type_symbol
_atom_site_label
_atom_site_fract_x
_atom_site_fract_y
_atom_site_fract_z
Si Si1 0.684179 0.584422 0.063130
Si Si2 0.377300 0.250969 0.679575
Si Si3 0.944786 0.130878 0.243716
Si Si4 0.582674 0.504274 0.311571
Si Si5 0.818172 0.948578 0.335057
Si Si6 0.516681 0.691825 0.930239
O O1 0.750000 0.512571 0.045795
O O2 0.642754 0.452652 0.190725
O O3 0.684394 0.769046 0.194991
O O4 0.658954 0.634270 0.843799
O O5 0.401545 0.377134 0.501542
O O6 0.335179 0.108950 0.566448
O O7 0.436720 0.193826 0.801080
O O8 0.947084 0.316683 0.370549
O O9 0.960844 0.199114 0.015577
O O10 0.879160 0.047335 0.264341
O O11 0.000000 0.000000 0.299726
O O12 0.550169 0.623056 0.137606
O O13 0.750000 0.024921 0.327358
O O14 0.500000 0.500000 0.830595
#
# Coordination Sequence:
#
# PCOD9339356 Si02
#       6
#     4   4   4   4   4   4
#     4   9  18  36  60  83 112 154 201 244 288 345
#     4  10  18  36  62  84 111 154 204 248 290 348
#     4  11  21  38  59  85 122 157 193 240 298 358
#     4   9  20  36  56  84 114 147 195 249 293 341
#     4  10  22  39  60  89 126 162 194 239 301 364
#     4   9  20  37  57  83 113 148 198 252 294 342
#
# _framework density 21.829505999999999
#
# number of rings (size 3 to 8) (size 9 to 14) (size 15 to 20)
#    0.000    2.333    0.000    3.500    0.000    4.667 
#    0.000   17.500    0.000    0.000    0.000    0.000 
#    0.000    0.000    0.000    0.000    0.000    0.000 
#
# Total GULP energy -133728.822685 kJ/mol
# GULP energy per Si atom -5572.034279 kJ/mol
# Density = 2.177982 g / cm^3
# Si number density = 21.829506 Si / 1000 Ang^3
#
#
#
# Elastic Constant Matrix: (Units=GPa)
#
#
# Indices 1 2 3 4 5 6 
#
# 1 174.7855 34.1007 43.7839 0.0000 0.0000 0.0000
# 2 34.1007 61.1518 14.8618 0.0000 0.0000 0.0000
# 3 43.7839 14.8618 76.4272 0.0000 0.0000 0.0000
# 4 0.0000 0.0000 0.0000 13.0371 0.0000 0.0000
# 5 0.0000 0.0000 0.0000 0.0000 30.1638 0.0000
# 6 0.0000 0.0000 0.0000 0.0000 0.0000 30.0893
#
#
#
# Elastic Compliance Matrix: (Units=1/GPa)
#
#
# Indices 1 2 3 4 5 6 
#
# 1 0.007222 -0.003172 -0.003521 0.000000 0.000000 0.000000
# 2 -0.003172 0.018557 -0.001792 0.000000 0.000000 0.000000
# 3 -0.003521 -0.001792 0.015450 0.000000 0.000000 0.000000
# 4 0.000000 0.000000 0.000000 0.076704 0.000000 0.000000
# 5 0.000000 0.000000 0.000000 0.000000 0.033152 0.000000
# 6 0.000000 0.000000 0.000000 0.000000 0.000000 0.033234
#
#
# Mechanical properties :
#
#
# Convention : Reuss Voigt Hill
#
# Bulk Modulus (GPa) = 41.21870 55.31749 48.26809
# Shear Modulus (GPa) = 23.88073 29.29925 26.58999
#
# Velocity S-wave (km/s) = 3.31110 3.66756 3.49388
# Velocity P-wave (km/s) = 5.79146 6.58258 6.19965
#
# Compressibility (1/GPa) = 0.02426083
#
# Stress axis : x y z
#
# Youngs Moduli (GPa) = 138.46567 53.88862 64.72653
#
# Poissons Ratio (x) = 0.17092 0.22788
# Poissons Ratio (y) = 0.43917 0.11596
# Poissons Ratio (z) = 0.48748 0.09654
#
# Static dielectric constant tensor:
#      x y z
#    x 1.922110 0.000000 0.000000 
#    y 0.000000 1.838060 0.000000 
#    z 0.000000 0.000000 1.791150 
# 
# From -- ./inp_files/1534.got.cif
#   From: 2010.05.17/outbox.cif.g08.bks.cpg/sg28_1_cif.got.tgz:1534.got - 2010.06.04 01:15:21.
