data_PCOD9339075
_publ_section_title
;
Structure prediction by ZEFSAII (Michael W. Deem and Ramdas Pophale) SiO2 
 PCOD9339075
Probable space group: P C C 2
;
_chemical_formula_sum "Si O2"
_cell_formula_units_Z 20
_cell_length_a 15.693093
_cell_length_b 5.172744
_cell_length_c 9.452789
_cell_angle_alpha 90.000000
_cell_angle_beta 90.000000
_cell_angle_gamma 90.000000
_cell_volume 767.342933
_symmetry_space_group_name_H-M "P C C 2"
_symmetry_group_IT_number 27
_symmetry_cell_setting 'orthorhombic'
loop_
_space_group_symop_operation_xyz
x,y,z
-x,-y,z
-x,y,1/2+z
x,-y,1/2+z
loop_
_atom_site_type_symbol
_atom_site_label
_atom_site_fract_x
_atom_site_fract_y
_atom_site_fract_z
Si Si1 0.677411 0.959514 0.586040
Si Si2 0.887262 0.814520 0.362104
Si Si3 0.775229 0.304405 0.318944
Si Si4 0.000000 0.000000 0.104976
Si Si5 0.500000 0.000000 0.219016
Si Si6 0.641281 0.682709 0.314314
O O1 0.751459 0.797782 0.662072
O O2 0.580176 0.885741 0.633398
O O3 0.675975 0.896401 0.422926
O O4 0.680467 0.240266 0.660700
O O5 0.831319 0.075419 0.384828
O O6 0.831920 0.558870 0.340578
O O7 0.949767 0.811099 0.497239
O O8 0.937726 0.856312 0.214956
O O9 0.680780 0.414978 0.362546
O O10 0.457103 0.762803 0.802601
#
# Coordination Sequence:
#
# PCOD9339075 Si02
#       6
#     4   4   4   2   2   4
#     4  10  23  43  72 107 144 202 247 307 365 432
#     4  11  27  48  77 105 146 186 236 301 357 458
#     4  12  26  44  72 110 146 186 242 300 366 426
#     4  10  28  52  76 108 140 190 236 288 384 436
#     4   8  20  46  68 106 150 200 254 310 364 434
#     4  10  23  43  72 107 144 202 247 307 365 432
#
# _framework density 26.063963000000001
#
# number of rings (size 3 to 8) (size 9 to 14) (size 15 to 20)
#    1.200    0.400    2.000    0.600    5.600    7.200 
#    0.000    2.000    0.000    0.000    0.000    0.000 
#    0.000    0.000    0.000    0.000    0.000    0.000 
#
# Total GULP energy -111541.225697 kJ/mol
# GULP energy per Si atom -5577.061285 kJ/mol
# Density = 2.600464 g / cm^3
# Si number density = 26.063963 Si / 1000 Ang^3
#
#
#
# Elastic Constant Matrix: (Units=GPa)
#
#
# Indices 1 2 3 4 5 6 
#
# 1 139.5905 55.7629 26.1074 0.0000 0.0000 0.0000
# 2 55.7629 163.7387 24.4529 0.0000 0.0000 0.0000
# 3 26.1074 24.4529 138.1743 0.0000 0.0000 0.0000
# 4 0.0000 0.0000 0.0000 11.4277 0.0000 0.0000
# 5 0.0000 0.0000 0.0000 0.0000 38.2125 0.0000
# 6 0.0000 0.0000 0.0000 0.0000 0.0000 23.1431
#
#
#
# Elastic Compliance Matrix: (Units=1/GPa)
#
#
# Indices 1 2 3 4 5 6 
#
# 1 0.008457 -0.002713 -0.001118 0.000000 0.000000 0.000000
# 2 -0.002713 0.007144 -0.000752 0.000000 0.000000 0.000000
# 3 -0.001118 -0.000752 0.007581 0.000000 0.000000 0.000000
# 4 0.000000 0.000000 0.000000 0.087506 0.000000 0.000000
# 5 0.000000 0.000000 0.000000 0.000000 0.026169 0.000000
# 6 0.000000 0.000000 0.000000 0.000000 0.000000 0.043209
#
#
# Mechanical properties :
#
#
# Convention : Reuss Voigt Hill
#
# Bulk Modulus (GPa) = 71.34264 72.68332 72.01298
# Shear Modulus (GPa) = 25.78598 36.90202 31.34400
#
# Velocity S-wave (km/s) = 3.14878 3.76683 3.47159
# Velocity P-wave (km/s) = 6.37584 6.84585 6.61502
#
# Compressibility (1/GPa) = 0.01401686
#
# Stress axis : x y z
#
# Youngs Moduli (GPa) = 118.24991 139.98736 131.90128
#
# Poissons Ratio (x) = 0.37980 0.14743
# Poissons Ratio (y) = 0.32082 0.09913
# Poissons Ratio (z) = 0.13217 0.10521
#
# Static dielectric constant tensor:
#      x y z
#    x 2.205550 0.000000 0.000000 
#    y 0.000000 2.102850 0.000000 
#    z 0.000000 0.000000 2.041450 
# 
# From -- ./inp_files/1665.got.cif
#   From: 2010.05.17/outbox.cif.g08.bks.cpg/sg27_1_cif.got.tgz:1665.got - 2010.06.04 01:11:05.
