data_PCOD9339839
_publ_section_title
;
Structure prediction by ZEFSAII (Michael W. Deem and Ramdas Pophale) SiO2 
 PCOD9339839
Probable space group: P M A 2
;
_chemical_formula_sum "Si O2"
_cell_formula_units_Z 24
_cell_length_a 17.521122
_cell_length_b 11.521122
_cell_length_c 5.756681
_cell_angle_alpha 90.000000
_cell_angle_beta 90.000000
_cell_angle_gamma 90.000000
_cell_volume 1162.060805
_symmetry_space_group_name_H-M "P M A 2"
_symmetry_group_IT_number 28
_symmetry_cell_setting 'orthorhombic'
loop_
_space_group_symop_operation_xyz
x,y,z
-x,-y,z
1/2-x,y,z
1/2+x,-y,z
loop_
_atom_site_type_symbol
_atom_site_label
_atom_site_fract_x
_atom_site_fract_y
_atom_site_fract_z
Si Si1 0.384162 0.967069 0.494120
Si Si2 0.915820 0.804291 0.800081
Si Si3 0.967387 0.202622 0.181625
Si Si4 0.662400 0.242916 0.806780
Si Si5 0.032949 0.627312 0.564488
Si Si6 0.250000 0.078826 0.246366
Si Si7 0.250000 0.204900 0.751860
O O1 0.451050 0.894048 0.374948
O O2 0.339873 0.871013 0.645317
O O3 0.405795 0.075194 0.659366
O O4 0.326834 0.009159 0.295193
O O5 0.833456 0.741898 0.792578
O O6 0.976323 0.717652 0.688520
O O7 0.954621 0.827090 0.048635
O O8 0.970712 0.328780 0.299946
O O9 0.893533 0.209180 0.017276
O O10 0.750000 0.270602 0.866831
O O11 0.616797 0.345004 0.668879
O O12 0.000000 0.500000 0.595182
O O13 0.250000 0.163690 0.479434
O O14 0.250000 0.117972 0.977927
#
# Coordination Sequence:
#
# PCOD9339839 Si02
#       7
#     4   4   4   4   4   2   2
#     4  10  22  37  61  98 139 177 212 268 337 423
#     4  10  24  43  63  95 134 178 219 277 343 403
#     4  10  24  37  64  97 132 174 224 277 339 413
#     4  10  22  41  67  97 132 174 216 275 344 418
#     4  10  24  47  68  89 128 172 231 296 345 404
#     4  10  22  38  60  93 142 184 215 274 335 406
#     4  10  24  42  64  93 136 186 223 274 333 416
#
# _framework density 20.652964999999998
#
# number of rings (size 3 to 8) (size 9 to 14) (size 15 to 20)
#    0.000    2.000    0.833    0.000   10.500   10.667 
#    1.500    0.000    0.000    0.000    0.000    0.000 
#    0.000    0.000    0.000    0.000    0.000    0.000 
#
# Total GULP energy -133830.326705 kJ/mol
# GULP energy per Si atom -5576.263613 kJ/mol
# Density = 2.060596 g / cm^3
# Si number density = 20.652965 Si / 1000 Ang^3
#
#
#
# Elastic Constant Matrix: (Units=GPa)
#
#
# Indices 1 2 3 4 5 6 
#
# 1 151.5715 18.7399 14.3647 0.0000 0.0000 0.0000
# 2 18.7399 84.0034 11.6661 0.0000 0.0000 0.0000
# 3 14.3647 11.6661 51.7494 0.0000 0.0000 0.0000
# 4 0.0000 0.0000 0.0000 13.0059 0.0000 0.0000
# 5 0.0000 0.0000 0.0000 0.0000 25.8775 0.0000
# 6 0.0000 0.0000 0.0000 0.0000 0.0000 17.9751
#
#
#
# Elastic Compliance Matrix: (Units=1/GPa)
#
#
# Indices 1 2 3 4 5 6 
#
# 1 0.006914 -0.001317 -0.001622 0.000000 0.000000 0.000000
# 2 -0.001317 0.012540 -0.002461 0.000000 0.000000 0.000000
# 3 -0.001622 -0.002461 0.020329 0.000000 0.000000 0.000000
# 4 0.000000 0.000000 0.000000 0.076888 0.000000 0.000000
# 5 0.000000 0.000000 0.000000 0.000000 0.038644 0.000000
# 6 0.000000 0.000000 0.000000 0.000000 0.000000 0.055632
#
#
# Mechanical properties :
#
#
# Convention : Reuss Voigt Hill
#
# Bulk Modulus (GPa) = 34.50463 41.87396 38.18930
# Shear Modulus (GPa) = 21.60674 27.54196 24.57435
#
# Velocity S-wave (km/s) = 3.23798 3.65576 3.45319
# Velocity P-wave (km/s) = 5.54279 6.17563 5.86775
#
# Compressibility (1/GPa) = 0.02898162
#
# Stress axis : x y z
#
# Youngs Moduli (GPa) = 144.63107 79.74526 49.19063
#
# Poissons Ratio (x) = 0.10504 0.07980
# Poissons Ratio (y) = 0.19050 0.12107
# Poissons Ratio (z) = 0.23464 0.19628
#
# Static dielectric constant tensor:
#      x y z
#    x 1.767930 0.000000 0.000000 
#    y 0.000000 1.713760 0.000000 
#    z 0.000000 0.000000 1.859800 
# 
# From -- ./inp_files/1151.got.cif
#   From: 2010.05.17/outbox.cif.g08.bks.cpg/sg28_1_cif.got.tgz:1151.got - 2010.06.04 01:15:21.
