data_PCOD9339451
_publ_section_title
;
Structure prediction by ZEFSAII (Michael W. Deem and Ramdas Pophale) SiO2 
 PCOD9339451
Probable space group: P M A 2
;
_chemical_formula_sum "Si O2"
_cell_formula_units_Z 32
_cell_length_a 14.088287
_cell_length_b 9.886807
_cell_length_c 9.719261
_cell_angle_alpha 90.000000
_cell_angle_beta 90.000000
_cell_angle_gamma 90.000000
_cell_volume 1353.778122
_symmetry_space_group_name_H-M "P M A 2"
_symmetry_group_IT_number 28
_symmetry_cell_setting 'orthorhombic'
loop_
_space_group_symop_operation_xyz
x,y,z
-x,-y,z
1/2-x,y,z
1/2+x,-y,z
loop_
_atom_site_type_symbol
_atom_site_label
_atom_site_fract_x
_atom_site_fract_y
_atom_site_fract_z
Si Si1 0.138594 0.049840 0.536830
Si Si2 0.135028 0.420361 0.746174
Si Si3 0.137214 0.118550 0.839987
Si Si4 0.642005 0.461840 0.456931
Si Si5 0.893176 0.554043 0.171788
Si Si6 0.854956 0.343935 0.948978
Si Si7 0.468063 0.811380 0.393064
Si Si8 0.977278 0.818930 0.075734
O O1 0.250000 0.084368 0.520734
O O2 0.120129 0.034174 0.700450
O O3 0.065726 0.159153 0.474265
O O4 0.108830 0.915049 0.455911
O O5 0.250000 0.416773 0.755653
O O6 0.105569 0.272060 0.796631
O O7 0.110268 0.457663 0.590932
O O8 0.106293 0.550025 0.836581
O O9 0.250000 0.117825 0.864896
O O10 0.081908 0.080497 0.978767
O O11 0.750000 0.411899 0.481625
O O12 0.644040 0.558778 0.325046
O O13 0.574430 0.337008 0.417182
O O14 0.844171 0.440398 0.081659
O O15 0.900542 0.697368 0.099112
O O16 0.000000 0.500000 0.178009
O O17 0.750000 0.291763 0.909650
O O18 0.932429 0.234784 0.990404
O O19 0.487249 0.843626 0.231747
#
# Coordination Sequence:
#
# PCOD9339451 Si02
#       8
#     4   4   4   4   4   4   4   4
#     4  10  25  49  71  93 125 173 230 290 345 392
#     4   9  20  34  55  93 136 178 220 262 322 394
#     4  10  22  42  67  98 135 179 225 272 337 410
#     4  11  22  36  61  99 141 182 221 271 333 399
#     4  10  19  33  51  90 136 173 211 256 324 400
#     4  10  19  35  55  88 140 182 214 260 323 400
#     4  11  24  44  70  98 130 170 228 286 338 399
#     4  11  23  38  64 101 135 177 222 271 338 407
#
# _framework density 23.637554000000002
#
# number of rings (size 3 to 8) (size 9 to 14) (size 15 to 20)
#    0.000    1.750    3.750    0.750    3.500    1.500 
#    0.000    2.500    0.000    0.000    0.000    0.000 
#    0.000    0.000    0.000    0.000    0.000    0.000 
#
# Total GULP energy -178914.632211 kJ/mol
# GULP energy per Si atom -5591.082257 kJ/mol
# Density = 2.358375 g / cm^3
# Si number density = 23.637554 Si / 1000 Ang^3
#
#
#
# Elastic Constant Matrix: (Units=GPa)
#
#
# Indices 1 2 3 4 5 6 
#
# 1 129.0398 10.3910 27.8702 0.0000 0.0000 0.0000
# 2 10.3910 64.7786 8.9038 0.0000 0.0000 0.0000
# 3 27.8702 8.9038 160.0768 0.0000 0.0000 0.0000
# 4 0.0000 0.0000 0.0000 5.6507 0.0000 0.0000
# 5 0.0000 0.0000 0.0000 0.0000 27.5397 0.0000
# 6 0.0000 0.0000 0.0000 0.0000 0.0000 44.3591
#
#
#
# Elastic Compliance Matrix: (Units=1/GPa)
#
#
# Indices 1 2 3 4 5 6 
#
# 1 0.008132 -0.001118 -0.001354 0.000000 0.000000 0.000000
# 2 -0.001118 0.015710 -0.000679 0.000000 0.000000 0.000000
# 3 -0.001354 -0.000679 0.006520 0.000000 0.000000 0.000000
# 4 0.000000 0.000000 0.000000 0.176968 0.000000 0.000000
# 5 0.000000 0.000000 0.000000 0.000000 0.036311 0.000000
# 6 0.000000 0.000000 0.000000 0.000000 0.000000 0.022543
#
#
# Mechanical properties :
#
#
# Convention : Reuss Voigt Hill
#
# Bulk Modulus (GPa) = 41.56249 49.80280 45.68265
# Shear Modulus (GPa) = 17.82487 35.95858 26.89172
#
# Velocity S-wave (km/s) = 2.74905 3.90455 3.37659
# Velocity P-wave (km/s) = 5.26287 6.43758 5.87964
#
# Compressibility (1/GPa) = 0.02406016
#
# Stress axis : x y z
#
# Youngs Moduli (GPa) = 122.97160 63.65396 153.36372
#
# Poissons Ratio (x) = 0.07119 0.20759
# Poissons Ratio (y) = 0.13753 0.10415
# Poissons Ratio (z) = 0.16646 0.04323
#
# Static dielectric constant tensor:
#      x y z
#    x 1.914290 0.000000 0.000000 
#    y 0.000000 1.958510 0.000000 
#    z 0.000000 0.000000 1.900740 
# 
# From -- ./inp_files/3524.got.cif
#   From: 2010.05.17/outbox.cif.g08.bks.cpg/sg28_2_cif.got.tgz:3524.got - 2010.06.04 01:15:21.
