data_PCOD9339315
_publ_section_title
;
Structure prediction by ZEFSAII (Michael W. Deem and Ramdas Pophale) SiO2 
 PCOD9339315
Probable space group: P M A 2
;
_chemical_formula_sum "Si O2"
_cell_formula_units_Z 28
_cell_length_a 8.549190
_cell_length_b 9.309384
_cell_length_c 19.284241
_cell_angle_alpha 90.000000
_cell_angle_beta 90.000000
_cell_angle_gamma 90.000000
_cell_volume 1534.788245
_symmetry_space_group_name_H-M "P M A 2"
_symmetry_group_IT_number 28
_symmetry_cell_setting 'orthorhombic'
loop_
_space_group_symop_operation_xyz
x,y,z
-x,-y,z
1/2-x,y,z
1/2+x,-y,z
loop_
_atom_site_type_symbol
_atom_site_label
_atom_site_fract_x
_atom_site_fract_y
_atom_site_fract_z
Si Si1 0.560953 0.337526 0.675730
Si Si2 0.436534 0.337009 0.121063
Si Si3 0.936575 0.162713 0.251558
Si Si4 0.561348 0.336256 0.826415
Si Si5 0.061743 0.664510 0.976324
Si Si6 0.561915 0.162493 0.540956
Si Si7 0.563425 0.835876 0.396403
O O1 0.500000 0.500000 0.670894
O O2 0.750000 0.340497 0.674755
O O3 0.511813 0.275599 0.751428
O O4 0.509199 0.248038 0.609086
O O5 0.500000 0.500000 0.124597
O O6 0.250000 0.339190 0.123326
O O7 0.504082 0.250230 0.185639
O O8 0.491729 0.272914 0.046958
O O9 0.750000 0.159443 0.253838
O O10 0.000036 0.226665 0.324290
O O11 0.000000 0.000000 0.246146
O O12 0.500000 0.500000 0.826076
O O13 0.750000 0.339868 0.827016
O O14 0.514369 0.271433 0.901122
O O15 0.250000 0.663470 0.981650
O O16 0.000000 0.500000 0.974609
O O17 0.750000 0.160130 0.537877
O O18 0.498223 0.227459 0.468744
O O19 0.500000 0.000000 0.546160
O O20 0.750000 0.837750 0.395873
O O21 0.500000 0.000000 0.396729
#
# Coordination Sequence:
#
# PCOD9339315 Si02
#       7
#     4   4   4   4   4   4   4
#     4   9  18  31  48  71  99 128 160 200 246 292
#     4  11  21  34  51  75 105 135 167 205 250 296
#     4  11  21  36  56  78 102 130 165 204 247 295
#     4   8  14  25  42  65  92 123 159 199 241 285
#     4   9  15  25  43  67  94 126 163 202 244 288
#     4  10  19  32  50  72  97 127 163 201 242 288
#     4  10  18  31  51  74  97 125 163 203 242 286
#
# _framework density 18.243559000000001
#
# number of rings (size 3 to 8) (size 9 to 14) (size 15 to 20)
#    0.000    2.286    0.000    7.286    0.000    1.714 
#    0.000    0.714    0.000    2.571    0.000    2.000 
#    0.000    0.000    0.000    0.000    0.000    0.000 
#
# Total GULP energy -156003.248015 kJ/mol
# GULP energy per Si atom -5571.544572 kJ/mol
# Density = 1.820204 g / cm^3
# Si number density = 18.243559 Si / 1000 Ang^3
#
#
#
# Elastic Constant Matrix: (Units=GPa)
#
#
# Indices 1 2 3 4 5 6 
#
# 1 110.1443 13.5048 61.9387 0.0000 0.0000 0.0000
# 2 13.5048 23.4476 47.7503 0.0000 0.0000 0.0000
# 3 61.9387 47.7503 246.6398 0.0000 0.0000 0.0000
# 4 0.0000 0.0000 0.0000 30.6945 0.0000 0.0000
# 5 0.0000 0.0000 0.0000 0.0000 43.5416 0.0000
# 6 0.0000 0.0000 0.0000 0.0000 0.0000 15.2136
#
#
#
# Elastic Compliance Matrix: (Units=1/GPa)
#
#
# Indices 1 2 3 4 5 6 
#
# 1 0.010590 -0.001128 -0.002441 0.000000 0.000000 0.000000
# 2 -0.001128 0.070528 -0.013371 0.000000 0.000000 0.000000
# 3 -0.002441 -0.013371 0.007256 0.000000 0.000000 0.000000
# 4 0.000000 0.000000 0.000000 0.032579 0.000000 0.000000
# 5 0.000000 0.000000 0.000000 0.000000 0.022967 0.000000
# 6 0.000000 0.000000 0.000000 0.000000 0.000000 0.065731
#
#
# Mechanical properties :
#
#
# Convention : Reuss Voigt Hill
#
# Bulk Modulus (GPa) = 18.35091 69.62437 43.98764
# Shear Modulus (GPa) = 19.10616 35.02580 27.06598
#
# Velocity S-wave (km/s) = 3.23969 4.38642 3.85592
# Velocity P-wave (km/s) = 4.90660 7.99380 6.63233
#
# Compressibility (1/GPa) = 0.05449321
#
# Stress axis : x y z
#
# Youngs Moduli (GPa) = 94.42838 14.17880 137.81324
#
# Poissons Ratio (x) = 0.01600 0.33641
# Poissons Ratio (y) = 0.10655 1.84271
# Poissons Ratio (z) = 0.23050 0.18959
#
# Static dielectric constant tensor:
#      x y z
#    x 1.607850 0.000000 0.000000 
#    y 0.000000 1.630810 0.000000 
#    z 0.000000 0.000000 1.718280 
# 
# From -- ./inp_files/6910.got.cif
#   From: 2010.05.17/outbox.cif.g08.bks.cpg/sg28_4_cif.got.tgz:6910.got - 2010.06.04 01:15:21.
