data_PCOD9339489
_publ_section_title
;
Structure prediction by ZEFSAII (Michael W. Deem and Ramdas Pophale) SiO2 
 PCOD9339489
Probable space group: P M A 2
;
_chemical_formula_sum "Si O2"
_cell_formula_units_Z 32
_cell_length_a 8.722359
_cell_length_b 14.997837
_cell_length_c 12.634654
_cell_angle_alpha 90.000000
_cell_angle_beta 90.000000
_cell_angle_gamma 90.000000
_cell_volume 1652.821449
_symmetry_space_group_name_H-M "P M A 2"
_symmetry_group_IT_number 28
_symmetry_cell_setting 'orthorhombic'
loop_
_space_group_symop_operation_xyz
x,y,z
-x,-y,z
1/2-x,y,z
1/2+x,-y,z
loop_
_atom_site_type_symbol
_atom_site_label
_atom_site_fract_x
_atom_site_fract_y
_atom_site_fract_z
Si Si1 0.067899 0.410456 0.670330
Si Si2 0.064693 0.907541 0.040635
Si Si3 0.427481 0.867405 0.806803
Si Si4 0.066696 0.282670 0.093884
Si Si5 0.064945 0.399975 0.297042
Si Si6 0.426488 0.662570 0.874686
Si Si7 0.434613 0.273217 0.491825
Si Si8 0.065735 0.906093 0.570300
O O1 0.250000 0.416283 0.673123
O O2 0.024314 0.326615 0.598498
O O3 0.000000 0.500000 0.621147
O O4 0.002811 0.399169 0.787578
O O5 0.250000 0.907467 0.040270
O O6 0.007982 0.816106 0.094806
O O7 0.005771 0.902319 0.917808
O O8 0.000000 0.000000 0.086208
O O9 0.250000 0.897175 0.804840
O O10 0.429032 0.761262 0.822973
O O11 0.493369 0.892406 0.692420
O O12 0.250000 0.272066 0.095347
O O13 0.020873 0.346151 0.190953
O O14 0.014388 0.328861 0.984801
O O15 0.250000 0.406716 0.299503
O O16 0.018198 0.336812 0.395077
O O17 0.000000 0.500000 0.301600
O O18 0.250000 0.637864 0.893451
O O19 0.250000 0.263254 0.487499
O O20 0.509530 0.176613 0.500332
O O21 0.250000 0.906975 0.572127
O O22 0.000000 0.000000 0.532411
#
# Coordination Sequence:
#
# PCOD9339489 Si02
#       8
#     4   4   4   4   4   4   4   4
#     4  11  22  35  56  85 117 153 192 235 292 357
#     4  10  19  33  54  84 120 160 200 243 290 346
#     4   8  16  30  50  78 113 153 193 231 279 334
#     4  10  21  38  59  86 118 154 196 244 295 349
#     4  10  23  43  67  90 115 147 194 248 299 353
#     4  10  19  35  56  82 119 156 192 238 289 347
#     4  10  22  41  61  86 117 151 193 244 295 347
#     4  11  21  35  56  85 119 158 198 239 289 345
#
# _framework density 19.360833
#
# number of rings (size 3 to 8) (size 9 to 14) (size 15 to 20)
#    0.000    2.000    1.250    3.375    0.000    2.500 
#    0.000    3.125    0.000    0.000    0.000    0.000 
#    0.000    0.000    0.000    0.000    0.000    0.000 
#
# Total GULP energy -178580.306805 kJ/mol
# GULP energy per Si atom -5580.634588 kJ/mol
# Density = 1.931677 g / cm^3
# Si number density = 19.360833 Si / 1000 Ang^3
#
#
#
# Elastic Constant Matrix: (Units=GPa)
#
#
# Indices 1 2 3 4 5 6 
#
# 1 46.2817 49.0568 36.6033 0.0000 0.0000 0.0000
# 2 49.0568 162.1426 69.9739 0.0000 0.0000 0.0000
# 3 36.6033 69.9739 97.6241 0.0000 0.0000 0.0000
# 4 0.0000 0.0000 0.0000 18.2976 0.0000 0.0000
# 5 0.0000 0.0000 0.0000 0.0000 14.2601 0.0000
# 6 0.0000 0.0000 0.0000 0.0000 0.0000 34.7687
#
#
#
# Elastic Compliance Matrix: (Units=1/GPa)
#
#
# Indices 1 2 3 4 5 6 
#
# 1 0.035833 -0.007302 -0.008201 0.000000 0.000000 0.000000
# 2 -0.007302 0.010418 -0.004729 0.000000 0.000000 0.000000
# 3 -0.008201 -0.004729 0.016708 0.000000 0.000000 0.000000
# 4 0.000000 0.000000 0.000000 0.054652 0.000000 0.000000
# 5 0.000000 0.000000 0.000000 0.000000 0.070126 0.000000
# 6 0.000000 0.000000 0.000000 0.000000 0.000000 0.028762
#
#
# Mechanical properties :
#
#
# Convention : Reuss Voigt Hill
#
# Bulk Modulus (GPa) = 44.45725 68.59073 56.52399
# Shear Modulus (GPa) = 18.90639 23.49290 21.19965
#
# Velocity S-wave (km/s) = 3.12833 3.48720 3.31263
# Velocity P-wave (km/s) = 6.00508 7.19156 6.62494
#
# Compressibility (1/GPa) = 0.02249352
#
# Stress axis : x y z
#
# Youngs Moduli (GPa) = 27.90722 95.99166 59.85106
#
# Poissons Ratio (x) = 0.70093 0.49086
# Poissons Ratio (y) = 0.20378 0.28305
# Poissons Ratio (z) = 0.22888 0.45396
#
# Static dielectric constant tensor:
#      x y z
#    x 1.658770 0.000000 0.000000 
#    y 0.000000 1.685090 0.000000 
#    z 0.000000 0.000000 1.683950 
# 
# From -- ./inp_files/5053.got.cif
#   From: 2010.05.17/outbox.cif.g08.bks.cpg/sg28_3_cif.got.tgz:5053.got - 2010.06.04 01:15:21.
