data_PCOD9339586
_publ_section_title
;
Structure prediction by ZEFSAII (Michael W. Deem and Ramdas Pophale) SiO2 
 PCOD9339586
Probable space group: P M A 2
;
_chemical_formula_sum "Si O2"
_cell_formula_units_Z 24
_cell_length_a 9.028799
_cell_length_b 16.103150
_cell_length_c 9.623249
_cell_angle_alpha 90.000000
_cell_angle_beta 90.000000
_cell_angle_gamma 90.000000
_cell_volume 1399.144425
_symmetry_space_group_name_H-M "P M A 2"
_symmetry_group_IT_number 28
_symmetry_cell_setting 'orthorhombic'
loop_
_space_group_symop_operation_xyz
x,y,z
-x,-y,z
1/2-x,y,z
1/2+x,-y,z
loop_
_atom_site_type_symbol
_atom_site_label
_atom_site_fract_x
_atom_site_fract_y
_atom_site_fract_z
Si Si1 0.421332 0.415193 0.562440
Si Si2 0.927550 0.914922 0.080811
Si Si3 0.573345 0.243652 0.576615
Si Si4 0.571302 0.762615 0.877322
Si Si5 0.072380 0.914333 0.382792
Si Si6 0.580375 0.582646 0.901239
O O1 0.500000 0.500000 0.515003
O O2 0.250000 0.413553 0.520184
O O3 0.502949 0.329974 0.522734
O O4 0.424627 0.417052 0.732005
O O5 0.750000 0.924175 0.094508
O O6 0.000421 0.900834 0.231428
O O7 0.958666 0.838497 0.979167
O O8 0.000000 0.000000 0.026088
O O9 0.750000 0.254016 0.587712
O O10 0.505130 0.226967 0.728550
O O11 0.541874 0.165028 0.478827
O O12 0.750000 0.756814 0.856323
O O13 0.521240 0.673666 0.939934
O O14 0.250000 0.924498 0.370875
O O15 0.000000 0.000000 0.437529
O O16 0.500000 0.500000 0.950321
O O17 0.750000 0.577234 0.945075
#
# Coordination Sequence:
#
# PCOD9339586 Si02
#       6
#     4   4   4   4   4   4
#     4   9  16  27  45  69  99 132 164 200 242 289
#     4  10  20  35  54  73  95 127 165 203 246 298
#     4  10  20  32  49  75 103 130 164 206 248 290
#     4   9  19  33  49  72 101 130 161 199 245 295
#     4  10  21  36  53  73  97 128 167 206 246 298
#     4   8  14  25  41  64  93 123 154 188 228 276
#
# _framework density 17.15334
#
# number of rings (size 3 to 8) (size 9 to 14) (size 15 to 20)
#    0.000    2.667    0.000    4.000    0.000    8.667 
#    0.000    3.333    0.000    1.000    0.000    4.667 
#    0.000    0.000    0.000    0.000    0.000    0.000 
#
# Total GULP energy -133748.819089 kJ/mol
# GULP energy per Si atom -5572.867462 kJ/mol
# Density = 1.711430 g / cm^3
# Si number density = 17.153340 Si / 1000 Ang^3
#
#
#
# Elastic Constant Matrix: (Units=GPa)
#
#
# Indices 1 2 3 4 5 6 
#
# 1 88.4311 94.0852 35.6386 0.0000 0.0000 0.0000
# 2 94.0852 214.9725 67.3077 0.0000 0.0000 0.0000
# 3 35.6386 67.3077 33.4265 0.0000 0.0000 0.0000
# 4 0.0000 0.0000 0.0000 -11.3925 0.0000 0.0000
# 5 0.0000 0.0000 0.0000 0.0000 1.4540 0.0000
# 6 0.0000 0.0000 0.0000 0.0000 0.0000 31.5811
#
#
#
# Elastic Compliance Matrix: (Units=1/GPa)
#
#
# Indices 1 2 3 4 5 6 
#
# 1 0.022644 -0.006363 -0.011330 0.000000 0.000000 0.000000
# 2 -0.006363 0.014376 -0.022163 0.000000 0.000000 0.000000
# 3 -0.011330 -0.022163 0.086624 0.000000 0.000000 0.000000
# 4 0.000000 0.000000 0.000000 -0.087777 0.000000 0.000000
# 5 0.000000 0.000000 0.000000 0.000000 0.687736 0.000000
# 6 0.000000 0.000000 0.000000 0.000000 0.000000 0.031664
#
#
# Mechanical properties :
#
#
# Convention : Reuss Voigt Hill
#
# Bulk Modulus (GPa) = 22.76272 81.21034 51.98653
# Shear Modulus (GPa) = 5.88496 13.64844 9.76670
#
# Velocity S-wave (km/s) = 1.85425 2.82383 2.38875
# Velocity P-wave (km/s) = 4.22886 7.62093 6.16286
#
# Compressibility (1/GPa) = 0.04393149
#
# Stress axis : x y z
#
# Youngs Moduli (GPa) = 44.16118 69.56085 11.54417
#
# Poissons Ratio (x) = 0.44262 0.13080
# Poissons Ratio (y) = 0.28100 0.25585
# Poissons Ratio (z) = 0.50035 1.54168
#
# Static dielectric constant tensor:
#      x y z
#    x 1.580650 0.000000 0.000000 
#    y 0.000000 1.605390 0.000000 
#    z 0.000000 0.000000 1.550740 
# 
# From -- ./inp_files/2488.got.cif
#   From: 2010.05.17/outbox.cif.g08.bks.cpg/sg28_2_cif.got.tgz:2488.got - 2010.06.04 01:15:21.
