data_PCOD9339017
_publ_section_title
;
Structure prediction by ZEFSAII (Michael W. Deem and Ramdas Pophale) SiO2 
 PCOD9339017
Probable space group: P C C 2
;
_chemical_formula_sum "Si O2"
_cell_formula_units_Z 20
_cell_length_a 5.672151
_cell_length_b 14.413514
_cell_length_c 10.639709
_cell_angle_alpha 90.000000
_cell_angle_beta 90.000000
_cell_angle_gamma 90.000000
_cell_volume 869.856089
_symmetry_space_group_name_H-M "P C C 2"
_symmetry_group_IT_number 27
_symmetry_cell_setting 'orthorhombic'
loop_
_space_group_symop_operation_xyz
x,y,z
-x,-y,z
-x,y,1/2+z
x,-y,1/2+z
loop_
_atom_site_type_symbol
_atom_site_label
_atom_site_fract_x
_atom_site_fract_y
_atom_site_fract_z
Si Si1 0.562969 0.194943 0.939790
Si Si2 0.758369 0.041338 0.803891
Si Si3 0.213715 0.335243 0.843855
Si Si4 0.500000 0.000000 0.071459
Si Si5 0.500000 0.500000 0.945914
Si Si6 0.160692 0.360310 0.562853
O O1 0.742136 0.149256 0.838087
O O2 0.344187 0.237143 0.863284
O O3 0.663717 0.276955 0.024386
O O4 0.514641 0.107976 0.028619
O O5 0.500000 0.000000 0.854899
O O6 0.731092 0.009797 0.661816
O O7 0.000000 0.000000 0.858079
O O8 0.095145 0.348041 0.708307
O O9 0.405270 0.417261 0.858801
O O10 0.045896 0.349911 0.962491
O O11 0.702774 0.455655 0.032978
#
# Coordination Sequence:
#
# PCOD9339017 Si02
#       6
#     4   4   4   2   2   4
#     4  11  24  43  65 100 144 190 243 303 367 446
#     4  10  24  42  67  97 140 194 255 306 364 432
#     4  11  26  46  70 108 141 190 239 308 382 459
#     4  10  22  42  64  98 138 196 246 306 362 438
#     4  10  24  48  74  98 140 180 246 304 384 456
#     4  11  26  43  73 103 143 186 241 305 378 462
#
# _framework density 22.992308000000001
#
# number of rings (size 3 to 8) (size 9 to 14) (size 15 to 20)
#    0.600    0.800    1.000    2.400    2.800   13.600 
#    0.000    0.000    0.000    0.000    0.000    0.000 
#    0.000    0.000    0.000    0.000    0.000    0.000 
#
# Total GULP energy -111384.135579 kJ/mol
# GULP energy per Si atom -5569.206779 kJ/mol
# Density = 2.293998 g / cm^3
# Si number density = 22.992308 Si / 1000 Ang^3
#
#
#
# Elastic Constant Matrix: (Units=GPa)
#
#
# Indices 1 2 3 4 5 6 
#
# 1 86.8012 26.8406 25.1162 0.0000 0.0000 0.0000
# 2 26.8406 110.9743 47.0500 0.0000 0.0000 0.0000
# 3 25.1162 47.0500 57.7598 0.0000 0.0000 0.0000
# 4 0.0000 0.0000 0.0000 23.1926 0.0000 0.0000
# 5 0.0000 0.0000 0.0000 0.0000 26.5870 0.0000
# 6 0.0000 0.0000 0.0000 0.0000 0.0000 25.1561
#
#
#
# Elastic Compliance Matrix: (Units=1/GPa)
#
#
# Indices 1 2 3 4 5 6 
#
# 1 0.013277 -0.001166 -0.004823 0.000000 0.000000 0.000000
# 2 -0.001166 0.013867 -0.010789 0.000000 0.000000 0.000000
# 3 -0.004823 -0.010789 0.028199 0.000000 0.000000 0.000000
# 4 0.000000 0.000000 0.000000 0.043117 0.000000 0.000000
# 5 0.000000 0.000000 0.000000 0.000000 0.037612 0.000000
# 6 0.000000 0.000000 0.000000 0.000000 0.000000 0.039752
#
#
# Mechanical properties :
#
#
# Convention : Reuss Voigt Hill
#
# Bulk Modulus (GPa) = 45.90076 50.39433 48.14755
# Shear Modulus (GPa) = 23.07939 25.42237 24.25088
#
# Velocity S-wave (km/s) = 3.17170 3.32880 3.25120
# Velocity P-wave (km/s) = 5.78098 6.06136 5.92283
#
# Compressibility (1/GPa) = 0.02178613
#
# Stress axis : x y z
#
# Youngs Moduli (GPa) = 75.31911 72.11168 35.46237
#
# Poissons Ratio (x) = 0.08410 0.17105
# Poissons Ratio (y) = 0.08784 0.38260
# Poissons Ratio (z) = 0.36329 0.77801
#
# Static dielectric constant tensor:
#      x y z
#    x 1.736600 0.000000 0.000000 
#    y 0.000000 1.846860 0.000000 
#    z 0.000000 0.000000 2.639550 
# 
# From -- ./inp_files/1956.got.cif
#   From: 2010.05.17/outbox.cif.g08.bks.cpg/sg27_1_cif.got.tgz:1956.got - 2010.06.04 01:11:05.
