data_PCOD9339237
_publ_section_title
;
Structure prediction by ZEFSAII (Michael W. Deem and Ramdas Pophale) SiO2 
 PCOD9339237
Probable space group: P M A 2
;
_chemical_formula_sum "Si O2"
_cell_formula_units_Z 24
_cell_length_a 8.597037
_cell_length_b 9.320062
_cell_length_c 16.522305
_cell_angle_alpha 90.000000
_cell_angle_beta 90.000000
_cell_angle_gamma 90.000000
_cell_volume 1323.848331
_symmetry_space_group_name_H-M "P M A 2"
_symmetry_group_IT_number 28
_symmetry_cell_setting 'orthorhombic'
loop_
_space_group_symop_operation_xyz
x,y,z
-x,-y,z
1/2-x,y,z
1/2+x,-y,z
loop_
_atom_site_type_symbol
_atom_site_label
_atom_site_fract_x
_atom_site_fract_y
_atom_site_fract_z
Si Si1 0.934835 0.663954 0.211090
Si Si2 0.937595 0.338226 0.554813
Si Si3 0.938328 0.160251 0.711090
Si Si4 0.563562 0.336665 0.045122
Si Si5 0.937596 0.338226 0.867367
Si Si6 0.563562 0.336665 0.377058
O O1 0.250000 0.342140 0.211090
O O2 0.994530 0.730695 0.126881
O O3 0.994530 0.730696 0.295299
O O4 0.000000 0.500000 0.211090
O O5 0.750000 0.345473 0.556676
O O6 0.990652 0.243771 0.630362
O O7 0.980486 0.277512 0.465721
O O8 0.000000 0.500000 0.562395
O O9 0.750000 0.158805 0.711090
O O10 0.990652 0.243771 0.791818
O O11 0.000000 0.000000 0.711090
O O12 0.500000 0.500000 0.042761
O O13 0.750000 0.339706 0.052226
O O14 0.519513 0.277513 0.956459
O O15 0.750000 0.345473 0.865504
O O16 0.000000 0.500000 0.859785
O O17 0.500000 0.500000 0.379419
O O18 0.750000 0.339707 0.369954
#
# Coordination Sequence:
#
# PCOD9339237 Si02
#       6
#     4   4   4   4   4   4
#     4  10  16  22  34  56  87 120 149 182 220 266
#     4   9  18  31  49  71  96 123 157 195 233 276
#     4  10  21  36  50  70  96 124 157 194 234 282
#     4   9  15  24  38  59  87 119 149 183 224 268
#     4   9  18  31  49  71  96 123 157 195 233 276
#     4   9  15  24  38  59  87 119 149 183 224 268
#
# _framework density 18.128964
#
# number of rings (size 3 to 8) (size 9 to 14) (size 15 to 20)
#    0.000    2.667    0.000    5.000    0.000    2.667 
#    0.000    0.000    0.000    0.000    0.000    1.167 
#    0.000    0.000    0.000    0.000    0.000    0.000 
#
# Total GULP energy -133653.456230 kJ/mol
# GULP energy per Si atom -5568.894010 kJ/mol
# Density = 1.808770 g / cm^3
# Si number density = 18.128964 Si / 1000 Ang^3
#
#
#
# Elastic Constant Matrix: (Units=GPa)
#
#
# Indices 1 2 3 4 5 6 
#
# 1 53.9809 9.5163 52.3262 0.0000 0.0000 0.0000
# 2 9.5163 41.4127 59.8066 0.0000 0.0000 0.0000
# 3 52.3262 59.8066 246.0908 0.0000 0.0000 0.0000
# 4 0.0000 0.0000 0.0000 -3.3448 0.0000 0.0000
# 5 0.0000 0.0000 0.0000 0.0000 19.9274 0.0000
# 6 0.0000 0.0000 0.0000 0.0000 0.0000 15.7768
#
#
#
# Elastic Compliance Matrix: (Units=1/GPa)
#
#
# Indices 1 2 3 4 5 6 
#
# 1 0.023544 0.002803 -0.005687 0.000000 0.000000 0.000000
# 2 0.002803 0.037539 -0.009719 0.000000 0.000000 0.000000
# 3 -0.005687 -0.009719 0.007635 0.000000 0.000000 0.000000
# 4 0.000000 0.000000 0.000000 -0.298974 0.000000 0.000000
# 5 0.000000 0.000000 0.000000 0.000000 0.050182 0.000000
# 6 0.000000 0.000000 0.000000 0.000000 0.000000 0.063384
#
#
# Mechanical properties :
#
#
# Convention : Reuss Voigt Hill
#
# Bulk Modulus (GPa) = 22.98245 64.97583 43.97914
# Shear Modulus (GPa) = -64.95165 21.12757 -21.91204
#
# Velocity S-wave (km/s) = -5.99211 3.41751 -3.48037
# Velocity P-wave (km/s) = 5.93035 7.17573 2.85675
#
# Compressibility (1/GPa) = 0.04351147
#
# Stress axis : x y z
#
# Youngs Moduli (GPa) = 42.47372 26.63912 130.97856
#
# Poissons Ratio (x) = -0.07468 0.74493
# Poissons Ratio (y) = -0.11907 1.27298
# Poissons Ratio (z) = 0.24157 0.25891
#
# Static dielectric constant tensor:
#      x y z
#    x 1.608470 0.000000 0.000000 
#    y 0.000000 1.559130 0.000000 
#    z 0.000000 0.000000 1.725810 
# 
# From -- ./inp_files/6664.got.cif
#   From: 2010.05.17/outbox.cif.g08.bks.cpg/sg28_4_cif.got.tgz:6664.got - 2010.06.04 01:15:21.
