data_PCOD9339122
_publ_section_title
;
Structure prediction by ZEFSAII (Michael W. Deem and Ramdas Pophale) SiO2 
 PCOD9339122
Probable space group: P C C 2
;
_chemical_formula_sum "Si O2"
_cell_formula_units_Z 22
_cell_length_a 15.583462
_cell_length_b 7.540096
_cell_length_c 8.530562
_cell_angle_alpha 90.000000
_cell_angle_beta 90.000000
_cell_angle_gamma 90.000000
_cell_volume 1002.347855
_symmetry_space_group_name_H-M "P C C 2"
_symmetry_group_IT_number 27
_symmetry_cell_setting 'orthorhombic'
loop_
_space_group_symop_operation_xyz
x,y,z
-x,-y,z
-x,y,1/2+z
x,-y,1/2+z
loop_
_atom_site_type_symbol
_atom_site_label
_atom_site_fract_x
_atom_site_fract_y
_atom_site_fract_z
Si Si1 0.374253 0.088028 0.965820
Si Si2 0.076723 0.769006 0.482036
Si Si3 0.500000 0.000000 0.213798
Si Si4 0.249033 0.638429 0.591381
Si Si5 0.900657 0.164701 0.111737
Si Si6 0.722613 0.722991 0.456639
O O1 0.291075 0.206520 0.986518
O O2 0.433819 0.112767 0.816215
O O3 0.344830 0.117293 0.467565
O O4 0.438735 0.119957 0.108636
O O5 0.148496 0.634275 0.545447
O O6 0.977480 0.733440 0.521576
O O7 0.091719 0.954961 0.574122
O O8 0.089891 0.799980 0.296860
O O9 0.298165 0.460105 0.543577
O O10 0.259098 0.683683 0.773837
O O11 0.809091 0.216128 0.043466
#
# Coordination Sequence:
#
# PCOD9339122 Si02
#       6
#     4   4   2   4   4   4
#     4  11  24  48  73 100 136 172 227 274 344 409
#     4  11  22  39  65  98 138 183 232 278 331 391
#     4  10  24  46  78  98 130 180 212 282 350 410
#     4  12  26  43  70 103 140 182 227 279 338 402
#     4  11  22  39  65  98 138 183 232 278 331 391
#     4  12  26  43  70 103 140 182 227 279 338 402
#
# _framework density 21.948468999999999
#
# number of rings (size 3 to 8) (size 9 to 14) (size 15 to 20)
#    0.000    0.727    3.636    5.455    5.091    0.727 
#    0.000    9.091    0.000    0.000    0.000    0.000 
#    0.000    0.000    0.000    0.000    0.000    0.000 
#
# Total GULP energy -123033.931348 kJ/mol
# GULP energy per Si atom -5592.451425 kJ/mol
# Density = 2.189851 g / cm^3
# Si number density = 21.948469 Si / 1000 Ang^3
#
#
#
# Elastic Constant Matrix: (Units=GPa)
#
#
# Indices 1 2 3 4 5 6 
#
# 1 88.4726 14.0365 34.6102 0.0000 0.0000 0.0000
# 2 14.0365 80.4119 12.0189 0.0000 0.0000 0.0000
# 3 34.6102 12.0189 134.1947 0.0000 0.0000 0.0000
# 4 0.0000 0.0000 0.0000 16.7998 0.0000 0.0000
# 5 0.0000 0.0000 0.0000 0.0000 37.6388 0.0000
# 6 0.0000 0.0000 0.0000 0.0000 0.0000 7.7778
#
#
#
# Elastic Compliance Matrix: (Units=1/GPa)
#
#
# Indices 1 2 3 4 5 6 
#
# 1 0.012814 -0.001766 -0.003147 0.000000 0.000000 0.000000
# 2 -0.001766 0.012848 -0.000695 0.000000 0.000000 0.000000
# 3 -0.003147 -0.000695 0.008326 0.000000 0.000000 0.000000
# 4 0.000000 0.000000 0.000000 0.059524 0.000000 0.000000
# 5 0.000000 0.000000 0.000000 0.000000 0.026568 0.000000
# 6 0.000000 0.000000 0.000000 0.000000 0.000000 0.128571
#
#
# Mechanical properties :
#
#
# Convention : Reuss Voigt Hill
#
# Bulk Modulus (GPa) = 43.91464 47.15671 45.53568
# Shear Modulus (GPa) = 18.69443 28.60419 23.64931
#
# Velocity S-wave (km/s) = 2.92163 3.61396 3.28608
# Velocity P-wave (km/s) = 5.60649 6.24068 5.93207
#
# Compressibility (1/GPa) = 0.02277145
#
# Stress axis : x y z
#
# Youngs Moduli (GPa) = 78.03859 77.83181 120.11032
#
# Poissons Ratio (x) = 0.13749 0.37795
# Poissons Ratio (y) = 0.13785 0.08349
# Poissons Ratio (z) = 0.24556 0.05410
#
# Static dielectric constant tensor:
#      x y z
#    x 1.813880 0.000000 0.000000 
#    y 0.000000 1.852210 0.000000 
#    z 0.000000 0.000000 1.804260 
# 
# From -- ./inp_files/1568.got.cif
#   From: 2010.05.17/outbox.cif.g08.bks.cpg/sg27_1_cif.got.tgz:1568.got - 2010.06.04 01:11:05.
