data_PCOD9339070
_publ_section_title
;
Structure prediction by ZEFSAII (Michael W. Deem and Ramdas Pophale) SiO2 
 PCOD9339070
Probable space group: P C C 2
;
_chemical_formula_sum "Si O2"
_cell_formula_units_Z 30
_cell_length_a 5.573519
_cell_length_b 18.942262
_cell_length_c 12.842273
_cell_angle_alpha 90.000000
_cell_angle_beta 90.000000
_cell_angle_gamma 90.000000
_cell_volume 1355.823706
_symmetry_space_group_name_H-M "P C C 2"
_symmetry_group_IT_number 27
_symmetry_cell_setting 'orthorhombic'
loop_
_space_group_symop_operation_xyz
x,y,z
-x,-y,z
-x,y,1/2+z
x,-y,1/2+z
loop_
_atom_site_type_symbol
_atom_site_label
_atom_site_fract_x
_atom_site_fract_y
_atom_site_fract_z
Si Si1 0.248276 0.897826 0.290850
Si Si2 0.532426 0.232583 0.812178
Si Si3 0.045860 0.583098 0.359611
Si Si4 0.049413 0.793026 0.646561
Si Si5 0.452389 0.356536 0.456721
Si Si6 0.133708 0.073163 0.013890
Si Si7 0.500000 0.000000 0.640470
Si Si8 0.773839 0.336597 0.167278
O O1 0.465155 0.848810 0.331923
O O2 0.112336 0.924049 0.391001
O O3 0.113616 0.842121 0.219860
O O4 0.320622 0.962170 0.219064
O O5 0.741689 0.227418 0.726945
O O6 0.551437 0.274285 0.920850
O O7 0.349901 0.284478 0.750810
O O8 0.293999 0.607545 0.419886
O O9 0.092686 0.606778 0.239580
O O10 0.000000 0.500000 0.367730
O O11 0.793047 0.615485 0.400849
O O12 0.081451 0.847911 0.553007
O O13 0.949531 0.718109 0.608751
O O14 0.407329 0.365025 0.580195
O O15 0.392236 0.058722 0.065033
O O16 0.000000 0.000000 0.046492
#
# Coordination Sequence:
#
# PCOD9339070 Si02
#       8
#     4   4   4   4   4   4   2   4
#     4  11  26  41  64  90 128 180 230 298 369 432
#     4  10  23  43  65  99 137 179 235 302 355 433
#     4  11  25  48  73 112 153 196 240 298 353 437
#     4  11  23  43  66  97 133 178 238 296 358 443
#     4  11  25  44  76 108 151 190 246 296 363 430
#     4  12  27  41  66  91 130 184 237 299 376 442
#     4  12  24  46  56  90 126 168 238 296 366 450
#     4  10  25  43  72 104 143 192 237 297 362 425
#
# _framework density 22.12677
#
# number of rings (size 3 to 8) (size 9 to 14) (size 15 to 20)
#    0.000    1.067    4.000    0.800    7.467    1.600 
#    0.000    2.667    0.000    0.000    0.000    0.000 
#    0.000    0.000    0.000    0.000    0.000    0.000 
#
# Total GULP energy -167118.448854 kJ/mol
# GULP energy per Si atom -5570.614962 kJ/mol
# Density = 2.207641 g / cm^3
# Si number density = 22.126770 Si / 1000 Ang^3
#
#
#
# Elastic Constant Matrix: (Units=GPa)
#
#
# Indices 1 2 3 4 5 6 
#
# 1 58.8366 22.9713 5.3923 0.0000 0.0000 0.0000
# 2 22.9713 79.1589 18.7853 0.0000 0.0000 0.0000
# 3 5.3923 18.7853 79.1263 0.0000 0.0000 0.0000
# 4 0.0000 0.0000 0.0000 16.2235 0.0000 0.0000
# 5 0.0000 0.0000 0.0000 0.0000 63.0158 0.0000
# 6 0.0000 0.0000 0.0000 0.0000 0.0000 35.3527
#
#
#
# Elastic Compliance Matrix: (Units=1/GPa)
#
#
# Indices 1 2 3 4 5 6 
#
# 1 0.019168 -0.005566 0.000015 0.000000 0.000000 0.000000
# 2 -0.005566 0.015003 -0.003183 0.000000 0.000000 0.000000
# 3 0.000015 -0.003183 0.013393 0.000000 0.000000 0.000000
# 4 0.000000 0.000000 0.000000 0.061639 0.000000 0.000000
# 5 0.000000 0.000000 0.000000 0.000000 0.015869 0.000000
# 6 0.000000 0.000000 0.000000 0.000000 0.000000 0.028286
#
#
# Mechanical properties :
#
#
# Convention : Reuss Voigt Hill
#
# Bulk Modulus (GPa) = 33.22598 34.60218 33.91408
# Shear Modulus (GPa) = 27.64610 34.24994 30.94802
#
# Velocity S-wave (km/s) = 3.53858 3.93860 3.74394
# Velocity P-wave (km/s) = 5.63420 6.02955 5.83522
#
# Compressibility (1/GPa) = 0.03009693
#
# Stress axis : x y z
#
# Youngs Moduli (GPa) = 52.17043 66.65204 74.66833
#
# Poissons Ratio (x) = 0.37098 -0.00113
# Poissons Ratio (y) = 0.29038 0.23764
# Poissons Ratio (z) = -0.00079 0.21213
#
# Static dielectric constant tensor:
#      x y z
#    x 2.041670 0.000000 0.000000 
#    y 0.000000 3.108080 0.000000 
#    z 0.000000 0.000000 1.895520 
# 
# From -- ./inp_files/2117.got.cif
#   From: 2010.05.17/outbox.cif.g08.bks.cpg/sg27_2_cif.got.tgz:2117.got - 2010.06.04 01:11:05.
