data_PCOD9339743
_publ_section_title
;
Structure prediction by ZEFSAII (Michael W. Deem and Ramdas Pophale) SiO2 
 PCOD9339743
Probable space group: P M A 2
;
_chemical_formula_sum "Si O2"
_cell_formula_units_Z 24
_cell_length_a 14.413866
_cell_length_b 9.586869
_cell_length_c 9.213039
_cell_angle_alpha 90.000000
_cell_angle_beta 90.000000
_cell_angle_gamma 90.000000
_cell_volume 1273.093154
_symmetry_space_group_name_H-M "P M A 2"
_symmetry_group_IT_number 28
_symmetry_cell_setting 'orthorhombic'
loop_
_space_group_symop_operation_xyz
x,y,z
-x,-y,z
1/2-x,y,z
1/2+x,-y,z
loop_
_atom_site_type_symbol
_atom_site_label
_atom_site_fract_x
_atom_site_fract_y
_atom_site_fract_z
Si Si1 0.750000 0.528109 0.284320
Si Si2 0.250000 0.976682 0.991278
Si Si3 0.935649 0.137136 0.473007
Si Si4 0.944415 0.642665 0.306534
Si Si5 0.250000 0.811412 0.293456
Si Si6 0.425126 0.877797 0.805919
Si Si7 0.544763 0.653323 0.972187
Si Si8 0.250000 0.309078 0.982174
O O1 0.841360 0.597653 0.350803
O O2 0.750000 0.359343 0.287433
O O3 0.750000 0.583627 0.118128
O O4 0.338520 0.934157 0.895861
O O5 0.250000 0.143624 0.021283
O O6 0.250000 0.884012 0.136473
O O7 0.843322 0.139120 0.375075
O O8 0.904236 0.158106 0.639017
O O9 0.002904 0.258313 0.416108
O O10 0.000000 0.000000 0.461203
O O11 0.000000 0.500000 0.296765
O O12 0.945290 0.701505 0.141234
O O13 0.474247 0.751053 0.887692
O O14 0.500000 0.000000 0.801216
O O15 0.500000 0.500000 0.971166
O O16 0.649788 0.661572 0.909032
#
# Coordination Sequence:
#
# PCOD9339743 Si02
#       8
#     2   2   4   4   2   4   4   2
#     4  10  22  39  64  95 133 159 212 273 325 364
#     4  12  25  39  73  94 126 170 218 266 323 377
#     4  11  26  42  65  92 134 170 214 261 321 389
#     4  10  20  39  65  93 126 169 212 269 318 369
#     4  12  25  43  67  98 128 166 216 272 319 381
#     4  11  24  44  62  92 130 174 210 262 320 381
#     4  10  22  39  66  93 130 165 216 270 312 377
#     4  10  22  39  62  99 127 159 214 267 323 372
#
# _framework density 18.851724000000001
#
# number of rings (size 3 to 8) (size 9 to 14) (size 15 to 20)
#    0.000    1.333    3.333    1.500    9.333    2.000 
#    0.000    1.667    0.000    0.000    0.000    0.000 
#    0.000    0.000    0.000    0.000    0.000    0.000 
#
# Total GULP energy -133931.047267 kJ/mol
# GULP energy per Si atom -5580.460303 kJ/mol
# Density = 1.880882 g / cm^3
# Si number density = 18.851724 Si / 1000 Ang^3
#
#
#
# Elastic Constant Matrix: (Units=GPa)
#
#
# Indices 1 2 3 4 5 6 
#
# 1 154.7892 32.8487 52.8641 0.0000 0.0000 0.0000
# 2 32.8487 92.0721 48.5184 0.0000 0.0000 0.0000
# 3 52.8641 48.5184 111.8546 0.0000 0.0000 0.0000
# 4 0.0000 0.0000 0.0000 17.9749 0.0000 0.0000
# 5 0.0000 0.0000 0.0000 0.0000 37.3644 0.0000
# 6 0.0000 0.0000 0.0000 0.0000 0.0000 31.6167
#
#
#
# Elastic Compliance Matrix: (Units=1/GPa)
#
#
# Indices 1 2 3 4 5 6 
#
# 1 0.007787 -0.001087 -0.003209 0.000000 0.000000 0.000000
# 2 -0.001087 0.014231 -0.005659 0.000000 0.000000 0.000000
# 3 -0.003209 -0.005659 0.012911 0.000000 0.000000 0.000000
# 4 0.000000 0.000000 0.000000 0.055633 0.000000 0.000000
# 5 0.000000 0.000000 0.000000 0.000000 0.026763 0.000000
# 6 0.000000 0.000000 0.000000 0.000000 0.000000 0.031629
#
#
# Mechanical properties :
#
#
# Convention : Reuss Voigt Hill
#
# Bulk Modulus (GPa) = 66.58057 69.68648 68.13353
# Shear Modulus (GPa) = 28.75693 32.35684 30.55689
#
# Velocity S-wave (km/s) = 3.90991 4.14742 4.03042
# Velocity P-wave (km/s) = 7.46846 7.74472 7.60784
#
# Compressibility (1/GPa) = 0.01501940
#
# Stress axis : x y z
#
# Youngs Moduli (GPa) = 128.41989 70.26879 77.45176
#
# Poissons Ratio (x) = 0.07641 0.24851
# Poissons Ratio (y) = 0.13964 0.43830
# Poissons Ratio (z) = 0.41204 0.39765
#
# Static dielectric constant tensor:
#      x y z
#    x 1.698140 0.000000 0.000000 
#    y 0.000000 1.671880 0.000000 
#    z 0.000000 0.000000 1.658190 
# 
# From -- ./inp_files/3411.got.cif
#   From: 2010.05.17/outbox.cif.g08.bks.cpg/sg28_2_cif.got.tgz:3411.got - 2010.06.04 01:15:21.
