data_PCOD9339971
_publ_section_title
;
Structure prediction by ZEFSAII (Michael W. Deem and Ramdas Pophale) SiO2 
 PCOD9339971
Probable space group: P M A 2
;
_chemical_formula_sum "Si O2"
_cell_formula_units_Z 32
_cell_length_a 9.000000
_cell_length_b 15.000000
_cell_length_c 12.000000
_cell_angle_alpha 90.000000
_cell_angle_beta 90.000000
_cell_angle_gamma 90.000000
_cell_volume 1620.000000
_symmetry_space_group_name_H-M "P M A 2"
_symmetry_group_IT_number 28
_symmetry_cell_setting 'orthorhombic'
loop_
_space_group_symop_operation_xyz
x,y,z
-x,-y,z
1/2-x,y,z
1/2+x,-y,z
loop_
_atom_site_type_symbol
_atom_site_label
_atom_site_fract_x
_atom_site_fract_y
_atom_site_fract_z
Si Si1 0.569582 0.910339 0.304240
Si Si2 0.568867 0.713418 0.249778
Si Si3 0.572919 0.913277 0.797404
Si Si4 0.078058 0.338780 0.496032
Si Si5 0.576008 0.868221 0.552063
Si Si6 0.920978 0.415087 0.694311
Si Si7 0.079085 0.407837 0.054155
Si Si8 0.580847 0.718568 0.842100
O O1 0.750000 0.914594 0.303812
O O2 0.524445 0.817202 0.246880
O O3 0.516191 0.902076 0.433770
O O4 0.500000 0.000000 0.256207
O O5 0.750000 0.715394 0.243861
O O6 0.531016 0.672091 0.369039
O O7 0.511003 0.648840 0.154951
O O8 0.750000 0.925040 0.792613
O O9 0.513529 0.899971 0.670112
O O10 0.544454 0.821307 0.860764
O O11 0.500000 0.000000 0.847815
O O12 0.250000 0.367299 0.501984
O O13 0.069965 0.238550 0.544857
O O14 0.978017 0.401560 0.569663
O O15 0.750000 0.893106 0.552708
O O16 0.750000 0.431075 0.698619
O O17 0.000000 0.500000 0.747296
O O18 0.968282 0.326968 0.758550
O O19 0.250000 0.428811 0.081727
O O20 0.000000 0.500000 0.030890
O O21 0.078979 0.340816 0.951104
O O22 0.750000 0.715530 0.794424
#
# Coordination Sequence:
#
# PCOD9339971 Si02
#       8
#     4   4   4   4   4   4   4   4
#     4   9  16  28  48  75 107 146 183 218 258 313
#     4   8  17  34  57  81 109 144 181 221 273 331
#     4  10  19  32  51  77 108 145 183 221 268 322
#     4   9  16  33  56  77 109 148 181 219 271 328
#     4   8  14  27  48  71 103 144 181 215 260 313
#     4  12  24  36  54  81 112 144 182 225 276 337
#     4  10  21  39  62  85 104 136 184 232 280 331
#     4  10  21  39  60  79 109 146 184 230 278 327
#
# _framework density 19.753086
#
# number of rings (size 3 to 8) (size 9 to 14) (size 15 to 20)
#    0.000    2.500    1.250    3.375    0.000    2.500 
#    0.000    5.625    0.000    0.000    0.000    0.000 
#    0.000    0.000    0.000    0.000    0.000    0.000 
#
# Total GULP energy -178299.729772 kJ/mol
# GULP energy per Si atom -5571.866555 kJ/mol
# Density = 1.970813 g / cm^3
# Si number density = 19.753086 Si / 1000 Ang^3
#
#
#
# Elastic Constant Matrix: (Units=GPa)
#
#
# Indices 1 2 3 4 5 6 
#
# 1 49.8737 50.8309 25.8288 0.0000 0.0000 0.0000
# 2 50.8309 144.0488 42.2399 0.0000 0.0000 0.0000
# 3 25.8288 42.2399 41.5060 0.0000 0.0000 0.0000
# 4 0.0000 0.0000 0.0000 7.2823 0.0000 0.0000
# 5 0.0000 0.0000 0.0000 0.0000 -1.9648 0.0000
# 6 0.0000 0.0000 0.0000 0.0000 0.0000 26.0006
#
#
#
# Elastic Compliance Matrix: (Units=1/GPa)
#
#
# Indices 1 2 3 4 5 6 
#
# 1 0.035921 -0.008724 -0.013475 0.000000 0.000000 0.000000
# 2 -0.008724 0.012014 -0.006797 0.000000 0.000000 0.000000
# 3 -0.013475 -0.006797 0.039395 0.000000 0.000000 0.000000
# 4 0.000000 0.000000 0.000000 0.137319 0.000000 0.000000
# 5 0.000000 0.000000 0.000000 0.000000 -0.508958 0.000000
# 6 0.000000 0.000000 0.000000 0.000000 0.000000 0.038461
#
#
# Mechanical properties :
#
#
# Convention : Reuss Voigt Hill
#
# Bulk Modulus (GPa) = 34.08577 52.58087 43.33332
# Shear Modulus (GPa) = -28.07768 14.03222 -7.02273
#
# Velocity S-wave (km/s) = -3.77428 2.66819 -1.88758
# Velocity P-wave (km/s) = 1.30391 6.01408 4.15144
#
# Compressibility (1/GPa) = 0.02933775
#
# Stress axis : x y z
#
# Youngs Moduli (GPa) = 27.83918 83.23761 25.38362
#
# Poissons Ratio (x) = 0.72618 0.34204
# Poissons Ratio (y) = 0.24287 0.17254
# Poissons Ratio (z) = 0.37512 0.56579
#
# Static dielectric constant tensor:
#      x y z
#    x 1.680310 0.000000 0.000000 
#    y 0.000000 1.714300 0.000000 
#    z 0.000000 0.000000 1.751060 
# 
# From -- ./inp_files/5039.got.cif
#   From: 2010.05.17/outbox.ucp.g08.bks.cvg/sg28_3_cif.got.tgz:5039.got - 2010.06.11 15:23:59.
