data_PCOD9339701
_publ_section_title
;
Structure prediction by ZEFSAII (Michael W. Deem and Ramdas Pophale) SiO2 
 PCOD9339701
Probable space group: P M A 2
;
_chemical_formula_sum "Si O2"
_cell_formula_units_Z 26
_cell_length_a 26.040878
_cell_length_b 9.016090
_cell_length_c 5.489698
_cell_angle_alpha 90.000000
_cell_angle_beta 90.000000
_cell_angle_gamma 90.000000
_cell_volume 1288.909174
_symmetry_space_group_name_H-M "P M A 2"
_symmetry_group_IT_number 28
_symmetry_cell_setting 'orthorhombic'
loop_
_space_group_symop_operation_xyz
x,y,z
-x,-y,z
1/2-x,y,z
1/2+x,-y,z
loop_
_atom_site_type_symbol
_atom_site_label
_atom_site_fract_x
_atom_site_fract_y
_atom_site_fract_z
Si Si1 0.400115 0.485682 0.726640
Si Si2 0.448114 0.015437 0.760173
Si Si3 0.190049 0.911410 0.390530
Si Si4 0.864029 0.793562 0.467108
Si Si5 0.362865 0.793688 0.888221
Si Si6 0.500000 0.500000 0.426428
Si Si7 0.948203 0.729042 0.102118
O O1 0.361484 0.365414 0.602861
O O2 0.371510 0.617851 0.863901
O O3 0.444205 0.540916 0.541839
O O4 0.437220 0.394726 0.903458
O O5 0.405686 0.110801 0.618202
O O6 0.500000 0.000000 0.605687
O O7 0.418167 0.872063 0.851556
O O8 0.466151 0.121768 0.978486
O O9 0.250000 0.879069 0.362423
O O10 0.169407 0.842077 0.646002
O O11 0.181119 0.089690 0.419484
O O12 0.160872 0.850149 0.146452
O O13 0.892581 0.760757 0.216095
O O14 0.514251 0.651587 0.288774
#
# Coordination Sequence:
#
# PCOD9339701 Si02
#       7
#     4   4   4   4   4   2   4
#     4  10  23  38  61  92 137 171 221 267 332 390
#     4  10  22  35  57  90 134 169 218 260 317 391
#     4  11  24  48  72  93 125 171 222 284 346 395
#     4   9  21  42  59  91 124 170 220 263 322 404
#     4  11  25  42  68 102 130 171 217 281 337 394
#     4  10  22  34  58  86 128 186 222 250 320 398
#     4  10  20  37  56  82 127 175 221 257 312 386
#
# _framework density 20.172096
#
# number of rings (size 3 to 8) (size 9 to 14) (size 15 to 20)
#    0.000    1.846    1.538    0.923   12.923    0.615 
#    0.000    1.538    0.000    0.000    0.000    0.000 
#    0.000    0.000    0.000    0.000    0.000    0.000 
#
# Total GULP energy -144820.843244 kJ/mol
# GULP energy per Si atom -5570.032432 kJ/mol
# Density = 2.012618 g / cm^3
# Si number density = 20.172096 Si / 1000 Ang^3
#
#
#
# Elastic Constant Matrix: (Units=GPa)
#
#
# Indices 1 2 3 4 5 6 
#
# 1 72.5283 34.3733 21.6108 0.0000 0.0000 0.0000
# 2 34.3733 100.7273 10.7907 0.0000 0.0000 0.0000
# 3 21.6108 10.7907 61.3533 0.0000 0.0000 0.0000
# 4 0.0000 0.0000 0.0000 79.6727 0.0000 0.0000
# 5 0.0000 0.0000 0.0000 0.0000 -6.2270 0.0000
# 6 0.0000 0.0000 0.0000 0.0000 0.0000 16.7963
#
#
#
# Elastic Compliance Matrix: (Units=1/GPa)
#
#
# Indices 1 2 3 4 5 6 
#
# 1 0.018031 -0.005578 -0.005370 0.000000 0.000000 0.000000
# 2 -0.005578 0.011844 -0.000118 0.000000 0.000000 0.000000
# 3 -0.005370 -0.000118 0.018211 0.000000 0.000000 0.000000
# 4 0.000000 0.000000 0.000000 0.012551 0.000000 0.000000
# 5 0.000000 0.000000 0.000000 0.000000 -0.160590 0.000000
# 6 0.000000 0.000000 0.000000 0.000000 0.000000 0.059537
#
#
# Mechanical properties :
#
#
# Convention : Reuss Voigt Hill
#
# Bulk Modulus (GPa) = 38.53010 40.90649 39.71829
# Shear Modulus (GPa) = -519.16790 29.23733 -244.96529
#
# Velocity S-wave (km/s) = -16.06014 3.81122 -11.03183
# Velocity P-wave (km/s) = 18.02115 6.30000 11.93884
#
# Compressibility (1/GPa) = 0.02595374
#
# Stress axis : x y z
#
# Youngs Moduli (GPa) = 55.45880 84.43136 54.91046
#
# Poissons Ratio (x) = 0.47095 0.29488
# Poissons Ratio (y) = 0.30935 0.00650
# Poissons Ratio (z) = 0.29783 0.00999
#
# Static dielectric constant tensor:
#      x y z
#    x 1.767180 0.000000 0.000000 
#    y 0.000000 1.377270 0.000000 
#    z 0.000000 0.000000 1.810820 
# 
# From -- ./inp_files/1750.got.cif
#   From: 2010.05.17/outbox.cif.g08.bks.cpg/sg28_1_cif.got.tgz:1750.got - 2010.06.04 01:15:21.
