data_PCOD9339409
_publ_section_title
;
Structure prediction by ZEFSAII (Michael W. Deem and Ramdas Pophale) SiO2 
 PCOD9339409
Probable space group: P M A 2
;
_chemical_formula_sum "Si O2"
_cell_formula_units_Z 32
_cell_length_a 8.630689
_cell_length_b 14.574060
_cell_length_c 16.068420
_cell_angle_alpha 90.000000
_cell_angle_beta 90.000000
_cell_angle_gamma 90.000000
_cell_volume 2021.153023
_symmetry_space_group_name_H-M "P M A 2"
_symmetry_group_IT_number 28
_symmetry_cell_setting 'orthorhombic'
loop_
_space_group_symop_operation_xyz
x,y,z
-x,-y,z
1/2-x,y,z
1/2+x,-y,z
loop_
_atom_site_type_symbol
_atom_site_label
_atom_site_fract_x
_atom_site_fract_y
_atom_site_fract_z
Si Si1 0.936168 0.103216 0.229700
Si Si2 0.935050 0.785301 0.568769
Si Si3 0.064670 0.897021 0.726577
Si Si4 0.563392 0.104216 0.046949
Si Si5 0.935092 0.401054 0.630978
Si Si6 0.564452 0.792639 0.887686
Si Si7 0.435511 0.402659 0.817766
Si Si8 0.063101 0.895759 0.412561
O O1 0.750000 0.100184 0.229633
O O2 0.982587 0.141144 0.139207
O O3 0.981739 0.141417 0.320191
O O4 0.000000 0.000000 0.229764
O O5 0.750000 0.784872 0.571785
O O6 0.999060 0.841418 0.648008
O O7 0.999152 0.682427 0.577424
O O8 0.993933 0.834829 0.485738
O O9 0.250000 0.898159 0.722880
O O10 0.009466 0.848004 0.810962
O O11 0.000000 0.000000 0.724611
O O12 0.750000 0.101108 0.041574
O O13 0.500000 0.000000 0.038710
O O14 0.497102 0.165867 0.973374
O O15 0.750000 0.401338 0.629743
O O16 0.000000 0.500000 0.604494
O O17 0.992424 0.387107 0.726193
O O18 0.750000 0.803036 0.883450
O O19 0.527391 0.685248 0.874043
O O20 0.500000 0.500000 0.848809
O O21 0.250000 0.408797 0.808426
O O22 0.250000 0.897995 0.418954
O O23 0.000000 0.000000 0.419948
#
# Coordination Sequence:
#
# PCOD9339409 Si02
#       8
#     4   4   4   4   4   4   4   4
#     4   8  16  30  49  71  97 128 165 208 251 294
#     4  12  23  36  51  73 102 133 170 208 248 298
#     4  12  24  37  51  68  96 136 173 207 245 292
#     4  10  19  32  50  73 101 134 170 208 249 296
#     4  11  21  35  55  76  99 129 166 208 255 297
#     4  11  22  35  50  72 101 133 167 206 248 297
#     4  10  20  34  53  73  98 127 164 209 254 296
#     4  10  19  33  51  74 102 134 170 208 252 300
#
# _framework density 15.832546000000001
#
# number of rings (size 3 to 8) (size 9 to 14) (size 15 to 20)
#    0.000    1.500    1.250    6.375    0.000    2.500 
#    0.000    0.000    0.000    0.000    0.000    0.875 
#    0.000    2.000    0.000    0.000    0.000    0.000 
#
# Total GULP energy -178620.730895 kJ/mol
# GULP energy per Si atom -5581.897840 kJ/mol
# Density = 1.579651 g / cm^3
# Si number density = 15.832546 Si / 1000 Ang^3
#
#
#
# Elastic Constant Matrix: (Units=GPa)
#
#
# Indices 1 2 3 4 5 6 
#
# 1 107.1626 56.3798 55.6139 0.0000 0.0000 0.0000
# 2 56.3798 121.3638 77.0954 0.0000 0.0000 0.0000
# 3 55.6139 77.0954 151.7468 0.0000 0.0000 0.0000
# 4 0.0000 0.0000 0.0000 0.9581 0.0000 0.0000
# 5 0.0000 0.0000 0.0000 0.0000 11.1848 0.0000
# 6 0.0000 0.0000 0.0000 0.0000 0.0000 26.3682
#
#
#
# Elastic Compliance Matrix: (Units=1/GPa)
#
#
# Indices 1 2 3 4 5 6 
#
# 1 0.012961 -0.004435 -0.002497 0.000000 0.000000 0.000000
# 2 -0.004435 0.013684 -0.005327 0.000000 0.000000 0.000000
# 3 -0.002497 -0.005327 0.010211 0.000000 0.000000 0.000000
# 4 0.000000 0.000000 0.000000 1.043710 0.000000 0.000000
# 5 0.000000 0.000000 0.000000 0.000000 0.089407 0.000000
# 6 0.000000 0.000000 0.000000 0.000000 0.000000 0.037924
#
#
# Mechanical properties :
#
#
# Convention : Reuss Voigt Hill
#
# Bulk Modulus (GPa) = 81.04500 84.27237 82.65869
# Shear Modulus (GPa) = 4.04359 20.44785 12.24572
#
# Velocity S-wave (km/s) = 1.59985 3.59765 2.78412
# Velocity P-wave (km/s) = 7.39680 8.40240 7.91559
#
# Compressibility (1/GPa) = 0.01233882
#
# Stress axis : x y z
#
# Youngs Moduli (GPa) = 77.15707 73.08018 97.93126
#
# Poissons Ratio (x) = 0.32409 0.24452
# Poissons Ratio (y) = 0.34217 0.52165
# Poissons Ratio (z) = 0.19265 0.38928
#
# Static dielectric constant tensor:
#      x y z
#    x 1.528640 0.000000 0.000000 
#    y 0.000000 1.511140 0.000000 
#    z 0.000000 0.000000 1.537820 
# 
# From -- ./inp_files/6414.got.cif
#   From: 2010.05.17/outbox.cif.g08.bks.cpg/sg28_4_cif.got.tgz:6414.got - 2010.06.04 01:15:21.
