data_PCOD9339503
_publ_section_title
;
Structure prediction by ZEFSAII (Michael W. Deem and Ramdas Pophale) SiO2 
 PCOD9339503
Probable space group: P M A 2
;
_chemical_formula_sum "Si O2"
_cell_formula_units_Z 32
_cell_length_a 17.826191
_cell_length_b 11.755431
_cell_length_c 7.464905
_cell_angle_alpha 90.000000
_cell_angle_beta 90.000000
_cell_angle_gamma 90.000000
_cell_volume 1564.304870
_symmetry_space_group_name_H-M "P M A 2"
_symmetry_group_IT_number 28
_symmetry_cell_setting 'orthorhombic'
loop_
_space_group_symop_operation_xyz
x,y,z
-x,-y,z
1/2-x,y,z
1/2+x,-y,z
loop_
_atom_site_type_symbol
_atom_site_label
_atom_site_fract_x
_atom_site_fract_y
_atom_site_fract_z
Si Si1 0.063377 0.432044 0.206990
Si Si2 0.661024 0.947878 0.567247
Si Si3 0.120699 0.295031 0.657447
Si Si4 0.430399 0.915070 0.279966
Si Si5 0.837124 0.465318 0.480534
Si Si6 0.338805 0.982187 0.969123
Si Si7 0.969506 0.306778 0.510814
Si Si8 0.333527 0.241407 0.052091
O O1 0.130093 0.511960 0.280680
O O2 0.000000 0.500000 0.094978
O O3 0.015672 0.387897 0.376275
O O4 0.102692 0.321041 0.130583
O O5 0.750000 0.952436 0.567749
O O6 0.638090 0.816400 0.539114
O O7 0.627430 0.023359 0.412361
O O8 0.636258 0.995673 0.763404
O O9 0.150366 0.413952 0.580446
O O10 0.162494 0.269495 0.841456
O O11 0.029846 0.293028 0.670097
O O12 0.454743 0.804483 0.391773
O O13 0.500000 0.000000 0.252945
O O14 0.389276 0.898636 0.088741
O O15 0.750000 0.434994 0.482210
O O16 0.892210 0.369139 0.560393
O O17 0.250000 0.952491 0.969654
O O18 0.345816 0.106547 0.062948
O O19 0.250000 0.267609 0.123289
#
# Coordination Sequence:
#
# PCOD9339503 Si02
#       8
#     4   4   4   4   4   4   4   4
#     4   9  19  35  53  79 113 146 189 236 285 345
#     4  10  21  38  60  87 115 148 198 251 299 347
#     4  10  19  37  57  83 116 145 186 249 299 346
#     4  12  22  37  59  86 118 158 198 239 297 357
#     4  10  20  35  58  82 113 153 191 242 295 353
#     4   9  21  38  56  84 116 147 192 248 296 345
#     4  10  22  38  54  84 117 153 199 236 288 367
#     4  10  19  33  57  87 113 144 191 246 304 354
#
# _framework density 20.45637
#
# number of rings (size 3 to 8) (size 9 to 14) (size 15 to 20)
#    0.000    2.000    1.250    4.500    1.750    2.500 
#    2.250    0.000    0.000    0.000    0.000    0.000 
#    0.000    0.000    0.000    0.000    0.000    0.000 
#
# Total GULP energy -178459.482001 kJ/mol
# GULP energy per Si atom -5576.858813 kJ/mol
# Density = 2.040981 g / cm^3
# Si number density = 20.456370 Si / 1000 Ang^3
#
#
#
# Elastic Constant Matrix: (Units=GPa)
#
#
# Indices 1 2 3 4 5 6 
#
# 1 113.5327 21.7411 17.1679 0.0000 0.0000 0.0000
# 2 21.7411 39.0240 9.8470 0.0000 0.0000 0.0000
# 3 17.1679 9.8470 36.9167 0.0000 0.0000 0.0000
# 4 0.0000 0.0000 0.0000 3.3212 0.0000 0.0000
# 5 0.0000 0.0000 0.0000 0.0000 7.3315 0.0000
# 6 0.0000 0.0000 0.0000 0.0000 0.0000 27.0818
#
#
#
# Elastic Compliance Matrix: (Units=1/GPa)
#
#
# Indices 1 2 3 4 5 6 
#
# 1 0.010261 -0.004838 -0.003481 0.000000 0.000000 0.000000
# 2 -0.004838 0.029756 -0.005687 0.000000 0.000000 0.000000
# 3 -0.003481 -0.005687 0.030224 0.000000 0.000000 0.000000
# 4 0.000000 0.000000 0.000000 0.301096 0.000000 0.000000
# 5 0.000000 0.000000 0.000000 0.000000 0.136398 0.000000
# 6 0.000000 0.000000 0.000000 0.000000 0.000000 0.036925
#
#
# Mechanical properties :
#
#
# Convention : Reuss Voigt Hill
#
# Bulk Modulus (GPa) = 23.68112 31.88726 27.78419
# Shear Modulus (GPa) = 8.52153 16.92805 12.72479
#
# Velocity S-wave (km/s) = 2.04322 2.87979 2.49679
# Velocity P-wave (km/s) = 4.14341 5.16520 4.68226
#
# Compressibility (1/GPa) = 0.04222774
#
# Stress axis : x y z
#
# Youngs Moduli (GPa) = 97.45692 33.60701 33.08638
#
# Poissons Ratio (x) = 0.16260 0.11518
# Poissons Ratio (y) = 0.47151 0.18816
# Poissons Ratio (z) = 0.33927 0.19112
#
# Static dielectric constant tensor:
#      x y z
#    x 1.773300 0.000000 0.000000 
#    y 0.000000 1.793650 0.000000 
#    z 0.000000 0.000000 1.769750 
# 
# From -- ./inp_files/3945.got.cif
#   From: 2010.05.17/outbox.cif.g08.bks.cpg/sg28_2_cif.got.tgz:3945.got - 2010.06.04 01:15:21.
