data_PCOD9339094
_publ_section_title
;
Structure prediction by ZEFSAII (Michael W. Deem and Ramdas Pophale) SiO2 
 PCOD9339094
Probable space group: P C C 2
;
_chemical_formula_sum "Si O2"
_cell_formula_units_Z 32
_cell_length_a 15.217460
_cell_length_b 11.498190
_cell_length_c 8.632426
_cell_angle_alpha 90.000000
_cell_angle_beta 90.000000
_cell_angle_gamma 90.000000
_cell_volume 1510.443602
_symmetry_space_group_name_H-M "P C C 2"
_symmetry_group_IT_number 27
_symmetry_cell_setting 'orthorhombic'
loop_
_space_group_symop_operation_xyz
x,y,z
-x,-y,z
-x,y,1/2+z
x,-y,1/2+z
loop_
_atom_site_type_symbol
_atom_site_label
_atom_site_fract_x
_atom_site_fract_y
_atom_site_fract_z
Si Si1 0.935046 0.856028 0.450580
Si Si2 0.609751 0.419122 0.296814
Si Si3 0.810853 0.411438 0.209856
Si Si4 0.689435 0.155880 0.723658
Si Si5 0.444245 0.343629 0.142512
Si Si6 0.827606 0.656346 0.347691
Si Si7 0.893521 0.187623 0.297955
Si Si8 0.764473 0.976490 0.924788
O O1 0.911448 0.740176 0.354242
O O2 0.932870 0.834117 0.631091
O O3 0.036663 0.874136 0.410238
O O4 0.850461 0.939296 0.428403
O O5 0.711799 0.396613 0.271074
O O6 0.547923 0.348618 0.177217
O O7 0.592520 0.555078 0.257401
O O8 0.580688 0.385172 0.469931
O O9 0.837450 0.543466 0.242882
O O10 0.873110 0.323927 0.305725
O O11 0.811554 0.380879 0.026981
O O12 0.599904 0.219697 0.675792
O O13 0.750246 0.262531 0.781671
O O14 0.736185 0.088431 0.581115
O O15 0.688220 0.058400 0.857465
O O16 0.799187 0.125082 0.312378
#
# Coordination Sequence:
#
# PCOD9339094 Si02
#       8
#     4   4   4   4   4   4   4   4
#     4  10  24  41  60  98 128 174 233 287 337 396
#     4  11  22  39  67 107 139 177 221 276 347 423
#     4  11  23  41  66  99 141 180 223 277 355 432
#     4  11  24  43  68  99 135 178 233 291 347 409
#     4  11  23  39  68 105 141 178 222 288 341 415
#     4  10  24  40  65  99 137 181 222 285 351 420
#     4  11  24  40  65  94 130 178 224 290 339 406
#     4  11  23  43  67  94 129 177 239 287 338 400
#
# _framework density 21.185828999999998
#
# number of rings (size 3 to 8) (size 9 to 14) (size 15 to 20)
#    0.000    1.250    2.500    3.375    7.000    1.500 
#    0.000    2.500    0.000    6.000    0.000    0.000 
#    0.000    0.000    0.000    0.000    0.000    0.000 
#
# Total GULP energy -178584.961384 kJ/mol
# GULP energy per Si atom -5580.780043 kJ/mol
# Density = 2.113761 g / cm^3
# Si number density = 21.185829 Si / 1000 Ang^3
#
#
#
# Elastic Constant Matrix: (Units=GPa)
#
#
# Indices 1 2 3 4 5 6 
#
# 1 50.0704 13.5407 8.8511 0.0000 0.0000 0.0000
# 2 13.5407 107.5999 34.6460 0.0000 0.0000 0.0000
# 3 8.8511 34.6460 67.6449 0.0000 0.0000 0.0000
# 4 0.0000 0.0000 0.0000 -568.1253 0.0000 0.0000
# 5 0.0000 0.0000 0.0000 0.0000 21.9055 0.0000
# 6 0.0000 0.0000 0.0000 0.0000 0.0000 39.1586
#
#
#
# Elastic Compliance Matrix: (Units=1/GPa)
#
#
# Indices 1 2 3 4 5 6 
#
# 1 0.020829 -0.002088 -0.001656 0.000000 0.000000 0.000000
# 2 -0.002088 0.011338 -0.005534 0.000000 0.000000 0.000000
# 3 -0.001656 -0.005534 0.017834 0.000000 0.000000 0.000000
# 4 0.000000 0.000000 0.000000 -0.001760 0.000000 0.000000
# 5 0.000000 0.000000 0.000000 0.000000 0.045651 0.000000
# 6 0.000000 0.000000 0.000000 0.000000 0.000000 0.025537
#
#
# Mechanical properties :
#
#
# Convention : Reuss Voigt Hill
#
# Bulk Modulus (GPa) = 31.80082 37.71010 34.75546
# Shear Modulus (GPa) = 33.67745 -90.19374 -28.25815
#
# Velocity S-wave (km/s) = 3.99133 -6.53185 -3.65612
# Velocity P-wave (km/s) = 6.02362 6.24888 1.17569
#
# Compressibility (1/GPa) = 0.03144573
#
# Stress axis : x y z
#
# Youngs Moduli (GPa) = 48.00929 88.19635 56.07224
#
# Poissons Ratio (x) = 0.18416 0.09286
# Poissons Ratio (y) = 0.10024 0.31030
# Poissons Ratio (z) = 0.07950 0.48808
#
# Static dielectric constant tensor:
#      x y z
#    x 1.779690 0.000000 0.000000 
#    y 0.000000 2.182860 0.000000 
#    z 0.000000 0.000000 1.765650 
# 
# From -- ./inp_files/1613.got.cif
#   From: 2010.05.17/outbox.cif.g08.bks.cpg/sg27_1_cif.got.tgz:1613.got - 2010.06.04 01:11:05.
