data_PCOD9339299
_publ_section_title
;
Structure prediction by ZEFSAII (Michael W. Deem and Ramdas Pophale) SiO2 
 PCOD9339299
Probable space group: P M A 2
;
_chemical_formula_sum "Si O2"
_cell_formula_units_Z 32
_cell_length_a 9.097658
_cell_length_b 19.769486
_cell_length_c 10.309882
_cell_angle_alpha 90.000000
_cell_angle_beta 90.000000
_cell_angle_gamma 90.000000
_cell_volume 1854.294369
_symmetry_space_group_name_H-M "P M A 2"
_symmetry_group_IT_number 28
_symmetry_cell_setting 'orthorhombic'
loop_
_space_group_symop_operation_xyz
x,y,z
-x,-y,z
1/2-x,y,z
1/2+x,-y,z
loop_
_atom_site_type_symbol
_atom_site_label
_atom_site_fract_x
_atom_site_fract_y
_atom_site_fract_z
Si Si1 0.925347 0.206389 0.870540
Si Si2 0.080414 0.068259 0.562797
Si Si3 0.573316 0.573881 0.215498
Si Si4 0.075172 0.427750 0.728111
Si Si5 0.072927 0.646653 0.971018
Si Si6 0.918981 0.931817 0.878759
Si Si7 0.425114 0.792789 0.565465
Si Si8 0.922198 0.661806 0.470882
O O1 0.750000 0.195766 0.874522
O O2 0.964420 0.218232 0.718358
O O3 0.003983 0.138243 0.916931
O O4 0.960493 0.273824 0.950528
O O5 0.250000 0.068916 0.522925
O O6 0.076859 0.067364 0.720788
O O7 0.998474 0.136801 0.523583
O O8 0.000000 0.000000 0.518664
O O9 0.500000 0.500000 0.221911
O O10 0.750000 0.567556 0.199362
O O11 0.501957 0.614833 0.096940
O O12 0.543988 0.615784 0.346786
O O13 0.250000 0.434851 0.753420
O O14 0.056110 0.382673 0.599923
O O15 0.000000 0.500000 0.707759
O O16 0.994486 0.391913 0.847646
O O17 0.250000 0.638613 0.974444
O O18 0.750000 0.932657 0.919083
O O19 0.000000 0.000000 0.922838
O O20 0.250000 0.798060 0.557676
O O21 0.483266 0.729363 0.484915
O O22 0.750000 0.680749 0.464656
#
# Coordination Sequence:
#
# PCOD9339299 Si02
#       8
#     4   4   4   4   4   4   4   4
#     4   9  18  31  48  73 105 138 174 218 263 312
#     4   9  16  26  41  66 102 142 180 218 262 313
#     4  11  24  42  60  80 106 140 180 225 272 325
#     4  11  22  36  56  80 106 136 172 217 268 324
#     4  11  22  38  57  80 108 141 178 221 270 322
#     4   9  16  25  41  66 100 140 177 214 258 309
#     4  10  18  30  50  76 106 140 177 220 268 318
#     4  10  22  38  56  79 107 139 177 221 271 323
#
# _framework density 17.257238000000001
#
# number of rings (size 3 to 8) (size 9 to 14) (size 15 to 20)
#    0.000    2.000    1.250    3.000    0.000    6.000 
#    0.000    0.000    0.000    0.000    0.000    0.875 
#    0.000    2.000    0.000    0.000    0.000    0.000 
#
# Total GULP energy -178606.256243 kJ/mol
# GULP energy per Si atom -5581.445508 kJ/mol
# Density = 1.721796 g / cm^3
# Si number density = 17.257238 Si / 1000 Ang^3
#
#
#
# Elastic Constant Matrix: (Units=GPa)
#
#
# Indices 1 2 3 4 5 6 
#
# 1 105.5106 102.7214 50.2346 0.0000 0.0000 0.0000
# 2 102.7214 180.9922 46.2705 0.0000 0.0000 0.0000
# 3 50.2346 46.2705 72.2814 0.0000 0.0000 0.0000
# 4 0.0000 0.0000 0.0000 14.5216 0.0000 0.0000
# 5 0.0000 0.0000 0.0000 0.0000 -5.6637 0.0000
# 6 0.0000 0.0000 0.0000 0.0000 0.0000 38.6917
#
#
#
# Elastic Compliance Matrix: (Units=1/GPa)
#
#
# Indices 1 2 3 4 5 6 
#
# 1 0.026522 -0.012364 -0.010518 0.000000 0.000000 0.000000
# 2 -0.012364 0.012370 0.000674 0.000000 0.000000 0.000000
# 3 -0.010518 0.000674 0.020713 0.000000 0.000000 0.000000
# 4 0.000000 0.000000 0.000000 0.068863 0.000000 0.000000
# 5 0.000000 0.000000 0.000000 0.000000 -0.176564 0.000000
# 6 0.000000 0.000000 0.000000 0.000000 0.000000 0.025845
#
#
# Mechanical properties :
#
#
# Convention : Reuss Voigt Hill
#
# Bulk Modulus (GPa) = 65.83276 84.13745 74.98510
# Shear Modulus (GPa) = 183.63109 20.14711 101.88910
#
# Velocity S-wave (km/s) = 10.32662 3.42052 7.69217
# Velocity P-wave (km/s) = 13.43191 8.02874 11.06519
#
# Compressibility (1/GPa) = 0.01519001
#
# Stress axis : x y z
#
# Youngs Moduli (GPa) = 37.70399 80.84262 48.27840
#
# Poissons Ratio (x) = 0.99952 0.50780
# Poissons Ratio (y) = 0.46616 -0.03255
# Poissons Ratio (z) = 0.39658 -0.05451
#
# Static dielectric constant tensor:
#      x y z
#    x 1.578640 0.000000 0.000000 
#    y 0.000000 1.571800 0.000000 
#    z 0.000000 0.000000 1.568240 
# 
# From -- ./inp_files/5198.got.cif
#   From: 2010.05.17/outbox.cif.g08.bks.cpg/sg28_3_cif.got.tgz:5198.got - 2010.06.04 01:15:21.
