data_PCOD9339904
_publ_section_title
;
Structure prediction by ZEFSAII (Michael W. Deem and Ramdas Pophale) SiO2 
 PCOD9339904
Probable space group: P M A 2
;
_chemical_formula_sum "Si O2"
_cell_formula_units_Z 20
_cell_length_a 15.016435
_cell_length_b 5.424935
_cell_length_c 9.909403
_cell_angle_alpha 90.000000
_cell_angle_beta 90.000000
_cell_angle_gamma 90.000000
_cell_volume 807.251518
_symmetry_space_group_name_H-M "P M A 2"
_symmetry_group_IT_number 28
_symmetry_cell_setting 'orthorhombic'
loop_
_space_group_symop_operation_xyz
x,y,z
-x,-y,z
1/2-x,y,z
1/2+x,-y,z
loop_
_atom_site_type_symbol
_atom_site_label
_atom_site_fract_x
_atom_site_fract_y
_atom_site_fract_z
Si Si1 0.152816 0.304278 0.764670
Si Si2 0.606426 0.967093 0.347457
Si Si3 0.606056 0.468699 0.506760
Si Si4 0.000000 0.000000 0.827723
Si Si5 0.909602 0.406727 0.020075
Si Si6 0.750000 0.136054 0.162350
O O1 0.250000 0.189631 0.763884
O O2 0.147509 0.520984 0.655693
O O3 0.128236 0.395457 0.913684
O O4 0.072590 0.123517 0.732014
O O5 0.631209 0.220795 0.427196
O O6 0.669952 0.956023 0.218904
O O7 0.500000 0.000000 0.320466
O O8 0.630074 0.722000 0.430779
O O9 0.500000 0.500000 0.519508
O O10 0.946426 0.187561 0.923441
O O11 0.000000 0.500000 0.092806
O O12 0.829011 0.321593 0.109285
#
# Coordination Sequence:
#
# PCOD9339904 Si02
#       6
#     4   4   4   2   4   2
#     4  11  24  42  75 109 145 187 247 310 388 463
#     4  10  26  47  73 108 144 202 249 307 372 443
#     4  10  23  47  73 105 151 189 244 308 377 448
#     4  10  24  44  68 108 142 188 232 308 388 450
#     4  10  24  48  72 107 142 194 245 312 386 451
#     4  12  26  48  74 102 150 198 264 310 370 454
#
# _framework density 24.775428000000002
#
# number of rings (size 3 to 8) (size 9 to 14) (size 15 to 20)
#    0.000    1.600    1.000    1.800   12.600    2.400 
#   10.800    0.000    0.000    0.000    0.000    0.000 
#    0.000    0.000    0.000    0.000    0.000    0.000 
#
# Total GULP energy -111409.357979 kJ/mol
# GULP energy per Si atom -5570.467899 kJ/mol
# Density = 2.471904 g / cm^3
# Si number density = 24.775428 Si / 1000 Ang^3
#
#
#
# Elastic Constant Matrix: (Units=GPa)
#
#
# Indices 1 2 3 4 5 6 
#
# 1 147.3467 43.0360 31.4994 0.0000 0.0000 0.0000
# 2 43.0360 101.3242 17.7950 0.0000 0.0000 0.0000
# 3 31.4994 17.7950 34.5634 0.0000 0.0000 0.0000
# 4 0.0000 0.0000 0.0000 34.9522 0.0000 0.0000
# 5 0.0000 0.0000 0.0000 0.0000 -165.3686 0.0000
# 6 0.0000 0.0000 0.0000 0.0000 0.0000 -10.9920
#
#
#
# Elastic Compliance Matrix: (Units=1/GPa)
#
#
# Indices 1 2 3 4 5 6 
#
# 1 0.009022 -0.002625 -0.006871 0.000000 0.000000 0.000000
# 2 -0.002625 0.011614 -0.003587 0.000000 0.000000 0.000000
# 3 -0.006871 -0.003587 0.037041 0.000000 0.000000 0.000000
# 4 0.000000 0.000000 0.000000 0.028610 0.000000 0.000000
# 5 0.000000 0.000000 0.000000 0.000000 -0.006047 0.000000
# 6 0.000000 0.000000 0.000000 0.000000 0.000000 -0.090975
#
#
# Mechanical properties :
#
#
# Convention : Reuss Voigt Hill
#
# Bulk Modulus (GPa) = 31.73486 51.98832 41.86159
# Shear Modulus (GPa) = 192.78109 -15.55475 88.61317
#
# Velocity S-wave (km/s) = 8.83065 -2.50837 5.98700
# Velocity P-wave (km/s) = 10.80789 3.55530 8.04521
#
# Compressibility (1/GPa) = 0.03151109
#
# Stress axis : x y z
#
# Youngs Moduli (GPa) = 110.83575 86.10005 26.99723
#
# Poissons Ratio (x) = 0.22605 0.18549
# Poissons Ratio (y) = 0.29099 0.09684
# Poissons Ratio (z) = 0.76153 0.30884
#
# Static dielectric constant tensor:
#      x y z
#    x 1.908780 0.000000 0.000000 
#    y 0.000000 2.055580 0.000000 
#    z 0.000000 0.000000 1.964480 
# 
# From -- ./inp_files/5468.got.cif
#   From: 2010.05.17/outbox.cif.g08.bks.cpg/sg28_3_cif.got.tgz:5468.got - 2010.06.04 01:15:21.
