data_PCOD9339327
_publ_section_title
;
Structure prediction by ZEFSAII (Michael W. Deem and Ramdas Pophale) SiO2 
 PCOD9339327
Probable space group: P M A 2
;
_chemical_formula_sum "Si O2"
_cell_formula_units_Z 32
_cell_length_a 8.630153
_cell_length_b 14.312309
_cell_length_c 13.355826
_cell_angle_alpha 90.000000
_cell_angle_beta 90.000000
_cell_angle_gamma 90.000000
_cell_volume 1649.677122
_symmetry_space_group_name_H-M "P M A 2"
_symmetry_group_IT_number 28
_symmetry_cell_setting 'orthorhombic'
loop_
_space_group_symop_operation_xyz
x,y,z
-x,-y,z
1/2-x,y,z
1/2+x,-y,z
loop_
_atom_site_type_symbol
_atom_site_label
_atom_site_fract_x
_atom_site_fract_y
_atom_site_fract_z
Si Si1 0.934277 0.104483 0.179230
Si Si2 0.436752 0.395031 0.076207
Si Si3 0.936695 0.605760 0.853605
Si Si4 0.935255 0.604869 0.467476
Si Si5 0.434980 0.710438 0.659979
Si Si6 0.564728 0.103978 0.757285
Si Si7 0.935283 0.894064 0.968225
Si Si8 0.437527 0.279437 0.270865
O O1 0.750000 0.099471 0.172555
O O2 0.989789 0.176852 0.263004
O O3 0.000000 0.000000 0.194090
O O4 0.001654 0.142978 0.073375
O O5 0.500000 0.500000 0.084412
O O6 0.250000 0.398265 0.078791
O O7 0.479227 0.358068 0.965273
O O8 0.488440 0.335885 0.171628
O O9 0.750000 0.606242 0.845448
O O10 0.000000 0.500000 0.848720
O O11 0.008627 0.661029 0.761558
O O12 0.750000 0.599330 0.467590
O O13 0.983549 0.662363 0.368678
O O14 0.000000 0.500000 0.466533
O O15 0.990118 0.659993 0.565556
O O16 0.250000 0.701926 0.653009
O O17 0.474009 0.820193 0.672651
O O18 0.750000 0.097839 0.767919
O O19 0.496012 0.142521 0.862284
O O20 0.500000 0.000000 0.739473
O O21 0.750000 0.891845 0.969566
O O22 0.000000 0.000000 0.967666
O O23 0.250000 0.271408 0.269276
#
# Coordination Sequence:
#
# PCOD9339327 Si02
#       8
#     4   4   4   4   4   4   4   4
#     4  11  22  37  58  86 121 162 204 249 297 352
#     4   9  19  35  56  84 118 152 188 235 295 359
#     4  10  20  35  56  84 117 154 192 236 298 361
#     4  11  24  43  68  92 120 155 200 252 303 360
#     4  11  24  40  60  86 119 155 202 252 299 359
#     4  10  21  37  57  85 119 157 200 248 298 356
#     4  10  18  31  53  80 116 158 198 242 289 347
#     4  10  22  40  61  89 120 155 200 248 301 358
#
# _framework density 19.397735000000001
#
# number of rings (size 3 to 8) (size 9 to 14) (size 15 to 20)
#    0.000    1.750    0.000    6.000    1.750    4.000 
#    0.000    0.625    0.000    1.500    0.000    0.000 
#    0.000    0.000    0.000    0.000    0.000    0.000 
#
# Total GULP energy -178769.390427 kJ/mol
# GULP energy per Si atom -5586.543451 kJ/mol
# Density = 1.935358 g / cm^3
# Si number density = 19.397735 Si / 1000 Ang^3
#
#
#
# Elastic Constant Matrix: (Units=GPa)
#
#
# Indices 1 2 3 4 5 6 
#
# 1 76.0630 46.0749 45.9948 0.0000 0.0000 0.0000
# 2 46.0749 135.4044 94.0252 0.0000 0.0000 0.0000
# 3 45.9948 94.0252 146.9831 0.0000 0.0000 0.0000
# 4 0.0000 0.0000 0.0000 36.0996 0.0000 0.0000
# 5 0.0000 0.0000 0.0000 0.0000 37.2826 0.0000
# 6 0.0000 0.0000 0.0000 0.0000 0.0000 20.4070
#
#
#
# Elastic Compliance Matrix: (Units=1/GPa)
#
#
# Indices 1 2 3 4 5 6 
#
# 1 0.017246 -0.003816 -0.002956 0.000000 0.000000 0.000000
# 2 -0.003816 0.014132 -0.007846 0.000000 0.000000 0.000000
# 3 -0.002956 -0.007846 0.012748 0.000000 0.000000 0.000000
# 4 0.000000 0.000000 0.000000 0.027701 0.000000 0.000000
# 5 0.000000 0.000000 0.000000 0.000000 0.026822 0.000000
# 6 0.000000 0.000000 0.000000 0.000000 0.000000 0.049003
#
#
# Mechanical properties :
#
#
# Convention : Reuss Voigt Hill
#
# Bulk Modulus (GPa) = 67.15922 81.18226 74.17074
# Shear Modulus (GPa) = 27.49506 30.24820 28.87163
#
# Velocity S-wave (km/s) = 3.76897 3.95317 3.86217
# Velocity P-wave (km/s) = 7.32377 7.92332 7.62943
#
# Compressibility (1/GPa) = 0.01488999
#
# Stress axis : x y z
#
# Youngs Moduli (GPa) = 57.98548 70.76000 78.44576
#
# Poissons Ratio (x) = 0.27002 0.23185
# Poissons Ratio (y) = 0.22127 0.61551
# Poissons Ratio (z) = 0.17138 0.55521
#
# Static dielectric constant tensor:
#      x y z
#    x 1.645520 0.000000 0.000000 
#    y 0.000000 1.673630 0.000000 
#    z 0.000000 0.000000 1.684360 
# 
# From -- ./inp_files/4997.got.cif
#   From: 2010.05.17/outbox.cif.g08.bks.cpg/sg28_3_cif.got.tgz:4997.got - 2010.06.04 01:15:21.
