data_PCOD9339405
_publ_section_title
;
Structure prediction by ZEFSAII (Michael W. Deem and Ramdas Pophale) SiO2 
 PCOD9339405
Probable space group: P M A 2
;
_chemical_formula_sum "Si O2"
_cell_formula_units_Z 32
_cell_length_a 8.538346
_cell_length_b 14.672608
_cell_length_c 16.202029
_cell_angle_alpha 90.000000
_cell_angle_beta 90.000000
_cell_angle_gamma 90.000000
_cell_volume 2029.787015
_symmetry_space_group_name_H-M "P M A 2"
_symmetry_group_IT_number 28
_symmetry_cell_setting 'orthorhombic'
loop_
_space_group_symop_operation_xyz
x,y,z
-x,-y,z
1/2-x,y,z
1/2+x,-y,z
loop_
_atom_site_type_symbol
_atom_site_label
_atom_site_fract_x
_atom_site_fract_y
_atom_site_fract_z
Si Si1 0.561138 0.396499 0.198420
Si Si2 0.439644 0.709308 0.855055
Si Si3 0.060546 0.603495 0.378898
Si Si4 0.937734 0.097596 0.787933
Si Si5 0.060417 0.603609 0.017977
Si Si6 0.438271 0.715672 0.538913
Si Si7 0.562986 0.602808 0.695389
Si Si8 0.063402 0.098230 0.601385
O O1 0.500000 0.500000 0.198381
O O2 0.750000 0.396363 0.198421
O O3 0.511136 0.359697 0.288133
O O4 0.511037 0.359630 0.108723
O O5 0.250000 0.704175 0.851032
O O6 0.483520 0.814942 0.841984
O O7 0.491296 0.665412 0.941464
O O8 0.506801 0.651867 0.778890
O O9 0.250000 0.599988 0.380426
O O10 0.009318 0.665715 0.455056
O O11 0.000000 0.500000 0.388389
O O12 0.750000 0.093698 0.782797
O O13 0.002650 0.111654 0.695295
O O14 0.000000 0.000000 0.817797
O O15 0.250000 0.600353 0.016611
O O16 0.000000 0.500000 0.008474
O O17 0.250000 0.717666 0.540912
O O18 0.497712 0.658274 0.617286
O O19 0.501849 0.817683 0.548159
O O20 0.500000 0.500000 0.693364
O O21 0.750000 0.602363 0.692228
O O22 0.250000 0.097096 0.602703
O O23 0.000000 0.000000 0.573597
#
# Coordination Sequence:
#
# PCOD9339405 Si02
#       8
#     4   4   4   4   4   4   4   4
#     4   8  14  27  45  66  91 119 154 193 233 277
#     4  10  20  33  48  68  94 125 158 195 235 278
#     4   9  18  30  47  69  95 126 158 195 236 278
#     4  10  19  32  50  68  92 120 155 198 240 279
#     4   9  17  29  46  68  94 124 157 192 232 277
#     4  11  21  34  49  69  96 125 160 198 236 281
#     4  12  24  35  47  64  92 130 165 195 231 276
#     4  11  21  34  52  72  93 121 157 196 243 283
#
# _framework density 15.765200999999999
#
# number of rings (size 3 to 8) (size 9 to 14) (size 15 to 20)
#    0.000    2.000    1.250    4.500    0.000    4.000 
#    0.000    0.000    0.000    0.000    0.000    0.875 
#    0.000    2.000    0.000    0.000    0.000    0.500 
#
# Total GULP energy -178444.803505 kJ/mol
# GULP energy per Si atom -5576.400110 kJ/mol
# Density = 1.572932 g / cm^3
# Si number density = 15.765201 Si / 1000 Ang^3
#
#
#
# Elastic Constant Matrix: (Units=GPa)
#
#
# Indices 1 2 3 4 5 6 
#
# 1 41.6790 30.3696 29.8915 0.0000 0.0000 0.0000
# 2 30.3696 124.2012 81.0098 0.0000 0.0000 0.0000
# 3 29.8915 81.0098 157.8505 0.0000 0.0000 0.0000
# 4 0.0000 0.0000 0.0000 0.6685 0.0000 0.0000
# 5 0.0000 0.0000 0.0000 0.0000 7.5092 0.0000
# 6 0.0000 0.0000 0.0000 0.0000 0.0000 24.7479
#
#
#
# Elastic Compliance Matrix: (Units=1/GPa)
#
#
# Indices 1 2 3 4 5 6 
#
# 1 0.030044 -0.005465 -0.002885 0.000000 0.000000 0.000000
# 2 -0.005465 0.013097 -0.005686 0.000000 0.000000 0.000000
# 3 -0.002885 -0.005686 0.009800 0.000000 0.000000 0.000000
# 4 0.000000 0.000000 0.000000 1.495783 0.000000 0.000000
# 5 0.000000 0.000000 0.000000 0.000000 0.133170 0.000000
# 6 0.000000 0.000000 0.000000 0.000000 0.000000 0.040407
#
#
# Mechanical properties :
#
#
# Convention : Reuss Voigt Hill
#
# Bulk Modulus (GPa) = 40.21194 67.36362 53.78778
# Shear Modulus (GPa) = 2.84307 18.74913 10.79610
#
# Velocity S-wave (km/s) = 1.34436 3.45233 2.61972
# Velocity P-wave (km/s) = 5.28884 7.66247 6.58352
#
# Compressibility (1/GPa) = 0.02486823
#
# Stress axis : x y z
#
# Youngs Moduli (GPa) = 33.28489 76.35545 102.04407
#
# Poissons Ratio (x) = 0.41726 0.29437
# Poissons Ratio (y) = 0.18189 0.58027
# Poissons Ratio (z) = 0.09602 0.43419
#
# Static dielectric constant tensor:
#      x y z
#    x 1.530310 0.000000 0.000000 
#    y 0.000000 1.504980 0.000000 
#    z 0.000000 0.000000 1.548880 
# 
# From -- ./inp_files/6431.got.cif
#   From: 2010.05.17/outbox.cif.g08.bks.cpg/sg28_4_cif.got.tgz:6431.got - 2010.06.04 01:15:21.
