data_PCOD9339702
_publ_section_title
;
Structure prediction by ZEFSAII (Michael W. Deem and Ramdas Pophale) SiO2 
 PCOD9339702
Probable space group: P M A 2
;
_chemical_formula_sum "Si O2"
_cell_formula_units_Z 24
_cell_length_a 8.526021
_cell_length_b 9.559809
_cell_length_c 15.879703
_cell_angle_alpha 90.000000
_cell_angle_beta 90.000000
_cell_angle_gamma 90.000000
_cell_volume 1294.309053
_symmetry_space_group_name_H-M "P M A 2"
_symmetry_group_IT_number 28
_symmetry_cell_setting 'orthorhombic'
loop_
_space_group_symop_operation_xyz
x,y,z
-x,-y,z
1/2-x,y,z
1/2+x,-y,z
loop_
_atom_site_type_symbol
_atom_site_label
_atom_site_fract_x
_atom_site_fract_y
_atom_site_fract_z
Si Si1 0.939327 0.842353 0.267700
Si Si2 0.560496 0.843451 0.456468
Si Si3 0.439109 0.343911 0.611099
Si Si4 0.062938 0.841847 0.954255
Si Si5 0.938592 0.658034 0.109494
Si Si6 0.438768 0.341638 0.801532
O O1 0.750000 0.847776 0.266012
O O2 0.988427 0.797839 0.362193
O O3 0.990738 0.735691 0.195392
O O4 0.000000 0.000000 0.252467
O O5 0.750000 0.843330 0.457899
O O6 0.503600 0.750689 0.534226
O O7 0.500000 0.000000 0.467269
O O8 0.500000 0.500000 0.599167
O O9 0.250000 0.344709 0.609277
O O10 0.484866 0.299902 0.705913
O O11 0.250000 0.844518 0.957656
O O12 0.007413 0.764085 0.869555
O O13 0.000000 0.000000 0.958134
O O14 0.998504 0.750543 0.031819
O O15 0.750000 0.655259 0.107545
O O16 0.000000 0.500000 0.104638
O O17 0.500000 0.500000 0.816084
O O18 0.250000 0.342869 0.807654
#
# Coordination Sequence:
#
# PCOD9339702 Si02
#       6
#     4   4   4   4   4   4
#     4   9  19  35  56  79 108 143 181 223 270 320
#     4   9  18  34  53  78 109 143 181 223 268 319
#     4   9  19  34  54  79 110 144 181 222 267 317
#     4  12  25  41  60  83 110 143 180 224 273 326
#     4  11  23  39  58  83 112 145 182 224 271 324
#     4  10  20  37  58  82 111 146 184 226 273 324
#
# _framework density 18.542714
#
# number of rings (size 3 to 8) (size 9 to 14) (size 15 to 20)
#    0.000    2.000    0.000    3.500    0.000    5.333 
#    0.000    1.667    0.000    0.000    0.000    0.000 
#    0.000    0.000    0.000    0.000    0.000    0.000 
#
# Total GULP energy -134008.061870 kJ/mol
# GULP energy per Si atom -5583.669245 kJ/mol
# Density = 1.850051 g / cm^3
# Si number density = 18.542714 Si / 1000 Ang^3
#
#
#
# Elastic Constant Matrix: (Units=GPa)
#
#
# Indices 1 2 3 4 5 6 
#
# 1 52.6983 38.8489 47.5966 0.0000 0.0000 0.0000
# 2 38.8489 143.4878 135.0690 0.0000 0.0000 0.0000
# 3 47.5966 135.0690 207.5540 0.0000 0.0000 0.0000
# 4 0.0000 0.0000 0.0000 43.1051 0.0000 0.0000
# 5 0.0000 0.0000 0.0000 0.0000 -41.3075 0.0000
# 6 0.0000 0.0000 0.0000 0.0000 0.0000 35.2813
#
#
#
# Elastic Compliance Matrix: (Units=1/GPa)
#
#
# Indices 1 2 3 4 5 6 
#
# 1 0.024589 -0.003483 -0.003372 0.000000 0.000000 0.000000
# 2 -0.003483 0.018482 -0.011229 0.000000 0.000000 0.000000
# 3 -0.003372 -0.011229 0.012899 0.000000 0.000000 0.000000
# 4 0.000000 0.000000 0.000000 0.023199 0.000000 0.000000
# 5 0.000000 0.000000 0.000000 0.000000 -0.024209 0.000000
# 6 0.000000 0.000000 0.000000 0.000000 0.000000 0.028344
#
#
# Mechanical properties :
#
#
# Convention : Reuss Voigt Hill
#
# Bulk Modulus (GPa) = 50.49997 94.08545 72.29271
# Shear Modulus (GPa) = 39.65926 19.56415 29.61170
#
# Velocity S-wave (km/s) = 4.62974 3.25173 4.00052
# Velocity P-wave (km/s) = 7.47481 8.05905 7.77243
#
# Compressibility (1/GPa) = 0.01980199
#
# Stress axis : x y z
#
# Youngs Moduli (GPa) = 40.66784 54.10545 77.52701
#
# Poissons Ratio (x) = 0.18846 0.26143
# Poissons Ratio (y) = 0.14166 0.87055
# Poissons Ratio (z) = 0.13714 0.60755
#
# Static dielectric constant tensor:
#      x y z
#    x 1.625330 0.000000 0.000000 
#    y 0.000000 1.591410 0.000000 
#    z 0.000000 0.000000 1.663690 
# 
# From -- ./inp_files/6024.got.cif
#   From: 2010.05.17/outbox.cif.g08.bks.cpg/sg28_4_cif.got.tgz:6024.got - 2010.06.04 01:15:21.
