data_PCOD9339900
_publ_section_title
;
Structure prediction by ZEFSAII (Michael W. Deem and Ramdas Pophale) SiO2 
 PCOD9339900
Probable space group: P M A 2
;
_chemical_formula_sum "Si O2"
_cell_formula_units_Z 22
_cell_length_a 32.059773
_cell_length_b 5.382946
_cell_length_c 4.439357
_cell_angle_alpha 90.000000
_cell_angle_beta 90.000000
_cell_angle_gamma 90.000000
_cell_volume 766.126593
_symmetry_space_group_name_H-M "P M A 2"
_symmetry_group_IT_number 28
_symmetry_cell_setting 'orthorhombic'
loop_
_space_group_symop_operation_xyz
x,y,z
-x,-y,z
1/2-x,y,z
1/2+x,-y,z
loop_
_atom_site_type_symbol
_atom_site_label
_atom_site_fract_x
_atom_site_fract_y
_atom_site_fract_z
Si Si1 0.750000 0.478580 0.984210
Si Si2 0.322742 0.250706 0.288027
Si Si3 0.497130 0.250300 0.040794
Si Si4 0.079160 0.748669 0.617846
Si Si5 0.412607 0.247935 0.220109
Si Si6 0.327774 0.753320 0.687605
O O1 0.712007 0.280042 0.904339
O O2 0.714747 0.688628 0.071673
O O3 0.365795 0.242889 0.105224
O O4 0.323972 0.500082 0.491740
O O5 0.320999 0.000242 0.485123
O O6 0.500000 0.500000 0.226521
O O7 0.535281 0.251272 0.806136
O O8 0.448102 0.250074 0.962298
O O9 0.500000 0.000000 0.224983
O O10 0.082336 0.501260 0.411975
O O11 0.123635 0.754462 0.797980
O O12 0.081904 0.995441 0.411602
#
# Coordination Sequence:
#
# PCOD9339900 Si02
#       6
#     2   4   4   4   4   4
#     4  12  24  42  80 102 140 182 244 298 356 414
#     4  10  24  45  69 103 142 183 234 291 362 427
#     4  12  26  40  70 102 132 180 244 272 344 432
#     4  10  23  46  68  97 143 185 225 291 351 416
#     4  10  23  46  68  97 143 185 225 291 351 416
#     4  10  24  45  69 103 142 183 234 291 362 427
#
# _framework density 28.715882000000001
#
# number of rings (size 3 to 8) (size 9 to 14) (size 15 to 20)
#    0.000    1.455    0.000    3.273    2.545    7.273 
#    0.000    0.000    0.000    0.000    0.000    0.000 
#    0.000    0.000    0.000    0.000    0.000    0.000 
#
# Total GULP energy -122499.079887 kJ/mol
# GULP energy per Si atom -5568.139995 kJ/mol
# Density = 2.865052 g / cm^3
# Si number density = 28.715882 Si / 1000 Ang^3
#
#
#
# Elastic Constant Matrix: (Units=GPa)
#
#
# Indices 1 2 3 4 5 6 
#
# 1 393.8690 43.8340 82.1571 0.0000 0.0000 0.0000
# 2 43.8340 310.2406 74.7203 0.0000 0.0000 0.0000
# 3 82.1571 74.7203 58.3294 0.0000 0.0000 0.0000
# 4 0.0000 0.0000 0.0000 57.4727 0.0000 0.0000
# 5 0.0000 0.0000 0.0000 0.0000 62.4156 0.0000
# 6 0.0000 0.0000 0.0000 0.0000 0.0000 14.4129
#
#
#
# Elastic Compliance Matrix: (Units=1/GPa)
#
#
# Indices 1 2 3 4 5 6 
#
# 1 0.003838 0.001099 -0.006813 0.000000 0.000000 0.000000
# 2 0.001099 0.004976 -0.007922 0.000000 0.000000 0.000000
# 3 -0.006813 -0.007922 0.036887 0.000000 0.000000 0.000000
# 4 0.000000 0.000000 0.000000 0.017400 0.000000 0.000000
# 5 0.000000 0.000000 0.000000 0.000000 0.016022 0.000000
# 6 0.000000 0.000000 0.000000 0.000000 0.000000 0.069382
#
#
# Mechanical properties :
#
#
# Convention : Reuss Voigt Hill
#
# Bulk Modulus (GPa) = 54.26057 129.31796 91.78927
# Shear Modulus (GPa) = 27.48468 64.30874 45.89671
#
# Velocity S-wave (km/s) = 3.09710 4.73745 4.00222
# Velocity P-wave (km/s) = 5.63259 8.66348 7.30692
#
# Compressibility (1/GPa) = 0.01842959
#
# Stress axis : x y z
#
# Youngs Moduli (GPa) = 260.57118 200.96537 27.10948
#
# Poissons Ratio (x) = -0.22078 0.18469
# Poissons Ratio (y) = -0.28626 0.21475
# Poissons Ratio (z) = 1.77521 1.59197
#
# Static dielectric constant tensor:
#      x y z
#    x 2.246160 0.000000 0.000000 
#    y 0.000000 2.258450 0.000000 
#    z 0.000000 0.000000 2.247500 
# 
# From -- ./inp_files/1848.got.cif
#   From: 2010.05.17/outbox.cif.g08.bks.cpg/sg28_1_cif.got.tgz:1848.got - 2010.06.04 01:15:21.
