data_PCOD9339172
_publ_section_title
;
Structure prediction by ZEFSAII (Michael W. Deem and Ramdas Pophale) SiO2 
 PCOD9339172
Probable space group: P C C 2
;
_chemical_formula_sum "Si O2"
_cell_formula_units_Z 20
_cell_length_a 12.434941
_cell_length_b 5.017377
_cell_length_c 15.053655
_cell_angle_alpha 90.000000
_cell_angle_beta 90.000000
_cell_angle_gamma 90.000000
_cell_volume 939.209382
_symmetry_space_group_name_H-M "P C C 2"
_symmetry_group_IT_number 27
_symmetry_cell_setting 'orthorhombic'
loop_
_space_group_symop_operation_xyz
x,y,z
-x,-y,z
-x,y,1/2+z
x,-y,1/2+z
loop_
_atom_site_type_symbol
_atom_site_label
_atom_site_fract_x
_atom_site_fract_y
_atom_site_fract_z
Si Si1 0.126919 0.449434 0.413500
Si Si2 0.259026 0.918413 0.673087
Si Si3 0.421061 0.243269 0.017882
Si Si4 0.259064 0.918545 0.362651
Si Si5 0.126913 0.550631 0.122244
O O1 0.180853 0.669362 0.352006
O O2 0.148158 0.511830 0.517875
O O3 0.000000 0.500000 0.401677
O O4 0.184303 0.164135 0.397022
O O5 0.346053 0.805984 0.603716
O O6 0.180809 0.669258 0.683780
O O7 0.307168 0.999964 0.767859
O O8 0.184280 0.164035 0.638712
O O9 0.500000 0.500000 0.017837
O O10 0.346142 0.193700 0.932011
O O11 0.500000 0.000000 0.017987
O O12 0.000000 0.500000 0.134049
#
# Coordination Sequence:
#
# PCOD9339172 Si02
#       5
#     4   4   4   4   4
#     4  11  22  41  69 102 145 189 224 269 340 420
#     4  12  25  44  70 103 138 178 234 286 343 414
#     4  12  26  48  73  94 133 180 228 296 354 398
#     4  12  25  44  70 103 138 178 234 286 343 414
#     4  11  22  41  69 102 145 189 224 269 340 420
#
# _framework density 21.294505999999998
#
# number of rings (size 3 to 8) (size 9 to 14) (size 15 to 20)
#    0.000    0.400    4.000    4.800    0.000    8.800 
#    0.000    2.000    0.000    0.000    0.000    0.000 
#    0.000    0.000    0.000    0.000    0.000    0.000 
#
# Total GULP energy -111614.318415 kJ/mol
# GULP energy per Si atom -5580.715921 kJ/mol
# Density = 2.124604 g / cm^3
# Si number density = 21.294506 Si / 1000 Ang^3
#
#
#
# Elastic Constant Matrix: (Units=GPa)
#
#
# Indices 1 2 3 4 5 6 
#
# 1 132.5178 62.7673 67.0047 0.0000 0.0000 0.0000
# 2 62.7673 161.2609 33.3421 0.0000 0.0000 0.0000
# 3 67.0047 33.3421 149.4409 0.0000 0.0000 0.0000
# 4 0.0000 0.0000 0.0000 33.8791 0.0000 0.0000
# 5 0.0000 0.0000 0.0000 0.0000 4.4791 0.0000
# 6 0.0000 0.0000 0.0000 0.0000 0.0000 34.3775
#
#
#
# Elastic Compliance Matrix: (Units=1/GPa)
#
#
# Indices 1 2 3 4 5 6 
#
# 1 0.011414 -0.003548 -0.004326 0.000000 0.000000 0.000000
# 2 -0.003548 0.007604 -0.000106 0.000000 0.000000 0.000000
# 3 -0.004326 -0.000106 0.008655 0.000000 0.000000 0.000000
# 4 0.000000 0.000000 0.000000 0.029517 0.000000 0.000000
# 5 0.000000 0.000000 0.000000 0.000000 0.223259 0.000000
# 6 0.000000 0.000000 0.000000 0.000000 0.000000 0.029089
#
#
# Mechanical properties :
#
#
# Convention : Reuss Voigt Hill
#
# Bulk Modulus (GPa) = 85.37440 85.49422 85.43431
# Shear Modulus (GPa) = 15.17903 33.22083 24.19993
#
# Velocity S-wave (km/s) = 2.67275 3.95405 3.37477
# Velocity P-wave (km/s) = 7.05011 7.81548 7.44264
#
# Compressibility (1/GPa) = 0.01171311
#
# Stress axis : x y z
#
# Youngs Moduli (GPa) = 87.61013 131.50869 115.54186
#
# Poissons Ratio (x) = 0.46663 0.49985
# Poissons Ratio (y) = 0.31086 0.01220
# Poissons Ratio (z) = 0.37901 0.01389
#
# Static dielectric constant tensor:
#      x y z
#    x 1.867780 0.000000 0.000000 
#    y 0.000000 1.821980 0.000000 
#    z 0.000000 0.000000 1.306860 
# 
# From -- ./inp_files/3528.got.cif
#   From: 2010.05.17/outbox.cif.g08.bks.cpg/sg27_2_cif.got.tgz:3528.got - 2010.06.04 01:11:05.
