data_PCOD9339294
_publ_section_title
;
Structure prediction by ZEFSAII (Michael W. Deem and Ramdas Pophale) SiO2 
 PCOD9339294
Probable space group: P M A 2
;
_chemical_formula_sum "Si O2"
_cell_formula_units_Z 32
_cell_length_a 8.684811
_cell_length_b 14.730515
_cell_length_c 15.980902
_cell_angle_alpha 90.000000
_cell_angle_beta 90.000000
_cell_angle_gamma 90.000000
_cell_volume 2044.464579
_symmetry_space_group_name_H-M "P M A 2"
_symmetry_group_IT_number 28
_symmetry_cell_setting 'orthorhombic'
loop_
_space_group_symop_operation_xyz
x,y,z
-x,-y,z
1/2-x,y,z
1/2+x,-y,z
loop_
_atom_site_type_symbol
_atom_site_label
_atom_site_fract_x
_atom_site_fract_y
_atom_site_fract_z
Si Si1 0.936054 0.209446 0.044900
Si Si2 0.934980 0.102141 0.529422
Si Si3 0.563946 0.209445 0.361761
Si Si4 0.566493 0.898718 0.203330
Si Si5 0.564913 0.403615 0.105775
Si Si6 0.564913 0.403615 0.300884
Si Si7 0.566016 0.897296 0.703331
Si Si8 0.565020 0.102141 0.877239
O O1 0.750000 0.205649 0.053222
O O2 0.983213 0.314584 0.054705
O O3 0.007332 0.153633 0.121367
O O4 0.976605 0.163169 0.957015
O O5 0.750000 0.096555 0.536116
O O6 0.976606 0.163168 0.449646
O O7 0.002839 0.141227 0.616076
O O8 0.000000 0.000000 0.517627
O O9 0.750000 0.205651 0.353441
O O10 0.492672 0.153631 0.285294
O O11 0.516784 0.314584 0.351954
O O12 0.750000 0.902100 0.203332
O O13 0.500000 0.000000 0.203329
O O14 0.500000 0.500000 0.076595
O O15 0.750000 0.408225 0.104353
O O16 0.517566 0.391028 0.203329
O O17 0.500000 0.500000 0.330064
O O18 0.750000 0.408223 0.302308
O O19 0.750000 0.898995 0.703331
O O20 0.502838 0.858773 0.790586
O O21 0.500000 0.000000 0.703331
O O22 0.750000 0.096555 0.870546
O O23 0.500000 0.000000 0.889036
#
# Coordination Sequence:
#
# PCOD9339294 Si02
#       8
#     4   4   4   4   4   4   4   4
#     4  10  20  35  51  69  96 129 162 200 240 282
#     4  10  19  31  49  70  95 126 161 196 236 281
#     4  10  20  35  51  69  96 129 162 200 240 282
#     4  12  24  34  47  66  95 132 167 198 232 280
#     4   9  17  31  50  69  94 123 157 199 242 284
#     4   9  17  31  50  69  94 123 157 199 242 284
#     4  10  18  30  48  68  95 124 155 196 239 278
#     4  10  19  31  49  70  95 126 161 196 236 281
#
# _framework density 15.652018999999999
#
# number of rings (size 3 to 8) (size 9 to 14) (size 15 to 20)
#    0.000    2.000    1.250    5.250    0.000    5.000 
#    0.000    0.000    0.000    0.000    0.000    0.875 
#    0.000    0.000    0.000    0.000    0.000    0.000 
#
# Total GULP energy -178511.720392 kJ/mol
# GULP energy per Si atom -5578.491262 kJ/mol
# Density = 1.561639 g / cm^3
# Si number density = 15.652019 Si / 1000 Ang^3
#
#
#
# Elastic Constant Matrix: (Units=GPa)
#
#
# Indices 1 2 3 4 5 6 
#
# 1 45.6411 34.9219 53.0512 0.0000 0.0000 0.0000
# 2 34.9219 129.1502 78.3322 0.0000 0.0000 0.0000
# 3 53.0512 78.3322 151.3845 0.0000 0.0000 0.0000
# 4 0.0000 0.0000 0.0000 4.9451 0.0000 0.0000
# 5 0.0000 0.0000 0.0000 0.0000 20.4466 0.0000
# 6 0.0000 0.0000 0.0000 0.0000 0.0000 22.9774
#
#
#
# Elastic Compliance Matrix: (Units=1/GPa)
#
#
# Indices 1 2 3 4 5 6 
#
# 1 0.037850 -0.003191 -0.011613 0.000000 0.000000 0.000000
# 2 -0.003191 0.011553 -0.004860 0.000000 0.000000 0.000000
# 3 -0.011613 -0.004860 0.013190 0.000000 0.000000 0.000000
# 4 0.000000 0.000000 0.000000 0.202219 0.000000 0.000000
# 5 0.000000 0.000000 0.000000 0.000000 0.048908 0.000000
# 6 0.000000 0.000000 0.000000 0.000000 0.000000 0.043521
#
#
# Mechanical properties :
#
#
# Convention : Reuss Voigt Hill
#
# Bulk Modulus (GPa) = 42.98184 73.19850 58.09017
# Shear Modulus (GPa) = 12.36628 20.33186 16.34907
#
# Velocity S-wave (km/s) = 2.81388 3.60806 3.23543
# Velocity P-wave (km/s) = 6.17071 8.01406 7.15202
#
# Compressibility (1/GPa) = 0.02326564
#
# Stress axis : x y z
#
# Youngs Moduli (GPa) = 26.41998 86.55450 75.81448
#
# Poissons Ratio (x) = 0.27620 0.88044
# Poissons Ratio (y) = 0.08431 0.36845
# Poissons Ratio (z) = 0.30682 0.42065
#
# Static dielectric constant tensor:
#      x y z
#    x 1.530430 0.000000 0.000000 
#    y 0.000000 1.510950 0.000000 
#    z 0.000000 0.000000 1.532030 
# 
# From -- ./inp_files/6441.got.cif
#   From: 2010.05.17/outbox.cif.g08.bks.cpg/sg28_4_cif.got.tgz:6441.got - 2010.06.04 01:15:21.
