data_PCOD9339477
_publ_section_title
;
Structure prediction by ZEFSAII (Michael W. Deem and Ramdas Pophale) SiO2 
 PCOD9339477
Probable space group: P M A 2
;
_chemical_formula_sum "Si O2"
_cell_formula_units_Z 32
_cell_length_a 8.769117
_cell_length_b 14.988325
_cell_length_c 12.457969
_cell_angle_alpha 90.000000
_cell_angle_beta 90.000000
_cell_angle_gamma 90.000000
_cell_volume 1637.405376
_symmetry_space_group_name_H-M "P M A 2"
_symmetry_group_IT_number 28
_symmetry_cell_setting 'orthorhombic'
loop_
_space_group_symop_operation_xyz
x,y,z
-x,-y,z
1/2-x,y,z
1/2+x,-y,z
loop_
_atom_site_type_symbol
_atom_site_label
_atom_site_fract_x
_atom_site_fract_y
_atom_site_fract_z
Si Si1 0.429877 0.725567 0.244280
Si Si2 0.932462 0.092376 0.800207
Si Si3 0.929965 0.134871 0.556766
Si Si4 0.429343 0.319387 0.613977
Si Si5 0.071626 0.585490 0.430769
Si Si6 0.568794 0.906890 0.327134
Si Si7 0.066573 0.400011 0.060227
Si Si8 0.068280 0.281914 0.856583
O O1 0.250000 0.734678 0.221518
O O2 0.446715 0.670694 0.354801
O O3 0.503197 0.822117 0.263221
O O4 0.507980 0.664513 0.154567
O O5 0.750000 0.090719 0.805355
O O6 0.977056 0.097101 0.673286
O O7 0.991631 0.184007 0.853583
O O8 0.000000 0.000000 0.844615
O O9 0.750000 0.119380 0.540413
O O10 0.966559 0.238875 0.571563
O O11 0.018830 0.102208 0.452294
O O12 0.250000 0.298273 0.599567
O O13 0.476938 0.400588 0.539425
O O14 0.459060 0.326720 0.740380
O O15 0.250000 0.572865 0.451620
O O16 0.000000 0.500000 0.372712
O O17 0.750000 0.907724 0.320763
O O18 0.500000 0.000000 0.286916
O O19 0.250000 0.406013 0.063846
O O20 0.000000 0.500000 0.066478
O O21 0.020175 0.348506 0.950701
O O22 0.250000 0.267420 0.866697
#
# Coordination Sequence:
#
# PCOD9339477 Si02
#       8
#     4   4   4   4   4   4   4   4
#     4  11  24  43  65  90 123 157 201 257 308 363
#     4  10  20  33  55  86 123 165 207 251 299 357
#     4  10  19  33  53  83 122 164 208 249 295 353
#     4  10  19  34  57  85 121 162 201 245 304 361
#     4  11  23  37  57  85 121 158 198 246 302 367
#     4  12  24  38  60  89 124 165 206 250 302 361
#     4  11  24  44  69  94 120 155 204 257 310 367
#     4   9  21  40  61  88 122 158 201 254 305 360
#
# _framework density 19.543115
#
# number of rings (size 3 to 8) (size 9 to 14) (size 15 to 20)
#    0.000    1.500    1.250    4.125    0.000    7.000 
#    0.000    1.875    0.000    3.000    0.000    0.000 
#    0.000    0.000    0.000    0.000    0.000    0.000 
#
# Total GULP energy -178734.617086 kJ/mol
# GULP energy per Si atom -5585.456784 kJ/mol
# Density = 1.949863 g / cm^3
# Si number density = 19.543115 Si / 1000 Ang^3
#
#
#
# Elastic Constant Matrix: (Units=GPa)
#
#
# Indices 1 2 3 4 5 6 
#
# 1 70.1773 59.8375 45.7159 0.0000 0.0000 0.0000
# 2 59.8375 159.4647 56.9285 0.0000 0.0000 0.0000
# 3 45.7159 56.9285 85.5124 0.0000 0.0000 0.0000
# 4 0.0000 0.0000 0.0000 11.4053 0.0000 0.0000
# 5 0.0000 0.0000 0.0000 0.0000 58.0566 0.0000
# 6 0.0000 0.0000 0.0000 0.0000 0.0000 32.7427
#
#
#
# Elastic Compliance Matrix: (Units=1/GPa)
#
#
# Indices 1 2 3 4 5 6 
#
# 1 0.025890 -0.006262 -0.009672 0.000000 0.000000 0.000000
# 2 -0.006262 0.009741 -0.003137 0.000000 0.000000 0.000000
# 3 -0.009672 -0.003137 0.018953 0.000000 0.000000 0.000000
# 4 0.000000 0.000000 0.000000 0.087679 0.000000 0.000000
# 5 0.000000 0.000000 0.000000 0.000000 0.017225 0.000000
# 6 0.000000 0.000000 0.000000 0.000000 0.000000 0.030541
#
#
# Mechanical properties :
#
#
# Convention : Reuss Voigt Hill
#
# Bulk Modulus (GPa) = 60.82106 71.12424 65.97265
# Shear Modulus (GPa) = 21.39947 30.61907 26.00927
#
# Velocity S-wave (km/s) = 3.31265 3.96251 3.65206
# Velocity P-wave (km/s) = 6.76909 7.57679 7.18430
#
# Compressibility (1/GPa) = 0.01644167
#
# Stress axis : x y z
#
# Youngs Moduli (GPa) = 38.62545 102.66324 52.76091
#
# Poissons Ratio (x) = 0.64287 0.51031
# Poissons Ratio (y) = 0.24187 0.16551
# Poissons Ratio (z) = 0.37359 0.32205
#
# Static dielectric constant tensor:
#      x y z
#    x 1.153920 0.000000 0.000000 
#    y 0.000000 1.772100 0.000000 
#    z 0.000000 0.000000 1.691070 
# 
# From -- ./inp_files/5045.got.cif
#   From: 2010.05.17/outbox.cif.g08.bks.cpg/sg28_3_cif.got.tgz:5045.got - 2010.06.04 01:15:21.
