data_PCOD9339876
_publ_section_title
;
Structure prediction by ZEFSAII (Michael W. Deem and Ramdas Pophale) SiO2 
 PCOD9339876
Probable space group: P M A 2
;
_chemical_formula_sum "Si O2"
_cell_formula_units_Z 14
_cell_length_a 14.442483
_cell_length_b 5.468177
_cell_length_c 7.915902
_cell_angle_alpha 90.000000
_cell_angle_beta 90.000000
_cell_angle_gamma 90.000000
_cell_volume 625.150867
_symmetry_space_group_name_H-M "P M A 2"
_symmetry_group_IT_number 28
_symmetry_cell_setting 'orthorhombic'
loop_
_space_group_symop_operation_xyz
x,y,z
-x,-y,z
1/2-x,y,z
1/2+x,-y,z
loop_
_atom_site_type_symbol
_atom_site_label
_atom_site_fract_x
_atom_site_fract_y
_atom_site_fract_z
Si Si1 0.750000 0.116282 0.039210
Si Si2 0.053612 0.756659 0.510104
Si Si3 0.750000 0.076879 0.408374
Si Si4 0.750000 0.744436 0.732252
Si Si5 0.094504 0.609045 0.869739
O O1 0.750000 0.982857 0.216919
O O2 0.841939 0.276890 0.013689
O O3 0.750000 0.950550 0.874311
O O4 0.157272 0.765785 0.436991
O O5 0.065694 0.781693 0.713773
O O6 0.000000 0.500000 0.479246
O O7 0.000000 0.000000 0.449220
O O8 0.750000 0.865198 0.549059
O O9 0.840491 0.585156 0.771954
O O10 0.000000 0.500000 0.939806
#
# Coordination Sequence:
#
# PCOD9339876 Si02
#       5
#     2   4   2   2   4
#     4  11  25  41  66 106 130 187 230 282 362 413
#     4  11  24  44  74 106 133 191 237 281 356 416
#     4  12  23  46  70  99 148 178 232 302 342 422
#     4  11  22  47  66  99 138 187 230 282 366 405
#     4  10  22  43  71  95 139 185 231 291 343 424
#
# _framework density 22.394596
#
# number of rings (size 3 to 8) (size 9 to 14) (size 15 to 20)
#    0.000    1.143    2.857    4.286    0.000    2.286 
#   25.714    0.000    0.000    0.000    0.000    0.000 
#    0.000    0.000    0.000    0.000    0.000    0.000 
#
# Total GULP energy -78267.827115 kJ/mol
# GULP energy per Si atom -5590.559080 kJ/mol
# Density = 2.234362 g / cm^3
# Si number density = 22.394596 Si / 1000 Ang^3
#
#
#
# Elastic Constant Matrix: (Units=GPa)
#
#
# Indices 1 2 3 4 5 6 
#
# 1 196.7908 74.4573 22.6905 0.0000 0.0000 0.0000
# 2 74.4573 100.4491 36.5972 0.0000 0.0000 0.0000
# 3 22.6905 36.5972 100.9916 0.0000 0.0000 0.0000
# 4 0.0000 0.0000 0.0000 -1.2447 0.0000 0.0000
# 5 0.0000 0.0000 0.0000 0.0000 -0.5613 0.0000
# 6 0.0000 0.0000 0.0000 0.0000 0.0000 17.0159
#
#
#
# Elastic Compliance Matrix: (Units=1/GPa)
#
#
# Indices 1 2 3 4 5 6 
#
# 1 0.007073 -0.005374 0.000358 0.000000 0.000000 0.000000
# 2 -0.005374 0.015552 -0.004428 0.000000 0.000000 0.000000
# 3 0.000358 -0.004428 0.011426 0.000000 0.000000 0.000000
# 4 0.000000 0.000000 0.000000 -0.803434 0.000000 0.000000
# 5 0.000000 0.000000 0.000000 0.000000 -1.781539 0.000000
# 6 0.000000 0.000000 0.000000 0.000000 0.000000 0.058769
#
#
# Mechanical properties :
#
#
# Convention : Reuss Voigt Hill
#
# Bulk Modulus (GPa) = 65.94739 73.96905 69.95822
# Shear Modulus (GPa) = -2.02576 20.67442 9.32433
#
# Velocity S-wave (km/s) = -0.95212 3.04170 2.04272
# Velocity P-wave (km/s) = 5.32007 6.74073 6.07209
#
# Compressibility (1/GPa) = 0.01516360
#
# Stress axis : x y z
#
# Youngs Moduli (GPa) = 141.37516 64.30120 87.51885
#
# Poissons Ratio (x) = 0.34553 -0.03133
# Poissons Ratio (y) = 0.75969 0.38756
# Poissons Ratio (z) = -0.05062 0.28475
#
# Static dielectric constant tensor:
#      x y z
#    x 1.900160 0.000000 0.000000 
#    y 0.000000 1.901680 0.000000 
#    z 0.000000 0.000000 1.812720 
# 
# From -- ./inp_files/3187.got.cif
#   From: 2010.05.17/outbox.cif.g08.bks.cpg/sg28_2_cif.got.tgz:3187.got - 2010.06.04 01:15:21.
