data_PCOD9339100
_publ_section_title
;
Structure prediction by ZEFSAII (Michael W. Deem and Ramdas Pophale) SiO2 
 PCOD9339100
Probable space group: P C C 2
;
_chemical_formula_sum "Si O2"
_cell_formula_units_Z 28
_cell_length_a 17.504315
_cell_length_b 7.933876
_cell_length_c 8.611571
_cell_angle_alpha 90.000000
_cell_angle_beta 90.000000
_cell_angle_gamma 90.000000
_cell_volume 1195.949703
_symmetry_space_group_name_H-M "P C C 2"
_symmetry_group_IT_number 27
_symmetry_cell_setting 'orthorhombic'
loop_
_space_group_symop_operation_xyz
x,y,z
-x,-y,z
-x,y,1/2+z
x,-y,1/2+z
loop_
_atom_site_type_symbol
_atom_site_label
_atom_site_fract_x
_atom_site_fract_y
_atom_site_fract_z
Si Si1 0.887211 0.098081 0.613850
Si Si2 0.500000 0.500000 0.317525
Si Si3 0.789045 0.394438 0.486339
Si Si4 0.336012 0.902293 0.941974
Si Si5 0.651169 0.767665 0.090538
Si Si6 0.799535 0.736243 0.630815
Si Si7 0.000000 0.000000 0.359884
Si Si8 0.531224 0.733456 0.565627
O O1 0.827856 0.247685 0.591103
O O2 0.849644 0.909958 0.626692
O O3 0.942358 0.102824 0.465924
O O4 0.944920 0.114823 0.756603
O O5 0.552594 0.611442 0.424877
O O6 0.450879 0.631160 0.219599
O O7 0.701855 0.394676 0.551790
O O8 0.824829 0.577130 0.524176
O O9 0.793921 0.337729 0.306081
O O10 0.335154 0.841749 0.764196
O O11 0.279226 0.797541 0.050256
O O12 0.419486 0.892746 0.025194
O O13 0.318346 0.098291 0.963028
O O14 0.560273 0.744166 0.071815
#
# Coordination Sequence:
#
# PCOD9339100 Si02
#       8
#     4   2   4   4   4   4   2   4
#     4  11  24  52  76 115 148 192 240 291 362 430
#     4  10  24  42  62  90 128 182 222 332 356 436
#     4  12  28  46  76 109 155 198 246 300 367 437
#     4  12  27  44  69 100 139 193 246 311 367 432
#     4  12  27  44  69 100 139 193 246 311 367 432
#     4  12  28  46  76 109 155 198 246 300 367 437
#     4  10  24  46  90 106 148 194 232 294 358 438
#     4  11  25  42  66  92 138 178 252 303 373 420
#
# _framework density 23.412354000000001
#
# number of rings (size 3 to 8) (size 9 to 14) (size 15 to 20)
#    0.000    0.571    4.286    2.143   12.000    1.143 
#    0.000    4.286    0.000    0.000    0.000    0.000 
#    0.000    0.000    0.000    0.000    0.000    0.000 
#
# Total GULP energy -156419.240260 kJ/mol
# GULP energy per Si atom -5586.401438 kJ/mol
# Density = 2.335907 g / cm^3
# Si number density = 23.412354 Si / 1000 Ang^3
#
#
#
# Elastic Constant Matrix: (Units=GPa)
#
#
# Indices 1 2 3 4 5 6 
#
# 1 103.4642 25.4549 27.8113 0.0000 0.0000 0.0000
# 2 25.4549 118.3715 20.7743 0.0000 0.0000 0.0000
# 3 27.8113 20.7743 126.3408 0.0000 0.0000 0.0000
# 4 0.0000 0.0000 0.0000 23.1047 0.0000 0.0000
# 5 0.0000 0.0000 0.0000 0.0000 73.6788 0.0000
# 6 0.0000 0.0000 0.0000 0.0000 0.0000 16.7841
#
#
#
# Elastic Compliance Matrix: (Units=1/GPa)
#
#
# Indices 1 2 3 4 5 6 
#
# 1 0.010690 -0.001942 -0.002034 0.000000 0.000000 0.000000
# 2 -0.001942 0.009052 -0.001061 0.000000 0.000000 0.000000
# 3 -0.002034 -0.001061 0.008537 0.000000 0.000000 0.000000
# 4 0.000000 0.000000 0.000000 0.043281 0.000000 0.000000
# 5 0.000000 0.000000 0.000000 0.000000 0.013572 0.000000
# 6 0.000000 0.000000 0.000000 0.000000 0.000000 0.059580
#
#
# Mechanical properties :
#
#
# Convention : Reuss Voigt Hill
#
# Bulk Modulus (GPa) = 54.92834 55.13971 55.03403
# Shear Modulus (GPa) = 31.08411 40.98927 36.03669
#
# Velocity S-wave (km/s) = 3.64769 4.18874 3.92754
# Velocity P-wave (km/s) = 6.42285 6.85542 6.64266
#
# Compressibility (1/GPa) = 0.01820554
#
# Stress axis : x y z
#
# Youngs Moduli (GPa) = 93.54894 110.47598 117.13372
#
# Poissons Ratio (x) = 0.21452 0.23823
# Poissons Ratio (y) = 0.18165 0.12427
# Poissons Ratio (z) = 0.19026 0.11721
#
# Static dielectric constant tensor:
#      x y z
#    x 1.906990 0.000000 0.000000 
#    y 0.000000 2.156120 0.000000 
#    z 0.000000 0.000000 1.929810 
# 
# From -- ./inp_files/1708.got.cif
#   From: 2010.05.17/outbox.cif.g08.bks.cpg/sg27_1_cif.got.tgz:1708.got - 2010.06.04 01:11:05.
