data_PCOD9339170
_publ_section_title
;
Structure prediction by ZEFSAII (Michael W. Deem and Ramdas Pophale) SiO2 
 PCOD9339170
Probable space group: P C C 2
;
_chemical_formula_sum "Si O2"
_cell_formula_units_Z 16
_cell_length_a 8.115717
_cell_length_b 9.305299
_cell_length_c 8.356211
_cell_angle_alpha 90.000000
_cell_angle_beta 90.000000
_cell_angle_gamma 90.000000
_cell_volume 631.054147
_symmetry_space_group_name_H-M "P C C 2"
_symmetry_group_IT_number 27
_symmetry_cell_setting 'orthorhombic'
loop_
_space_group_symop_operation_xyz
x,y,z
-x,-y,z
-x,y,1/2+z
x,-y,1/2+z
loop_
_atom_site_type_symbol
_atom_site_label
_atom_site_fract_x
_atom_site_fract_y
_atom_site_fract_z
Si Si1 0.629376 0.675910 0.229520
Si Si2 0.271036 0.390257 0.594851
Si Si3 0.673899 0.056973 0.513250
Si Si4 0.878052 0.137772 0.215444
O O1 0.727293 0.561218 0.120192
O O2 0.316272 0.646410 0.911131
O O3 0.660625 0.834866 0.162404
O O4 0.889057 0.695284 0.662880
O O5 0.433591 0.347703 0.701022
O O6 0.215491 0.132911 0.882420
O O7 0.760925 0.085096 0.073691
O O8 0.500000 0.000000 0.451352
O O9 0.000000 0.000000 0.223355
#
# Coordination Sequence:
#
# PCOD9339170 Si02
#       4
#     4   4   4   4
#     4  11  22  40  72 109 143 185 251 309 366 437
#     4  11  22  41  69 108 147 189 240 311 376 442
#     4  12  24  42  70 105 140 196 251 315 365 443
#     4  12  26  44  67 103 152 197 244 308 385 450
#
# _framework density 25.354402
#
# number of rings (size 3 to 8) (size 9 to 14) (size 15 to 20)
#    0.000    0.500    2.500    9.000    0.000    0.000 
#    0.000    2.500    0.000    6.000    0.000    0.000 
#    0.000    0.000    0.000    0.000    0.000    0.000 
#
# Total GULP energy -89424.353343 kJ/mol
# GULP energy per Si atom -5589.022084 kJ/mol
# Density = 2.529669 g / cm^3
# Si number density = 25.354402 Si / 1000 Ang^3
#
#
#
# Elastic Constant Matrix: (Units=GPa)
#
#
# Indices 1 2 3 4 5 6 
#
# 1 73.9225 27.8741 22.0253 0.0000 0.0000 0.0000
# 2 27.8741 138.5170 30.4504 0.0000 0.0000 0.0000
# 3 22.0253 30.4504 151.8915 0.0000 0.0000 0.0000
# 4 0.0000 0.0000 0.0000 33.6899 0.0000 0.0000
# 5 0.0000 0.0000 0.0000 0.0000 81.4540 0.0000
# 6 0.0000 0.0000 0.0000 0.0000 0.0000 45.8443
#
#
#
# Elastic Compliance Matrix: (Units=1/GPa)
#
#
# Indices 1 2 3 4 5 6 
#
# 1 0.015021 -0.002661 -0.001645 0.000000 0.000000 0.000000
# 2 -0.002661 0.008024 -0.001223 0.000000 0.000000 0.000000
# 3 -0.001645 -0.001223 0.007067 0.000000 0.000000 0.000000
# 4 0.000000 0.000000 0.000000 0.029682 0.000000 0.000000
# 5 0.000000 0.000000 0.000000 0.000000 0.012277 0.000000
# 6 0.000000 0.000000 0.000000 0.000000 0.000000 0.021813
#
#
# Mechanical properties :
#
#
# Convention : Reuss Voigt Hill
#
# Bulk Modulus (GPa) = 52.47957 58.33673 55.40815
# Shear Modulus (GPa) = 44.92644 51.12972 48.02808
#
# Velocity S-wave (km/s) = 4.21401 4.49553 4.35704
# Velocity P-wave (km/s) = 6.66487 7.07141 6.87115
#
# Compressibility (1/GPa) = 0.01905503
#
# Stress axis : x y z
#
# Youngs Moduli (GPa) = 66.57268 124.63202 141.49791
#
# Poissons Ratio (x) = 0.33167 0.23272
# Poissons Ratio (y) = 0.17716 0.17300
# Poissons Ratio (z) = 0.10949 0.15238
#
# Static dielectric constant tensor:
#      x y z
#    x 2.060880 0.000000 0.000000 
#    y 0.000000 2.094700 0.000000 
#    z 0.000000 0.000000 1.964000 
# 
# From -- ./inp_files/2195.got.cif
#   From: 2010.05.17/outbox.cif.g08.bks.cpg/sg27_2_cif.got.tgz:2195.got - 2010.06.04 01:11:05.
