data_PCOD9339026
_publ_section_title
;
Structure prediction by ZEFSAII (Michael W. Deem and Ramdas Pophale) SiO2 
 PCOD9339026
Probable space group: P C C 2
;
_chemical_formula_sum "Si O2"
_cell_formula_units_Z 24
_cell_length_a 6.535890
_cell_length_b 15.365862
_cell_length_c 9.564634
_cell_angle_alpha 90.000000
_cell_angle_beta 90.000000
_cell_angle_gamma 90.000000
_cell_volume 960.572212
_symmetry_space_group_name_H-M "P C C 2"
_symmetry_group_IT_number 27
_symmetry_cell_setting 'orthorhombic'
loop_
_space_group_symop_operation_xyz
x,y,z
-x,-y,z
-x,y,1/2+z
x,-y,1/2+z
loop_
_atom_site_type_symbol
_atom_site_label
_atom_site_fract_x
_atom_site_fract_y
_atom_site_fract_z
Si Si1 0.606312 0.416250 0.580450
Si Si2 0.791306 0.317524 0.992387
Si Si3 0.000000 0.500000 0.946195
Si Si4 0.632952 0.085799 0.213227
Si Si5 0.314185 0.140336 0.994581
Si Si6 0.000000 0.000000 0.575877
Si Si7 0.114801 0.724911 0.706590
O O1 0.500000 0.500000 0.652007
O O2 0.440261 0.350171 0.514660
O O3 0.747366 0.361031 0.683183
O O4 0.764875 0.463396 0.477129
O O5 0.919469 0.400543 0.938101
O O6 0.845407 0.249405 0.867901
O O7 0.889325 0.293972 0.143735
O O8 0.521332 0.117805 0.074769
O O9 0.633708 0.157090 0.334657
O O10 0.500000 0.000000 0.258066
O O11 0.861523 0.060907 0.172642
O O12 0.204901 0.208593 0.093596
O O13 0.163295 0.056835 0.991671
#
# Coordination Sequence:
#
# PCOD9339026 Si02
#       7
#     4   4   2   4   4   2   4
#     4   9  20  40  67  96 132 174 221 281 343 407
#     4  10  23  42  63  96 133 174 225 277 335 403
#     4   8  18  40  68  94 126 170 224 276 340 410
#     4  10  22  43  68  96 127 168 221 274 339 410
#     4  11  25  42  67  98 134 174 222 282 335 414
#     4  10  22  42  72  96 126 170 220 272 352 412
#     4  11  26  41  64  97 136 177 226 277 341 400
#
# _framework density 24.985105999999998
#
# number of rings (size 3 to 8) (size 9 to 14) (size 15 to 20)
#    0.000    2.000    0.000    2.000    4.667   11.333 
#    0.000    0.000    0.000    0.000    0.000    0.000 
#    0.000    0.000    0.000    0.000    0.000    0.000 
#
# Total GULP energy -133663.953599 kJ/mol
# GULP energy per Si atom -5569.331400 kJ/mol
# Density = 2.492824 g / cm^3
# Si number density = 24.985106 Si / 1000 Ang^3
#
#
#
# Elastic Constant Matrix: (Units=GPa)
#
#
# Indices 1 2 3 4 5 6 
#
# 1 153.8504 8.6526 56.2186 0.0000 0.0000 0.0000
# 2 8.6526 38.7934 14.0522 0.0000 0.0000 0.0000
# 3 56.2186 14.0522 115.5409 0.0000 0.0000 0.0000
# 4 0.0000 0.0000 0.0000 -24.9258 0.0000 0.0000
# 5 0.0000 0.0000 0.0000 0.0000 10.3931 0.0000
# 6 0.0000 0.0000 0.0000 0.0000 0.0000 40.7780
#
#
#
# Elastic Compliance Matrix: (Units=1/GPa)
#
#
# Indices 1 2 3 4 5 6 
#
# 1 0.007911 -0.000387 -0.003802 0.000000 0.000000 0.000000
# 2 -0.000387 0.026985 -0.003093 0.000000 0.000000 0.000000
# 3 -0.003802 -0.003093 0.010881 0.000000 0.000000 0.000000
# 4 0.000000 0.000000 0.000000 -0.040119 0.000000 0.000000
# 5 0.000000 0.000000 0.000000 0.000000 0.096218 0.000000
# 6 0.000000 0.000000 0.000000 0.000000 0.000000 0.024523
#
#
# Mechanical properties :
#
#
# Convention : Reuss Voigt Hill
#
# Bulk Modulus (GPa) = 32.04000 51.78127 41.91064
# Shear Modulus (GPa) = 33.03213 20.53313 26.78263
#
# Velocity S-wave (km/s) = 3.63998 2.86984 3.27761
# Velocity P-wave (km/s) = 5.52425 5.63482 5.57981
#
# Compressibility (1/GPa) = 0.03121099
#
# Stress axis : x y z
#
# Youngs Moduli (GPa) = 126.40725 37.05827 91.90181
#
# Poissons Ratio (x) = 0.01435 0.34942
# Poissons Ratio (y) = 0.04895 0.28430
# Poissons Ratio (z) = 0.48062 0.11464
#
# Static dielectric constant tensor:
#      x y z
#    x 1.953590 0.000000 0.000000 
#    y 0.000000 2.216600 0.000000 
#    z 0.000000 0.000000 2.007550 
# 
# From -- ./inp_files/2062.got.cif
#   From: 2010.05.17/outbox.cif.g08.bks.cpg/sg27_2_cif.got.tgz:2062.got - 2010.06.04 01:11:05.
