data_PCOD9339646
_publ_section_title
;
Structure prediction by ZEFSAII (Michael W. Deem and Ramdas Pophale) SiO2 
 PCOD9339646
Probable space group: P M A 2
;
_chemical_formula_sum "Si O2"
_cell_formula_units_Z 32
_cell_length_a 8.100719
_cell_length_b 14.413070
_cell_length_c 13.503387
_cell_angle_alpha 90.000000
_cell_angle_beta 90.000000
_cell_angle_gamma 90.000000
_cell_volume 1576.604558
_symmetry_space_group_name_H-M "P M A 2"
_symmetry_group_IT_number 28
_symmetry_cell_setting 'orthorhombic'
loop_
_space_group_symop_operation_xyz
x,y,z
-x,-y,z
1/2-x,y,z
1/2+x,-y,z
loop_
_atom_site_type_symbol
_atom_site_label
_atom_site_fract_x
_atom_site_fract_y
_atom_site_fract_z
Si Si1 0.947484 0.393420 0.477300
Si Si2 0.949625 0.393587 0.910168
Si Si3 0.051838 0.107822 0.808535
Si Si4 0.948736 0.392027 0.693572
Si Si5 0.947632 0.213811 0.005383
Si Si6 0.050481 0.107709 0.590162
Si Si7 0.553991 0.106296 0.196441
Si Si8 0.446079 0.210713 0.393654
O O1 0.750000 0.391598 0.478831
O O2 0.011190 0.359656 0.586387
O O3 0.000000 0.500000 0.461973
O O4 0.009793 0.319062 0.398870
O O5 0.750000 0.392333 0.908204
O O6 0.008692 0.358982 0.800906
O O7 0.000000 0.500000 0.925576
O O8 0.009357 0.318976 0.989890
O O9 0.250000 0.113954 0.811865
O O10 0.993873 0.141858 0.699231
O O11 0.000000 0.000000 0.814572
O O12 0.980936 0.160278 0.903068
O O13 0.750000 0.383729 0.692807
O O14 0.000000 0.500000 0.694151
O O15 0.750000 0.219389 0.017473
O O16 0.016307 0.158838 0.099656
O O17 0.250000 0.112394 0.590528
O O18 0.986920 0.162517 0.494352
O O19 0.000000 0.000000 0.581540
O O20 0.750000 0.105721 0.187291
O O21 0.509734 0.159890 0.296484
O O22 0.500000 0.000000 0.200544
O O23 0.250000 0.200715 0.394926
#
# Coordination Sequence:
#
# PCOD9339646 Si02
#       8
#     4   4   4   4   4   4   4   4
#     4  10  20  35  56  85 119 158 198 242 291 345
#     4   9  18  34  54  81 116 153 193 235 282 336
#     4  10  20  35  55  82 115 149 185 230 287 352
#     4   8  15  28  48  75 109 149 189 227 274 329
#     4  10  22  38  59  85 116 152 194 241 290 347
#     4   9  20  36  54  81 115 148 184 231 289 351
#     4  11  24  43  64  87 114 149 194 247 299 351
#     4  11  23  39  60  86 116 152 197 245 294 351
#
# _framework density 20.296783999999999
#
# number of rings (size 3 to 8) (size 9 to 14) (size 15 to 20)
#    0.000    2.250    0.000    2.250    1.750    5.500 
#    0.000    0.625    0.000    1.500    0.000    0.000 
#    0.000    0.000    0.000    0.000    0.000    0.000 
#
# Total GULP energy -178573.236030 kJ/mol
# GULP energy per Si atom -5580.413626 kJ/mol
# Density = 2.025059 g / cm^3
# Si number density = 20.296784 Si / 1000 Ang^3
#
#
#
# Elastic Constant Matrix: (Units=GPa)
#
#
# Indices 1 2 3 4 5 6 
#
# 1 20.5008 2.7346 10.7876 0.0000 0.0000 0.0000
# 2 2.7346 130.6909 97.1571 0.0000 0.0000 0.0000
# 3 10.7876 97.1571 151.8784 0.0000 0.0000 0.0000
# 4 0.0000 0.0000 0.0000 34.4958 0.0000 0.0000
# 5 0.0000 0.0000 0.0000 0.0000 21.3149 0.0000
# 6 0.0000 0.0000 0.0000 0.0000 0.0000 23.2453
#
#
#
# Elastic Compliance Matrix: (Units=1/GPa)
#
#
# Indices 1 2 3 4 5 6 
#
# 1 0.051331 0.003120 -0.005642 0.000000 0.000000 0.000000
# 2 0.003120 0.014780 -0.009676 0.000000 0.000000 0.000000
# 3 -0.005642 -0.009676 0.013175 0.000000 0.000000 0.000000
# 4 0.000000 0.000000 0.000000 0.028989 0.000000 0.000000
# 5 0.000000 0.000000 0.000000 0.000000 0.046915 0.000000
# 6 0.000000 0.000000 0.000000 0.000000 0.000000 0.043020
#
#
# Mechanical properties :
#
#
# Convention : Reuss Voigt Hill
#
# Bulk Modulus (GPa) = 18.21831 58.26987 38.24409
# Shear Modulus (GPa) = 20.75526 28.63725 24.69625
#
# Velocity S-wave (km/s) = 3.20126 3.76030 3.49199
# Velocity P-wave (km/s) = 4.76021 6.90104 5.92807
#
# Compressibility (1/GPa) = 0.05488984
#
# Stress axis : x y z
#
# Youngs Moduli (GPa) = 19.48133 67.65970 75.90173
#
# Poissons Ratio (x) = -0.21111 0.42824
# Poissons Ratio (y) = -0.06079 0.73445
# Poissons Ratio (z) = 0.10991 0.65470
#
# Static dielectric constant tensor:
#      x y z
#    x 1.714590 0.000000 0.000000 
#    y 0.000000 1.719800 0.000000 
#    z 0.000000 0.000000 1.756680 
# 
# From -- ./inp_files/5096.got.cif
#   From: 2010.05.17/outbox.cif.g08.bks.cpg/sg28_3_cif.got.tgz:5096.got - 2010.06.04 01:15:21.
