data_PCOD9339275
_publ_section_title
;
Structure prediction by ZEFSAII (Michael W. Deem and Ramdas Pophale) SiO2 
 PCOD9339275
Probable space group: P M A 2
;
_chemical_formula_sum "Si O2"
_cell_formula_units_Z 24
_cell_length_a 8.484735
_cell_length_b 13.800788
_cell_length_c 11.891111
_cell_angle_alpha 90.000000
_cell_angle_beta 90.000000
_cell_angle_gamma 90.000000
_cell_volume 1392.401878
_symmetry_space_group_name_H-M "P M A 2"
_symmetry_group_IT_number 28
_symmetry_cell_setting 'orthorhombic'
loop_
_space_group_symop_operation_xyz
x,y,z
-x,-y,z
1/2-x,y,z
1/2+x,-y,z
loop_
_atom_site_type_symbol
_atom_site_label
_atom_site_fract_x
_atom_site_fract_y
_atom_site_fract_z
Si Si1 0.065873 0.761941 0.728930
Si Si2 0.940205 0.893878 0.278685
Si Si3 0.571495 0.743138 0.098860
Si Si4 0.438327 0.608690 0.911056
Si Si5 0.572449 0.900191 0.902559
Si Si6 0.559355 0.105676 0.533729
O O1 0.250000 0.740991 0.711641
O O2 0.999144 0.673335 0.804602
O O3 0.003252 0.804255 0.611151
O O4 0.041246 0.853140 0.810931
O O5 0.750000 0.895162 0.273028
O O6 0.996327 0.800919 0.206098
O O7 0.996961 0.884200 0.406967
O O8 0.000000 0.000000 0.238577
O O9 0.750000 0.710396 0.125336
O O10 0.485629 0.658581 0.029618
O O11 0.580148 0.828016 0.006513
O O12 0.500000 0.500000 0.904716
O O13 0.250000 0.609730 0.904537
O O14 0.750000 0.911146 0.856978
O O15 0.500000 0.000000 0.940539
O O16 0.750000 0.103838 0.533905
O O17 0.500000 0.000000 0.575517
#
# Coordination Sequence:
#
# PCOD9339275 Si02
#       6
#     4   4   4   4   4   4
#     4   9  19  33  48  68  94 125 160 198 239 286
#     4  10  19  31  48  71 101 135 169 201 235 278
#     4   9  19  33  48  69  96 126 161 199 238 285
#     4  10  20  35  55  76  97 122 155 199 251 300
#     4  10  18  27  42  65  94 125 155 191 235 284
#     4  10  19  31  47  69  99 133 168 200 234 279
#
# _framework density 17.236402999999999
#
# number of rings (size 3 to 8) (size 9 to 14) (size 15 to 20)
#    0.000    2.333    0.000    4.000    0.000    5.333 
#    0.000    0.000    0.000    1.000    0.000    4.667 
#    0.000    0.000    0.000    0.000    0.000    0.000 
#
# Total GULP energy -133608.059084 kJ/mol
# GULP energy per Si atom -5567.002462 kJ/mol
# Density = 1.719717 g / cm^3
# Si number density = 17.236403 Si / 1000 Ang^3
#
#
#
# Elastic Constant Matrix: (Units=GPa)
#
#
# Indices 1 2 3 4 5 6 
#
# 1 24.3411 32.2904 9.0893 0.0000 0.0000 0.0000
# 2 32.2904 108.0505 53.2633 0.0000 0.0000 0.0000
# 3 9.0893 53.2633 83.1810 0.0000 0.0000 0.0000
# 4 0.0000 0.0000 0.0000 22.8345 0.0000 0.0000
# 5 0.0000 0.0000 0.0000 0.0000 -0.7713 0.0000
# 6 0.0000 0.0000 0.0000 0.0000 0.0000 20.9735
#
#
#
# Elastic Compliance Matrix: (Units=1/GPa)
#
#
# Indices 1 2 3 4 5 6 
#
# 1 0.072086 -0.025805 0.008647 0.000000 0.000000 0.000000
# 2 -0.025805 0.022761 -0.011755 0.000000 0.000000 0.000000
# 3 0.008647 -0.011755 0.018604 0.000000 0.000000 0.000000
# 4 0.000000 0.000000 0.000000 0.043793 0.000000 0.000000
# 5 0.000000 0.000000 0.000000 0.000000 -1.296474 0.000000
# 6 0.000000 0.000000 0.000000 0.000000 0.000000 0.047679
#
#
# Mechanical properties :
#
#
# Convention : Reuss Voigt Hill
#
# Bulk Modulus (GPa) = 17.97747 44.98429 31.48088
# Shear Modulus (GPa) = -4.92523 16.66930 5.87204
#
# Velocity S-wave (km/s) = -1.69224 3.11319 1.84774
# Velocity P-wave (km/s) = 2.57573 6.25122 4.78080
#
# Compressibility (1/GPa) = 0.05562519
#
# Stress axis : x y z
#
# Youngs Moduli (GPa) = 13.87228 43.93444 53.75141
#
# Poissons Ratio (x) = 1.13373 -0.46477
# Poissons Ratio (y) = 0.35797 0.63184
# Poissons Ratio (z) = -0.11995 0.51645
#
# Static dielectric constant tensor:
#      x y z
#    x 1.619030 0.000000 0.000000 
#    y 0.000000 1.592750 0.000000 
#    z 0.000000 0.000000 1.617980 
# 
# From -- ./inp_files/4680.got.cif
#   From: 2010.05.17/outbox.cif.g08.bks.cpg/sg28_3_cif.got.tgz:4680.got - 2010.06.04 01:15:21.
