data_PCOD9339907
_publ_section_title
;
Structure prediction by ZEFSAII (Michael W. Deem and Ramdas Pophale) SiO2 
 PCOD9339907
Probable space group: P M A 2
;
_chemical_formula_sum "Si O2"
_cell_formula_units_Z 18
_cell_length_a 25.184288
_cell_length_b 5.785302
_cell_length_c 5.116202
_cell_angle_alpha 90.000000
_cell_angle_beta 90.000000
_cell_angle_gamma 90.000000
_cell_volume 745.424040
_symmetry_space_group_name_H-M "P M A 2"
_symmetry_group_IT_number 28
_symmetry_cell_setting 'orthorhombic'
loop_
_space_group_symop_operation_xyz
x,y,z
-x,-y,z
1/2-x,y,z
1/2+x,-y,z
loop_
_atom_site_type_symbol
_atom_site_label
_atom_site_fract_x
_atom_site_fract_y
_atom_site_fract_z
Si Si1 0.190261 0.824182 0.589060
Si Si2 0.049861 0.117472 0.819131
Si Si3 0.650109 0.924754 0.076857
Si Si4 0.500000 0.500000 0.193646
Si Si5 0.108136 0.451823 0.433704
O O1 0.250000 0.731427 0.595830
O O2 0.146993 0.619443 0.590417
O O3 0.178061 0.948462 0.315631
O O4 0.183411 0.010398 0.820880
O O5 0.087804 0.241673 0.613119
O O6 0.091314 0.979050 0.000178
O O7 0.021206 0.297131 0.010547
O O8 0.000000 0.000000 0.682382
O O9 0.637915 0.665040 0.183965
O O10 0.448015 0.567918 0.358874
#
# Coordination Sequence:
#
# PCOD9339907 Si02
#       5
#     4   4   4   2   4
#     4  12  28  49  75 104 144 197 252 312 373 441
#     4  11  24  43  72 108 150 190 236 301 375 453
#     4  11  26  49  73 106 147 189 247 304 373 448
#     4  10  24  40  72 110 148 194 238 302 378 460
#     4  11  26  46  75 112 150 196 249 312 379 455
#
# _framework density 24.147331000000001
#
# number of rings (size 3 to 8) (size 9 to 14) (size 15 to 20)
#    0.000    0.889    2.222    2.667   12.444    5.333 
#    0.000    0.000    0.000    0.000    0.000    0.000 
#    0.000    0.000    0.000    0.000    0.000    0.000 
#
# Total GULP energy -100612.977823 kJ/mol
# GULP energy per Si atom -5589.609879 kJ/mol
# Density = 2.409237 g / cm^3
# Si number density = 24.147331 Si / 1000 Ang^3
#
#
#
# Elastic Constant Matrix: (Units=GPa)
#
#
# Indices 1 2 3 4 5 6 
#
# 1 165.4963 47.6643 45.1672 0.0000 0.0000 0.0000
# 2 47.6643 39.8479 27.2947 0.0000 0.0000 0.0000
# 3 45.1672 27.2947 139.2882 0.0000 0.0000 0.0000
# 4 0.0000 0.0000 0.0000 11.2117 0.0000 0.0000
# 5 0.0000 0.0000 0.0000 0.0000 -16.5089 0.0000
# 6 0.0000 0.0000 0.0000 0.0000 0.0000 38.5129
#
#
#
# Elastic Compliance Matrix: (Units=1/GPa)
#
#
# Indices 1 2 3 4 5 6 
#
# 1 0.009330 -0.010497 -0.000969 0.000000 0.000000 0.000000
# 2 -0.010497 0.040795 -0.004590 0.000000 0.000000 0.000000
# 3 -0.000969 -0.004590 0.008393 0.000000 0.000000 0.000000
# 4 0.000000 0.000000 0.000000 0.089193 0.000000 0.000000
# 5 0.000000 0.000000 0.000000 0.000000 -0.060573 0.000000
# 6 0.000000 0.000000 0.000000 0.000000 0.000000 0.025965
#
#
# Mechanical properties :
#
#
# Convention : Reuss Voigt Hill
#
# Bulk Modulus (GPa) = 37.86864 64.98723 51.42793
# Shear Modulus (GPa) = 32.46411 21.61021 27.03716
#
# Velocity S-wave (km/s) = 3.67061 2.99479 3.34978
# Velocity P-wave (km/s) = 5.80352 6.23936 6.02538
#
# Compressibility (1/GPa) = 0.02640707
#
# Stress axis : x y z
#
# Youngs Moduli (GPa) = 107.18274 24.51260 119.14749
#
# Poissons Ratio (x) = 0.25730 0.11540
# Poissons Ratio (y) = 1.12505 0.54694
# Poissons Ratio (z) = 0.10381 0.11252
#
# Static dielectric constant tensor:
#      x y z
#    x 1.926990 0.000000 0.000000 
#    y 0.000000 1.993150 0.000000 
#    z 0.000000 0.000000 1.975570 
# 
# From -- ./inp_files/1488.got.cif
#   From: 2010.05.17/outbox.cif.g08.bks.cpg/sg28_1_cif.got.tgz:1488.got - 2010.06.04 01:15:21.
