data_PCOD9339190
_publ_section_title
;
Structure prediction by ZEFSAII (Michael W. Deem and Ramdas Pophale) SiO2 
 PCOD9339190
Probable space group: P C C 2
;
_chemical_formula_sum "Si O2"
_cell_formula_units_Z 32
_cell_length_a 13.590469
_cell_length_b 11.938589
_cell_length_c 8.629596
_cell_angle_alpha 90.000000
_cell_angle_beta 90.000000
_cell_angle_gamma 90.000000
_cell_volume 1400.160785
_symmetry_space_group_name_H-M "P C C 2"
_symmetry_group_IT_number 27
_symmetry_cell_setting 'orthorhombic'
loop_
_space_group_symop_operation_xyz
x,y,z
-x,-y,z
-x,y,1/2+z
x,-y,1/2+z
loop_
_atom_site_type_symbol
_atom_site_label
_atom_site_fract_x
_atom_site_fract_y
_atom_site_fract_z
Si Si1 0.576207 0.281744 0.784920
Si Si2 0.790642 0.089710 0.972095
Si Si3 0.761564 0.652134 0.484231
Si Si4 0.961743 0.111769 0.177902
Si Si5 0.575180 0.397140 0.460040
Si Si6 0.124328 0.232398 0.973266
Si Si7 0.291203 0.901383 0.643543
Si Si8 0.790661 0.556568 0.827369
O O1 0.579603 0.365192 0.639573
O O2 0.469617 0.293059 0.862341
O O3 0.615115 0.164091 0.714543
O O4 0.652073 0.322817 0.917805
O O5 0.797944 0.222059 0.998961
O O6 0.891627 0.054710 0.048947
O O7 0.703310 0.018962 0.053738
O O8 0.775567 0.072912 0.792371
O O9 0.777911 0.592348 0.648917
O O10 0.813829 0.574003 0.356102
O O11 0.902267 0.176788 0.309390
O O12 0.000000 0.000000 0.258214
O O13 0.040763 0.194593 0.096277
O O14 0.500000 0.500000 0.438528
O O15 0.682032 0.428273 0.400099
O O16 0.139126 0.362298 0.927349
O O17 0.228432 0.183889 0.036607
#
# Coordination Sequence:
#
# PCOD9339190 Si02
#       8
#     4   4   4   4   4   4   4   4
#     4  11  24  42  70 112 145 188 250 313 371 454
#     4  11  24  44  74 104 145 187 256 307 381 446
#     4  11  25  44  71 107 143 197 246 304 383 455
#     4  12  24  42  73 113 140 191 255 319 368 462
#     4  12  23  39  71 110 146 190 253 306 362 445
#     4  12  25  43  70 108 149 190 247 316 389 443
#     4  11  24  43  70 110 144 191 241 316 383 446
#     4  12  25  45  72 104 153 195 246 310 385 440
#
# _framework density 22.854519
#
# number of rings (size 3 to 8) (size 9 to 14) (size 15 to 20)
#    0.000    0.500    5.000    3.750    1.750    0.000 
#    0.000    0.625    0.000   15.750    0.000    0.000 
#    0.000    0.000    0.000    0.000    0.000    0.000 
#
# Total GULP energy -178770.856356 kJ/mol
# GULP energy per Si atom -5586.589261 kJ/mol
# Density = 2.280250 g / cm^3
# Si number density = 22.854519 Si / 1000 Ang^3
#
#
#
# Elastic Constant Matrix: (Units=GPa)
#
#
# Indices 1 2 3 4 5 6 
#
# 1 39.1887 6.4038 7.6176 0.0000 0.0000 0.0000
# 2 6.4038 126.9548 28.5836 0.0000 0.0000 0.0000
# 3 7.6176 28.5836 126.8920 0.0000 0.0000 0.0000
# 4 0.0000 0.0000 0.0000 34.1653 0.0000 0.0000
# 5 0.0000 0.0000 0.0000 0.0000 29.1693 0.0000
# 6 0.0000 0.0000 0.0000 0.0000 0.0000 30.9568
#
#
#
# Elastic Compliance Matrix: (Units=1/GPa)
#
#
# Indices 1 2 3 4 5 6 
#
# 1 0.025941 -0.001009 -0.001330 0.000000 0.000000 0.000000
# 2 -0.001009 0.008337 -0.001817 0.000000 0.000000 0.000000
# 3 -0.001330 -0.001817 0.008370 0.000000 0.000000 0.000000
# 4 0.000000 0.000000 0.000000 0.029269 0.000000 0.000000
# 5 0.000000 0.000000 0.000000 0.000000 0.034283 0.000000
# 6 0.000000 0.000000 0.000000 0.000000 0.000000 0.032303
#
#
# Mechanical properties :
#
#
# Convention : Reuss Voigt Hill
#
# Bulk Modulus (GPa) = 29.12485 42.02728 35.57607
# Shear Modulus (GPa) = 31.59342 35.55366 33.57354
#
# Velocity S-wave (km/s) = 3.72206 3.94845 3.83693
# Velocity P-wave (km/s) = 5.58953 6.26227 5.93544
#
# Compressibility (1/GPa) = 0.03433494
#
# Stress axis : x y z
#
# Youngs Moduli (GPa) = 38.54903 119.94866 119.47518
#
# Poissons Ratio (x) = 0.12104 0.15890
# Poissons Ratio (y) = 0.03890 0.21713
# Poissons Ratio (z) = 0.05127 0.21799
#
# Static dielectric constant tensor:
#      x y z
#    x 1.895490 0.000000 0.000000 
#    y 0.000000 2.005410 0.000000 
#    z 0.000000 0.000000 1.832820 
# 
# From -- ./inp_files/1614.got.cif
#   From: 2010.05.17/outbox.cif.g08.bks.cpg/sg27_1_cif.got.tgz:1614.got - 2010.06.04 01:11:05.
