data_PCOD9339019
_publ_section_title
;
Structure prediction by ZEFSAII (Michael W. Deem and Ramdas Pophale) SiO2 
 PCOD9339019
Probable space group: P C C 2
;
_chemical_formula_sum "Si O2"
_cell_formula_units_Z 26
_cell_length_a 4.905257
_cell_length_b 18.155215
_cell_length_c 12.868551
_cell_angle_alpha 90.000000
_cell_angle_beta 90.000000
_cell_angle_gamma 90.000000
_cell_volume 1146.021620
_symmetry_space_group_name_H-M "P C C 2"
_symmetry_group_IT_number 27
_symmetry_cell_setting 'orthorhombic'
loop_
_space_group_symop_operation_xyz
x,y,z
-x,-y,z
-x,y,1/2+z
x,-y,1/2+z
loop_
_atom_site_type_symbol
_atom_site_label
_atom_site_fract_x
_atom_site_fract_y
_atom_site_fract_z
Si Si1 0.565305 0.365770 0.390340
Si Si2 0.028333 0.851198 0.740317
Si Si3 0.500000 0.500000 0.762036
Si Si4 0.485759 0.088446 0.845039
Si Si5 0.030038 0.315850 0.264579
Si Si6 0.141772 0.575995 0.590116
Si Si7 0.752211 0.051708 0.553053
O O1 0.648434 0.442641 0.335358
O O2 0.261693 0.347156 0.346636
O O3 0.659216 0.382421 0.508373
O O4 0.762798 0.308111 0.335757
O O5 0.214958 0.878861 0.835268
O O6 0.093059 0.765724 0.725792
O O7 0.132326 0.899255 0.644585
O O8 0.717414 0.872275 0.764519
O O9 0.311769 0.543323 0.684507
O O10 0.500000 0.000000 0.829751
O O11 0.363099 0.099303 0.958860
O O12 0.972837 0.364571 0.159545
O O13 0.000000 0.500000 0.546111
O O14 0.500000 0.000000 0.586826
O O15 0.000000 0.000000 0.515861
#
# Coordination Sequence:
#
# PCOD9339019 Si02
#       7
#     4   4   2   4   4   4   4
#     4  11  25  42  68  93 132 166 219 272 337 386
#     4  12  24  42  68  92 141 179 211 270 337 391
#     4  10  22  42  66 100 122 158 216 284 318 398
#     4  11  23  42  68 100 131 173 226 273 318 388
#     4  11  27  45  61 102 135 172 222 268 329 412
#     4  11  24  42  70  95 126 173 222 282 336 384
#     4  11  23  40  67 102 128 169 226 274 315 383
#
# _framework density 22.687182
#
# number of rings (size 3 to 8) (size 9 to 14) (size 15 to 20)
#    0.000    0.923    1.538    6.000    6.462    2.462 
#    0.000    0.000    0.000    0.000    0.000    0.000 
#    0.000    0.000    0.000    0.000    0.000    0.000 
#
# Total GULP energy -145092.865022 kJ/mol
# GULP energy per Si atom -5580.494809 kJ/mol
# Density = 2.263554 g / cm^3
# Si number density = 22.687182 Si / 1000 Ang^3
#
#
#
# Elastic Constant Matrix: (Units=GPa)
#
#
# Indices 1 2 3 4 5 6 
#
# 1 69.7537 -4.0269 -2.4348 0.0000 0.0000 0.0000
# 2 -4.0269 76.9509 8.2696 0.0000 0.0000 0.0000
# 3 -2.4348 8.2696 63.6140 0.0000 0.0000 0.0000
# 4 0.0000 0.0000 0.0000 -7.0164 0.0000 0.0000
# 5 0.0000 0.0000 0.0000 0.0000 64.5622 0.0000
# 6 0.0000 0.0000 0.0000 0.0000 0.0000 24.3614
#
#
#
# Elastic Compliance Matrix: (Units=1/GPa)
#
#
# Indices 1 2 3 4 5 6 
#
# 1 0.014393 0.000704 0.000459 0.000000 0.000000 0.000000
# 2 0.000704 0.013214 -0.001691 0.000000 0.000000 0.000000
# 3 0.000459 -0.001691 0.015957 0.000000 0.000000 0.000000
# 4 0.000000 0.000000 0.000000 -0.142523 0.000000 0.000000
# 5 0.000000 0.000000 0.000000 0.000000 0.015489 0.000000
# 6 0.000000 0.000000 0.000000 0.000000 0.000000 0.041049
#
#
# Mechanical properties :
#
#
# Convention : Reuss Voigt Hill
#
# Bulk Modulus (GPa) = 23.52464 23.77049 23.64756
# Shear Modulus (GPa) = -183.84254 30.28214 -76.78020
#
# Velocity S-wave (km/s) = -9.01164 3.65741 -5.82378
# Velocity P-wave (km/s) = 9.89383 5.32314 5.89712
#
# Compressibility (1/GPa) = 0.04250863
#
# Stress axis : x y z
#
# Youngs Moduli (GPa) = 69.47903 75.67825 62.66761
#
# Poissons Ratio (x) = -0.05326 -0.02879
# Poissons Ratio (y) = -0.04890 0.10596
# Poissons Ratio (z) = -0.03192 0.12796
#
# Static dielectric constant tensor:
#      x y z
#    x 1.876670 0.000000 0.000000 
#    y 0.000000 1.926060 0.000000 
#    z 0.000000 0.000000 1.863370 
# 
# From -- ./inp_files/2068.got.cif
#   From: 2010.05.17/outbox.cif.g08.bks.cpg/sg27_2_cif.got.tgz:2068.got - 2010.06.04 01:11:05.
