data_PCOD9339811
_publ_section_title
;
Structure prediction by ZEFSAII (Michael W. Deem and Ramdas Pophale) SiO2 
 PCOD9339811
Probable space group: P M A 2
;
_chemical_formula_sum "Si O2"
_cell_formula_units_Z 20
_cell_length_a 14.544056
_cell_length_b 13.343743
_cell_length_c 5.155418
_cell_angle_alpha 90.000000
_cell_angle_beta 90.000000
_cell_angle_gamma 90.000000
_cell_volume 1000.523032
_symmetry_space_group_name_H-M "P M A 2"
_symmetry_group_IT_number 28
_symmetry_cell_setting 'orthorhombic'
loop_
_space_group_symop_operation_xyz
x,y,z
-x,-y,z
1/2-x,y,z
1/2+x,-y,z
loop_
_atom_site_type_symbol
_atom_site_label
_atom_site_fract_x
_atom_site_fract_y
_atom_site_fract_z
Si Si1 0.540156 0.108901 0.662960
Si Si2 0.538642 0.677320 0.741453
Si Si3 0.353624 0.839840 0.163760
Si Si4 0.358856 0.403274 0.240253
Si Si5 0.354723 0.618820 0.993018
O O1 0.472501 0.203759 0.697047
O O2 0.578607 0.114549 0.373012
O O3 0.500000 0.000000 0.714152
O O4 0.619610 0.129105 0.873695
O O5 0.589778 0.625192 0.503480
O O6 0.595000 0.657082 0.004038
O O7 0.436525 0.631506 0.786647
O O8 0.250000 0.868834 0.225066
O O9 0.360746 0.719013 0.166314
O O10 0.250000 0.382698 0.262258
O O11 0.369501 0.519526 0.160385
O O12 0.250000 0.615121 0.883747
#
# Coordination Sequence:
#
# PCOD9339811 Si02
#       5
#     4   4   4   4   4
#     4  11  23  41  61  86 118 156 201 254 306 353
#     4  11  23  41  63  89 122 163 203 249 301 358
#     4  10  21  39  62  90 118 151 197 251 303 360
#     4  11  24  42  62  91 128 166 202 240 292 366
#     4   9  21  39  64  94 124 156 197 248 305 363
#
# _framework density 19.989542
#
# number of rings (size 3 to 8) (size 9 to 14) (size 15 to 20)
#    0.000    1.600    0.000    4.800    0.000    8.800 
#    0.000   19.000    0.000    1.200    0.000    0.000 
#    0.000    0.000    0.000    0.000    0.000    0.000 
#
# Total GULP energy -111852.800489 kJ/mol
# GULP energy per Si atom -5592.640024 kJ/mol
# Density = 1.994405 g / cm^3
# Si number density = 19.989542 Si / 1000 Ang^3
#
#
#
# Elastic Constant Matrix: (Units=GPa)
#
#
# Indices 1 2 3 4 5 6 
#
# 1 128.1694 57.7687 47.7288 0.0000 0.0000 0.0000
# 2 57.7687 92.6816 1.7421 0.0000 0.0000 0.0000
# 3 47.7288 1.7421 87.6848 0.0000 0.0000 0.0000
# 4 0.0000 0.0000 0.0000 17.4931 0.0000 0.0000
# 5 0.0000 0.0000 0.0000 0.0000 25.8390 0.0000
# 6 0.0000 0.0000 0.0000 0.0000 0.0000 13.3198
#
#
#
# Elastic Compliance Matrix: (Units=1/GPa)
#
#
# Indices 1 2 3 4 5 6 
#
# 1 0.014850 -0.009107 -0.007902 0.000000 0.000000 0.000000
# 2 -0.009107 0.016379 0.004632 0.000000 0.000000 0.000000
# 3 -0.007902 0.004632 0.015614 0.000000 0.000000 0.000000
# 4 0.000000 0.000000 0.000000 0.057166 0.000000 0.000000
# 5 0.000000 0.000000 0.000000 0.000000 0.038701 0.000000
# 6 0.000000 0.000000 0.000000 0.000000 0.000000 0.075076
#
#
# Mechanical properties :
#
#
# Convention : Reuss Voigt Hill
#
# Bulk Modulus (GPa) = 45.27423 58.11279 51.69351
# Shear Modulus (GPa) = 20.00775 24.75012 22.37893
#
# Velocity S-wave (km/s) = 3.16715 3.52256 3.34957
# Velocity P-wave (km/s) = 6.00604 6.75864 6.39343
#
# Compressibility (1/GPa) = 0.02208762
#
# Stress axis : x y z
#
# Youngs Moduli (GPa) = 67.34148 61.05307 64.04616
#
# Poissons Ratio (x) = 0.55603 0.50610
# Poissons Ratio (y) = 0.61330 -0.29666
# Poissons Ratio (z) = 0.53214 -0.28279
#
# Static dielectric constant tensor:
#      x y z
#    x 1.710370 0.000000 0.000000 
#    y 0.000000 1.690530 0.000000 
#    z 0.000000 0.000000 1.674450 
# 
# From -- ./inp_files/703.got.cif
#   From: 2010.05.17/outbox.cif.g08.bks.cpg/sg28_1_cif.got.tgz:703.got - 2010.06.04 01:15:21.
