data_PCOD9339002
_publ_section_title
;
Structure prediction by ZEFSAII (Michael W. Deem and Ramdas Pophale) SiO2 
 PCOD9339002
Probable space group: P C C 2
;
_chemical_formula_sum "Si O2"
_cell_formula_units_Z 18
_cell_length_a 10.972589
_cell_length_b 8.809158
_cell_length_c 8.069650
_cell_angle_alpha 90.000000
_cell_angle_beta 90.000000
_cell_angle_gamma 90.000000
_cell_volume 780.006480
_symmetry_space_group_name_H-M "P C C 2"
_symmetry_group_IT_number 27
_symmetry_cell_setting 'orthorhombic'
loop_
_space_group_symop_operation_xyz
x,y,z
-x,-y,z
-x,y,1/2+z
x,-y,1/2+z
loop_
_atom_site_type_symbol
_atom_site_label
_atom_site_fract_x
_atom_site_fract_y
_atom_site_fract_z
Si Si1 0.188422 0.762529 0.076210
Si Si2 0.139978 0.948778 0.411566
Si Si3 0.362769 0.554500 0.929386
Si Si4 0.230327 0.679117 0.625109
Si Si5 0.000000 0.500000 0.613395
O O1 0.158894 0.854140 0.243600
O O2 0.077634 0.643855 0.040927
O O3 0.313177 0.666915 0.073374
O O4 0.203970 0.888917 0.933548
O O5 0.187624 0.841517 0.559993
O O6 0.000000 0.000000 0.430020
O O7 0.500000 0.500000 0.940336
O O8 0.333732 0.643725 0.759859
O O9 0.276439 0.408901 0.960039
O O10 0.111362 0.590862 0.693304
#
# Coordination Sequence:
#
# PCOD9339002 Si02
#       5
#     4   4   4   4   2
#     4  11  25  42  72 107 158 202 256 315 394 463
#     4  12  24  43  68 117 161 199 241 316 401 487
#     4  11  25  47  72 105 147 208 272 324 369 451
#     4  11  23  41  72 105 153 195 257 316 392 458
#     4  10  22  40  64 108 144 200 238 312 386 468
#
# _framework density 23.076732
#
# number of rings (size 3 to 8) (size 9 to 14) (size 15 to 20)
#    0.000    0.889    2.222    5.333    3.111    4.444 
#    0.000    2.222    0.000    8.000    0.000    0.000 
#    0.000    0.000    0.000    0.000    0.000    0.000 
#
# Total GULP energy -100380.347190 kJ/mol
# GULP energy per Si atom -5576.685955 kJ/mol
# Density = 2.302421 g / cm^3
# Si number density = 23.076732 Si / 1000 Ang^3
#
#
#
# Elastic Constant Matrix: (Units=GPa)
#
#
# Indices 1 2 3 4 5 6 
#
# 1 163.8175 75.7527 44.0299 0.0000 0.0000 0.0000
# 2 75.7527 192.2637 65.4021 0.0000 0.0000 0.0000
# 3 44.0299 65.4021 149.0927 0.0000 0.0000 0.0000
# 4 0.0000 0.0000 0.0000 40.0529 0.0000 0.0000
# 5 0.0000 0.0000 0.0000 0.0000 29.0852 0.0000
# 6 0.0000 0.0000 0.0000 0.0000 0.0000 37.3046
#
#
#
# Elastic Compliance Matrix: (Units=1/GPa)
#
#
# Indices 1 2 3 4 5 6 
#
# 1 0.007614 -0.002627 -0.001096 0.000000 0.000000 0.000000
# 2 -0.002627 0.007020 -0.002304 0.000000 0.000000 0.000000
# 3 -0.001096 -0.002304 0.008041 0.000000 0.000000 0.000000
# 4 0.000000 0.000000 0.000000 0.024967 0.000000 0.000000
# 5 0.000000 0.000000 0.000000 0.000000 0.034382 0.000000
# 6 0.000000 0.000000 0.000000 0.000000 0.000000 0.026806
#
#
# Mechanical properties :
#
#
# Convention : Reuss Voigt Hill
#
# Bulk Modulus (GPa) = 94.14709 97.28261 95.71485
# Shear Modulus (GPa) = 40.18519 42.62116 41.40317
#
# Velocity S-wave (km/s) = 4.17750 4.30226 4.24034
# Velocity P-wave (km/s) = 8.00966 8.18089 8.09573
#
# Compressibility (1/GPa) = 0.01062168
#
# Stress axis : x y z
#
# Youngs Moduli (GPa) = 131.34165 142.45354 124.35578
#
# Poissons Ratio (x) = 0.37422 0.13631
# Poissons Ratio (y) = 0.34503 0.28646
# Poissons Ratio (z) = 0.14397 0.32815
#
# Static dielectric constant tensor:
#      x y z
#    x 1.821890 0.000000 0.000000 
#    y 0.000000 1.905210 0.000000 
#    z 0.000000 0.000000 2.023720 
# 
# From -- ./inp_files/1012.got.cif
#   From: 2010.05.17/outbox.cif.g08.bks.cpg/sg27_1_cif.got.tgz:1012.got - 2010.06.04 01:11:05.
