data_PCOD9339991
_publ_section_title
;
Structure prediction by ZEFSAII (Michael W. Deem and Ramdas Pophale) SiO2 
 PCOD9339991
Probable space group: P C A 21
;
_chemical_formula_sum "Si O2"
_cell_formula_units_Z 28
_cell_length_a 5.311403
_cell_length_b 7.026763
_cell_length_c 32.538964
_cell_angle_alpha 90.000000
_cell_angle_beta 90.000000
_cell_angle_gamma 90.000000
_cell_volume 1214.418241
_symmetry_space_group_name_H-M "P C A 21"
_symmetry_group_IT_number 29
_symmetry_cell_setting 'orthorhombic'
loop_
_space_group_symop_operation_xyz
x,y,z
-x,-y,1/2+z
1/2-x,y,1/2+z
1/2+x,-y,z
loop_
_atom_site_type_symbol
_atom_site_label
_atom_site_fract_x
_atom_site_fract_y
_atom_site_fract_z
Si Si1 0.854023 0.215123 0.445050
Si Si2 0.217173 0.623830 0.120182
Si Si3 0.354236 0.213949 0.412105
Si Si4 0.712211 0.374112 0.529386
Si Si5 0.807813 0.120909 0.199276
Si Si6 0.658420 0.228231 0.287220
Si Si7 0.158839 0.207888 0.319481
O O1 0.632157 0.298320 0.416580
O O2 0.761361 0.234463 0.491525
O O3 0.130112 0.303257 0.438902
O O4 0.892169 0.998849 0.430069
O O5 0.437008 0.463879 0.122559
O O6 0.254029 0.713294 0.074846
O O7 0.263020 0.763020 0.157905
O O8 0.259274 0.200955 0.365681
O O9 0.435180 0.467357 0.526632
O O10 0.754544 0.238390 0.240800
O O11 0.591189 0.958841 0.200524
O O12 0.377571 0.304391 0.292705
O O13 0.882670 0.296929 0.316534
O O14 0.623123 0.005472 0.301092
#
# Coordination Sequence:
#
# PCOD9339991 Si02
#       7
#     4   4   4   4   4   4   4
#     4  10  18  32  49  78 106 137 170 234 266 320
#     4  10  23  43  62  82 116 164 200 228 291 377
#     4  10  19  30  50  81 119 133 177 216 295 324
#     4  10  21  39  59  76 101 147 199 224 262 343
#     4  12  21  37  58  95 123 139 196 260 296 332
#     4  10  16  27  46  76 114 134 178 221 278 320
#     4  10  16  28  46  74 113 152 170 209 284 344
#
# _framework density 23.056305999999999
#
# number of rings (size 3 to 8) (size 9 to 14) (size 15 to 20)
#    0.000    1.714    2.857    6.000    0.000    0.000 
#    5.143    0.000    0.000    0.000    0.000   34.000 
#    0.000    0.000    0.000    0.000    0.000    0.000 
#
# Total GULP energy -156404.052184 kJ/mol
# GULP energy per Si atom -5585.859007 kJ/mol
# Density = 2.300383 g / cm^3
# Si number density = 23.056306 Si / 1000 Ang^3
#
#
#
# Elastic Constant Matrix: (Units=GPa)
#
#
# Indices 1 2 3 4 5 6 
#
# 1 138.6898 -22.0936 -17.9827 0.0000 0.0000 0.0000
# 2 -22.0936 44.0487 -4.6286 0.0000 0.0000 0.0000
# 3 -17.9827 -4.6286 140.5504 0.0000 0.0000 0.0000
# 4 0.0000 0.0000 0.0000 12.0806 0.0000 0.0000
# 5 0.0000 0.0000 0.0000 0.0000 39.8818 0.0000
# 6 0.0000 0.0000 0.0000 0.0000 0.0000 -7.4423
#
#
#
# Elastic Compliance Matrix: (Units=1/GPa)
#
#
# Indices 1 2 3 4 5 6 
#
# 1 0.008022 0.004146 0.001163 0.000000 0.000000 0.000000
# 2 0.004146 0.024923 0.001351 0.000000 0.000000 0.000000
# 3 0.001163 0.001351 0.007308 0.000000 0.000000 0.000000
# 4 0.000000 0.000000 0.000000 0.082777 0.000000 0.000000
# 5 0.000000 0.000000 0.000000 0.000000 0.025074 0.000000
# 6 0.000000 0.000000 0.000000 0.000000 0.000000 -0.134367
#
#
# Mechanical properties :
#
#
# Convention : Reuss Voigt Hill
#
# Bulk Modulus (GPa) = 18.66640 25.98657 22.32649
# Shear Modulus (GPa) = 273.58007 33.43694 153.50850
#
# Velocity S-wave (km/s) = 10.90481 3.81232 8.16850
# Velocity P-wave (km/s) = 12.90995 5.53839 9.93329
#
# Compressibility (1/GPa) = 0.05357219
#
# Stress axis : x y z
#
# Youngs Moduli (GPa) = 124.66490 40.12293 136.83335
#
# Poissons Ratio (x) = -0.16633 -0.15911
# Poissons Ratio (y) = -0.51680 -0.18489
# Poissons Ratio (z) = -0.14496 -0.05421
#
# Static dielectric constant tensor:
#      x y z
#    x 1.953250 0.000000 0.000000 
#    y 0.000000 2.012190 0.000000 
#    z 0.000000 0.000000 1.835760 
# 
# From -- ./inp_files/5638.got.cif
#   From: 2010.05.17/outbox.cif.g08.bks.cpg/sg29_3_cif.got.tgz:5638.got - 2010.06.04 01:19:37.
