data_PCOD9339960
_publ_section_title
;
Structure prediction by ZEFSAII (Michael W. Deem and Ramdas Pophale) SiO2 
 PCOD9339960
Probable space group: P M A 2
;
_chemical_formula_sum "Si O2"
_cell_formula_units_Z 32
_cell_length_a 8.771702
_cell_length_b 14.812303
_cell_length_c 12.472008
_cell_angle_alpha 90.000000
_cell_angle_beta 90.000000
_cell_angle_gamma 90.000000
_cell_volume 1620.476873
_symmetry_space_group_name_H-M "P M A 2"
_symmetry_group_IT_number 28
_symmetry_cell_setting 'orthorhombic'
loop_
_space_group_symop_operation_xyz
x,y,z
-x,-y,z
1/2-x,y,z
1/2+x,-y,z
loop_
_atom_site_type_symbol
_atom_site_label
_atom_site_fract_x
_atom_site_fract_y
_atom_site_fract_z
Si Si1 0.433058 0.205162 0.846800
Si Si2 0.431383 0.223027 0.457384
Si Si3 0.569041 0.404183 0.378788
Si Si4 0.072067 0.906839 0.290314
Si Si5 0.431706 0.899175 0.646399
Si Si6 0.425765 0.364013 0.150072
Si Si7 0.934074 0.593000 0.910392
Si Si8 0.576959 0.846563 0.088680
O O1 0.250000 0.202626 0.827220
O O2 0.519258 0.150127 0.756101
O O3 0.477893 0.311375 0.856161
O O4 0.458689 0.159850 0.963137
O O5 0.250000 0.225877 0.465818
O O6 0.498007 0.323261 0.448062
O O7 0.482451 0.172710 0.348983
O O8 0.501428 0.163307 0.552121
O O9 0.500000 0.500000 0.411436
O O10 0.750000 0.403506 0.387990
O O11 0.522125 0.388380 0.254110
O O12 0.250000 0.901602 0.314333
O O13 0.039948 0.898329 0.163861
O O14 0.000000 0.000000 0.329829
O O15 0.250000 0.904560 0.637088
O O16 0.500000 0.000000 0.641438
O O17 0.250000 0.393543 0.168628
O O18 0.422860 0.256858 0.129514
O O19 0.481943 0.401499 0.035847
O O20 0.750000 0.590284 0.909611
O O21 0.000000 0.500000 0.864066
O O22 0.750000 0.881983 0.103535
#
# Coordination Sequence:
#
# PCOD9339960 Si02
#       8
#     4   4   4   4   4   4   4   4
#     4   9  20  40  63  90 124 164 209 259 312 366
#     4  12  25  45  68  91 124 161 203 261 316 370
#     4  12  24  38  59  91 127 168 211 255 306 370
#     4  12  24  38  59  90 125 163 206 251 310 379
#     4  12  26  46  71  97 121 155 205 260 317 380
#     4   9  17  32  54  83 122 168 210 254 303 358
#     4   9  18  32  54  86 125 168 211 254 302 359
#     4   9  18  35  59  86 124 167 206 252 310 368
#
# _framework density 19.747273
#
# number of rings (size 3 to 8) (size 9 to 14) (size 15 to 20)
#    0.000    1.500    1.250    6.750    0.000    3.000 
#    0.000    3.125    0.000    1.500    0.000    0.000 
#    0.000    0.000    0.000    0.000    0.000    0.000 
#
# Total GULP energy -178838.415806 kJ/mol
# GULP energy per Si atom -5588.700494 kJ/mol
# Density = 1.970233 g / cm^3
# Si number density = 19.747273 Si / 1000 Ang^3
#
#
#
# Elastic Constant Matrix: (Units=GPa)
#
#
# Indices 1 2 3 4 5 6 
#
# 1 141.2384 70.1613 59.4345 0.0000 0.0000 0.0000
# 2 70.1613 148.4696 60.2207 0.0000 0.0000 0.0000
# 3 59.4345 60.2207 88.5948 0.0000 0.0000 0.0000
# 4 0.0000 0.0000 0.0000 16.4626 0.0000 0.0000
# 5 0.0000 0.0000 0.0000 0.0000 32.0358 0.0000
# 6 0.0000 0.0000 0.0000 0.0000 0.0000 36.4469
#
#
#
# Elastic Compliance Matrix: (Units=1/GPa)
#
#
# Indices 1 2 3 4 5 6 
#
# 1 0.010738 -0.002972 -0.005183 0.000000 0.000000 0.000000
# 2 -0.002972 0.010122 -0.004886 0.000000 0.000000 0.000000
# 3 -0.005183 -0.004886 0.018086 0.000000 0.000000 0.000000
# 4 0.000000 0.000000 0.000000 0.060744 0.000000 0.000000
# 5 0.000000 0.000000 0.000000 0.000000 0.031215 0.000000
# 6 0.000000 0.000000 0.000000 0.000000 0.000000 0.027437
#
#
# Mechanical properties :
#
#
# Convention : Reuss Voigt Hill
#
# Bulk Modulus (GPa) = 77.74668 84.21505 80.98087
# Shear Modulus (GPa) = 26.49537 29.55482 28.02509
#
# Velocity S-wave (km/s) = 3.66693 3.87286 3.77130
# Velocity P-wave (km/s) = 7.57527 7.92071 7.74992
#
# Compressibility (1/GPa) = 0.01286229
#
# Stress axis : x y z
#
# Youngs Moduli (GPa) = 93.12943 98.79744 55.29089
#
# Poissons Ratio (x) = 0.29361 0.28660
# Poissons Ratio (y) = 0.27676 0.27017
# Poissons Ratio (z) = 0.48273 0.48276
#
# Static dielectric constant tensor:
#      x y z
#    x 1.666730 0.000000 0.000000 
#    y 0.000000 1.715780 0.000000 
#    z 0.000000 0.000000 1.705800 
# 
# From -- ./inp_files/5062.got.cif
#   From: 2010.05.17/outbox.cif.g08.bks.cpg/sg28_3_cif.got.tgz:5062.got - 2010.06.04 01:15:21.
