data_PCOD9339747
_publ_section_title
;
Structure prediction by ZEFSAII (Michael W. Deem and Ramdas Pophale) SiO2 
 PCOD9339747
Probable space group: P M A 2
;
_chemical_formula_sum "Si O2"
_cell_formula_units_Z 32
_cell_length_a 14.296545
_cell_length_b 18.299874
_cell_length_c 5.933990
_cell_angle_alpha 90.000000
_cell_angle_beta 90.000000
_cell_angle_gamma 90.000000
_cell_volume 1552.479968
_symmetry_space_group_name_H-M "P M A 2"
_symmetry_group_IT_number 28
_symmetry_cell_setting 'orthorhombic'
loop_
_space_group_symop_operation_xyz
x,y,z
-x,-y,z
1/2-x,y,z
1/2+x,-y,z
loop_
_atom_site_type_symbol
_atom_site_label
_atom_site_fract_x
_atom_site_fract_y
_atom_site_fract_z
Si Si1 0.861116 0.543840 0.275550
Si Si2 0.143628 0.822794 0.870015
Si Si3 0.352785 0.653354 0.010877
Si Si4 0.519698 0.825035 0.509433
Si Si5 0.458727 0.313240 0.196750
Si Si6 0.858905 0.489348 0.768876
Si Si7 0.640912 0.800077 0.898885
Si Si8 0.502808 0.915966 0.118398
O O1 0.750000 0.530942 0.270561
O O2 0.885756 0.629337 0.292579
O O3 0.895196 0.510586 0.518235
O O4 0.893699 0.519546 0.017844
O O5 0.250000 0.844612 0.818956
O O6 0.145965 0.738624 0.949158
O O7 0.070693 0.824278 0.666565
O O8 0.093620 0.875404 0.050506
O O9 0.250000 0.637155 0.113561
O O10 0.362974 0.598302 0.801556
O O11 0.445263 0.643207 0.156425
O O12 0.514295 0.755873 0.346693
O O13 0.616140 0.812117 0.639871
O O14 0.518274 0.901475 0.381079
O O15 0.412067 0.273668 0.979878
O O16 0.750000 0.512180 0.765079
O O17 0.750000 0.796933 0.950253
O O18 0.587174 0.868973 0.009949
O O19 0.500000 0.000000 0.054056
#
# Coordination Sequence:
#
# PCOD9339747 Si02
#       8
#     4   4   4   4   4   4   4   4
#     4  10  22  40  62  93 132 174 221 277 337 403
#     4  10  21  40  64  92 122 164 212 259 317 384
#     4  10  20  40  65  89 126 168 215 271 327 391
#     4  10  21  38  60  97 124 161 211 268 319 395
#     4  11  22  39  63  94 126 169 222 270 333 398
#     4   9  21  40  60  92 131 172 219 274 341 397
#     4  10  22  41  63  92 127 168 214 267 329 395
#     4  10  22  42  63  91 132 166 205 265 324 395
#
# _framework density 20.612183000000002
#
# number of rings (size 3 to 8) (size 9 to 14) (size 15 to 20)
#    0.000    2.000    3.750    0.375    1.750    7.500 
#    0.000    3.750    0.000    0.000    0.000    0.000 
#    0.000    0.000    0.000    0.000    0.000    0.000 
#
# Total GULP energy -178167.557568 kJ/mol
# GULP energy per Si atom -5567.736174 kJ/mol
# Density = 2.056527 g / cm^3
# Si number density = 20.612183 Si / 1000 Ang^3
#
#
#
# Elastic Constant Matrix: (Units=GPa)
#
#
# Indices 1 2 3 4 5 6 
#
# 1 102.6488 8.3140 15.5911 0.0000 0.0000 0.0000
# 2 8.3140 100.3421 25.5895 0.0000 0.0000 0.0000
# 3 15.5911 25.5895 82.8251 0.0000 0.0000 0.0000
# 4 0.0000 0.0000 0.0000 19.5587 0.0000 0.0000
# 5 0.0000 0.0000 0.0000 0.0000 4.8909 0.0000
# 6 0.0000 0.0000 0.0000 0.0000 0.0000 18.4187
#
#
#
# Elastic Compliance Matrix: (Units=1/GPa)
#
#
# Indices 1 2 3 4 5 6 
#
# 1 0.010042 -0.000380 -0.001773 0.000000 0.000000 0.000000
# 2 -0.000380 0.010833 -0.003275 0.000000 0.000000 0.000000
# 3 -0.001773 -0.003275 0.013419 0.000000 0.000000 0.000000
# 4 0.000000 0.000000 0.000000 0.051128 0.000000 0.000000
# 5 0.000000 0.000000 0.000000 0.000000 0.204462 0.000000
# 6 0.000000 0.000000 0.000000 0.000000 0.000000 0.054293
#
#
# Mechanical properties :
#
#
# Convention : Reuss Voigt Hill
#
# Bulk Modulus (GPa) = 42.66642 42.75614 42.71128
# Shear Modulus (GPa) = 13.77995 24.32842 19.05419
#
# Velocity S-wave (km/s) = 2.58841 3.43927 3.04372
# Velocity P-wave (km/s) = 5.44772 6.04645 5.75488
#
# Compressibility (1/GPa) = 0.02343763
#
# Stress axis : x y z
#
# Youngs Moduli (GPa) = 99.58166 92.31330 74.51943
#
# Poissons Ratio (x) = 0.03507 0.13212
# Poissons Ratio (y) = 0.03783 0.24408
# Poissons Ratio (z) = 0.17655 0.30236
#
# Static dielectric constant tensor:
#      x y z
#    x 1.745470 0.000000 0.000000 
#    y 0.000000 1.712040 0.000000 
#    z 0.000000 0.000000 1.847170 
# 
# From -- ./inp_files/856.got.cif
#   From: 2010.05.17/outbox.cif.g08.bks.cpg/sg28_1_cif.got.tgz:856.got - 2010.06.04 01:15:21.
