data_PCOD9339311
_publ_section_title
;
Structure prediction by ZEFSAII (Michael W. Deem and Ramdas Pophale) SiO2 
 PCOD9339311
Probable space group: P M A 2
;
_chemical_formula_sum "Si O2"
_cell_formula_units_Z 32
_cell_length_a 8.630295
_cell_length_b 14.638165
_cell_length_c 15.974625
_cell_angle_alpha 90.000000
_cell_angle_beta 90.000000
_cell_angle_gamma 90.000000
_cell_volume 2018.101249
_symmetry_space_group_name_H-M "P M A 2"
_symmetry_group_IT_number 28
_symmetry_cell_setting 'orthorhombic'
loop_
_space_group_symop_operation_xyz
x,y,z
-x,-y,z
1/2-x,y,z
1/2+x,-y,z
loop_
_atom_site_type_symbol
_atom_site_label
_atom_site_fract_x
_atom_site_fract_y
_atom_site_fract_z
Si Si1 0.436575 0.208649 0.380820
Si Si2 0.564768 0.597973 0.643921
Si Si3 0.564971 0.103353 0.221274
Si Si4 0.936438 0.216525 0.707614
Si Si5 0.436660 0.897544 0.542279
Si Si6 0.563636 0.597752 0.449602
Si Si7 0.435213 0.103623 0.046181
Si Si8 0.936441 0.103184 0.871370
O O1 0.250000 0.203861 0.375751
O O2 0.509572 0.164047 0.298685
O O3 0.492915 0.152420 0.461673
O O4 0.483452 0.314049 0.396317
O O5 0.500000 0.500000 0.671427
O O6 0.750000 0.595796 0.644929
O O7 0.505164 0.682974 0.697092
O O8 0.513326 0.611414 0.546646
O O9 0.750000 0.098281 0.217400
O O10 0.499422 0.142011 0.133409
O O11 0.500000 0.000000 0.232118
O O12 0.750000 0.222960 0.707634
O O13 0.981645 0.157331 0.626153
O O14 0.982874 0.164069 0.791976
O O15 0.250000 0.898627 0.536005
O O16 0.500000 0.000000 0.546798
O O17 0.500000 0.500000 0.421097
O O18 0.750000 0.593937 0.449524
O O19 0.250000 0.102657 0.046809
O O20 0.500000 0.000000 0.045788
O O21 0.497918 0.142443 0.958730
O O22 0.750000 0.098636 0.876174
O O23 0.000000 0.000000 0.860647
#
# Coordination Sequence:
#
# PCOD9339311 Si02
#       8
#     4   4   4   4   4   4   4   4
#     4  11  21  35  50  71  99 130 167 204 245 293
#     4  10  19  33  52  73  96 127 164 208 254 295
#     4  11  21  34  51  73  99 132 167 205 248 292
#     4  10  21  34  49  71  99 132 169 206 246 292
#     4  11  22  34  47  66  96 135 171 204 239 285
#     4   9  19  33  51  72  95 125 161 205 250 291
#     4  10  18  31  50  72  97 128 163 205 249 292
#     4  10  19  32  49  72 101 133 168 207 247 292
#
# _framework density 15.856490000000001
#
# number of rings (size 3 to 8) (size 9 to 14) (size 15 to 20)
#    0.000    1.750    1.250    6.000    0.000    3.000 
#    0.000    0.000    0.000    0.000    0.000    0.875 
#    0.000    2.000    0.000    0.000    0.000    0.000 
#
# Total GULP energy -178616.448710 kJ/mol
# GULP energy per Si atom -5581.764022 kJ/mol
# Density = 1.582040 g / cm^3
# Si number density = 15.856490 Si / 1000 Ang^3
#
#
#
# Elastic Constant Matrix: (Units=GPa)
#
#
# Indices 1 2 3 4 5 6 
#
# 1 76.7506 38.2116 51.4837 0.0000 0.0000 0.0000
# 2 38.2116 120.8393 72.4368 0.0000 0.0000 0.0000
# 3 51.4837 72.4368 149.9663 0.0000 0.0000 0.0000
# 4 0.0000 0.0000 0.0000 5.6410 0.0000 0.0000
# 5 0.0000 0.0000 0.0000 0.0000 29.5469 0.0000
# 6 0.0000 0.0000 0.0000 0.0000 0.0000 25.8831
#
#
#
# Elastic Compliance Matrix: (Units=1/GPa)
#
#
# Indices 1 2 3 4 5 6 
#
# 1 0.017543 -0.002727 -0.004706 0.000000 0.000000 0.000000
# 2 -0.002727 0.012072 -0.004895 0.000000 0.000000 0.000000
# 3 -0.004706 -0.004895 0.010648 0.000000 0.000000 0.000000
# 4 0.000000 0.000000 0.000000 0.177273 0.000000 0.000000
# 5 0.000000 0.000000 0.000000 0.000000 0.033844 0.000000
# 6 0.000000 0.000000 0.000000 0.000000 0.000000 0.038635
#
#
# Mechanical properties :
#
#
# Convention : Reuss Voigt Hill
#
# Bulk Modulus (GPa) = 64.06687 74.64671 69.35679
# Shear Modulus (GPa) = 15.63120 24.57582 20.10351
#
# Velocity S-wave (km/s) = 3.14314 3.94114 3.56454
# Velocity P-wave (km/s) = 7.32559 8.23946 7.79593
#
# Compressibility (1/GPa) = 0.01560869
#
# Stress axis : x y z
#
# Youngs Moduli (GPa) = 57.00214 82.83677 93.91509
#
# Poissons Ratio (x) = 0.22588 0.44192
# Poissons Ratio (y) = 0.15543 0.45970
# Poissons Ratio (z) = 0.26823 0.40548
#
# Static dielectric constant tensor:
#      x y z
#    x 1.533320 0.000000 0.000000 
#    y 0.000000 1.515060 0.000000 
#    z 0.000000 0.000000 1.542300 
# 
# From -- ./inp_files/6450.got.cif
#   From: 2010.05.17/outbox.cif.g08.bks.cpg/sg28_4_cif.got.tgz:6450.got - 2010.06.04 01:15:21.
