data_PCOD9339864
_publ_section_title
;
Structure prediction by ZEFSAII (Michael W. Deem and Ramdas Pophale) SiO2 
 PCOD9339864
Probable space group: P M A 2
;
_chemical_formula_sum "Si O2"
_cell_formula_units_Z 24
_cell_length_a 17.948071
_cell_length_b 9.438360
_cell_length_c 5.524228
_cell_angle_alpha 90.000000
_cell_angle_beta 90.000000
_cell_angle_gamma 90.000000
_cell_volume 935.806187
_symmetry_space_group_name_H-M "P M A 2"
_symmetry_group_IT_number 28
_symmetry_cell_setting 'orthorhombic'
loop_
_space_group_symop_operation_xyz
x,y,z
-x,-y,z
1/2-x,y,z
1/2+x,-y,z
loop_
_atom_site_type_symbol
_atom_site_label
_atom_site_fract_x
_atom_site_fract_y
_atom_site_fract_z
Si Si1 0.667719 0.175059 0.989150
Si Si2 0.835211 0.420312 0.651063
Si Si3 0.046190 0.126096 0.650671
Si Si4 0.331369 0.097446 0.270295
Si Si5 0.545583 0.327678 0.307091
Si Si6 0.893586 0.649177 0.021627
O O1 0.750000 0.218172 0.086713
O O2 0.664648 0.254420 0.732012
O O3 0.600690 0.240787 0.137514
O O4 0.664052 0.007383 0.037541
O O5 0.750000 0.456599 0.581848
O O6 0.899481 0.436100 0.449762
O O7 0.859190 0.514556 0.884369
O O8 0.102777 0.062200 0.453886
O O9 0.089702 0.233582 0.818216
O O10 0.988981 0.225276 0.507685
O O11 0.000000 0.000000 0.775188
O O12 0.250000 0.074400 0.380896
O O13 0.340932 0.262329 0.201322
O O14 0.473682 0.370748 0.148531
#
# Coordination Sequence:
#
# PCOD9339864 Si02
#       6
#     4   4   4   4   4   4
#     4  10  22  41  69 102 141 189 245 301 364 441
#     4  11  26  48  72 107 149 201 254 308 374 458
#     4  11  24  42  71 106 142 186 240 307 372 441
#     4  10  23  44  71 106 144 191 242 305 374 444
#     4  11  24  44  70 102 145 189 244 301 374 436
#     4  11  27  43  73 105 148 193 249 311 376 445
#
# _framework density 25.646334
#
# number of rings (size 3 to 8) (size 9 to 14) (size 15 to 20)
#    0.000    1.333    1.667    2.000    4.667    8.000 
#    0.000    0.000    0.000    0.000    0.000    2.333 
#    0.000    0.000    0.000    0.000    0.000    0.000 
#
# Total GULP energy -134292.642905 kJ/mol
# GULP energy per Si atom -5595.526788 kJ/mol
# Density = 2.558796 g / cm^3
# Si number density = 25.646334 Si / 1000 Ang^3
#
#
#
# Elastic Constant Matrix: (Units=GPa)
#
#
# Indices 1 2 3 4 5 6 
#
# 1 182.0053 35.8763 34.5455 0.0000 0.0000 0.0000
# 2 35.8763 112.1808 12.5044 0.0000 0.0000 0.0000
# 3 34.5455 12.5044 42.6970 0.0000 0.0000 0.0000
# 4 0.0000 0.0000 0.0000 47.6413 0.0000 0.0000
# 5 0.0000 0.0000 0.0000 0.0000 34.4135 0.0000
# 6 0.0000 0.0000 0.0000 0.0000 0.0000 57.6426
#
#
#
# Elastic Compliance Matrix: (Units=1/GPa)
#
#
# Indices 1 2 3 4 5 6 
#
# 1 0.006759 -0.001605 -0.004999 0.000000 0.000000 0.000000
# 2 -0.001605 0.009596 -0.001512 0.000000 0.000000 0.000000
# 3 -0.004999 -0.001512 0.027908 0.000000 0.000000 0.000000
# 4 0.000000 0.000000 0.000000 0.020990 0.000000 0.000000
# 5 0.000000 0.000000 0.000000 0.000000 0.029058 0.000000
# 6 0.000000 0.000000 0.000000 0.000000 0.000000 0.017348
#
#
# Mechanical properties :
#
#
# Convention : Reuss Voigt Hill
#
# Bulk Modulus (GPa) = 35.67308 55.85953 45.76631
# Shear Modulus (GPa) = 36.43355 44.86993 40.65174
#
# Velocity S-wave (km/s) = 3.77319 4.18732 3.98564
# Velocity P-wave (km/s) = 5.73781 6.72355 6.25015
#
# Compressibility (1/GPa) = 0.02803234
#
# Stress axis : x y z
#
# Youngs Moduli (GPa) = 147.94054 104.21161 35.83148
#
# Poissons Ratio (x) = 0.16721 0.17913
# Poissons Ratio (y) = 0.23737 0.05418
# Poissons Ratio (z) = 0.73957 0.15758
#
# Static dielectric constant tensor:
#      x y z
#    x 1.973950 0.000000 0.000000 
#    y 0.000000 2.092530 0.000000 
#    z 0.000000 0.000000 2.032180 
# 
# From -- ./inp_files/1145.got.cif
#   From: 2010.05.17/outbox.cif.g08.bks.cpg/sg28_1_cif.got.tgz:1145.got - 2010.06.04 01:15:21.
