data_PCOD9339732
_publ_section_title
;
Structure prediction by ZEFSAII (Michael W. Deem and Ramdas Pophale) SiO2 
 PCOD9339732
Probable space group: P M A 2
;
_chemical_formula_sum "Si O2"
_cell_formula_units_Z 32
_cell_length_a 8.719491
_cell_length_b 15.776678
_cell_length_c 12.075676
_cell_angle_alpha 90.000000
_cell_angle_beta 90.000000
_cell_angle_gamma 90.000000
_cell_volume 1661.185561
_symmetry_space_group_name_H-M "P M A 2"
_symmetry_group_IT_number 28
_symmetry_cell_setting 'orthorhombic'
loop_
_space_group_symop_operation_xyz
x,y,z
-x,-y,z
1/2-x,y,z
1/2+x,-y,z
loop_
_atom_site_type_symbol
_atom_site_label
_atom_site_fract_x
_atom_site_fract_y
_atom_site_fract_z
Si Si1 0.434308 0.166063 0.776750
Si Si2 0.566923 0.908153 0.017069
Si Si3 0.932855 0.589031 0.011369
Si Si4 0.567475 0.354452 0.779569
Si Si5 0.566437 0.588629 0.545467
Si Si6 0.565076 0.749206 0.390474
Si Si7 0.932519 0.252325 0.145621
Si Si8 0.065741 0.091049 0.540381
O O1 0.250000 0.182362 0.771372
O O2 0.519309 0.255756 0.781334
O O3 0.479836 0.116624 0.665556
O O4 0.465518 0.114108 0.888312
O O5 0.750000 0.907736 0.032128
O O6 0.493954 0.833771 0.089865
O O7 0.500000 0.000000 0.044334
O O8 0.750000 0.587489 0.014199
O O9 0.000000 0.500000 0.052955
O O10 0.994160 0.668114 0.081700
O O11 0.990109 0.602721 0.885833
O O12 0.750000 0.363555 0.786537
O O13 0.505711 0.393248 0.665504
O O14 0.500000 0.500000 0.502730
O O15 0.750000 0.583697 0.556268
O O16 0.529838 0.667113 0.465131
O O17 0.750000 0.751483 0.374711
O O18 0.483817 0.745373 0.272872
O O19 0.519344 0.833275 0.458410
O O20 0.750000 0.256235 0.135049
O O21 0.250000 0.086741 0.538563
O O22 0.000000 0.000000 0.509859
#
# Coordination Sequence:
#
# PCOD9339732 Si02
#       8
#     4   4   4   4   4   4   4   4
#     4  10  20  38  63  92 128 170 204 252 316 377
#     4  11  23  40  66  95 130 170 212 261 317 379
#     4  12  25  44  68  95 129 167 210 259 316 380
#     4  12  23  37  63  97 131 167 208 255 312 377
#     4  11  23  42  66  93 128 166 209 258 312 375
#     4  10  23  44  66  87 123 171 213 261 317 372
#     4  12  26  44  66  94 127 165 215 267 319 380
#     4  10  21  39  63  93 126 164 208 253 311 370
#
# _framework density 19.263349999999999
#
# number of rings (size 3 to 8) (size 9 to 14) (size 15 to 20)
#    0.000    1.000    2.500    4.875    0.000    3.500 
#    0.000    2.500    0.000    0.000    0.000    0.000 
#    0.000    0.000    0.000    0.000    0.000    0.000 
#
# Total GULP energy -179062.289701 kJ/mol
# GULP energy per Si atom -5595.696553 kJ/mol
# Density = 1.921951 g / cm^3
# Si number density = 19.263350 Si / 1000 Ang^3
#
#
#
# Elastic Constant Matrix: (Units=GPa)
#
#
# Indices 1 2 3 4 5 6 
#
# 1 107.4289 80.1269 69.2299 0.0000 0.0000 0.0000
# 2 80.1269 194.9824 74.1973 0.0000 0.0000 0.0000
# 3 69.2299 74.1973 129.2208 0.0000 0.0000 0.0000
# 4 0.0000 0.0000 0.0000 1.0203 0.0000 0.0000
# 5 0.0000 0.0000 0.0000 0.0000 163.6575 0.0000
# 6 0.0000 0.0000 0.0000 0.0000 0.0000 34.9451
#
#
#
# Elastic Compliance Matrix: (Units=1/GPa)
#
#
# Indices 1 2 3 4 5 6 
#
# 1 0.016767 -0.004443 -0.006432 0.000000 0.000000 0.000000
# 2 -0.004443 0.007740 -0.002064 0.000000 0.000000 0.000000
# 3 -0.006432 -0.002064 0.012370 0.000000 0.000000 0.000000
# 4 0.000000 0.000000 0.000000 0.980124 0.000000 0.000000
# 5 0.000000 0.000000 0.000000 0.000000 0.006110 0.000000
# 6 0.000000 0.000000 0.000000 0.000000 0.000000 0.028616
#
#
# Mechanical properties :
#
#
# Convention : Reuss Voigt Hill
#
# Bulk Modulus (GPa) = 90.91488 97.63782 94.27635
# Shear Modulus (GPa) = 4.62419 53.79642 29.21031
#
# Velocity S-wave (km/s) = 1.55104 5.29032 3.89828
# Velocity P-wave (km/s) = 7.10675 9.38682 8.32521
#
# Compressibility (1/GPa) = 0.01099930
#
# Stress axis : x y z
#
# Youngs Moduli (GPa) = 59.64065 129.20261 80.84287
#
# Poissons Ratio (x) = 0.57402 0.51998
# Poissons Ratio (y) = 0.26497 0.16685
# Poissons Ratio (z) = 0.38361 0.26666
#
# Static dielectric constant tensor:
#      x y z
#    x 1.643390 0.000000 0.000000 
#    y 0.000000 1.654300 0.000000 
#    z 0.000000 0.000000 1.648730 
# 
# From -- ./inp_files/5007.got.cif
#   From: 2010.05.17/outbox.cif.g08.bks.cpg/sg28_3_cif.got.tgz:5007.got - 2010.06.04 01:15:21.
