data_PCOD9339390
_publ_section_title
;
Structure prediction by ZEFSAII (Michael W. Deem and Ramdas Pophale) SiO2 
 PCOD9339390
Probable space group: P M A 2
;
_chemical_formula_sum "Si O2"
_cell_formula_units_Z 28
_cell_length_a 8.629231
_cell_length_b 9.463444
_cell_length_c 18.781292
_cell_angle_alpha 90.000000
_cell_angle_beta 90.000000
_cell_angle_gamma 90.000000
_cell_volume 1533.722456
_symmetry_space_group_name_H-M "P M A 2"
_symmetry_group_IT_number 28
_symmetry_cell_setting 'orthorhombic'
loop_
_space_group_symop_operation_xyz
x,y,z
-x,-y,z
1/2-x,y,z
1/2+x,-y,z
loop_
_atom_site_type_symbol
_atom_site_label
_atom_site_fract_x
_atom_site_fract_y
_atom_site_fract_z
Si Si1 0.435842 0.658947 0.021080
Si Si2 0.563999 0.158433 0.586498
Si Si3 0.062783 0.841935 0.315121
Si Si4 0.563032 0.157252 0.155194
Si Si5 0.435349 0.340079 0.874767
Si Si6 0.937175 0.342015 0.449211
Si Si7 0.063956 0.339936 0.716564
O O1 0.500000 0.500000 0.025446
O O2 0.250000 0.654091 0.019465
O O3 0.488716 0.744029 0.090607
O O4 0.494414 0.725057 0.946470
O O5 0.750000 0.153655 0.587921
O O6 0.515194 0.247273 0.516750
O O7 0.503826 0.240903 0.655715
O O8 0.500000 0.000000 0.583646
O O9 0.250000 0.848306 0.317126
O O10 0.015705 0.796944 0.235077
O O11 0.011007 0.735639 0.376732
O O12 0.000000 0.000000 0.327535
O O13 0.750000 0.153756 0.153909
O O14 0.500000 0.000000 0.144826
O O15 0.500000 0.500000 0.873627
O O16 0.250000 0.343434 0.881346
O O17 0.475602 0.283785 0.796202
O O18 0.750000 0.347745 0.448773
O O19 0.000000 0.500000 0.454691
O O20 0.250000 0.345827 0.711101
O O21 0.000000 0.500000 0.709286
#
# Coordination Sequence:
#
# PCOD9339390 Si02
#       7
#     4   4   4   4   4   4   4
#     4  10  19  31  49  75 104 135 172 214 258 304
#     4  11  23  38  56  79 107 140 176 215 261 312
#     4   9  18  35  55  76 103 135 172 212 255 304
#     4   9  19  34  52  74 102 136 173 212 255 305
#     4   9  17  30  50  75 102 134 171 211 257 307
#     4  10  22  37  55  80 108 137 171 212 256 304
#     4  10  20  35  56  81 107 137 175 218 263 312
#
# _framework density 18.256236999999999
#
# number of rings (size 3 to 8) (size 9 to 14) (size 15 to 20)
#    0.000    2.286    0.000    3.429    0.000    6.286 
#    0.000    0.714    0.000    1.714    0.000    0.000 
#    0.000    0.000    0.000    0.000    0.000    0.000 
#
# Total GULP energy -156198.333433 kJ/mol
# GULP energy per Si atom -5578.511908 kJ/mol
# Density = 1.821468 g / cm^3
# Si number density = 18.256237 Si / 1000 Ang^3
#
#
#
# Elastic Constant Matrix: (Units=GPa)
#
#
# Indices 1 2 3 4 5 6 
#
# 1 35.5402 27.4651 48.7419 0.0000 0.0000 0.0000
# 2 27.4651 105.7551 107.5358 0.0000 0.0000 0.0000
# 3 48.7419 107.5358 215.1171 0.0000 0.0000 0.0000
# 4 0.0000 0.0000 0.0000 -35.6105 0.0000 0.0000
# 5 0.0000 0.0000 0.0000 0.0000 388.4457 0.0000
# 6 0.0000 0.0000 0.0000 0.0000 0.0000 29.3471
#
#
#
# Elastic Compliance Matrix: (Units=1/GPa)
#
#
# Indices 1 2 3 4 5 6 
#
# 1 0.041133 -0.002452 -0.008094 0.000000 0.000000 0.000000
# 2 -0.002452 0.019377 -0.009131 0.000000 0.000000 0.000000
# 3 -0.008094 -0.009131 0.011047 0.000000 0.000000 0.000000
# 4 0.000000 0.000000 0.000000 -0.028082 0.000000 0.000000
# 5 0.000000 0.000000 0.000000 0.000000 0.002574 0.000000
# 6 0.000000 0.000000 0.000000 0.000000 0.000000 0.034075
#
#
# Mechanical properties :
#
#
# Convention : Reuss Voigt Hill
#
# Bulk Modulus (GPa) = 31.05289 80.43311 55.74300
# Shear Modulus (GPa) = 38.39824 87.94779 63.17302
#
# Velocity S-wave (km/s) = 4.59114 6.94829 5.88886
# Velocity P-wave (km/s) = 6.71946 10.41754 8.76574
#
# Compressibility (1/GPa) = 0.03220313
#
# Stress axis : x y z
#
# Youngs Moduli (GPa) = 24.31137 51.60653 90.51999
#
# Poissons Ratio (x) = 0.12653 0.73271
# Poissons Ratio (y) = 0.05960 0.82655
# Poissons Ratio (z) = 0.19679 0.47123
#
# Static dielectric constant tensor:
#      x y z
#    x 1.618540 0.000000 0.000000 
#    y 0.000000 1.577570 0.000000 
#    z 0.000000 0.000000 1.669610 
# 
# From -- ./inp_files/6784.got.cif
#   From: 2010.05.17/outbox.cif.g08.bks.cpg/sg28_4_cif.got.tgz:6784.got - 2010.06.04 01:15:21.
