data_PCOD9339956
_publ_section_title
;
Structure prediction by ZEFSAII (Michael W. Deem and Ramdas Pophale) SiO2 
 PCOD9339956
Probable space group: P M A 2
;
_chemical_formula_sum "Si O2"
_cell_formula_units_Z 20
_cell_length_a 19.751265
_cell_length_b 8.018045
_cell_length_c 4.984258
_cell_angle_alpha 90.000000
_cell_angle_beta 90.000000
_cell_angle_gamma 90.000000
_cell_volume 789.339652
_symmetry_space_group_name_H-M "P M A 2"
_symmetry_group_IT_number 28
_symmetry_cell_setting 'orthorhombic'
loop_
_space_group_symop_operation_xyz
x,y,z
-x,-y,z
1/2-x,y,z
1/2+x,-y,z
loop_
_atom_site_type_symbol
_atom_site_label
_atom_site_fract_x
_atom_site_fract_y
_atom_site_fract_z
Si Si1 0.823650 0.966270 0.300440
Si Si2 0.823022 0.286906 0.666661
Si Si3 0.867998 0.654084 0.647683
Si Si4 0.957016 0.656493 0.156807
Si Si5 0.059281 0.903593 0.948974
O O1 0.750000 0.929513 0.175813
O O2 0.835556 0.825158 0.529911
O O3 0.821440 0.151070 0.428975
O O4 0.886583 0.980258 0.099892
O O5 0.750000 0.262619 0.811825
O O6 0.827399 0.482513 0.601348
O O7 0.891871 0.230766 0.811506
O O8 0.893005 0.661017 0.953612
O O9 0.932754 0.634531 0.457734
O O10 0.000000 0.500000 0.064259
O O11 0.009844 0.807148 0.147919
O O12 0.000000 0.000000 0.779720
#
# Coordination Sequence:
#
# PCOD9339956 Si02
#       5
#     4   4   4   4   4
#     4  11  26  47  72 108 150 201 258 315 385 471
#     4  11  26  48  74 107 151 205 258 319 393 469
#     4  12  26  49  76 111 150 201 252 320 385 458
#     4  12  25  45  74 110 151 191 253 316 381 459
#     4  12  24  45  74 107 152 204 255 326 390 460
#
# _framework density 25.337637000000001
#
# number of rings (size 3 to 8) (size 9 to 14) (size 15 to 20)
#    0.000    0.400    4.000    4.200    2.800    0.800 
#    0.000    2.000    0.000    0.000    0.000    0.000 
#    0.000    0.000    0.000    0.000    0.000    0.000 
#
# Total GULP energy -111728.695346 kJ/mol
# GULP energy per Si atom -5586.434767 kJ/mol
# Density = 2.527997 g / cm^3
# Si number density = 25.337637 Si / 1000 Ang^3
#
#
#
# Elastic Constant Matrix: (Units=GPa)
#
#
# Indices 1 2 3 4 5 6 
#
# 1 169.5786 28.0628 -8.6108 0.0000 0.0000 0.0000
# 2 28.0628 162.8660 6.9869 0.0000 0.0000 0.0000
# 3 -8.6108 6.9869 14.7505 0.0000 0.0000 0.0000
# 4 0.0000 0.0000 0.0000 30.7022 0.0000 0.0000
# 5 0.0000 0.0000 0.0000 0.0000 30.2799 0.0000
# 6 0.0000 0.0000 0.0000 0.0000 0.0000 23.7958
#
#
#
# Elastic Compliance Matrix: (Units=1/GPa)
#
#
# Indices 1 2 3 4 5 6 
#
# 1 0.006326 -0.001274 0.004297 0.000000 0.000000 0.000000
# 2 -0.001274 0.006524 -0.003834 0.000000 0.000000 0.000000
# 3 0.004297 -0.003834 0.072118 0.000000 0.000000 0.000000
# 4 0.000000 0.000000 0.000000 0.032571 0.000000 0.000000
# 5 0.000000 0.000000 0.000000 0.000000 0.033025 0.000000
# 6 0.000000 0.000000 0.000000 0.000000 0.000000 0.042024
#
#
# Mechanical properties :
#
#
# Convention : Reuss Voigt Hill
#
# Bulk Modulus (GPa) = 11.99838 44.45255 28.22547
# Shear Modulus (GPa) = 22.52308 38.33932 30.43120
#
# Velocity S-wave (km/s) = 2.98471 3.89413 3.46934
# Velocity P-wave (km/s) = 4.07721 6.14826 5.21655
#
# Compressibility (1/GPa) = 0.08334455
#
# Stress axis : x y z
#
# Youngs Moduli (GPa) = 158.07722 153.27831 13.86607
#
# Poissons Ratio (x) = 0.19533 -0.05958
# Poissons Ratio (y) = 0.20144 0.05317
# Poissons Ratio (z) = -0.67918 0.58770
#
# Static dielectric constant tensor:
#      x y z
#    x 1.893870 0.000000 0.000000 
#    y 0.000000 2.150570 0.000000 
#    z 0.000000 0.000000 1.976280 
# 
# From -- ./inp_files/1037.got.cif
#   From: 2010.05.17/outbox.cif.g08.bks.cpg/sg28_1_cif.got.tgz:1037.got - 2010.06.04 01:15:21.
