data_PCOD9339500
_publ_section_title
;
Structure prediction by ZEFSAII (Michael W. Deem and Ramdas Pophale) SiO2 
 PCOD9339500
Probable space group: P M A 2
;
_chemical_formula_sum "Si O2"
_cell_formula_units_Z 16
_cell_length_a 5.481092
_cell_length_b 7.765144
_cell_length_c 14.347560
_cell_angle_alpha 90.000000
_cell_angle_beta 90.000000
_cell_angle_gamma 90.000000
_cell_volume 610.653225
_symmetry_space_group_name_H-M "P M A 2"
_symmetry_group_IT_number 28
_symmetry_cell_setting 'orthorhombic'
loop_
_space_group_symop_operation_xyz
x,y,z
-x,-y,z
1/2-x,y,z
1/2+x,-y,z
loop_
_atom_site_type_symbol
_atom_site_label
_atom_site_fract_x
_atom_site_fract_y
_atom_site_fract_z
Si Si1 0.250000 0.892892 0.130710
Si Si2 0.250000 0.406452 0.484973
Si Si3 0.750000 0.895311 0.850272
Si Si4 0.250000 0.560675 0.178743
Si Si5 0.750000 0.978002 0.523426
Si Si6 0.250000 0.896553 0.331599
Si Si7 0.250000 0.410243 0.987865
Si Si8 0.250000 0.406240 0.710373
O O1 0.250000 0.705447 0.089289
O O2 0.250000 0.784108 0.236233
O O3 0.500000 0.000000 0.121305
O O4 0.500000 0.500000 0.454336
O O5 0.250000 0.201564 0.466131
O O6 0.250000 0.401922 0.597724
O O7 0.750000 0.777314 0.941704
O O8 0.750000 0.776908 0.758624
O O9 0.500000 0.000000 0.851150
O O10 0.500000 0.500000 0.230599
O O11 0.250000 0.399322 0.100093
O O12 0.500000 0.000000 0.576830
O O13 0.750000 0.126952 0.442811
O O14 0.500000 0.000000 0.316049
O O15 0.500000 0.500000 0.954007
O O16 0.500000 0.500000 0.736987
#
# Coordination Sequence:
#
# PCOD9339500 Si02
#       8
#     2   2   2   2   2   2   2   2
#     4  10  19  35  60  84 109 142 188 237 276 333
#     4  10  21  36  56  84 116 150 192 233 278 335
#     4  12  24  38  60  89 115 144 192 243 278 329
#     4  10  21  38  58  83 113 148 184 228 287 345
#     4  10  19  33  56  80 111 151 188 230 284 333
#     4   8  16  30  52  76 104 140 182 222 274 329
#     4  10  21  41  60  79 114 153 185 223 286 348
#     4  10  21  39  60  81 114 158 189 226 285 340
#
# _framework density 26.201449
#
# number of rings (size 3 to 8) (size 9 to 14) (size 15 to 20)
#    0.000    2.000    0.000    3.750    0.000    1.000 
#    0.000   15.000    0.000   40.500    0.000    0.000 
#    0.000    0.000    0.000    0.000    0.000    0.000 
#
# Total GULP energy -89211.474257 kJ/mol
# GULP energy per Si atom -5575.717141 kJ/mol
# Density = 2.614181 g / cm^3
# Si number density = 26.201449 Si / 1000 Ang^3
#
#
#
# Elastic Constant Matrix: (Units=GPa)
#
#
# Indices 1 2 3 4 5 6 
#
# 1 315.8364 120.0767 21.5761 0.0000 0.0000 0.0000
# 2 120.0767 144.2659 0.8667 0.0000 0.0000 0.0000
# 3 21.5761 0.8667 89.8961 0.0000 0.0000 0.0000
# 4 0.0000 0.0000 0.0000 30.5127 0.0000 0.0000
# 5 0.0000 0.0000 0.0000 0.0000 80.1454 0.0000
# 6 0.0000 0.0000 0.0000 0.0000 0.0000 75.6202
#
#
#
# Elastic Compliance Matrix: (Units=1/GPa)
#
#
# Indices 1 2 3 4 5 6 
#
# 1 0.004738 -0.003937 -0.001099 0.000000 0.000000 0.000000
# 2 -0.003937 0.010203 0.000847 0.000000 0.000000 0.000000
# 3 -0.001099 0.000847 0.011380 0.000000 0.000000 0.000000
# 4 0.000000 0.000000 0.000000 0.032773 0.000000 0.000000
# 5 0.000000 0.000000 0.000000 0.000000 0.012477 0.000000
# 6 0.000000 0.000000 0.000000 0.000000 0.000000 0.013224
#
#
# Mechanical properties :
#
#
# Convention : Reuss Voigt Hill
#
# Bulk Modulus (GPa) = 55.73594 92.78194 74.25894
# Shear Modulus (GPa) = 50.42568 64.42092 57.42330
#
# Velocity S-wave (km/s) = 4.39171 4.96388 4.68654
# Velocity P-wave (km/s) = 6.85817 8.26689 7.59526
#
# Compressibility (1/GPa) = 0.01794175
#
# Stress axis : x y z
#
# Youngs Moduli (GPa) = 211.05479 98.00569 87.87636
#
# Poissons Ratio (x) = 0.38585 0.09660
# Poissons Ratio (y) = 0.83094 -0.07439
# Poissons Ratio (z) = 0.23200 -0.08297
#
# Static dielectric constant tensor:
#      x y z
#    x 2.023320 0.000000 0.000000 
#    y 0.000000 2.140580 0.000000 
#    z 0.000000 0.000000 2.107560 
# 
# From -- ./inp_files/7001.got.cif
#   From: 2010.05.17/outbox.cif.g08.bks.cpg/sg28_4_cif.got.tgz:7001.got - 2010.06.04 01:15:21.
