data_PCOD9339579
_publ_section_title
;
Structure prediction by ZEFSAII (Michael W. Deem and Ramdas Pophale) SiO2 
 PCOD9339579
Probable space group: P M A 2
;
_chemical_formula_sum "Si O2"
_cell_formula_units_Z 28
_cell_length_a 8.753371
_cell_length_b 15.731760
_cell_length_c 12.959503
_cell_angle_alpha 90.000000
_cell_angle_beta 90.000000
_cell_angle_gamma 90.000000
_cell_volume 1784.600436
_symmetry_space_group_name_H-M "P M A 2"
_symmetry_group_IT_number 28
_symmetry_cell_setting 'orthorhombic'
loop_
_space_group_symop_operation_xyz
x,y,z
-x,-y,z
1/2-x,y,z
1/2+x,-y,z
loop_
_atom_site_type_symbol
_atom_site_label
_atom_site_fract_x
_atom_site_fract_y
_atom_site_fract_z
Si Si1 0.566859 0.726149 0.446930
Si Si2 0.066986 0.595192 0.284089
Si Si3 0.432340 0.914663 0.677407
Si Si4 0.067932 0.084964 0.445747
Si Si5 0.932300 0.595407 0.842164
Si Si6 0.066721 0.724691 0.678073
Si Si7 0.432845 0.595262 0.054242
O O1 0.750000 0.719502 0.456169
O O2 0.502775 0.655291 0.370820
O O3 0.530916 0.821164 0.404096
O O4 0.494624 0.717952 0.560950
O O5 0.250000 0.590645 0.294164
O O6 0.032504 0.630167 0.168382
O O7 0.000000 0.500000 0.292459
O O8 0.250000 0.922942 0.671726
O O9 0.500508 0.912914 0.561677
O O10 0.468704 0.820494 0.718887
O O11 0.500000 0.000000 0.728203
O O12 0.250000 0.076294 0.451176
O O13 0.000000 0.000000 0.394775
O O14 0.750000 0.590147 0.843383
O O15 0.000000 0.500000 0.831488
O O16 0.991002 0.654339 0.750024
O O17 0.992393 0.632875 0.951447
O O18 0.250000 0.714995 0.677340
O O19 0.500000 0.500000 0.057671
O O20 0.250000 0.592465 0.041433
#
# Coordination Sequence:
#
# PCOD9339579 Si02
#       7
#     4   4   4   4   4   4   4
#     4  10  20  32  46  68  97 126 157 191 228 274
#     4  10  20  33  50  70  93 123 156 191 230 272
#     4   9  16  26  43  64  88 118 150 187 226 266
#     4   9  16  26  42  63  88 118 151 188 226 266
#     4  11  21  33  50  70  93 122 155 192 232 273
#     4  10  20  33  47  67  96 127 158 190 227 274
#     4   9  17  31  50  70  90 114 150 193 233 271
#
# _framework density 15.689786
#
# number of rings (size 3 to 8) (size 9 to 14) (size 15 to 20)
#    0.000    2.286    0.000    5.571    0.000    5.714 
#    0.000    2.857    0.000    0.000    0.000    1.000 
#    0.000    6.857    0.000    0.000    0.000    0.000 
#
# Total GULP energy -155938.467831 kJ/mol
# GULP energy per Si atom -5569.230994 kJ/mol
# Density = 1.565408 g / cm^3
# Si number density = 15.689786 Si / 1000 Ang^3
#
#
#
# Elastic Constant Matrix: (Units=GPa)
#
#
# Indices 1 2 3 4 5 6 
#
# 1 91.9822 53.0920 42.9345 0.0000 0.0000 0.0000
# 2 53.0920 112.6959 58.5654 0.0000 0.0000 0.0000
# 3 42.9345 58.5654 84.4313 0.0000 0.0000 0.0000
# 4 0.0000 0.0000 0.0000 -1.9147 0.0000 0.0000
# 5 0.0000 0.0000 0.0000 0.0000 17.1770 0.0000
# 6 0.0000 0.0000 0.0000 0.0000 0.0000 25.9105
#
#
#
# Elastic Compliance Matrix: (Units=1/GPa)
#
#
# Indices 1 2 3 4 5 6 
#
# 1 0.015972 -0.005166 -0.004539 0.000000 0.000000 0.000000
# 2 -0.005166 0.015546 -0.008156 0.000000 0.000000 0.000000
# 3 -0.004539 -0.008156 0.019810 0.000000 0.000000 0.000000
# 4 0.000000 0.000000 0.000000 -0.522273 0.000000 0.000000
# 5 0.000000 0.000000 0.000000 0.000000 0.058217 0.000000
# 6 0.000000 0.000000 0.000000 0.000000 0.000000 0.038594
#
#
# Mechanical properties :
#
#
# Convention : Reuss Voigt Hill
#
# Bulk Modulus (GPa) = 64.08008 66.47703 65.27855
# Shear Modulus (GPa) = -15.00551 17.20239 1.09844
#
# Velocity S-wave (km/s) = -3.09591 3.31480 0.83763
# Velocity P-wave (km/s) = 5.30576 7.55725 6.52929
#
# Compressibility (1/GPa) = 0.01560547
#
# Stress axis : x y z
#
# Youngs Moduli (GPa) = 62.60997 64.32614 50.48076
#
# Poissons Ratio (x) = 0.33230 0.22911
# Poissons Ratio (y) = 0.32343 0.41174
# Poissons Ratio (z) = 0.28417 0.52467
#
# Static dielectric constant tensor:
#      x y z
#    x 1.521940 0.000000 0.000000 
#    y 0.000000 1.582960 0.000000 
#    z 0.000000 0.000000 1.513090 
# 
# From -- ./inp_files/5130.got.cif
#   From: 2010.05.17/outbox.cif.g08.bks.cpg/sg28_3_cif.got.tgz:5130.got - 2010.06.04 01:15:21.
