data_PCOD9339241
_publ_section_title
;
Structure prediction by ZEFSAII (Michael W. Deem and Ramdas Pophale) SiO2 
 PCOD9339241
Probable space group: P M A 2
;
_chemical_formula_sum "Si O2"
_cell_formula_units_Z 24
_cell_length_a 8.583939
_cell_length_b 9.160836
_cell_length_c 16.411510
_cell_angle_alpha 90.000000
_cell_angle_beta 90.000000
_cell_angle_gamma 90.000000
_cell_volume 1290.536443
_symmetry_space_group_name_H-M "P M A 2"
_symmetry_group_IT_number 28
_symmetry_cell_setting 'orthorhombic'
loop_
_space_group_symop_operation_xyz
x,y,z
-x,-y,z
1/2-x,y,z
1/2+x,-y,z
loop_
_atom_site_type_symbol
_atom_site_label
_atom_site_fract_x
_atom_site_fract_y
_atom_site_fract_z
Si Si1 0.062556 0.834965 0.632800
Si Si2 0.063987 0.166832 0.462993
Si Si3 0.437677 0.662753 0.794686
Si Si4 0.564014 0.167139 0.294686
Si Si5 0.437444 0.834965 0.956573
Si Si6 0.936013 0.833168 0.126380
O O1 0.250000 0.838968 0.627651
O O2 0.013237 0.746418 0.712681
O O3 0.995993 0.769710 0.548446
O O4 0.000000 0.000000 0.640768
O O5 0.250000 0.163873 0.460617
O O6 0.998365 0.233836 0.379204
O O7 0.000000 0.000000 0.464471
O O8 0.500000 0.500000 0.794686
O O9 0.250000 0.660960 0.794686
O O10 0.486764 0.746418 0.876692
O O11 0.750000 0.163256 0.294685
O O12 0.501632 0.233836 0.210168
O O13 0.500000 0.000000 0.294686
O O14 0.250000 0.838967 0.961721
O O15 0.504007 0.769710 0.040927
O O16 0.500000 0.000000 0.948605
O O17 0.750000 0.836128 0.128755
O O18 0.000000 0.000000 0.124902
#
# Coordination Sequence:
#
# PCOD9339241 Si02
#       6
#     4   4   4   4   4   4
#     4  10  19  33  51  75 101 131 167 207 249 296
#     4  10  17  26  41  65  95 129 163 200 242 291
#     4  10  23  38  54  74 100 130 167 208 252 300
#     4  10  16  24  38  60  93 130 161 198 241 288
#     4  10  19  33  51  75 101 131 167 207 249 296
#     4  10  17  26  41  65  95 129 163 200 242 291
#
# _framework density 18.596916
#
# number of rings (size 3 to 8) (size 9 to 14) (size 15 to 20)
#    0.000    2.000    0.000   10.000    0.000    2.667 
#    0.000    0.000    0.000    0.000    0.000    1.167 
#    0.000    0.000    0.000    0.000    0.000    0.000 
#
# Total GULP energy -133865.967232 kJ/mol
# GULP energy per Si atom -5577.748635 kJ/mol
# Density = 1.855459 g / cm^3
# Si number density = 18.596916 Si / 1000 Ang^3
#
#
#
# Elastic Constant Matrix: (Units=GPa)
#
#
# Indices 1 2 3 4 5 6 
#
# 1 135.0624 16.0750 74.8310 0.0000 0.0000 0.0000
# 2 16.0750 35.8050 52.7708 0.0000 0.0000 0.0000
# 3 74.8310 52.7708 248.6118 0.0000 0.0000 0.0000
# 4 0.0000 0.0000 0.0000 -4.6498 0.0000 0.0000
# 5 0.0000 0.0000 0.0000 0.0000 33.5985 0.0000
# 6 0.0000 0.0000 0.0000 0.0000 0.0000 15.8027
#
#
#
# Elastic Compliance Matrix: (Units=1/GPa)
#
#
# Indices 1 2 3 4 5 6 
#
# 1 0.008886 -0.000069 -0.002660 0.000000 0.000000 0.000000
# 2 -0.000069 0.040645 -0.008607 0.000000 0.000000 0.000000
# 3 -0.002660 -0.008607 0.006650 0.000000 0.000000 0.000000
# 4 0.000000 0.000000 0.000000 -0.215064 0.000000 0.000000
# 5 0.000000 0.000000 0.000000 0.000000 0.029763 0.000000
# 6 0.000000 0.000000 0.000000 0.000000 0.000000 0.063280
#
#
# Mechanical properties :
#
#
# Convention : Reuss Voigt Hill
#
# Bulk Modulus (GPa) = 29.84243 78.53701 54.18972
# Shear Modulus (GPa) = -156.25257 27.33713 -64.45772
#
# Velocity S-wave (km/s) = -9.17622 3.83819 -5.89370
# Velocity P-wave (km/s) = 9.80760 7.87180 4.13665
#
# Compressibility (1/GPa) = 0.03350933
#
# Stress axis : x y z
#
# Youngs Moduli (GPa) = 112.53712 24.60345 150.38011
#
# Poissons Ratio (x) = 0.00170 0.40001
# Poissons Ratio (y) = 0.00777 1.29425
# Poissons Ratio (z) = 0.29935 0.21175
#
# Static dielectric constant tensor:
#      x y z
#    x 1.621750 0.000000 0.000000 
#    y 0.000000 1.594480 0.000000 
#    z 0.000000 0.000000 1.733510 
# 
# From -- ./inp_files/6667.got.cif
#   From: 2010.05.17/outbox.cif.g08.bks.cpg/sg28_4_cif.got.tgz:6667.got - 2010.06.04 01:15:21.
