data_PCOD9339147
_publ_section_title
;
Structure prediction by ZEFSAII (Michael W. Deem and Ramdas Pophale) SiO2 
 PCOD9339147
Probable space group: P C C 2
;
_chemical_formula_sum "Si O2"
_cell_formula_units_Z 28
_cell_length_a 19.583263
_cell_length_b 5.346369
_cell_length_c 10.017646
_cell_angle_alpha 90.000000
_cell_angle_beta 90.000000
_cell_angle_gamma 90.000000
_cell_volume 1048.841027
_symmetry_space_group_name_H-M "P C C 2"
_symmetry_group_IT_number 27
_symmetry_cell_setting 'orthorhombic'
loop_
_space_group_symop_operation_xyz
x,y,z
-x,-y,z
-x,y,1/2+z
x,-y,1/2+z
loop_
_atom_site_type_symbol
_atom_site_label
_atom_site_fract_x
_atom_site_fract_y
_atom_site_fract_z
Si Si1 0.125227 0.900000 0.783190
Si Si2 0.923574 0.597024 0.062468
Si Si3 0.178616 0.654566 0.149122
Si Si4 0.740735 0.974298 0.456911
Si Si5 0.500000 0.000000 0.986856
Si Si6 0.302653 0.523020 0.336687
Si Si7 0.442452 0.706707 0.230952
Si Si8 0.000000 0.000000 0.912202
O O1 0.116572 0.176769 0.714733
O O2 0.129951 0.666501 0.680627
O O3 0.191518 0.964312 0.865837
O O4 0.047935 0.825656 0.827393
O O5 0.863292 0.422567 0.006199
O O6 0.000000 0.500000 0.085177
O O7 0.942572 0.850688 0.990601
O O8 0.236804 0.530949 0.242077
O O9 0.228474 0.887149 0.096544
O O10 0.693165 0.749061 0.404236
O O11 0.709413 0.249908 0.442677
O O12 0.551691 0.123573 0.096737
O O13 0.460800 0.171831 0.876776
O O14 0.368952 0.585916 0.250837
O O15 0.500000 0.500000 0.208024
#
# Coordination Sequence:
#
# PCOD9339147 Si02
#       8
#     4   4   4   4   2   4   4   2
#     4  11  24  45  62  96 133 184 242 311 375 463
#     4  12  24  41  65  95 129 187 245 310 380 458
#     4  11  26  44  70 101 149 194 252 316 392 472
#     4  11  26  46  73 108 149 199 247 315 387 469
#     4  10  26  48  80 122 168 216 280 338 410 502
#     4  11  28  47  78 113 154 200 259 315 395 475
#     4  11  26  50  83 121 169 222 275 344 417 498
#     4  12  26  40  68  92 136 186 254 316 388 454
#
# _framework density 26.696133
#
# number of rings (size 3 to 8) (size 9 to 14) (size 15 to 20)
#    0.000    0.857    1.429    4.286   12.000    4.000 
#    0.000    0.000    0.000    0.000    0.000    0.000 
#    0.000    0.000    0.000    0.000    0.000    0.000 
#
# Total GULP energy -156033.283533 kJ/mol
# GULP energy per Si atom -5572.617269 kJ/mol
# Density = 2.663537 g / cm^3
# Si number density = 26.696133 Si / 1000 Ang^3
#
#
#
# Elastic Constant Matrix: (Units=GPa)
#
#
# Indices 1 2 3 4 5 6 
#
# 1 125.4380 28.8065 22.2783 0.0000 0.0000 0.0000
# 2 28.8065 83.3592 1.2828 0.0000 0.0000 0.0000
# 3 22.2783 1.2828 83.3147 0.0000 0.0000 0.0000
# 4 0.0000 0.0000 0.0000 -8.0421 0.0000 0.0000
# 5 0.0000 0.0000 0.0000 0.0000 62.5378 0.0000
# 6 0.0000 0.0000 0.0000 0.0000 0.0000 42.6624
#
#
#
# Elastic Compliance Matrix: (Units=1/GPa)
#
#
# Indices 1 2 3 4 5 6 
#
# 1 0.009111 -0.003112 -0.002388 0.000000 0.000000 0.000000
# 2 -0.003112 0.013062 0.000631 0.000000 0.000000 0.000000
# 3 -0.002388 0.000631 0.012632 0.000000 0.000000 0.000000
# 4 0.000000 0.000000 0.000000 -0.124345 0.000000 0.000000
# 5 0.000000 0.000000 0.000000 0.000000 0.015990 0.000000
# 6 0.000000 0.000000 0.000000 0.000000 0.000000 0.023440
#
#
# Mechanical properties :
#
#
# Convention : Reuss Voigt Hill
#
# Bulk Modulus (GPa) = 39.89437 44.09414 41.99426
# Shear Modulus (GPa) = -156.16625 35.41456 -60.37585
#
# Velocity S-wave (km/s) = -7.65668 3.64618 -4.76078
# Velocity P-wave (km/s) = 7.94921 5.85483 3.80203
#
# Compressibility (1/GPa) = 0.02506619
#
# Stress axis : x y z
#
# Youngs Moduli (GPa) = 109.75947 76.55865 79.16650
#
# Poissons Ratio (x) = 0.23823 0.18908
# Poissons Ratio (y) = 0.34154 -0.04995
# Poissons Ratio (z) = 0.26214 -0.04830
#
# Static dielectric constant tensor:
#      x y z
#    x 1.968860 0.000000 0.000000 
#    y 0.000000 2.495840 0.000000 
#    z 0.000000 0.000000 2.293170 
# 
# From -- ./inp_files/2853.got.cif
#   From: 2010.05.17/outbox.cif.g08.bks.cpg/sg27_2_cif.got.tgz:2853.got - 2010.06.04 01:11:05.
