data_PCOD9339475
_publ_section_title
;
Structure prediction by ZEFSAII (Michael W. Deem and Ramdas Pophale) SiO2 
 PCOD9339475
Probable space group: P M A 2
;
_chemical_formula_sum "Si O2"
_cell_formula_units_Z 32
_cell_length_a 9.592419
_cell_length_b 14.430172
_cell_length_c 12.670539
_cell_angle_alpha 90.000000
_cell_angle_beta 90.000000
_cell_angle_gamma 90.000000
_cell_volume 1753.859253
_symmetry_space_group_name_H-M "P M A 2"
_symmetry_group_IT_number 28
_symmetry_cell_setting 'orthorhombic'
loop_
_space_group_symop_operation_xyz
x,y,z
-x,-y,z
1/2-x,y,z
1/2+x,-y,z
loop_
_atom_site_type_symbol
_atom_site_label
_atom_site_fract_x
_atom_site_fract_y
_atom_site_fract_z
Si Si1 0.916897 0.095089 0.785090
Si Si2 0.909940 0.797753 0.208632
Si Si3 0.083862 0.792546 0.997314
Si Si4 0.582530 0.096196 0.387000
Si Si5 0.596966 0.411316 0.015049
Si Si6 0.090195 0.592911 0.491218
Si Si7 0.916919 0.221659 0.592995
Si Si8 0.030131 0.609143 0.253915
O O1 0.750000 0.079996 0.770427
O O2 0.937764 0.138047 0.900937
O O3 0.965236 0.170354 0.698316
O O4 0.000000 0.000000 0.772208
O O5 0.750000 0.830188 0.211071
O O6 0.009476 0.848120 0.292269
O O7 0.913544 0.687699 0.236784
O O8 0.983125 0.812425 0.095474
O O9 0.250000 0.795399 0.026041
O O10 0.053526 0.685914 0.963580
O O11 0.750000 0.084944 0.371151
O O12 0.560335 0.154205 0.493915
O O13 0.500000 0.000000 0.395696
O O14 0.500000 0.500000 0.002439
O O15 0.750000 0.436289 0.976788
O O16 0.605013 0.386589 0.140448
O O17 0.250000 0.572343 0.520206
O O18 0.030519 0.676188 0.562476
O O19 0.093146 0.628946 0.369087
O O20 0.000000 0.500000 0.497409
O O21 0.750000 0.233062 0.603288
O O22 0.000000 0.500000 0.261445
#
# Coordination Sequence:
#
# PCOD9339475 Si02
#       8
#     4   4   4   4   4   4   4   4
#     4  10  21  40  64  85 106 140 189 239 288 339
#     4  11  22  36  56  84 116 151 188 231 282 340
#     4   9  20  37  56  79 111 149 186 230 284 340
#     4  11  22  38  57  81 112 146 184 229 285 344
#     4   9  17  29  48  75 107 145 186 223 268 323
#     4  10  19  33  53  81 116 155 190 226 274 331
#     4   9  19  37  60  83 112 148 185 230 284 336
#     4   9  18  30  48  76 112 149 187 223 268 318
#
# _framework density 18.245477999999999
#
# number of rings (size 3 to 8) (size 9 to 14) (size 15 to 20)
#    0.000    2.250    1.250    1.500    0.000    8.500 
#    0.000    3.125    0.000    0.000    0.000    0.000 
#    0.000    0.000    0.000    0.000    0.000    0.000 
#
# Total GULP energy -178178.165885 kJ/mol
# GULP energy per Si atom -5568.067684 kJ/mol
# Density = 1.820395 g / cm^3
# Si number density = 18.245478 Si / 1000 Ang^3
#
#
#
# Elastic Constant Matrix: (Units=GPa)
#
#
# Indices 1 2 3 4 5 6 
#
# 1 83.1236 41.8990 35.9552 0.0000 0.0000 0.0000
# 2 41.8990 110.1574 44.4102 0.0000 0.0000 0.0000
# 3 35.9552 44.4102 76.2496 0.0000 0.0000 0.0000
# 4 0.0000 0.0000 0.0000 -19.1157 0.0000 0.0000
# 5 0.0000 0.0000 0.0000 0.0000 22.9536 0.0000
# 6 0.0000 0.0000 0.0000 0.0000 0.0000 29.5957
#
#
#
# Elastic Compliance Matrix: (Units=1/GPa)
#
#
# Indices 1 2 3 4 5 6 
#
# 1 0.016405 -0.004079 -0.005360 0.000000 0.000000 0.000000
# 2 -0.004079 0.012878 -0.005577 0.000000 0.000000 0.000000
# 3 -0.005360 -0.005577 0.018891 0.000000 0.000000 0.000000
# 4 0.000000 0.000000 0.000000 -0.052313 0.000000 0.000000
# 5 0.000000 0.000000 0.000000 0.000000 0.043566 0.000000
# 6 0.000000 0.000000 0.000000 0.000000 0.000000 0.033789
#
#
# Mechanical properties :
#
#
# Convention : Reuss Voigt Hill
#
# Bulk Modulus (GPa) = 55.12262 57.11771 56.12017
# Shear Modulus (GPa) = 45.74852 16.50449 31.12651
#
# Velocity S-wave (km/s) = 5.01282 3.01089 4.13484
# Velocity P-wave (km/s) = 7.98634 6.59245 7.32264
#
# Compressibility (1/GPa) = 0.01814137
#
# Stress axis : x y z
#
# Youngs Moduli (GPa) = 60.95835 77.65369 52.93645
#
# Poissons Ratio (x) = 0.31673 0.28374
# Poissons Ratio (y) = 0.24863 0.29523
# Poissons Ratio (z) = 0.32674 0.43308
#
# Static dielectric constant tensor:
#      x y z
#    x 1.599190 0.000000 0.000000 
#    y 0.000000 1.876610 0.000000 
#    z 0.000000 0.000000 1.635400 
# 
# From -- ./inp_files/5032.got.cif
#   From: 2010.05.17/outbox.cif.g08.bks.cpg/sg28_3_cif.got.tgz:5032.got - 2010.06.04 01:15:21.
