data_PCOD9339040
_publ_section_title
;
Structure prediction by ZEFSAII (Michael W. Deem and Ramdas Pophale) SiO2 
 PCOD9339040
Probable space group: P C C 2
;
_chemical_formula_sum "Si O2"
_cell_formula_units_Z 32
_cell_length_a 13.993458
_cell_length_b 7.716491
_cell_length_c 12.675334
_cell_angle_alpha 90.000000
_cell_angle_beta 90.000000
_cell_angle_gamma 90.000000
_cell_volume 1368.687543
_symmetry_space_group_name_H-M "P C C 2"
_symmetry_group_IT_number 27
_symmetry_cell_setting 'orthorhombic'
loop_
_space_group_symop_operation_xyz
x,y,z
-x,-y,z
-x,y,1/2+z
x,-y,1/2+z
loop_
_atom_site_type_symbol
_atom_site_label
_atom_site_fract_x
_atom_site_fract_y
_atom_site_fract_z
Si Si1 0.796407 0.629454 0.340880
Si Si2 0.334913 0.759060 0.542987
Si Si3 0.926060 0.776801 0.162474
Si Si4 0.405913 0.619531 0.763578
Si Si5 0.869656 0.829822 0.719676
Si Si6 0.472743 0.198413 0.461339
Si Si7 0.143346 0.684075 0.443892
Si Si8 0.721344 0.167570 0.038496
O O1 0.845205 0.683468 0.231570
O O2 0.693652 0.543694 0.310927
O O3 0.872800 0.502641 0.394506
O O4 0.772478 0.775386 0.429137
O O5 0.372915 0.710255 0.657016
O O6 0.426215 0.710231 0.472340
O O7 0.243610 0.657848 0.503910
O O8 0.299937 0.960444 0.538843
O O9 0.031743 0.727784 0.200723
O O10 0.899274 0.975820 0.187750
O O11 0.923658 0.749152 0.036853
O O12 0.500000 0.500000 0.751959
O O13 0.434967 0.770593 0.844987
O O14 0.845766 0.809766 0.843064
O O15 0.784831 0.781948 0.639235
O O16 0.385111 0.251037 0.537021
O O17 0.500000 0.000000 0.483037
#
# Coordination Sequence:
#
# PCOD9339040 Si02
#       8
#     4   4   4   4   4   4   4   4
#     4  11  25  45  70 102 152 192 237 312 373 448
#     4  11  22  43  69  99 142 188 249 300 354 449
#     4  11  26  49  71 108 144 184 260 300 371 447
#     4  11  23  41  66 100 144 195 234 300 368 442
#     4  11  26  45  79 104 139 199 242 317 368 435
#     4   9  22  39  64 100 136 186 240 292 355 439
#     4  12  26  45  72 105 145 188 242 306 373 445
#     4  10  22  44  70 101 142 193 244 298 370 434
#
# _framework density 23.380063
#
# number of rings (size 3 to 8) (size 9 to 14) (size 15 to 20)
#    0.000    1.250    2.500    1.500    3.500    9.500 
#    0.000    0.000    0.000    0.000    0.000    0.000 
#    0.000    0.000    0.000    0.000    0.000    0.000 
#
# Total GULP energy -178686.905434 kJ/mol
# GULP energy per Si atom -5583.965795 kJ/mol
# Density = 2.332685 g / cm^3
# Si number density = 23.380063 Si / 1000 Ang^3
#
#
#
# Elastic Constant Matrix: (Units=GPa)
#
#
# Indices 1 2 3 4 5 6 
#
# 1 133.5228 14.4978 59.8217 0.0000 0.0000 0.0000
# 2 14.4978 57.8704 33.4776 0.0000 0.0000 0.0000
# 3 59.8217 33.4776 175.2310 0.0000 0.0000 0.0000
# 4 0.0000 0.0000 0.0000 23.7570 0.0000 0.0000
# 5 0.0000 0.0000 0.0000 0.0000 34.0389 0.0000
# 6 0.0000 0.0000 0.0000 0.0000 0.0000 17.1579
#
#
#
# Elastic Compliance Matrix: (Units=1/GPa)
#
#
# Indices 1 2 3 4 5 6 
#
# 1 0.008856 -0.000528 -0.002922 0.000000 0.000000 0.000000
# 2 -0.000528 0.019459 -0.003537 0.000000 0.000000 0.000000
# 3 -0.002922 -0.003537 0.007380 0.000000 0.000000 0.000000
# 4 0.000000 0.000000 0.000000 0.042093 0.000000 0.000000
# 5 0.000000 0.000000 0.000000 0.000000 0.029378 0.000000
# 6 0.000000 0.000000 0.000000 0.000000 0.000000 0.058282
#
#
# Mechanical properties :
#
#
# Convention : Reuss Voigt Hill
#
# Bulk Modulus (GPa) = 46.04193 64.69094 55.36644
# Shear Modulus (GPa) = 26.78618 32.24588 29.51603
#
# Velocity S-wave (km/s) = 3.38847 3.71779 3.55694
# Velocity P-wave (km/s) = 5.91984 6.79402 6.37194
#
# Compressibility (1/GPa) = 0.02171933
#
# Stress axis : x y z
#
# Youngs Moduli (GPa) = 112.91739 51.39129 135.49694
#
# Poissons Ratio (x) = 0.02713 0.39599
# Poissons Ratio (y) = 0.05962 0.47929
# Poissons Ratio (z) = 0.33000 0.18179
#
# Static dielectric constant tensor:
#      x y z
#    x 1.941220 0.000000 0.000000 
#    y 0.000000 2.176530 0.000000 
#    z 0.000000 0.000000 1.854080 
# 
# From -- ./inp_files/2783.got.cif
#   From: 2010.05.17/outbox.cif.g08.bks.cpg/sg27_2_cif.got.tgz:2783.got - 2010.06.04 01:11:05.
