data_PCOD9339603
_publ_section_title
;
Structure prediction by ZEFSAII (Michael W. Deem and Ramdas Pophale) SiO2 
 PCOD9339603
Probable space group: P M A 2
;
_chemical_formula_sum "Si O2"
_cell_formula_units_Z 32
_cell_length_a 15.372338
_cell_length_b 7.392098
_cell_length_c 12.598897
_cell_angle_alpha 90.000000
_cell_angle_beta 90.000000
_cell_angle_gamma 90.000000
_cell_volume 1431.660907
_symmetry_space_group_name_H-M "P M A 2"
_symmetry_group_IT_number 28
_symmetry_cell_setting 'orthorhombic'
loop_
_space_group_symop_operation_xyz
x,y,z
-x,-y,z
1/2-x,y,z
1/2+x,-y,z
loop_
_atom_site_type_symbol
_atom_site_label
_atom_site_fract_x
_atom_site_fract_y
_atom_site_fract_z
Si Si1 0.350291 0.180983 0.728790
Si Si2 0.904377 0.909995 0.951554
Si Si3 0.652696 0.770750 0.178917
Si Si4 0.651371 0.343911 0.167243
Si Si5 0.503946 0.284381 0.314328
Si Si6 0.652961 0.301377 0.937768
Si Si7 0.993801 0.782484 0.563247
Si Si8 0.149284 0.740829 0.705789
O O1 0.250000 0.239913 0.725257
O O2 0.390613 0.208759 0.846098
O O3 0.409705 0.262008 0.635420
O O4 0.351328 0.961160 0.714461
O O5 0.842384 0.083790 0.941034
O O6 0.879596 0.813061 0.060141
O O7 0.000000 0.000000 0.952530
O O8 0.750000 0.845080 0.196032
O O9 0.659661 0.554706 0.192971
O O10 0.575792 0.819464 0.259368
O O11 0.750000 0.270314 0.159895
O O12 0.593612 0.239914 0.253093
O O13 0.608045 0.342993 0.049556
O O14 0.500000 0.500000 0.293809
O O15 0.495224 0.261322 0.439559
O O16 0.750000 0.382889 0.942976
O O17 0.619162 0.338194 0.819848
O O18 0.079347 0.697466 0.616775
O O19 0.000000 0.000000 0.570400
O O20 0.250000 0.689490 0.686771
#
# Coordination Sequence:
#
# PCOD9339603 Si02
#       8
#     4   4   4   4   4   4   4   4
#     4   9  17  31  51  76 106 136 166 206 261 317
#     4  11  19  30  53  82 109 137 170 214 266 323
#     4  10  21  37  55  76 107 144 178 217 272 331
#     4   9  19  36  56  77 105 142 179 220 273 329
#     4  10  22  38  52  70 101 140 180 222 269 317
#     4   9  16  29  51  78 105 131 165 208 257 318
#     4  10  20  34  52  73  97 131 177 220 256 305
#     4   8  15  29  50  76 105 133 160 203 265 320
#
# _framework density 22.351662999999999
#
# number of rings (size 3 to 8) (size 9 to 14) (size 15 to 20)
#    0.000    2.500    0.000    4.500    0.000    2.500 
#    0.000    1.250    0.000    1.500    0.000    0.000 
#    0.000    0.000    0.000    0.000    0.000    0.000 
#
# Total GULP energy -178511.647554 kJ/mol
# GULP energy per Si atom -5578.488986 kJ/mol
# Density = 2.230079 g / cm^3
# Si number density = 22.351663 Si / 1000 Ang^3
#
#
#
# Elastic Constant Matrix: (Units=GPa)
#
#
# Indices 1 2 3 4 5 6 
#
# 1 173.5824 2.7345 98.5620 0.0000 0.0000 0.0000
# 2 2.7345 50.8338 -16.4373 0.0000 0.0000 0.0000
# 3 98.5620 -16.4373 174.6147 0.0000 0.0000 0.0000
# 4 0.0000 0.0000 0.0000 33.5173 0.0000 0.0000
# 5 0.0000 0.0000 0.0000 0.0000 9.6903 0.0000
# 6 0.0000 0.0000 0.0000 0.0000 0.0000 -6.2190
#
#
#
# Elastic Compliance Matrix: (Units=1/GPa)
#
#
# Indices 1 2 3 4 5 6 
#
# 1 0.008694 -0.002119 -0.005107 0.000000 0.000000 0.000000
# 2 -0.002119 0.020806 0.003155 0.000000 0.000000 0.000000
# 3 -0.005107 0.003155 0.008906 0.000000 0.000000 0.000000
# 4 0.000000 0.000000 0.000000 0.029835 0.000000 0.000000
# 5 0.000000 0.000000 0.000000 0.000000 0.103196 0.000000
# 6 0.000000 0.000000 0.000000 0.000000 0.000000 -0.160797
#
#
# Mechanical properties :
#
#
# Convention : Reuss Voigt Hill
#
# Bulk Modulus (GPa) = 33.04251 63.19436 48.11843
# Shear Modulus (GPa) = 173.17985 28.34250 100.76117
#
# Velocity S-wave (km/s) = 8.81180 3.56480 6.72144
# Velocity P-wave (km/s) = 10.87867 6.72888 9.04498
#
# Compressibility (1/GPa) = 0.03026405
#
# Stress axis : x y z
#
# Youngs Moduli (GPa) = 115.02089 48.06309 112.27810
#
# Poissons Ratio (x) = 0.10185 0.57339
# Poissons Ratio (y) = 0.24373 -0.35420
# Poissons Ratio (z) = 0.58740 -0.15162
#
# Static dielectric constant tensor:
#      x y z
#    x 1.885660 0.000000 0.000000 
#    y 0.000000 1.860960 0.000000 
#    z 0.000000 0.000000 1.819290 
# 
# From -- ./inp_files/5589.got.cif
#   From: 2010.05.17/outbox.cif.g08.bks.cpg/sg28_3_cif.got.tgz:5589.got - 2010.06.04 01:15:21.
