data_PCOD9339965
_publ_section_title
;
Structure prediction by ZEFSAII (Michael W. Deem and Ramdas Pophale) SiO2 
 PCOD9339965
Probable space group: P M A 2
;
_chemical_formula_sum "Si O2"
_cell_formula_units_Z 20
_cell_length_a 11.348418
_cell_length_b 13.705193
_cell_length_c 3.953992
_cell_angle_alpha 90.000000
_cell_angle_beta 90.000000
_cell_angle_gamma 90.000000
_cell_volume 614.973308
_symmetry_space_group_name_H-M "P M A 2"
_symmetry_group_IT_number 28
_symmetry_cell_setting 'orthorhombic'
loop_
_space_group_symop_operation_xyz
x,y,z
-x,-y,z
1/2-x,y,z
1/2+x,-y,z
loop_
_atom_site_type_symbol
_atom_site_label
_atom_site_fract_x
_atom_site_fract_y
_atom_site_fract_z
Si Si1 0.116934 0.101490 0.264830
Si Si2 0.624467 0.301495 0.803928
Si Si3 0.625063 0.497819 0.252452
Si Si4 0.375845 0.301241 0.833596
Si Si5 0.382442 0.912116 0.762121
O O1 0.250000 0.100429 0.422121
O O2 0.117984 0.202997 0.057973
O O3 0.000225 0.096132 0.514284
O O4 0.116092 0.006548 0.012683
O O5 0.750000 0.302803 0.616325
O O6 0.621348 0.192166 0.955927
O O7 0.625154 0.397361 0.037943
O O8 0.497444 0.303766 0.626614
O O9 0.500000 0.500000 0.439990
O O10 0.750000 0.498783 0.441881
O O11 0.625539 0.597178 0.036975
O O12 0.250000 0.297483 0.651615
O O13 0.250000 0.913661 0.602030
#
# Coordination Sequence:
#
# PCOD9339965 Si02
#       5
#     4   4   4   4   4
#     4   9  18  34  57  84 115 154 200 249 302 363
#     4   9  17  31  53  82 117 157 203 256 314 378
#     4   8  14  26  48  78 112 152 198 250 310 374
#     4   9  17  31  53  82 117 157 203 256 314 378
#     4   9  18  34  57  84 115 154 200 249 302 363
#
# _framework density 32.521737999999999
#
# number of rings (size 3 to 8) (size 9 to 14) (size 15 to 20)
#    0.000    3.200    0.000    0.000    0.000    0.800 
#    0.000    4.000    0.000    6.000    0.000   25.200 
#    0.000    0.000    0.000    0.000    0.000    0.000 
#
# Total GULP energy -111682.358163 kJ/mol
# GULP energy per Si atom -5584.117908 kJ/mol
# Density = 3.244772 g / cm^3
# Si number density = 32.521738 Si / 1000 Ang^3
#
#
#
# Elastic Constant Matrix: (Units=GPa)
#
#
# Indices 1 2 3 4 5 6 
#
# 1 508.7381 12.0557 101.1530 0.0000 0.0000 0.0000
# 2 12.0557 432.7336 127.2187 0.0000 0.0000 0.0000
# 3 101.1530 127.2187 107.1926 0.0000 0.0000 0.0000
# 4 0.0000 0.0000 0.0000 117.3841 0.0000 0.0000
# 5 0.0000 0.0000 0.0000 0.0000 57.5240 0.0000
# 6 0.0000 0.0000 0.0000 0.0000 0.0000 37.4113
#
#
#
# Elastic Compliance Matrix: (Units=1/GPa)
#
#
# Indices 1 2 3 4 5 6 
#
# 1 0.002689 0.001031 -0.003761 0.000000 0.000000 0.000000
# 2 0.001031 0.003944 -0.005654 0.000000 0.000000 0.000000
# 3 -0.003761 -0.005654 0.019588 0.000000 0.000000 0.000000
# 4 0.000000 0.000000 0.000000 0.008519 0.000000 0.000000
# 5 0.000000 0.000000 0.000000 0.000000 0.017384 0.000000
# 6 0.000000 0.000000 0.000000 0.000000 0.000000 0.026730
#
#
# Mechanical properties :
#
#
# Convention : Reuss Voigt Hill
#
# Bulk Modulus (GPa) = 105.78082 169.94656 137.86369
# Shear Modulus (GPa) = 50.62100 96.34634 73.48367
#
# Velocity S-wave (km/s) = 3.94957 5.44881 4.75860
# Velocity P-wave (km/s) = 7.30723 9.58936 8.52500
#
# Compressibility (1/GPa) = 0.00945351
#
# Stress axis : x y z
#
# Youngs Moduli (GPa) = 371.88938 253.52737 51.05174
#
# Poissons Ratio (x) = -0.26131 0.19199
# Poissons Ratio (y) = -0.38330 0.28864
# Poissons Ratio (z) = 1.39857 1.43341
#
# Static dielectric constant tensor:
#      x y z
#    x 2.502890 0.000000 0.000000 
#    y 0.000000 2.480880 0.000000 
#    z 0.000000 0.000000 2.575390 
# 
# From -- ./inp_files/452.got.cif
#   From: 2010.05.17/outbox.cif.g08.bks.cpg/sg28_1_cif.got.tgz:452.got - 2010.06.04 01:15:21.
