data_PCOD9339694
_publ_section_title
;
Structure prediction by ZEFSAII (Michael W. Deem and Ramdas Pophale) SiO2 
 PCOD9339694
Probable space group: P M A 2
;
_chemical_formula_sum "Si O2"
_cell_formula_units_Z 32
_cell_length_a 15.787340
_cell_length_b 8.947798
_cell_length_c 10.960715
_cell_angle_alpha 90.000000
_cell_angle_beta 90.000000
_cell_angle_gamma 90.000000
_cell_volume 1548.331747
_symmetry_space_group_name_H-M "P M A 2"
_symmetry_group_IT_number 28
_symmetry_cell_setting 'orthorhombic'
loop_
_space_group_symop_operation_xyz
x,y,z
-x,-y,z
1/2-x,y,z
1/2+x,-y,z
loop_
_atom_site_type_symbol
_atom_site_label
_atom_site_fract_x
_atom_site_fract_y
_atom_site_fract_z
Si Si1 0.342896 0.950695 0.646090
Si Si2 0.092838 0.264291 0.668204
Si Si3 0.150087 0.688686 0.066048
Si Si4 0.005720 0.833689 0.201669
Si Si5 0.034843 0.831524 0.854326
Si Si6 0.651796 0.503040 0.469764
Si Si7 0.652881 0.630958 0.194513
Si Si8 0.952642 0.199969 0.470913
O O1 0.250000 0.887046 0.650910
O O2 0.399849 0.869587 0.746198
O O3 0.382567 0.917627 0.514146
O O4 0.343361 0.126060 0.675546
O O5 0.130715 0.403528 0.593314
O O6 0.042071 0.268137 0.796966
O O7 0.022004 0.205511 0.575263
O O8 0.250000 0.728276 0.050733
O O9 0.147734 0.515921 0.108649
O O10 0.099158 0.770758 0.174055
O O11 0.089804 0.741440 0.954128
O O12 0.925579 0.736524 0.158281
O O13 0.001972 0.835865 0.346584
O O14 0.000000 0.000000 0.152802
O O15 0.000000 0.000000 0.887383
O O16 0.750000 0.458253 0.474414
O O17 0.641382 0.587727 0.338792
O O18 0.590812 0.361548 0.465293
O O19 0.750000 0.690394 0.182971
#
# Coordination Sequence:
#
# PCOD9339694 Si02
#       8
#     4   4   4   4   4   4   4   4
#     4  10  20  36  59  90 128 165 210 267 323 384
#     4  10  20  36  61  89 124 167 208 256 325 393
#     4  11  23  41  67  95 126 173 228 276 336 401
#     4  12  24  40  63  92 132 172 221 277 337 399
#     4   9  20  40  64  93 130 172 221 273 331 391
#     4  11  21  36  58  89 128 166 211 266 324 389
#     4  10  23  42  64  93 130 173 219 275 338 397
#     4  11  21  35  55  85 125 168 208 255 322 393
#
# _framework density 20.667404999999999
#
# number of rings (size 3 to 8) (size 9 to 14) (size 15 to 20)
#    0.000    1.500    2.500    4.125    0.000    1.000 
#    0.000    5.000    0.000    4.500    0.000    0.000 
#    0.000    0.000    0.000    0.000    0.000    0.000 
#
# Total GULP energy -178342.694740 kJ/mol
# GULP energy per Si atom -5573.209211 kJ/mol
# Density = 2.062036 g / cm^3
# Si number density = 20.667405 Si / 1000 Ang^3
#
#
#
# Elastic Constant Matrix: (Units=GPa)
#
#
# Indices 1 2 3 4 5 6 
#
# 1 115.1213 32.6979 24.8894 0.0000 0.0000 0.0000
# 2 32.6979 66.5166 3.9077 0.0000 0.0000 0.0000
# 3 24.8894 3.9077 75.3197 0.0000 0.0000 0.0000
# 4 0.0000 0.0000 0.0000 28.4084 0.0000 0.0000
# 5 0.0000 0.0000 0.0000 0.0000 23.3767 0.0000
# 6 0.0000 0.0000 0.0000 0.0000 0.0000 22.3524
#
#
#
# Elastic Compliance Matrix: (Units=1/GPa)
#
#
# Indices 1 2 3 4 5 6 
#
# 1 0.010867 -0.005147 -0.003324 0.000000 0.000000 0.000000
# 2 -0.005147 0.017517 0.000792 0.000000 0.000000 0.000000
# 3 -0.003324 0.000792 0.014334 0.000000 0.000000 0.000000
# 4 0.000000 0.000000 0.000000 0.035201 0.000000 0.000000
# 5 0.000000 0.000000 0.000000 0.000000 0.042778 0.000000
# 6 0.000000 0.000000 0.000000 0.000000 0.000000 0.044738
#
#
# Mechanical properties :
#
#
# Convention : Reuss Voigt Hill
#
# Bulk Modulus (GPa) = 36.54857 42.21639 39.38248
# Shear Modulus (GPa) = 26.32794 27.85835 27.09315
#
# Velocity S-wave (km/s) = 3.57303 3.67541 3.62458
# Velocity P-wave (km/s) = 5.89445 6.20342 6.05091
#
# Compressibility (1/GPa) = 0.02736085
#
# Stress axis : x y z
#
# Youngs Moduli (GPa) = 92.02222 57.08650 69.76384
#
# Poissons Ratio (x) = 0.29380 0.23189
# Poissons Ratio (y) = 0.47361 -0.05525
# Poissons Ratio (z) = 0.30588 -0.04521
#
# Static dielectric constant tensor:
#      x y z
#    x 1.736250 0.000000 0.000000 
#    y 0.000000 1.741160 0.000000 
#    z 0.000000 0.000000 1.790810 
# 
# From -- ./inp_files/5643.got.cif
#   From: 2010.05.17/outbox.cif.g08.bks.cpg/sg28_3_cif.got.tgz:5643.got - 2010.06.04 01:15:21.
