data_PCOD9339214
_publ_section_title
;
Structure prediction by ZEFSAII (Michael W. Deem and Ramdas Pophale) SiO2 
 PCOD9339214
Probable space group: P C C 2
;
_chemical_formula_sum "Si O2"
_cell_formula_units_Z 18
_cell_length_a 5.121087
_cell_length_b 5.493628
_cell_length_c 25.848790
_cell_angle_alpha 90.000000
_cell_angle_beta 90.000000
_cell_angle_gamma 90.000000
_cell_volume 727.212977
_symmetry_space_group_name_H-M "P C C 2"
_symmetry_group_IT_number 27
_symmetry_cell_setting 'orthorhombic'
loop_
_space_group_symop_operation_xyz
x,y,z
-x,-y,z
-x,y,1/2+z
x,-y,1/2+z
loop_
_atom_site_type_symbol
_atom_site_label
_atom_site_fract_x
_atom_site_fract_y
_atom_site_fract_z
Si Si1 0.740492 0.336068 0.953730
Si Si2 0.168203 0.248841 0.228380
Si Si3 0.259509 0.663931 0.613781
Si Si4 0.831797 0.248840 0.839131
Si Si5 0.500000 0.000000 0.533756
O O1 0.500000 0.500000 0.969331
O O2 0.692597 0.254149 0.894317
O O3 0.000000 0.500000 0.956467
O O4 0.705229 0.122260 0.993908
O O5 0.000000 0.500000 0.228627
O O6 0.307407 0.254153 0.173193
O O7 0.316333 0.248336 0.283755
O O8 0.000000 0.000000 0.227818
O O9 0.500000 0.500000 0.598178
O O10 0.000000 0.500000 0.611044
O O11 0.294770 0.877741 0.573603
O O12 0.000000 0.500000 0.838884
O O13 0.000000 0.000000 0.839691
#
# Coordination Sequence:
#
# PCOD9339214 Si02
#       5
#     4   4   4   4   2
#     4  11  28  50  74 110 149 199 257 317 387 458
#     4   9  20  43  75 110 149 192 247 315 388 463
#     4  11  28  50  74 110 149 199 257 317 387 458
#     4   9  20  43  75 110 149 192 247 315 388 463
#     4  12  30  50  78 108 156 214 262 332 374 474
#
# _framework density 24.752034999999999
#
# number of rings (size 3 to 8) (size 9 to 14) (size 15 to 20)
#    0.000    1.778    0.000    0.667   12.444    6.222 
#    0.000    1.111    0.000    0.000    0.000    0.000 
#    0.000    0.000    0.000    0.000    0.000    0.000 
#
# Total GULP energy -100508.524865 kJ/mol
# GULP energy per Si atom -5583.806937 kJ/mol
# Density = 2.469570 g / cm^3
# Si number density = 24.752035 Si / 1000 Ang^3
#
#
#
# Elastic Constant Matrix: (Units=GPa)
#
#
# Indices 1 2 3 4 5 6 
#
# 1 90.4351 15.3214 12.0436 0.0000 0.0000 0.0000
# 2 15.3214 107.8926 31.7361 0.0000 0.0000 0.0000
# 3 12.0436 31.7361 260.1551 0.0000 0.0000 0.0000
# 4 0.0000 0.0000 0.0000 58.4775 0.0000 0.0000
# 5 0.0000 0.0000 0.0000 0.0000 61.1143 0.0000
# 6 0.0000 0.0000 0.0000 0.0000 0.0000 22.3633
#
#
#
# Elastic Compliance Matrix: (Units=1/GPa)
#
#
# Indices 1 2 3 4 5 6 
#
# 1 0.011359 -0.001513 -0.000341 0.000000 0.000000 0.000000
# 2 -0.001513 0.009815 -0.001127 0.000000 0.000000 0.000000
# 3 -0.000341 -0.001127 0.003997 0.000000 0.000000 0.000000
# 4 0.000000 0.000000 0.000000 0.017101 0.000000 0.000000
# 5 0.000000 0.000000 0.000000 0.000000 0.016363 0.000000
# 6 0.000000 0.000000 0.000000 0.000000 0.000000 0.044716
#
#
# Mechanical properties :
#
#
# Convention : Reuss Voigt Hill
#
# Bulk Modulus (GPa) = 52.05946 64.07612 58.06779
# Shear Modulus (GPa) = 43.20904 55.01648 49.11276
#
# Velocity S-wave (km/s) = 4.18266 4.71967 4.45926
# Velocity P-wave (km/s) = 6.66365 7.45948 7.07277
#
# Compressibility (1/GPa) = 0.01920880
#
# Stress axis : x y z
#
# Youngs Moduli (GPa) = 88.03291 101.88621 250.17652
#
# Poissons Ratio (x) = 0.15412 0.08539
# Poissons Ratio (y) = 0.13317 0.28202
# Poissons Ratio (z) = 0.03005 0.11485
#
# Static dielectric constant tensor:
#      x y z
#    x 0.109300 0.000000 0.000000 
#    y 0.000000 1.958600 0.000000 
#    z 0.000000 0.000000 1.992310 
# 
# From -- ./inp_files/4901.got.cif
#   From: 2010.05.17/outbox.cif.g08.bks.cpg/sg27_3_cif.got.tgz:4901.got - 2010.06.04 01:11:05.
