data_PCOD9339911
_publ_section_title
;
Structure prediction by ZEFSAII (Michael W. Deem and Ramdas Pophale) SiO2 
 PCOD9339911
Probable space group: P M A 2
;
_chemical_formula_sum "Si O2"
_cell_formula_units_Z 12
_cell_length_a 20.804962
_cell_length_b 5.193502
_cell_length_c 5.227767
_cell_angle_alpha 90.000000
_cell_angle_beta 90.000000
_cell_angle_gamma 90.000000
_cell_volume 564.863422
_symmetry_space_group_name_H-M "P M A 2"
_symmetry_group_IT_number 28
_symmetry_cell_setting 'orthorhombic'
loop_
_space_group_symop_operation_xyz
x,y,z
-x,-y,z
1/2-x,y,z
1/2+x,-y,z
loop_
_atom_site_type_symbol
_atom_site_label
_atom_site_fract_x
_atom_site_fract_y
_atom_site_fract_z
Si Si1 0.177924 0.337850 0.869130
Si Si2 0.929891 0.927496 0.595788
Si Si3 0.876488 0.436852 0.379754
O O1 0.250000 0.238058 0.903963
O O2 0.173187 0.509316 0.611970
O O3 0.123896 0.121754 0.812830
O O4 0.155998 0.502210 0.111774
O O5 0.905487 0.156745 0.415837
O O6 0.929212 0.659434 0.439767
O O7 0.000000 0.000000 0.695831
#
# Coordination Sequence:
#
# PCOD9339911 Si02
#       3
#     4   4   4
#     4  10  24  43  67  98 133 178 224 277 335 398
#     4  10  24  46  67 101 133 178 224 279 337 400
#     4  10  24  42  66  96 130 173 222 275 334 400
#
# _framework density 21.244076
#
# number of rings (size 3 to 8) (size 9 to 14) (size 15 to 20)
#    2.000    0.000    0.000    2.000    4.667    4.000 
#    6.000    0.000    0.000    0.000    0.000    0.000 
#    0.000    0.000    0.000    0.000    0.000    0.000 
#
# Total GULP energy -66866.817264 kJ/mol
# GULP energy per Si atom -5572.234772 kJ/mol
# Density = 2.119572 g / cm^3
# Si number density = 21.244076 Si / 1000 Ang^3
#
#
#
# Elastic Constant Matrix: (Units=GPa)
#
#
# Indices 1 2 3 4 5 6 
#
# 1 166.2184 35.7843 51.3240 0.0000 0.0000 0.0000
# 2 35.7843 98.5464 45.7180 0.0000 0.0000 0.0000
# 3 51.3240 45.7180 131.4998 0.0000 0.0000 0.0000
# 4 0.0000 0.0000 0.0000 20.3672 0.0000 0.0000
# 5 0.0000 0.0000 0.0000 0.0000 59.6821 0.0000
# 6 0.0000 0.0000 0.0000 0.0000 0.0000 6.1830
#
#
#
# Elastic Compliance Matrix: (Units=1/GPa)
#
#
# Indices 1 2 3 4 5 6 
#
# 1 0.007028 -0.001525 -0.002213 0.000000 0.000000 0.000000
# 2 -0.001525 0.012430 -0.003726 0.000000 0.000000 0.000000
# 3 -0.002213 -0.003726 0.009764 0.000000 0.000000 0.000000
# 4 0.000000 0.000000 0.000000 0.049098 0.000000 0.000000
# 5 0.000000 0.000000 0.000000 0.000000 0.016755 0.000000
# 6 0.000000 0.000000 0.000000 0.000000 0.000000 0.161733
#
#
# Mechanical properties :
#
#
# Convention : Reuss Voigt Hill
#
# Bulk Modulus (GPa) = 69.96382 73.54635 71.75509
# Shear Modulus (GPa) = 18.08311 34.80902 26.44607
#
# Velocity S-wave (km/s) = 2.92071 4.05227 3.53210
# Velocity P-wave (km/s) = 6.66175 7.52259 7.10522
#
# Compressibility (1/GPa) = 0.01429310
#
# Stress axis : x y z
#
# Youngs Moduli (GPa) = 142.29250 80.44998 102.42139
#
# Poissons Ratio (x) = 0.12272 0.22661
# Poissons Ratio (y) = 0.21706 0.38164
# Poissons Ratio (z) = 0.31483 0.29977
#
# Static dielectric constant tensor:
#      x y z
#    x 1.645180 0.000000 0.000000 
#    y 0.000000 1.765480 0.000000 
#    z 0.000000 0.000000 1.743300 
# 
# From -- ./inp_files/883.got.cif
#   From: 2010.05.17/outbox.cif.g08.bks.cpg/sg28_1_cif.got.tgz:883.got - 2010.06.04 01:15:21.
