data_PCOD9339371
_publ_section_title
;
Structure prediction by ZEFSAII (Michael W. Deem and Ramdas Pophale) SiO2 
 PCOD9339371
Probable space group: P M A 2
;
_chemical_formula_sum "Si O2"
_cell_formula_units_Z 32
_cell_length_a 8.764642
_cell_length_b 14.589562
_cell_length_c 16.011608
_cell_angle_alpha 90.000000
_cell_angle_beta 90.000000
_cell_angle_gamma 90.000000
_cell_volume 2047.440947
_symmetry_space_group_name_H-M "P M A 2"
_symmetry_group_IT_number 28
_symmetry_cell_setting 'orthorhombic'
loop_
_space_group_symop_operation_xyz
x,y,z
-x,-y,z
1/2-x,y,z
1/2+x,-y,z
loop_
_atom_site_type_symbol
_atom_site_label
_atom_site_fract_x
_atom_site_fract_y
_atom_site_fract_z
Si Si1 0.932252 0.098390 0.974760
Si Si2 0.565938 0.717145 0.910939
Si Si3 0.566976 0.602763 0.747248
Si Si4 0.567125 0.098797 0.170464
Si Si5 0.066212 0.398425 0.073572
Si Si6 0.432947 0.602969 0.389925
Si Si7 0.067630 0.602582 0.576275
Si Si8 0.433241 0.282888 0.237714
O O1 0.750000 0.095359 0.969964
O O2 0.996330 0.182490 0.921741
O O3 0.975203 0.113945 0.072549
O O4 0.000000 0.000000 0.950226
O O5 0.750000 0.724270 0.913164
O O6 0.523118 0.664865 0.826132
O O7 0.517293 0.656448 0.990834
O O8 0.500000 0.500000 0.757326
O O9 0.750000 0.595807 0.743697
O O10 0.505393 0.643582 0.659827
O O11 0.750000 0.097579 0.176295
O O12 0.499008 0.181686 0.223581
O O13 0.500000 0.000000 0.194450
O O14 0.250000 0.403913 0.072415
O O15 0.021142 0.342859 0.156453
O O16 0.000000 0.500000 0.074523
O O17 0.500000 0.500000 0.381931
O O18 0.250000 0.597393 0.381503
O O19 0.467425 0.639622 0.483741
O O20 0.502201 0.667306 0.319213
O O21 0.250000 0.599039 0.585794
O O22 0.000000 0.500000 0.574267
O O23 0.250000 0.279702 0.240967
#
# Coordination Sequence:
#
# PCOD9339371 Si02
#       8
#     4   4   4   4   4   4   4   4
#     4  10  20  33  52  73  94 125 161 204 248 288
#     4  10  20  34  48  68  98 130 164 202 241 286
#     4  10  19  30  48  71  98 131 164 203 244 286
#     4  10  20  34  52  73  96 125 162 206 249 292
#     4  10  21  33  45  63  94 132 166 197 232 277
#     4  10  20  33  49  71  99 131 166 205 247 292
#     4   9  17  30  48  68  94 126 161 204 247 288
#     4  11  21  33  50  71  97 132 166 203 244 287
#
# _framework density 15.629265999999999
#
# number of rings (size 3 to 8) (size 9 to 14) (size 15 to 20)
#    0.000    2.000    1.250    3.750    0.000    6.000 
#    0.000    0.000    0.000    0.000    0.000    0.875 
#    0.000    2.000    0.000    0.000    0.000    0.000 
#
# Total GULP energy -178540.931572 kJ/mol
# GULP energy per Si atom -5579.404112 kJ/mol
# Density = 1.559369 g / cm^3
# Si number density = 15.629266 Si / 1000 Ang^3
#
#
#
# Elastic Constant Matrix: (Units=GPa)
#
#
# Indices 1 2 3 4 5 6 
#
# 1 47.3133 39.8325 50.1044 0.0000 0.0000 0.0000
# 2 39.8325 120.8687 75.4905 0.0000 0.0000 0.0000
# 3 50.1044 75.4905 147.7102 0.0000 0.0000 0.0000
# 4 0.0000 0.0000 0.0000 8.2924 0.0000 0.0000
# 5 0.0000 0.0000 0.0000 0.0000 26.0448 0.0000
# 6 0.0000 0.0000 0.0000 0.0000 0.0000 28.6600
#
#
#
# Elastic Compliance Matrix: (Units=1/GPa)
#
#
# Indices 1 2 3 4 5 6 
#
# 1 0.035896 -0.006206 -0.009005 0.000000 0.000000 0.000000
# 2 -0.006206 0.013225 -0.004654 0.000000 0.000000 0.000000
# 3 -0.009005 -0.004654 0.012203 0.000000 0.000000 0.000000
# 4 0.000000 0.000000 0.000000 0.120593 0.000000 0.000000
# 5 0.000000 0.000000 0.000000 0.000000 0.038395 0.000000
# 6 0.000000 0.000000 0.000000 0.000000 0.000000 0.034892
#
#
# Mechanical properties :
#
#
# Convention : Reuss Voigt Hill
#
# Bulk Modulus (GPa) = 46.30568 71.86079 59.08323
# Shear Modulus (GPa) = 16.54906 22.63041 19.58974
#
# Velocity S-wave (km/s) = 3.25753 3.80932 3.54418
# Velocity P-wave (km/s) = 6.62122 8.08864 7.39143
#
# Compressibility (1/GPa) = 0.02159562
#
# Stress axis : x y z
#
# Youngs Moduli (GPa) = 27.85822 75.61266 81.94660
#
# Poissons Ratio (x) = 0.46922 0.73791
# Poissons Ratio (y) = 0.17288 0.38139
# Poissons Ratio (z) = 0.25086 0.35191
#
# Static dielectric constant tensor:
#      x y z
#    x 1.522900 0.000000 0.000000 
#    y 0.000000 1.485480 0.000000 
#    z 0.000000 0.000000 1.538710 
# 
# From -- ./inp_files/6423.got.cif
#   From: 2010.05.17/outbox.cif.g08.bks.cpg/sg28_4_cif.got.tgz:6423.got - 2010.06.04 01:15:21.
