data_PCOD9339222
_publ_section_title
;
Structure prediction by ZEFSAII (Michael W. Deem and Ramdas Pophale) SiO2 
 PCOD9339222
Probable space group: P C C 2
;
_chemical_formula_sum "Si O2"
_cell_formula_units_Z 24
_cell_length_a 10.956659
_cell_length_b 9.208461
_cell_length_c 10.538123
_cell_angle_alpha 90.000000
_cell_angle_beta 90.000000
_cell_angle_gamma 90.000000
_cell_volume 1063.233035
_symmetry_space_group_name_H-M "P C C 2"
_symmetry_group_IT_number 27
_symmetry_cell_setting 'orthorhombic'
loop_
_space_group_symop_operation_xyz
x,y,z
-x,-y,z
-x,y,1/2+z
x,-y,1/2+z
loop_
_atom_site_type_symbol
_atom_site_label
_atom_site_fract_x
_atom_site_fract_y
_atom_site_fract_z
Si Si1 0.604305 0.276117 0.215420
Si Si2 0.240903 0.558133 0.659013
Si Si3 0.000000 0.000000 0.700504
Si Si4 0.395695 0.776117 0.505368
Si Si5 0.099378 0.750000 0.860394
Si Si6 0.000000 0.500000 0.020283
Si Si7 0.759097 0.058133 0.061775
O O1 0.662847 0.436103 0.201320
O O2 0.563800 0.250000 0.360394
O O3 0.500000 0.250000 0.110394
O O4 0.704188 0.156997 0.173818
O O5 0.295812 0.656997 0.546970
O O6 0.190549 0.659183 0.770948
O O7 0.119344 0.486117 0.605067
O O8 0.119344 0.986117 0.615721
O O9 0.989952 0.141594 0.786621
O O10 0.337153 0.936103 0.519468
O O11 0.010048 0.641594 0.934167
O O12 0.190549 0.840817 0.949840
#
# Coordination Sequence:
#
# PCOD9339222 Si02
#       7
#     4   4   2   4   4   2   4
#     4  12  30  51  81 111 155 208 267 325 394 471
#     4  12  27  50  76 114 158 202 262 322 397 473
#     4  12  26  46  76 118 154 208 252 330 394 474
#     4  12  30  51  81 111 155 208 267 325 394 471
#     4  12  26  44  80 114 160 202 260 320 404 468
#     4  12  26  46  76 118 154 208 252 330 394 474
#     4  12  27  50  76 114 158 202 262 322 397 473
#
# _framework density 22.572662000000001
#
# number of rings (size 3 to 8) (size 9 to 14) (size 15 to 20)
#    0.000    0.000    3.333    5.000    9.333    2.667 
#    0.000    0.000    0.000    0.000    0.000    0.000 
#    0.000    0.000    0.000    0.000    0.000    0.000 
#
# Total GULP energy -134425.485659 kJ/mol
# GULP energy per Si atom -5601.061902 kJ/mol
# Density = 2.252129 g / cm^3
# Si number density = 22.572662 Si / 1000 Ang^3
#
#
#
# Elastic Constant Matrix: (Units=GPa)
#
#
# Indices 1 2 3 4 5 6 
#
# 1 88.1920 22.3562 38.4200 0.0000 0.0000 0.0000
# 2 22.3562 130.7524 55.9280 0.0000 0.0000 0.0000
# 3 38.4200 55.9280 151.8568 0.0000 0.0000 0.0000
# 4 0.0000 0.0000 0.0000 50.2924 0.0000 0.0000
# 5 0.0000 0.0000 0.0000 0.0000 5.7284 0.0000
# 6 0.0000 0.0000 0.0000 0.0000 0.0000 43.0610
#
#
#
# Elastic Compliance Matrix: (Units=1/GPa)
#
#
# Indices 1 2 3 4 5 6 
#
# 1 0.012844 -0.000957 -0.002897 0.000000 0.000000 0.000000
# 2 -0.000957 0.009149 -0.003128 0.000000 0.000000 0.000000
# 3 -0.002897 -0.003128 0.008470 0.000000 0.000000 0.000000
# 4 0.000000 0.000000 0.000000 0.019884 0.000000 0.000000
# 5 0.000000 0.000000 0.000000 0.000000 0.174570 0.000000
# 6 0.000000 0.000000 0.000000 0.000000 0.000000 0.023223
#
#
# Mechanical properties :
#
#
# Convention : Reuss Voigt Hill
#
# Bulk Modulus (GPa) = 60.60603 67.13439 63.87021
# Shear Modulus (GPa) = 18.68441 36.75613 27.72027
#
# Velocity S-wave (km/s) = 2.88018 4.03966 3.50815
# Velocity P-wave (km/s) = 6.16183 7.18084 6.69076
#
# Compressibility (1/GPa) = 0.01650001
#
# Stress axis : x y z
#
# Youngs Moduli (GPa) = 77.86029 109.29617 118.06386
#
# Poissons Ratio (x) = 0.10458 0.34204
# Poissons Ratio (y) = 0.07450 0.36926
# Poissons Ratio (z) = 0.22556 0.34184
#
# Static dielectric constant tensor:
#      x y z
#    x 1.824120 0.000000 0.000000 
#    y 0.000000 1.933340 0.000000 
#    z 0.000000 0.000000 1.851820 
# 
# From -- ./inp_files/2587.got.cif
#   From: 2010.05.17/outbox.cif.g08.bks.cpg/sg27_2_cif.got.tgz:2587.got - 2010.06.04 01:11:05.
