data_PCOD9339779
_publ_section_title
;
Structure prediction by ZEFSAII (Michael W. Deem and Ramdas Pophale) SiO2 
 PCOD9339779
Probable space group: P M A 2
;
_chemical_formula_sum "Si O2"
_cell_formula_units_Z 32
_cell_length_a 8.770893
_cell_length_b 15.796315
_cell_length_c 12.107326
_cell_angle_alpha 90.000000
_cell_angle_beta 90.000000
_cell_angle_gamma 90.000000
_cell_volume 1677.443244
_symmetry_space_group_name_H-M "P M A 2"
_symmetry_group_IT_number 28
_symmetry_cell_setting 'orthorhombic'
loop_
_space_group_symop_operation_xyz
x,y,z
-x,-y,z
1/2-x,y,z
1/2+x,-y,z
loop_
_atom_site_type_symbol
_atom_site_label
_atom_site_fract_x
_atom_site_fract_y
_atom_site_fract_z
Si Si1 0.067833 0.408986 0.790000
Si Si2 0.068418 0.089048 0.788613
Si Si3 0.566473 0.254059 0.176964
Si Si4 0.567654 0.147153 0.559789
Si Si5 0.933359 0.089458 0.314669
Si Si6 0.932088 0.591309 0.313711
Si Si7 0.567138 0.665477 0.551734
Si Si8 0.567328 0.248926 0.917849
O O1 0.250000 0.409333 0.803482
O O2 0.033436 0.387850 0.661583
O O3 0.000000 0.500000 0.819479
O O4 0.996661 0.333601 0.861550
O O5 0.250000 0.087324 0.793809
O O6 0.014779 0.103770 0.662598
O O7 0.004592 0.167749 0.858121
O O8 0.000000 0.000000 0.828024
O O9 0.750000 0.260344 0.188462
O O10 0.516518 0.169059 0.240848
O O11 0.493311 0.335548 0.233982
O O12 0.530483 0.248729 0.047692
O O13 0.750000 0.139941 0.573290
O O14 0.523240 0.107502 0.441964
O O15 0.519432 0.245450 0.557750
O O16 0.750000 0.085712 0.309932
O O17 0.000000 0.000000 0.278036
O O18 0.750000 0.587696 0.307458
O O19 0.974691 0.617324 0.439340
O O20 0.000000 0.500000 0.286539
O O21 0.750000 0.681883 0.549956
O O22 0.750000 0.246063 0.904666
#
# Coordination Sequence:
#
# PCOD9339779 Si02
#       8
#     4   4   4   4   4   4   4   4
#     4  11  23  40  63  92 126 162 203 251 307 368
#     4  12  25  42  64  92 128 163 205 253 305 368
#     4  10  23  44  64  87 121 160 207 259 307 361
#     4  11  21  36  63  93 125 163 201 245 307 368
#     4  10  22  39  61  91 123 159 197 245 301 359
#     4  11  23  39  63  93 125 163 205 250 306 366
#     4  10  21  37  60  92 126 161 199 249 307 367
#     4  11  24  43  66  90 120 161 210 260 312 365
#
# _framework density 19.076650999999998
#
# number of rings (size 3 to 8) (size 9 to 14) (size 15 to 20)
#    0.000    1.250    2.500    3.375    0.000    5.500 
#    0.000    1.250    0.000    0.000    0.000    0.000 
#    0.000    0.000    0.000    0.000    0.000    0.000 
#
# Total GULP energy -178982.868751 kJ/mol
# GULP energy per Si atom -5593.214648 kJ/mol
# Density = 1.903323 g / cm^3
# Si number density = 19.076651 Si / 1000 Ang^3
#
#
#
# Elastic Constant Matrix: (Units=GPa)
#
#
# Indices 1 2 3 4 5 6 
#
# 1 63.6961 65.5560 64.7080 0.0000 0.0000 0.0000
# 2 65.5560 201.8329 87.2247 0.0000 0.0000 0.0000
# 3 64.7080 87.2247 137.9080 0.0000 0.0000 0.0000
# 4 0.0000 0.0000 0.0000 5.5127 0.0000 0.0000
# 5 0.0000 0.0000 0.0000 0.0000 7.7681 0.0000
# 6 0.0000 0.0000 0.0000 0.0000 0.0000 38.7688
#
#
#
# Elastic Compliance Matrix: (Units=1/GPa)
#
#
# Indices 1 2 3 4 5 6 
#
# 1 0.034248 -0.005751 -0.012432 0.000000 0.000000 0.000000
# 2 -0.005751 0.007784 -0.002225 0.000000 0.000000 0.000000
# 3 -0.012432 -0.002225 0.014492 0.000000 0.000000 0.000000
# 4 0.000000 0.000000 0.000000 0.181400 0.000000 0.000000
# 5 0.000000 0.000000 0.000000 0.000000 0.128731 0.000000
# 6 0.000000 0.000000 0.000000 0.000000 0.000000 0.025794
#
#
# Mechanical properties :
#
#
# Convention : Reuss Voigt Hill
#
# Bulk Modulus (GPa) = 63.66277 93.15717 78.40997
# Shear Modulus (GPa) = 11.40246 22.80646 17.10446
#
# Velocity S-wave (km/s) = 2.44748 3.46138 2.99761
# Velocity P-wave (km/s) = 6.43672 8.05692 7.29196
#
# Compressibility (1/GPa) = 0.01570777
#
# Stress axis : x y z
#
# Youngs Moduli (GPa) = 29.19844 128.46727 69.00529
#
# Poissons Ratio (x) = 0.73885 0.85788
# Poissons Ratio (y) = 0.16793 0.15352
# Poissons Ratio (z) = 0.36300 0.28581
#
# Static dielectric constant tensor:
#      x y z
#    x 1.638170 0.000000 0.000000 
#    y 0.000000 1.614800 0.000000 
#    z 0.000000 0.000000 1.651710 
# 
# From -- ./inp_files/5075.got.cif
#   From: 2010.05.17/outbox.cif.g08.bks.cpg/sg28_3_cif.got.tgz:5075.got - 2010.06.04 01:15:21.
