data_PCOD9339033
_publ_section_title
;
Structure prediction by ZEFSAII (Michael W. Deem and Ramdas Pophale) SiO2 
 PCOD9339033
Probable space group: P C C 2
;
_chemical_formula_sum "Si O2"
_cell_formula_units_Z 30
_cell_length_a 7.597106
_cell_length_b 9.327737
_cell_length_c 19.083491
_cell_angle_alpha 90.000000
_cell_angle_beta 90.000000
_cell_angle_gamma 90.000000
_cell_volume 1352.328818
_symmetry_space_group_name_H-M "P C C 2"
_symmetry_group_IT_number 27
_symmetry_cell_setting 'orthorhombic'
loop_
_space_group_symop_operation_xyz
x,y,z
-x,-y,z
-x,y,1/2+z
x,-y,1/2+z
loop_
_atom_site_type_symbol
_atom_site_label
_atom_site_fract_x
_atom_site_fract_y
_atom_site_fract_z
Si Si1 0.429395 0.143116 0.338680
Si Si2 0.000000 0.500000 0.565324
Si Si3 0.064350 0.273803 0.319601
Si Si4 0.526546 0.829567 0.626910
Si Si5 0.444390 0.274610 0.968863
Si Si6 0.782065 0.459263 0.942743
Si Si7 0.758185 0.610455 0.186164
Si Si8 0.301904 0.702389 0.250916
O O1 0.216654 0.155669 0.338991
O O2 0.530913 0.148874 0.412984
O O3 0.520018 0.272419 0.295710
O O4 0.500000 0.000000 0.301671
O O5 0.890182 0.594146 0.510444
O O6 0.861467 0.426009 0.615495
O O7 0.117648 0.398028 0.374951
O O8 0.113203 0.320752 0.241736
O O9 0.144792 0.745076 0.305802
O O10 0.499113 0.776548 0.546519
O O11 0.384043 0.727668 0.664750
O O12 0.693520 0.793378 0.677800
O O13 0.500000 0.000000 0.627903
O O14 0.600287 0.377647 0.943737
O O15 0.269813 0.373454 0.957509
O O16 0.704337 0.460615 0.222759
#
# Coordination Sequence:
#
# PCOD9339033 Si02
#       8
#     4   2   4   4   4   4   4   4
#     4  11  25  46  68 102 142 188 239 294 360 439
#     4  12  22  38  66 104 146 170 236 308 360 420
#     4  11  25  43  68 106 140 179 243 295 361 423
#     4  12  26  45  70 105 147 194 240 291 370 448
#     4  10  22  43  71  99 142 188 233 295 372 428
#     4  10  23  39  69 105 138 178 240 304 356 431
#     4  12  24  42  68 103 140 181 234 301 353 422
#     4  12  25  42  74  99 142 190 240 301 357 424
#
# _framework density 22.183954
#
# number of rings (size 3 to 8) (size 9 to 14) (size 15 to 20)
#    0.000    0.800    4.000    2.800    5.600    1.600 
#    0.000    0.000    0.000    0.000    0.000    0.000 
#    0.000    0.000    0.000    0.000    0.000    0.000 
#
# Total GULP energy -167013.493660 kJ/mol
# GULP energy per Si atom -5567.116455 kJ/mol
# Density = 2.213346 g / cm^3
# Si number density = 22.183954 Si / 1000 Ang^3
#
#
#
# Elastic Constant Matrix: (Units=GPa)
#
#
# Indices 1 2 3 4 5 6 
#
# 1 113.7494 32.5077 38.1418 0.0000 0.0000 0.0000
# 2 32.5077 105.3274 13.8854 0.0000 0.0000 0.0000
# 3 38.1418 13.8854 166.3418 0.0000 0.0000 0.0000
# 4 0.0000 0.0000 0.0000 3.0020 0.0000 0.0000
# 5 0.0000 0.0000 0.0000 0.0000 48.7453 0.0000
# 6 0.0000 0.0000 0.0000 0.0000 0.0000 19.7148
#
#
#
# Elastic Compliance Matrix: (Units=1/GPa)
#
#
# Indices 1 2 3 4 5 6 
#
# 1 0.010336 -0.002910 -0.002127 0.000000 0.000000 0.000000
# 2 -0.002910 0.010419 -0.000203 0.000000 0.000000 0.000000
# 3 -0.002127 -0.000203 0.006516 0.000000 0.000000 0.000000
# 4 0.000000 0.000000 0.000000 0.333112 0.000000 0.000000
# 5 0.000000 0.000000 0.000000 0.000000 0.020515 0.000000
# 6 0.000000 0.000000 0.000000 0.000000 0.000000 0.050723
#
#
# Mechanical properties :
#
#
# Convention : Reuss Voigt Hill
#
# Bulk Modulus (GPa) = 59.54979 61.60983 60.57981
# Shear Modulus (GPa) = 11.16825 34.35134 22.75979
#
# Velocity S-wave (km/s) = 2.24618 3.93934 3.20653
# Velocity P-wave (km/s) = 5.79905 6.96590 6.40908
#
# Compressibility (1/GPa) = 0.01679267
#
# Stress axis : x y z
#
# Youngs Moduli (GPa) = 96.74875 95.97923 153.45956
#
# Poissons Ratio (x) = 0.27927 0.32643
# Poissons Ratio (y) = 0.28150 0.03108
# Poissons Ratio (z) = 0.20580 0.01944
#
# Static dielectric constant tensor:
#      x y z
#    x 1.917840 0.000000 0.000000 
#    y 0.000000 1.846290 0.000000 
#    z 0.000000 0.000000 1.854840 
# 
# From -- ./inp_files/4797.got.cif
#   From: 2010.05.17/outbox.cif.g08.bks.cpg/sg27_3_cif.got.tgz:4797.got - 2010.06.04 01:11:05.
