data_PCOD9339325
_publ_section_title
;
Structure prediction by ZEFSAII (Michael W. Deem and Ramdas Pophale) SiO2 
 PCOD9339325
Probable space group: P M A 2
;
_chemical_formula_sum "Si O2"
_cell_formula_units_Z 32
_cell_length_a 8.469787
_cell_length_b 15.174254
_cell_length_c 12.635303
_cell_angle_alpha 90.000000
_cell_angle_beta 90.000000
_cell_angle_gamma 90.000000
_cell_volume 1623.923248
_symmetry_space_group_name_H-M "P M A 2"
_symmetry_group_IT_number 28
_symmetry_cell_setting 'orthorhombic'
loop_
_space_group_symop_operation_xyz
x,y,z
-x,-y,z
1/2-x,y,z
1/2+x,-y,z
loop_
_atom_site_type_symbol
_atom_site_label
_atom_site_fract_x
_atom_site_fract_y
_atom_site_fract_z
Si Si1 0.559092 0.093369 0.909930
Si Si2 0.565475 0.132547 0.148354
Si Si3 0.439323 0.287703 0.439001
Si Si4 0.935106 0.682577 0.198556
Si Si5 0.561954 0.410536 0.011774
Si Si6 0.058240 0.721486 0.828061
Si Si7 0.938425 0.399712 0.634438
Si Si8 0.437142 0.093055 0.378301
O O1 0.750000 0.094761 0.911994
O O2 0.504380 0.177856 0.842385
O O3 0.500000 0.000000 0.868708
O O4 0.505994 0.103049 0.033079
O O5 0.750000 0.109801 0.156777
O O6 0.541072 0.237345 0.155916
O O7 0.479605 0.097988 0.253325
O O8 0.250000 0.286707 0.455800
O O9 0.468569 0.327792 0.322391
O O10 0.516794 0.347515 0.527935
O O11 0.494962 0.185020 0.431003
O O12 0.750000 0.706520 0.189154
O O13 0.975890 0.601939 0.123504
O O14 0.500000 0.500000 0.960343
O O15 0.750000 0.412907 0.024490
O O16 0.519019 0.330147 0.935372
O O17 0.250000 0.723983 0.820845
O O18 0.000807 0.662490 0.730366
O O19 0.750000 0.404830 0.643454
O O20 0.000000 0.500000 0.636862
O O21 0.250000 0.093352 0.387756
O O22 0.500000 0.000000 0.420744
#
# Coordination Sequence:
#
# PCOD9339325 Si02
#       8
#     4   4   4   4   4   4   4   4
#     4  10  20  35  54  81 116 154 192 231 280 336
#     4  10  18  31  53  79 115 160 196 236 285 338
#     4   9  21  40  59  83 118 151 191 244 290 340
#     4  10  20  35  55  82 117 154 191 236 286 343
#     4  11  21  36  57  83 116 152 188 233 289 352
#     4   9  20  40  60  82 116 151 188 238 291 342
#     4  11  23  41  67  89 110 145 192 245 297 353
#     4  10  20  34  54  83 120 159 198 243 286 342
#
# _framework density 19.705363999999999
#
# number of rings (size 3 to 8) (size 9 to 14) (size 15 to 20)
#    0.000    2.000    1.250    3.375    0.000    5.500 
#    0.000    3.750    0.000    3.000    0.000    0.000 
#    0.000    0.000    0.000    0.000    0.000    0.000 
#
# Total GULP energy -178559.259739 kJ/mol
# GULP energy per Si atom -5579.976867 kJ/mol
# Density = 1.966051 g / cm^3
# Si number density = 19.705364 Si / 1000 Ang^3
#
#
#
# Elastic Constant Matrix: (Units=GPa)
#
#
# Indices 1 2 3 4 5 6 
#
# 1 28.5079 23.1968 23.4090 0.0000 0.0000 0.0000
# 2 23.1968 166.3983 67.6624 0.0000 0.0000 0.0000
# 3 23.4090 67.6624 91.6103 0.0000 0.0000 0.0000
# 4 0.0000 0.0000 0.0000 12.6238 0.0000 0.0000
# 5 0.0000 0.0000 0.0000 0.0000 11.1863 0.0000
# 6 0.0000 0.0000 0.0000 0.0000 0.0000 33.3101
#
#
#
# Elastic Compliance Matrix: (Units=1/GPa)
#
#
# Indices 1 2 3 4 5 6 
#
# 1 0.044991 -0.002283 -0.009811 0.000000 0.000000 0.000000
# 2 -0.002283 0.008705 -0.005846 0.000000 0.000000 0.000000
# 3 -0.009811 -0.005846 0.017741 0.000000 0.000000 0.000000
# 4 0.000000 0.000000 0.000000 0.079215 0.000000 0.000000
# 5 0.000000 0.000000 0.000000 0.000000 0.089395 0.000000
# 6 0.000000 0.000000 0.000000 0.000000 0.000000 0.030021
#
#
# Mechanical properties :
#
#
# Convention : Reuss Voigt Hill
#
# Bulk Modulus (GPa) = 28.12301 57.22810 42.67556
# Shear Modulus (GPa) = 15.73317 22.90727 19.32022
#
# Velocity S-wave (km/s) = 2.82870 3.41323 3.13462
# Velocity P-wave (km/s) = 4.99714 6.68120 5.89957
#
# Compressibility (1/GPa) = 0.03555807
#
# Stress axis : x y z
#
# Youngs Moduli (GPa) = 22.22651 114.87451 56.36779
#
# Poissons Ratio (x) = 0.26223 0.55300
# Poissons Ratio (y) = 0.05074 0.32954
# Poissons Ratio (z) = 0.21805 0.67158
#
# Static dielectric constant tensor:
#      x y z
#    x 1.686260 0.000000 0.000000 
#    y 0.000000 1.754280 0.000000 
#    z 0.000000 0.000000 1.685170 
# 
# From -- ./inp_files/5106.got.cif
#   From: 2010.05.17/outbox.cif.g08.bks.cpg/sg28_3_cif.got.tgz:5106.got - 2010.06.04 01:15:21.
