data_PCOD9339770
_publ_section_title
;
Structure prediction by ZEFSAII (Michael W. Deem and Ramdas Pophale) SiO2 
 PCOD9339770
Probable space group: P M A 2
;
_chemical_formula_sum "Si O2"
_cell_formula_units_Z 28
_cell_length_a 8.777517
_cell_length_b 9.923007
_cell_length_c 17.903111
_cell_angle_alpha 90.000000
_cell_angle_beta 90.000000
_cell_angle_gamma 90.000000
_cell_volume 1559.349557
_symmetry_space_group_name_H-M "P M A 2"
_symmetry_group_IT_number 28
_symmetry_cell_setting 'orthorhombic'
loop_
_space_group_symop_operation_xyz
x,y,z
-x,-y,z
1/2-x,y,z
1/2+x,-y,z
loop_
_atom_site_type_symbol
_atom_site_label
_atom_site_fract_x
_atom_site_fract_y
_atom_site_fract_z
Si Si1 0.567500 0.647436 0.546670
Si Si2 0.068276 0.851331 0.254457
Si Si3 0.068142 0.354132 0.372542
Si Si4 0.567572 0.150026 0.666824
Si Si5 0.432861 0.645948 0.800564
Si Si6 0.932399 0.646721 0.963744
Si Si7 0.432688 0.850340 0.083835
O O1 0.500000 0.500000 0.566083
O O2 0.750000 0.642701 0.554893
O O3 0.530334 0.674050 0.459499
O O4 0.499063 0.763501 0.598330
O O5 0.250000 0.857056 0.262079
O O6 0.033588 0.806508 0.169283
O O7 0.999253 0.754001 0.316161
O O8 0.000000 0.000000 0.263399
O O9 0.250000 0.357717 0.366141
O O10 0.000000 0.500000 0.354486
O O11 0.750000 0.141727 0.660103
O O12 0.531825 0.238606 0.740563
O O13 0.500000 0.000000 0.670155
O O14 0.500000 0.500000 0.777463
O O15 0.250000 0.633604 0.807404
O O16 0.504404 0.679115 0.881048
O O17 0.750000 0.641795 0.962203
O O18 0.000000 0.500000 0.982573
O O19 0.991867 0.752787 0.023866
O O20 0.250000 0.853071 0.074440
O O21 0.500000 0.000000 0.075051
#
# Coordination Sequence:
#
# PCOD9339770 Si02
#       7
#     4   4   4   4   4   4   4
#     4  10  21  38  60  84 112 147 186 228 276 331
#     4  10  21  37  58  82 111 148 187 229 277 331
#     4  10  21  37  58  84 113 146 185 230 278 328
#     4  11  24  39  58  84 114 148 186 230 277 326
#     4  10  21  38  59  83 111 145 185 228 277 332
#     4  11  22  37  59  85 113 147 186 230 277 326
#     4  10  21  38  58  82 112 147 187 229 277 332
#
# _framework density 17.956206999999999
#
# number of rings (size 3 to 8) (size 9 to 14) (size 15 to 20)
#    0.000    1.714    0.000    5.143    0.000    8.571 
#    0.000    1.429    0.000    0.000    0.000    0.000 
#    0.000    0.000    0.000    0.000    0.000    0.000 
#
# Total GULP energy -156462.080639 kJ/mol
# GULP energy per Si atom -5587.931451 kJ/mol
# Density = 1.791534 g / cm^3
# Si number density = 17.956207 Si / 1000 Ang^3
#
#
#
# Elastic Constant Matrix: (Units=GPa)
#
#
# Indices 1 2 3 4 5 6 
#
# 1 99.4329 76.9518 77.0176 0.0000 0.0000 0.0000
# 2 76.9518 152.4911 121.8224 0.0000 0.0000 0.0000
# 3 77.0176 121.8224 130.9974 0.0000 0.0000 0.0000
# 4 0.0000 0.0000 0.0000 59.0409 0.0000 0.0000
# 5 0.0000 0.0000 0.0000 0.0000 50.3567 0.0000
# 6 0.0000 0.0000 0.0000 0.0000 0.0000 39.2082
#
#
#
# Elastic Compliance Matrix: (Units=1/GPa)
#
#
# Indices 1 2 3 4 5 6 
#
# 1 0.018717 -0.002544 -0.008638 0.000000 0.000000 0.000000
# 2 -0.002544 0.025855 -0.022549 0.000000 0.000000 0.000000
# 3 -0.008638 -0.022549 0.033682 0.000000 0.000000 0.000000
# 4 0.000000 0.000000 0.000000 0.016937 0.000000 0.000000
# 5 0.000000 0.000000 0.000000 0.000000 0.019858 0.000000
# 6 0.000000 0.000000 0.000000 0.000000 0.000000 0.025505
#
#
# Mechanical properties :
#
#
# Convention : Reuss Voigt Hill
#
# Bulk Modulus (GPa) = 92.66248 103.83390 98.24819
# Shear Modulus (GPa) = 23.62789 36.86313 30.24551
#
# Velocity S-wave (km/s) = 3.63142 4.53586 4.10860
# Velocity P-wave (km/s) = 8.32464 9.24033 8.79441
#
# Compressibility (1/GPa) = 0.01079185
#
# Stress axis : x y z
#
# Youngs Moduli (GPa) = 53.42749 38.67677 29.68955
#
# Poissons Ratio (x) = 0.09840 0.25647
# Poissons Ratio (y) = 0.13593 0.66946
# Poissons Ratio (z) = 0.46153 0.87211
#
# Static dielectric constant tensor:
#      x y z
#    x 1.596610 0.000000 0.000000 
#    y 0.000000 1.574520 0.000000 
#    z 0.000000 0.000000 1.608350 
# 
# From -- ./inp_files/6862.got.cif
#   From: 2010.05.17/outbox.cif.g08.bks.cpg/sg28_4_cif.got.tgz:6862.got - 2010.06.04 01:15:21.
