data_PCOD9339842
_publ_section_title
;
Structure prediction by ZEFSAII (Michael W. Deem and Ramdas Pophale) SiO2 
 PCOD9339842
Probable space group: P M A 2
;
_chemical_formula_sum "Si O2"
_cell_formula_units_Z 14
_cell_length_a 9.549874
_cell_length_b 11.403297
_cell_length_c 6.499554
_cell_angle_alpha 90.000000
_cell_angle_beta 90.000000
_cell_angle_gamma 90.000000
_cell_volume 707.801753
_symmetry_space_group_name_H-M "P M A 2"
_symmetry_group_IT_number 28
_symmetry_cell_setting 'orthorhombic'
loop_
_space_group_symop_operation_xyz
x,y,z
-x,-y,z
1/2-x,y,z
1/2+x,-y,z
loop_
_atom_site_type_symbol
_atom_site_label
_atom_site_fract_x
_atom_site_fract_y
_atom_site_fract_z
Si Si1 0.903714 0.815057 0.633160
Si Si2 0.590038 0.202345 0.246486
Si Si3 0.414773 0.380100 0.972054
Si Si4 0.000000 0.000000 0.952976
O O1 0.750000 0.816487 0.533088
O O2 0.921813 0.695093 0.761261
O O3 0.024103 0.829081 0.466030
O O4 0.911193 0.917357 0.802552
O O5 0.750000 0.242499 0.263896
O O6 0.491344 0.300599 0.143455
O O7 0.583247 0.088781 0.099457
O O8 0.500000 0.500000 0.952773
O O9 0.250000 0.398267 0.018871
#
# Coordination Sequence:
#
# PCOD9339842 Si02
#       4
#     4   4   4   2
#     4  10  22  39  59  85 118 155 195 241 292 345
#     4  11  23  38  60  89 120 155 195 240 292 348
#     4  10  22  41  63  86 116 153 195 243 292 345
#     4  10  22  38  60  86 118 156 198 242 288 342
#
# _framework density 19.779548999999999
#
# number of rings (size 3 to 8) (size 9 to 14) (size 15 to 20)
#    0.000    1.714    0.000    3.429    0.000   13.714 
#    0.000    2.857    0.000    0.000    0.000    0.000 
#    0.000    0.000    0.000    0.000    0.000    0.000 
#
# Total GULP energy -78206.735860 kJ/mol
# GULP energy per Si atom -5586.195419 kJ/mol
# Density = 1.973453 g / cm^3
# Si number density = 19.779549 Si / 1000 Ang^3
#
#
#
# Elastic Constant Matrix: (Units=GPa)
#
#
# Indices 1 2 3 4 5 6 
#
# 1 183.6368 56.7972 62.9367 0.0000 0.0000 0.0000
# 2 56.7972 129.6166 31.7634 0.0000 0.0000 0.0000
# 3 62.9367 31.7634 88.4542 0.0000 0.0000 0.0000
# 4 0.0000 0.0000 0.0000 8.6494 0.0000 0.0000
# 5 0.0000 0.0000 0.0000 0.0000 19.0949 0.0000
# 6 0.0000 0.0000 0.0000 0.0000 0.0000 -2.6553
#
#
#
# Elastic Compliance Matrix: (Units=1/GPa)
#
#
# Indices 1 2 3 4 5 6 
#
# 1 0.007754 -0.002243 -0.004712 0.000000 0.000000 0.000000
# 2 -0.002243 0.009108 -0.001675 0.000000 0.000000 0.000000
# 3 -0.004712 -0.001675 0.015259 0.000000 0.000000 0.000000
# 4 0.000000 0.000000 0.000000 0.115614 0.000000 0.000000
# 5 0.000000 0.000000 0.000000 0.000000 0.052370 0.000000
# 6 0.000000 0.000000 0.000000 0.000000 0.000000 -0.376607
#
#
# Mechanical properties :
#
#
# Convention : Reuss Voigt Hill
#
# Bulk Modulus (GPa) = 67.28347 78.30024 72.79185
# Shear Modulus (GPa) = -32.40707 21.69850 -5.35429
#
# Velocity S-wave (km/s) = -4.05212 3.31572 -1.64708
# Velocity P-wave (km/s) = 3.49251 7.37096 5.76752
#
# Compressibility (1/GPa) = 0.01486249
#
# Stress axis : x y z
#
# Youngs Moduli (GPa) = 128.96341 109.78867 65.53458
#
# Poissons Ratio (x) = 0.24628 0.30878
# Poissons Ratio (y) = 0.28929 0.10975
# Poissons Ratio (z) = 0.60764 0.18386
#
# Static dielectric constant tensor:
#      x y z
#    x 1.683850 0.000000 0.000000 
#    y 0.000000 1.684880 0.000000 
#    z 0.000000 0.000000 1.677300 
# 
# From -- ./inp_files/120.got.cif
#   From: 2010.05.17/outbox.cif.g08.bks.cpg/sg28_1_cif.got.tgz:120.got - 2010.06.04 01:15:21.
