data_PCOD9339585
_publ_section_title
;
Structure prediction by ZEFSAII (Michael W. Deem and Ramdas Pophale) SiO2 
 PCOD9339585
Probable space group: P M A 2
;
_chemical_formula_sum "Si O2"
_cell_formula_units_Z 24
_cell_length_a 9.497998
_cell_length_b 16.411776
_cell_length_c 9.240622
_cell_angle_alpha 90.000000
_cell_angle_beta 90.000000
_cell_angle_gamma 90.000000
_cell_volume 1440.419061
_symmetry_space_group_name_H-M "P M A 2"
_symmetry_group_IT_number 28
_symmetry_cell_setting 'orthorhombic'
loop_
_space_group_symop_operation_xyz
x,y,z
-x,-y,z
1/2-x,y,z
1/2+x,-y,z
loop_
_atom_site_type_symbol
_atom_site_label
_atom_site_fract_x
_atom_site_fract_y
_atom_site_fract_z
Si Si1 0.589462 0.842383 0.516110
Si Si2 0.415767 0.755316 0.094323
Si Si3 0.581353 0.581066 0.618617
Si Si4 0.918669 0.745279 0.796210
Si Si5 0.410953 0.326960 0.334794
Si Si6 0.584869 0.077618 0.274261
O O1 0.750000 0.874604 0.514794
O O2 0.549746 0.815652 0.678064
O O3 0.592684 0.757255 0.426821
O O4 0.483228 0.899157 0.429220
O O5 0.250000 0.739942 0.077164
O O6 0.486867 0.689394 0.201388
O O7 0.432466 0.843307 0.172199
O O8 0.495802 0.755220 0.942558
O O9 0.500000 0.500000 0.661305
O O10 0.750000 0.569536 0.623330
O O11 0.548614 0.658500 0.720319
O O12 0.544809 0.606368 0.453247
O O13 0.750000 0.747398 0.821812
O O14 0.250000 0.342965 0.287017
O O15 0.750000 0.060081 0.287026
O O16 0.500000 0.000000 0.216862
#
# Coordination Sequence:
#
# PCOD9339585 Si02
#       6
#     4   4   4   4   4   4
#     4   8  15  30  51  71  91 121 160 196 234 283
#     4  10  20  32  49  75 101 127 164 205 242 284
#     4   9  18  32  51  75  99 126 163 204 246 292
#     4   9  18  33  52  73  99 132 165 196 240 298
#     4   8  15  30  50  69  92 124 160 195 235 288
#     4  10  20  33  50  73  99 126 160 202 245 289
#
# _framework density 16.661818
#
# number of rings (size 3 to 8) (size 9 to 14) (size 15 to 20)
#    0.000    3.000    0.000    3.000    0.000    4.000 
#    0.000    5.000    0.000    2.000    0.000    0.000 
#    0.000    0.000    0.000    0.000    0.000    0.000 
#
# Total GULP energy -133696.827753 kJ/mol
# GULP energy per Si atom -5570.701156 kJ/mol
# Density = 1.662389 g / cm^3
# Si number density = 16.661818 Si / 1000 Ang^3
#
#
#
# Elastic Constant Matrix: (Units=GPa)
#
#
# Indices 1 2 3 4 5 6 
#
# 1 86.4943 41.1793 71.9435 0.0000 0.0000 0.0000
# 2 41.1793 51.9017 21.6034 0.0000 0.0000 0.0000
# 3 71.9435 21.6034 121.8722 0.0000 0.0000 0.0000
# 4 0.0000 0.0000 0.0000 11.6193 0.0000 0.0000
# 5 0.0000 0.0000 0.0000 0.0000 23.2588 0.0000
# 6 0.0000 0.0000 0.0000 0.0000 0.0000 26.5726
#
#
#
# Elastic Compliance Matrix: (Units=1/GPa)
#
#
# Indices 1 2 3 4 5 6 
#
# 1 0.036744 -0.021728 -0.017839 0.000000 0.000000 0.000000
# 2 -0.021728 0.033650 0.006861 0.000000 0.000000 0.000000
# 3 -0.017839 0.006861 0.017520 0.000000 0.000000 0.000000
# 4 0.000000 0.000000 0.000000 0.086064 0.000000 0.000000
# 5 0.000000 0.000000 0.000000 0.000000 0.042994 0.000000
# 6 0.000000 0.000000 0.000000 0.000000 0.000000 0.037633
#
#
# Mechanical properties :
#
#
# Convention : Reuss Voigt Hill
#
# Bulk Modulus (GPa) = 44.43851 58.85784 51.64818
# Shear Modulus (GPa) = 15.26641 20.65962 17.96302
#
# Velocity S-wave (km/s) = 3.03025 3.52510 3.28700
# Velocity P-wave (km/s) = 6.24275 7.20903 6.74322
#
# Compressibility (1/GPa) = 0.02250300
#
# Stress axis : x y z
#
# Youngs Moduli (GPa) = 27.21544 29.71759 57.07816
#
# Poissons Ratio (x) = 0.64569 1.01822
# Poissons Ratio (y) = 0.59133 -0.39163
# Poissons Ratio (z) = 0.48550 -0.20390
#
# Static dielectric constant tensor:
#      x y z
#    x 1.551150 0.000000 0.000000 
#    y 0.000000 1.569580 0.000000 
#    z 0.000000 0.000000 1.553600 
# 
# From -- ./inp_files/2550.got.cif
#   From: 2010.05.17/outbox.cif.g08.bks.cpg/sg28_2_cif.got.tgz:2550.got - 2010.06.04 01:15:21.
