data_PCOD9339643
_publ_section_title
;
Structure prediction by ZEFSAII (Michael W. Deem and Ramdas Pophale) SiO2 
 PCOD9339643
Probable space group: P M A 2
;
_chemical_formula_sum "Si O2"
_cell_formula_units_Z 24
_cell_length_a 8.530517
_cell_length_b 9.525045
_cell_length_c 15.918696
_cell_angle_alpha 90.000000
_cell_angle_beta 90.000000
_cell_angle_gamma 90.000000
_cell_volume 1293.450693
_symmetry_space_group_name_H-M "P M A 2"
_symmetry_group_IT_number 28
_symmetry_cell_setting 'orthorhombic'
loop_
_space_group_symop_operation_xyz
x,y,z
-x,-y,z
1/2-x,y,z
1/2+x,-y,z
loop_
_atom_site_type_symbol
_atom_site_label
_atom_site_fract_x
_atom_site_fract_y
_atom_site_fract_z
Si Si1 0.561608 0.341352 0.558980
Si Si2 0.439358 0.841846 0.397372
Si Si3 0.061340 0.842339 0.894143
Si Si4 0.060914 0.657010 0.051340
Si Si5 0.562889 0.840848 0.713173
Si Si6 0.939501 0.341897 0.239764
O O1 0.500000 0.500000 0.554913
O O2 0.750000 0.343985 0.561409
O O3 0.511941 0.252338 0.476989
O O4 0.499004 0.260298 0.640564
O O5 0.250000 0.845988 0.396758
O O6 0.492602 0.764091 0.312151
O O7 0.500000 0.000000 0.403584
O O8 0.250000 0.842481 0.890347
O O9 0.996251 0.791232 0.804626
O O10 0.008203 0.752801 0.974263
O O11 0.000000 0.000000 0.904172
O O12 0.250000 0.656059 0.050514
O O13 0.011336 0.702076 0.145404
O O14 0.000000 0.500000 0.039309
O O15 0.750000 0.845388 0.712457
O O16 0.500000 0.000000 0.700581
O O17 0.750000 0.346439 0.241733
O O18 0.000000 0.500000 0.254749
#
# Coordination Sequence:
#
# PCOD9339643 Si02
#       6
#     4   4   4   4   4   4
#     4  11  23  39  58  83 111 143 181 224 271 324
#     4  10  22  37  56  81 111 143 179 220 266 318
#     4  10  20  35  54  79 109 143 181 224 269 320
#     4   9  19  34  54  78 108 142 179 221 267 317
#     4  11  22  38  59  82 109 144 182 226 274 325
#     4   9  18  35  55  79 108 141 179 221 266 316
#
# _framework density 18.555015999999998
#
# number of rings (size 3 to 8) (size 9 to 14) (size 15 to 20)
#    0.000    2.000    0.000    4.500    0.000    6.000 
#    0.000    1.667    0.000    0.000    0.000    0.000 
#    0.000    0.000    0.000    0.000    0.000    0.000 
#
# Total GULP energy -134023.179937 kJ/mol
# GULP energy per Si atom -5584.299164 kJ/mol
# Density = 1.851278 g / cm^3
# Si number density = 18.555016 Si / 1000 Ang^3
#
#
#
# Elastic Constant Matrix: (Units=GPa)
#
#
# Indices 1 2 3 4 5 6 
#
# 1 52.3820 32.5743 46.8633 0.0000 0.0000 0.0000
# 2 32.5743 128.5485 128.5972 0.0000 0.0000 0.0000
# 3 46.8633 128.5972 217.0896 0.0000 0.0000 0.0000
# 4 0.0000 0.0000 0.0000 43.1355 0.0000 0.0000
# 5 0.0000 0.0000 0.0000 0.0000 -14.3246 0.0000
# 6 0.0000 0.0000 0.0000 0.0000 0.0000 34.6084
#
#
#
# Elastic Compliance Matrix: (Units=1/GPa)
#
#
# Indices 1 2 3 4 5 6 
#
# 1 0.023910 -0.002198 -0.003860 0.000000 0.000000 0.000000
# 2 -0.002198 0.019296 -0.010956 0.000000 0.000000 0.000000
# 3 -0.003860 -0.010956 0.011930 0.000000 0.000000 0.000000
# 4 0.000000 0.000000 0.000000 0.023183 0.000000 0.000000
# 5 0.000000 0.000000 0.000000 0.000000 -0.069810 0.000000
# 6 0.000000 0.000000 0.000000 0.000000 0.000000 0.028895
#
#
# Mechanical properties :
#
#
# Convention : Reuss Voigt Hill
#
# Bulk Modulus (GPa) = 47.37279 90.45440 68.91359
# Shear Modulus (GPa) = 63.72100 25.34955 44.53527
#
# Velocity S-wave (km/s) = 5.86653 3.70020 4.90447
# Velocity P-wave (km/s) = 8.45427 8.19210 8.32422
#
# Compressibility (1/GPa) = 0.02110916
#
# Stress axis : x y z
#
# Youngs Moduli (GPa) = 41.82308 51.82322 83.82478
#
# Poissons Ratio (x) = 0.11390 0.32353
# Poissons Ratio (y) = 0.09192 0.91840
# Poissons Ratio (z) = 0.16142 0.56778
#
# Static dielectric constant tensor:
#      x y z
#    x 1.628170 0.000000 0.000000 
#    y 0.000000 1.595160 0.000000 
#    z 0.000000 0.000000 1.655680 
# 
# From -- ./inp_files/6067.got.cif
#   From: 2010.05.17/outbox.cif.g08.bks.cpg/sg28_4_cif.got.tgz:6067.got - 2010.06.04 01:15:21.
