data_PCOD9339640
_publ_section_title
;
Structure prediction by ZEFSAII (Michael W. Deem and Ramdas Pophale) SiO2 
 PCOD9339640
Probable space group: P M A 2
;
_chemical_formula_sum "Si O2"
_cell_formula_units_Z 28
_cell_length_a 8.751811
_cell_length_b 10.004607
_cell_length_c 17.987849
_cell_angle_alpha 90.000000
_cell_angle_beta 90.000000
_cell_angle_gamma 90.000000
_cell_volume 1574.987810
_symmetry_space_group_name_H-M "P M A 2"
_symmetry_group_IT_number 28
_symmetry_cell_setting 'orthorhombic'
loop_
_space_group_symop_operation_xyz
x,y,z
-x,-y,z
1/2-x,y,z
1/2+x,-y,z
loop_
_atom_site_type_symbol
_atom_site_label
_atom_site_fract_x
_atom_site_fract_y
_atom_site_fract_z
Si Si1 0.565925 0.647297 0.447610
Si Si2 0.566110 0.649576 0.871071
Si Si3 0.567694 0.144473 0.163496
Si Si4 0.433114 0.853826 0.989317
Si Si5 0.066067 0.145633 0.742643
Si Si6 0.434487 0.144917 0.572032
Si Si7 0.066946 0.352029 0.279480
O O1 0.500000 0.500000 0.458935
O O2 0.750000 0.640106 0.450613
O O3 0.513211 0.747026 0.511939
O O4 0.524550 0.691679 0.363741
O O5 0.500000 0.500000 0.870161
O O6 0.750000 0.642741 0.873751
O O7 0.504862 0.737081 0.939920
O O8 0.520111 0.736698 0.798519
O O9 0.750000 0.142059 0.170688
O O10 0.498463 0.254341 0.217614
O O11 0.500000 0.000000 0.182838
O O12 0.531240 0.169237 0.076508
O O13 0.250000 0.856503 0.980101
O O14 0.500000 0.000000 0.968904
O O15 0.250000 0.135636 0.745133
O O16 0.019962 0.175107 0.657346
O O17 0.000000 0.000000 0.763396
O O18 0.250000 0.139931 0.570169
O O19 0.500000 0.000000 0.553352
O O20 0.250000 0.356632 0.274626
O O21 0.000000 0.500000 0.269255
#
# Coordination Sequence:
#
# PCOD9339640 Si02
#       7
#     4   4   4   4   4   4   4
#     4   9  19  34  52  75 104 138 175 214 257 308
#     4  11  23  37  54  79 109 140 176 218 263 310
#     4  10  21  37  57  81 107 137 174 216 262 312
#     4  10  21  38  59  81 106 138 175 214 260 314
#     4   9  19  35  55  77 103 137 174 213 258 310
#     4   9  18  34  53  76 105 135 172 215 258 306
#     4  10  20  35  54  77 106 141 179 218 263 314
#
# _framework density 17.777916000000001
#
# number of rings (size 3 to 8) (size 9 to 14) (size 15 to 20)
#    0.000    2.286    0.000    2.143    0.000    6.857 
#    0.000    1.429    0.000    0.000    0.000    0.000 
#    0.000    0.000    0.000    0.000    0.000    0.000 
#
# Total GULP energy -156280.761703 kJ/mol
# GULP energy per Si atom -5581.455775 kJ/mol
# Density = 1.773745 g / cm^3
# Si number density = 17.777916 Si / 1000 Ang^3
#
#
#
# Elastic Constant Matrix: (Units=GPa)
#
#
# Indices 1 2 3 4 5 6 
#
# 1 37.1509 49.4369 49.1762 0.0000 0.0000 0.0000
# 2 49.4369 158.5594 118.1214 0.0000 0.0000 0.0000
# 3 49.1762 118.1214 128.5302 0.0000 0.0000 0.0000
# 4 0.0000 0.0000 0.0000 70.7215 0.0000 0.0000
# 5 0.0000 0.0000 0.0000 0.0000 42.4962 0.0000
# 6 0.0000 0.0000 0.0000 0.0000 0.0000 37.1243
#
#
#
# Elastic Compliance Matrix: (Units=1/GPa)
#
#
# Indices 1 2 3 4 5 6 
#
# 1 0.055630 -0.004721 -0.016946 0.000000 0.000000 0.000000
# 2 -0.004721 0.020399 -0.016941 0.000000 0.000000 0.000000
# 3 -0.016946 -0.016941 0.029833 0.000000 0.000000 0.000000
# 4 0.000000 0.000000 0.000000 0.014140 0.000000 0.000000
# 5 0.000000 0.000000 0.000000 0.000000 0.023532 0.000000
# 6 0.000000 0.000000 0.000000 0.000000 0.000000 0.026937
#
#
# Mechanical properties :
#
#
# Convention : Reuss Voigt Hill
#
# Bulk Modulus (GPa) = 34.90767 84.18994 59.54881
# Shear Modulus (GPa) = 19.43755 37.23547 28.33651
#
# Velocity S-wave (km/s) = 3.31018 4.58151 3.99672
# Velocity P-wave (km/s) = 5.85557 8.68598 7.40723
#
# Compressibility (1/GPa) = 0.02864700
#
# Stress axis : x y z
#
# Youngs Moduli (GPa) = 17.97586 49.02193 33.52009
#
# Poissons Ratio (x) = 0.23141 0.56803
# Poissons Ratio (y) = 0.08486 0.56786
# Poissons Ratio (z) = 0.30462 0.83048
#
# Static dielectric constant tensor:
#      x y z
#    x 1.594750 0.000000 0.000000 
#    y 0.000000 1.557270 0.000000 
#    z 0.000000 0.000000 1.619450 
# 
# From -- ./inp_files/6716.got.cif
#   From: 2010.05.17/outbox.cif.g08.bks.cpg/sg28_4_cif.got.tgz:6716.got - 2010.06.04 01:15:21.
