data_PCOD9339611
_publ_section_title
;
Structure prediction by ZEFSAII (Michael W. Deem and Ramdas Pophale) SiO2 
 PCOD9339611
Probable space group: P M A 2
;
_chemical_formula_sum "Si O2"
_cell_formula_units_Z 28
_cell_length_a 8.664023
_cell_length_b 9.594280
_cell_length_c 18.573343
_cell_angle_alpha 90.000000
_cell_angle_beta 90.000000
_cell_angle_gamma 90.000000
_cell_volume 1543.910299
_symmetry_space_group_name_H-M "P M A 2"
_symmetry_group_IT_number 28
_symmetry_cell_setting 'orthorhombic'
loop_
_space_group_symop_operation_xyz
x,y,z
-x,-y,z
1/2-x,y,z
1/2+x,-y,z
loop_
_atom_site_type_symbol
_atom_site_label
_atom_site_fract_x
_atom_site_fract_y
_atom_site_fract_z
Si Si1 0.064770 0.655436 0.481890
Si Si2 0.934778 0.157004 0.618554
Si Si3 0.063263 0.344907 0.060373
Si Si4 0.065006 0.157498 0.767517
Si Si5 0.563910 0.843412 0.926237
Si Si6 0.064120 0.152293 0.191395
Si Si7 0.564585 0.846406 0.356876
O O1 0.250000 0.651211 0.479019
O O2 0.019120 0.747045 0.551560
O O3 0.000000 0.500000 0.486689
O O4 0.001526 0.733975 0.411654
O O5 0.750000 0.147544 0.621327
O O6 0.995175 0.218490 0.694415
O O7 0.000000 0.000000 0.609859
O O8 0.250000 0.349042 0.059915
O O9 0.013215 0.265245 0.133009
O O10 0.000000 0.500000 0.057593
O O11 0.012475 0.254776 0.991209
O O12 0.250000 0.155004 0.761391
O O13 0.022323 0.214296 0.846571
O O14 0.000000 0.000000 0.768814
O O15 0.750000 0.852750 0.928424
O O16 0.500000 0.000000 0.934128
O O17 0.250000 0.145578 0.189478
O O18 0.018811 0.183746 0.273887
O O19 0.000000 0.000000 0.172529
O O20 0.750000 0.849097 0.361203
O O21 0.500000 0.000000 0.374955
#
# Coordination Sequence:
#
# PCOD9339611 Si02
#       7
#     4   4   4   4   4   4   4
#     4  11  24  39  55  77 106 141 178 216 262 314
#     4  10  20  34  54  79 104 133 171 213 258 308
#     4  10  21  36  51  73 106 140 175 212 253 303
#     4   9  16  28  49  76 103 131 166 211 259 303
#     4   9  18  32  52  77 103 132 170 214 257 304
#     4   9  19  35  56  81 106 134 171 214 257 304
#     4  10  20  36  58  83 109 137 173 216 261 310
#
# _framework density 18.135767999999999
#
# number of rings (size 3 to 8) (size 9 to 14) (size 15 to 20)
#    0.000    2.286    0.000    3.429    0.000    6.286 
#    0.000    2.143    0.000    3.429    0.000    0.000 
#    0.000    0.000    0.000    0.000    0.000    0.000 
#
# Total GULP energy -156222.089270 kJ/mol
# GULP energy per Si atom -5579.360331 kJ/mol
# Density = 1.809449 g / cm^3
# Si number density = 18.135768 Si / 1000 Ang^3
#
#
#
# Elastic Constant Matrix: (Units=GPa)
#
#
# Indices 1 2 3 4 5 6 
#
# 1 30.2556 30.4590 38.9079 0.0000 0.0000 0.0000
# 2 30.4590 122.8831 106.5159 0.0000 0.0000 0.0000
# 3 38.9079 106.5159 156.1221 0.0000 0.0000 0.0000
# 4 0.0000 0.0000 0.0000 -0.4493 0.0000 0.0000
# 5 0.0000 0.0000 0.0000 0.0000 19.5083 0.0000
# 6 0.0000 0.0000 0.0000 0.0000 0.0000 29.5448
#
#
#
# Elastic Compliance Matrix: (Units=1/GPa)
#
#
# Indices 1 2 3 4 5 6 
#
# 1 0.049373 -0.003848 -0.009679 0.000000 0.000000 0.000000
# 2 -0.003848 0.020216 -0.012833 0.000000 0.000000 0.000000
# 3 -0.009679 -0.012833 0.017573 0.000000 0.000000 0.000000
# 4 0.000000 0.000000 0.000000 -2.225614 0.000000 0.000000
# 5 0.000000 0.000000 0.000000 0.000000 0.051260 0.000000
# 6 0.000000 0.000000 0.000000 0.000000 0.000000 0.033847
#
#
# Mechanical properties :
#
#
# Convention : Reuss Voigt Hill
#
# Bulk Modulus (GPa) = 29.03561 73.44737 51.24149
# Shear Modulus (GPa) = -2.51364 18.61263 8.04949
#
# Velocity S-wave (km/s) = -1.17857 3.20706 2.10905
# Velocity P-wave (km/s) = 3.76734 7.36886 5.85205
#
# Compressibility (1/GPa) = 0.03444046
#
# Stress axis : x y z
#
# Youngs Moduli (GPa) = 20.25413 49.46659 56.90556
#
# Poissons Ratio (x) = 0.19036 0.55078
# Poissons Ratio (y) = 0.07794 0.73029
# Poissons Ratio (z) = 0.19604 0.63482
#
# Static dielectric constant tensor:
#      x y z
#    x 1.611880 0.000000 0.000000 
#    y 0.000000 1.557720 0.000000 
#    z 0.000000 0.000000 1.660730 
# 
# From -- ./inp_files/6725.got.cif
#   From: 2010.05.17/outbox.cif.g08.bks.cpg/sg28_4_cif.got.tgz:6725.got - 2010.06.04 01:15:21.
