data_PCOD9339673
_publ_section_title
;
Structure prediction by ZEFSAII (Michael W. Deem and Ramdas Pophale) SiO2 
 PCOD9339673
Probable space group: P M A 2
;
_chemical_formula_sum "Si O2"
_cell_formula_units_Z 32
_cell_length_a 17.447806
_cell_length_b 10.233478
_cell_length_c 9.941206
_cell_angle_alpha 90.000000
_cell_angle_beta 90.000000
_cell_angle_gamma 90.000000
_cell_volume 1775.019618
_symmetry_space_group_name_H-M "P M A 2"
_symmetry_group_IT_number 28
_symmetry_cell_setting 'orthorhombic'
loop_
_space_group_symop_operation_xyz
x,y,z
-x,-y,z
1/2-x,y,z
1/2+x,-y,z
loop_
_atom_site_type_symbol
_atom_site_label
_atom_site_fract_x
_atom_site_fract_y
_atom_site_fract_z
Si Si1 0.341691 0.803532 0.202950
Si Si2 0.841848 0.710246 0.955594
Si Si3 0.409460 0.475088 0.456936
Si Si4 0.341905 0.754355 0.511175
Si Si5 0.909128 0.987450 0.003162
Si Si6 0.158541 0.254644 0.643444
Si Si7 0.157370 0.510235 0.164918
Si Si8 0.408642 0.976389 0.694928
O O1 0.250000 0.810150 0.197011
O O2 0.362885 0.802838 0.360435
O O3 0.365173 0.661470 0.145636
O O4 0.374442 0.920568 0.116475
O O5 0.750000 0.728775 0.965776
O O6 0.882480 0.837977 0.015173
O O7 0.860017 0.702662 0.797164
O O8 0.862569 0.582540 0.040727
O O9 0.500000 0.500000 0.460448
O O10 0.367765 0.603710 0.517094
O O11 0.384932 0.348474 0.540727
O O12 0.380879 0.463041 0.303193
O O13 0.250000 0.762315 0.526437
O O14 0.383257 0.846981 0.617610
O O15 0.885527 0.030725 0.852134
O O16 0.000000 0.000000 0.010414
O O17 0.250000 0.265158 0.623584
O O18 0.132620 0.104026 0.633367
O O19 0.250000 0.506970 0.183011
O O20 0.500000 0.000000 0.688232
#
# Coordination Sequence:
#
# PCOD9339673 Si02
#       8
#     4   4   4   4   4   4   4   4
#     4   9  19  35  54  76 104 136 175 220 264 312
#     4   9  19  35  55  78 105 137 178 223 264 310
#     4  11  22  36  55  81 111 143 177 220 270 320
#     4  10  21  37  55  78 107 141 181 225 267 315
#     4  10  21  35  53  79 111 142 174 214 264 318
#     4  10  20  36  56  79 107 142 182 223 265 317
#     4   9  19  37  57  79 106 137 177 224 266 314
#     4  10  21  37  55  80 111 142 178 223 270 318
#
# _framework density 18.027971000000001
#
# number of rings (size 3 to 8) (size 9 to 14) (size 15 to 20)
#    0.000    2.250    0.000    3.375    0.000    6.000 
#    0.000    3.125    0.000    0.000    0.000    0.000 
#    0.000    0.000    0.000    0.000    0.000    0.000 
#
# Total GULP energy -178629.019142 kJ/mol
# GULP energy per Si atom -5582.156848 kJ/mol
# Density = 1.798694 g / cm^3
# Si number density = 18.027971 Si / 1000 Ang^3
#
#
#
# Elastic Constant Matrix: (Units=GPa)
#
#
# Indices 1 2 3 4 5 6 
#
# 1 18.8085 -15.9511 -8.3687 0.0000 0.0000 0.0000
# 2 -15.9511 -4.0335 -10.1670 0.0000 0.0000 0.0000
# 3 -8.3687 -10.1670 1.9367 0.0000 0.0000 0.0000
# 4 0.0000 0.0000 0.0000 33.1938 0.0000 0.0000
# 5 0.0000 0.0000 0.0000 0.0000 14.8860 0.0000
# 6 0.0000 0.0000 0.0000 0.0000 0.0000 19.1324
#
#
#
# Elastic Compliance Matrix: (Units=1/GPa)
#
#
# Indices 1 2 3 4 5 6 
#
# 1 0.022166 -0.023122 -0.025603 0.000000 0.000000 0.000000
# 2 -0.023122 0.006701 -0.064739 0.000000 0.000000 0.000000
# 3 -0.025603 -0.064739 0.065852 0.000000 0.000000 0.000000
# 4 0.000000 0.000000 0.000000 0.030126 0.000000 0.000000
# 5 0.000000 0.000000 0.000000 0.000000 0.067177 0.000000
# 6 0.000000 0.000000 0.000000 0.000000 0.000000 0.052267
#
#
# Mechanical properties :
#
#
# Convention : Reuss Voigt Hill
#
# Bulk Modulus (GPa) = -7.56376 -5.80689 -6.68533
# Shear Modulus (GPa) = 11.70555 16.85568 14.28061
#
# Velocity S-wave (km/s) = 2.55090 3.06105 2.81755
# Velocity P-wave (km/s) = 2.11458 3.04390 2.62076
#
# Compressibility (1/GPa) = -0.13220945
#
# Stress axis : x y z
#
# Youngs Moduli (GPa) = 45.11430 149.24056 15.18554
#
# Poissons Ratio (x) = 3.45079 0.38880
# Poissons Ratio (y) = 1.04315 0.98309
# Poissons Ratio (z) = 1.15507 9.66162
#
# Static dielectric constant tensor:
#      x y z
#    x 1.598780 0.000000 0.000000 
#    y 0.000000 1.591690 0.000000 
#    z 0.000000 0.000000 1.603460 
# 
# From -- ./inp_files/5640.got.cif
#   From: 2010.05.17/outbox.cif.g08.bks.cpg/sg28_3_cif.got.tgz:5640.got - 2010.06.04 01:15:21.
