data_PCOD9339394
_publ_section_title
;
Structure prediction by ZEFSAII (Michael W. Deem and Ramdas Pophale) SiO2 
 PCOD9339394
Probable space group: P M A 2
;
_chemical_formula_sum "Si O2"
_cell_formula_units_Z 32
_cell_length_a 7.877023
_cell_length_b 15.106875
_cell_length_c 12.910314
_cell_angle_alpha 90.000000
_cell_angle_beta 90.000000
_cell_angle_gamma 90.000000
_cell_volume 1536.291241
_symmetry_space_group_name_H-M "P M A 2"
_symmetry_group_IT_number 28
_symmetry_cell_setting 'orthorhombic'
loop_
_space_group_symop_operation_xyz
x,y,z
-x,-y,z
1/2-x,y,z
1/2+x,-y,z
loop_
_atom_site_type_symbol
_atom_site_label
_atom_site_fract_x
_atom_site_fract_y
_atom_site_fract_z
Si Si1 0.045981 0.407042 0.675920
Si Si2 0.048811 0.903632 0.045051
Si Si3 0.451567 0.844690 0.820626
Si Si4 0.045886 0.291768 0.103818
Si Si5 0.044940 0.396138 0.306754
Si Si6 0.554676 0.654930 0.882511
Si Si7 0.042388 0.277222 0.500109
Si Si8 0.047683 0.097393 0.592140
O O1 0.250000 0.400414 0.682726
O O2 0.972677 0.402869 0.792071
O O3 0.986406 0.328124 0.603670
O O4 0.000000 0.500000 0.625817
O O5 0.250000 0.899267 0.045528
O O6 0.988150 0.813800 0.101359
O O7 0.991957 0.897271 0.924013
O O8 0.000000 0.000000 0.087473
O O9 0.250000 0.827579 0.830068
O O10 0.549516 0.752240 0.830833
O O11 0.482552 0.888466 0.709731
O O12 0.250000 0.299918 0.101214
O O13 0.983898 0.347510 0.201865
O O14 0.976970 0.332698 0.995885
O O15 0.250000 0.392407 0.306943
O O16 0.984742 0.335463 0.402744
O O17 0.000000 0.500000 0.313134
O O18 0.750000 0.626485 0.897188
O O19 0.250000 0.277747 0.496714
O O20 0.987296 0.176061 0.516449
O O21 0.250000 0.103982 0.598663
O O22 0.000000 0.000000 0.555744
#
# Coordination Sequence:
#
# PCOD9339394 Si02
#       8
#     4   4   4   4   4   4   4   4
#     4  10  19  32  50  75 104 141 177 215 269 326
#     4  10  20  33  52  80 114 150 186 225 269 322
#     4  10  19  31  50  79 111 146 186 224 265 317
#     4   9  19  35  56  80 108 144 184 226 272 326
#     4  10  21  39  62  85 107 140 185 231 280 329
#     4   9  17  32  51  73 108 149 181 215 270 325
#     4   9  19  37  57  76 107 145 180 222 274 325
#     4  11  21  35  54  78 109 147 184 224 271 326
#
# _framework density 20.829383
#
# number of rings (size 3 to 8) (size 9 to 14) (size 15 to 20)
#    0.000    2.250    1.250    1.875    0.000    4.000 
#    0.000    1.875    0.000    1.500    0.000    0.000 
#    0.000    0.000    0.000    0.000    0.000    0.000 
#
# Total GULP energy -178454.019276 kJ/mol
# GULP energy per Si atom -5576.688102 kJ/mol
# Density = 2.078197 g / cm^3
# Si number density = 20.829383 Si / 1000 Ang^3
#
#
#
# Elastic Constant Matrix: (Units=GPa)
#
#
# Indices 1 2 3 4 5 6 
#
# 1 33.7499 -1.2411 9.1397 0.0000 0.0000 0.0000
# 2 -1.2411 161.0794 83.2654 0.0000 0.0000 0.0000
# 3 9.1397 83.2654 132.3637 0.0000 0.0000 0.0000
# 4 0.0000 0.0000 0.0000 14.9614 0.0000 0.0000
# 5 0.0000 0.0000 0.0000 0.0000 7.1561 0.0000
# 6 0.0000 0.0000 0.0000 0.0000 0.0000 24.3389
#
#
#
# Elastic Compliance Matrix: (Units=1/GPa)
#
#
# Indices 1 2 3 4 5 6 
#
# 1 0.030610 0.001969 -0.003352 0.000000 0.000000 0.000000
# 2 0.001969 0.009326 -0.006003 0.000000 0.000000 0.000000
# 3 -0.003352 -0.006003 0.011562 0.000000 0.000000 0.000000
# 4 0.000000 0.000000 0.000000 0.066839 0.000000 0.000000
# 5 0.000000 0.000000 0.000000 0.000000 0.139740 0.000000
# 6 0.000000 0.000000 0.000000 0.000000 0.000000 0.041086
#
#
# Mechanical properties :
#
#
# Convention : Reuss Voigt Hill
#
# Bulk Modulus (GPa) = 27.22846 56.61343 41.92095
# Shear Modulus (GPa) = 15.32903 25.02655 20.17779
#
# Velocity S-wave (km/s) = 2.71575 3.47003 3.11580
# Velocity P-wave (km/s) = 4.78897 6.57977 5.75446
#
# Compressibility (1/GPa) = 0.03672627
#
# Stress axis : x y z
#
# Youngs Moduli (GPa) = 32.66926 107.22455 86.48649
#
# Poissons Ratio (x) = -0.21107 0.28990
# Poissons Ratio (y) = -0.06431 0.51915
# Poissons Ratio (z) = 0.10950 0.64364
#
# Static dielectric constant tensor:
#      x y z
#    x 1.747410 0.000000 0.000000 
#    y 0.000000 1.785040 0.000000 
#    z 0.000000 0.000000 1.770170 
# 
# From -- ./inp_files/5055.got.cif
#   From: 2010.05.17/outbox.cif.g08.bks.cpg/sg28_3_cif.got.tgz:5055.got - 2010.06.04 01:15:21.
