data_PCOD9339693
_publ_section_title
;
Structure prediction by ZEFSAII (Michael W. Deem and Ramdas Pophale) SiO2 
 PCOD9339693
Probable space group: P M A 2
;
_chemical_formula_sum "Si O2"
_cell_formula_units_Z 16
_cell_length_a 7.501106
_cell_length_b 16.640530
_cell_length_c 5.136245
_cell_angle_alpha 90.000000
_cell_angle_beta 90.000000
_cell_angle_gamma 90.000000
_cell_volume 641.118322
_symmetry_space_group_name_H-M "P M A 2"
_symmetry_group_IT_number 28
_symmetry_cell_setting 'orthorhombic'
loop_
_space_group_symop_operation_xyz
x,y,z
-x,-y,z
1/2-x,y,z
1/2+x,-y,z
loop_
_atom_site_type_symbol
_atom_site_label
_atom_site_fract_x
_atom_site_fract_y
_atom_site_fract_z
Si Si1 0.962724 0.908138 0.848130
Si Si2 0.532354 0.818502 0.347394
Si Si3 0.250000 0.478363 0.468844
Si Si4 0.250000 0.589977 0.969913
Si Si5 0.049626 0.335784 0.659257
O O1 0.750000 0.899365 0.843643
O O2 0.024500 0.884759 0.560312
O O3 0.031661 0.846226 0.065487
O O4 0.000000 0.000000 0.916917
O O5 0.750000 0.815679 0.335552
O O6 0.477737 0.734083 0.474157
O O7 0.250000 0.539469 0.232314
O O8 0.250000 0.522842 0.743455
O O9 0.085909 0.415241 0.485244
O O10 0.422687 0.642847 0.897742
O O11 0.250000 0.313017 0.754424
#
# Coordination Sequence:
#
# PCOD9339693 Si02
#       5
#     4   4   2   2   4
#     4  10  20  36  59  89 123 161 204 256 310 382
#     4   9  19  38  62  86 123 165 206 252 318 381
#     4  10  26  42  68  94 133 170 221 278 332 396
#     4  12  24  46  64 102 129 170 225 276 332 400
#     4   9  23  46  66  98 130 178 217 278 332 396
#
# _framework density 24.956392000000001
#
# number of rings (size 3 to 8) (size 9 to 14) (size 15 to 20)
#    0.750    1.500    0.000    1.500    0.000    8.000 
#    6.750    0.000    0.000    0.000    0.000    0.000 
#    0.000    0.000    0.000    0.000    0.000    0.000 
#
# Total GULP energy -89503.119183 kJ/mol
# GULP energy per Si atom -5593.944949 kJ/mol
# Density = 2.489959 g / cm^3
# Si number density = 24.956392 Si / 1000 Ang^3
#
#
#
# Elastic Constant Matrix: (Units=GPa)
#
#
# Indices 1 2 3 4 5 6 
#
# 1 93.1782 0.4592 16.6504 0.0000 0.0000 0.0000
# 2 0.4592 78.7282 -6.6489 0.0000 0.0000 0.0000
# 3 16.6504 -6.6489 97.2962 0.0000 0.0000 0.0000
# 4 0.0000 0.0000 0.0000 46.3959 0.0000 0.0000
# 5 0.0000 0.0000 0.0000 0.0000 530.6294 0.0000
# 6 0.0000 0.0000 0.0000 0.0000 0.0000 17.4697
#
#
#
# Elastic Compliance Matrix: (Units=1/GPa)
#
#
# Indices 1 2 3 4 5 6 
#
# 1 0.011075 -0.000226 -0.001911 0.000000 0.000000 0.000000
# 2 -0.000226 0.012780 0.000912 0.000000 0.000000 0.000000
# 3 -0.001911 0.000912 0.010667 0.000000 0.000000 0.000000
# 4 0.000000 0.000000 0.000000 0.021554 0.000000 0.000000
# 5 0.000000 0.000000 0.000000 0.000000 0.001885 0.000000
# 6 0.000000 0.000000 0.000000 0.000000 0.000000 0.057242
#
#
# Mechanical properties :
#
#
# Convention : Reuss Voigt Hill
#
# Bulk Modulus (GPa) = 31.17890 32.23598 31.70744
# Shear Modulus (GPa) = 38.95823 136.14844 87.55333
#
# Velocity S-wave (km/s) = 3.95530 7.39412 5.92948
# Velocity P-wave (km/s) = 5.77752 9.26511 7.72081
#
# Compressibility (1/GPa) = 0.03207297
#
# Stress axis : x y z
#
# Youngs Moduli (GPa) = 90.29620 78.24556 93.74540
#
# Poissons Ratio (x) = 0.01768 0.17912
# Poissons Ratio (y) = 0.02040 -0.08550
# Poissons Ratio (z) = 0.17253 -0.07136
#
# Static dielectric constant tensor:
#      x y z
#    x 1.712480 0.000000 0.000000 
#    y 0.000000 1.992920 0.000000 
#    z 0.000000 0.000000 1.902400 
# 
# From -- ./inp_files/154.got.cif
#   From: 2010.05.17/outbox.cif.g08.bks.cpg/sg28_1_cif.got.tgz:154.got - 2010.06.04 01:15:21.
