data_PCOD9339455
_publ_section_title
;
Structure prediction by ZEFSAII (Michael W. Deem and Ramdas Pophale) SiO2 
 PCOD9339455
Probable space group: P M A 2
;
_chemical_formula_sum "Si O2"
_cell_formula_units_Z 24
_cell_length_a 8.884815
_cell_length_b 16.824318
_cell_length_c 9.422015
_cell_angle_alpha 90.000000
_cell_angle_beta 90.000000
_cell_angle_gamma 90.000000
_cell_volume 1408.411781
_symmetry_space_group_name_H-M "P M A 2"
_symmetry_group_IT_number 28
_symmetry_cell_setting 'orthorhombic'
loop_
_space_group_symop_operation_xyz
x,y,z
-x,-y,z
1/2-x,y,z
1/2+x,-y,z
loop_
_atom_site_type_symbol
_atom_site_label
_atom_site_fract_x
_atom_site_fract_y
_atom_site_fract_z
Si Si1 0.569710 0.759692 0.911790
Si Si2 0.577931 0.331210 0.668117
Si Si3 0.432236 0.584423 0.391676
Si Si4 0.931505 0.737430 0.237474
Si Si5 0.076443 0.831551 0.482591
Si Si6 0.430529 0.083627 0.738879
O O1 0.750000 0.758623 0.908490
O O2 0.512060 0.689764 0.809167
O O3 0.522285 0.843930 0.842609
O O4 0.522552 0.750347 0.074380
O O5 0.750000 0.349315 0.705998
O O6 0.522246 0.396253 0.555461
O O7 0.576883 0.250185 0.574521
O O8 0.500000 0.500000 0.349207
O O9 0.250000 0.585565 0.385195
O O10 0.498317 0.655596 0.296710
O O11 0.750000 0.734102 0.247381
O O12 0.993189 0.807767 0.338072
O O13 0.250000 0.854286 0.458459
O O14 0.991742 0.893960 0.582484
O O15 0.250000 0.079648 0.736721
O O16 0.500000 0.000000 0.783718
#
# Coordination Sequence:
#
# PCOD9339455 Si02
#       6
#     4   4   4   4   4   4
#     4   9  19  33  51  74 101 133 169 204 247 300
#     4   8  16  30  49  71  95 123 161 202 242 290
#     4  10  20  34  52  76 101 130 168 211 255 301
#     4  10  19  33  52  75 103 136 169 206 250 301
#     4   9  17  31  50  73  97 127 166 204 242 292
#     4  10  19  33  52  75 101 131 167 211 256 300
#
# _framework density 17.040471
#
# number of rings (size 3 to 8) (size 9 to 14) (size 15 to 20)
#    0.000    2.667    0.000    3.000    0.000    6.667 
#    0.000    1.667    0.000    4.000    0.000    0.000 
#    0.000    0.000    0.000    0.000    0.000    0.000 
#
# Total GULP energy -133726.841367 kJ/mol
# GULP energy per Si atom -5571.951724 kJ/mol
# Density = 1.700169 g / cm^3
# Si number density = 17.040471 Si / 1000 Ang^3
#
#
#
# Elastic Constant Matrix: (Units=GPa)
#
#
# Indices 1 2 3 4 5 6 
#
# 1 60.5557 30.2668 46.2509 0.0000 0.0000 0.0000
# 2 30.2668 75.0076 43.2199 0.0000 0.0000 0.0000
# 3 46.2509 43.2199 143.9987 0.0000 0.0000 0.0000
# 4 0.0000 0.0000 0.0000 16.0212 0.0000 0.0000
# 5 0.0000 0.0000 0.0000 0.0000 25.8748 0.0000
# 6 0.0000 0.0000 0.0000 0.0000 0.0000 16.9252
#
#
#
# Elastic Compliance Matrix: (Units=1/GPa)
#
#
# Indices 1 2 3 4 5 6 
#
# 1 0.024171 -0.006384 -0.005847 0.000000 0.000000 0.000000
# 2 -0.006384 0.017806 -0.003294 0.000000 0.000000 0.000000
# 3 -0.005847 -0.003294 0.009811 0.000000 0.000000 0.000000
# 4 0.000000 0.000000 0.000000 0.062417 0.000000 0.000000
# 5 0.000000 0.000000 0.000000 0.000000 0.038648 0.000000
# 6 0.000000 0.000000 0.000000 0.000000 0.000000 0.059084
#
#
# Mechanical properties :
#
#
# Convention : Reuss Voigt Hill
#
# Bulk Modulus (GPa) = 48.22165 57.67080 52.94623
# Shear Modulus (GPa) = 20.00811 22.41920 21.21365
#
# Velocity S-wave (km/s) = 3.43031 3.63112 3.53214
# Velocity P-wave (km/s) = 6.63695 7.17613 6.91180
#
# Compressibility (1/GPa) = 0.02073757
#
# Stress axis : x y z
#
# Youngs Moduli (GPa) = 41.37271 56.16099 101.92451
#
# Poissons Ratio (x) = 0.35853 0.59597
# Poissons Ratio (y) = 0.26412 0.33572
# Poissons Ratio (z) = 0.24192 0.18498
#
# Static dielectric constant tensor:
#      x y z
#    x 1.575280 0.000000 0.000000 
#    y 0.000000 1.580810 0.000000 
#    z 0.000000 0.000000 1.576880 
# 
# From -- ./inp_files/2541.got.cif
#   From: 2010.05.17/outbox.cif.g08.bks.cpg/sg28_2_cif.got.tgz:2541.got - 2010.06.04 01:15:21.
