data_PCOD9339480
_publ_section_title
;
Structure prediction by ZEFSAII (Michael W. Deem and Ramdas Pophale) SiO2 
 PCOD9339480
Probable space group: P M A 2
;
_chemical_formula_sum "Si O2"
_cell_formula_units_Z 32
_cell_length_a 8.525089
_cell_length_b 9.772546
_cell_length_c 21.414316
_cell_angle_alpha 90.000000
_cell_angle_beta 90.000000
_cell_angle_gamma 90.000000
_cell_volume 1784.065734
_symmetry_space_group_name_H-M "P M A 2"
_symmetry_group_IT_number 28
_symmetry_cell_setting 'orthorhombic'
loop_
_space_group_symop_operation_xyz
x,y,z
-x,-y,z
1/2-x,y,z
1/2+x,-y,z
loop_
_atom_site_type_symbol
_atom_site_label
_atom_site_fract_x
_atom_site_fract_y
_atom_site_fract_z
Si Si1 0.439339 0.847496 0.176240
Si Si2 0.061030 0.156327 0.400316
Si Si3 0.062231 0.346419 0.926676
Si Si4 0.061162 0.155279 0.537922
Si Si5 0.437713 0.848227 0.034329
Si Si6 0.560007 0.844711 0.673987
Si Si7 0.938322 0.345399 0.289025
Si Si8 0.439525 0.346118 0.786767
O O1 0.250000 0.852429 0.177420
O O2 0.489046 0.812962 0.105304
O O3 0.491419 0.736161 0.226780
O O4 0.500000 0.000000 0.191381
O O5 0.250000 0.152887 0.397102
O O6 0.012145 0.208828 0.469826
O O7 0.996017 0.255768 0.347497
O O8 0.000000 0.000000 0.392608
O O9 0.250000 0.347256 0.928714
O O10 0.013154 0.300203 0.856705
O O11 0.000000 0.500000 0.934393
O O12 0.999022 0.253045 0.981823
O O13 0.250000 0.154960 0.537705
O O14 0.011263 0.212914 0.605443
O O15 0.000000 0.000000 0.538659
O O16 0.250000 0.848777 0.033396
O O17 0.500000 0.000000 0.021461
O O18 0.750000 0.848070 0.675324
O O19 0.504774 0.752611 0.731547
O O20 0.500000 0.000000 0.679598
O O21 0.750000 0.348665 0.289279
O O22 0.000000 0.500000 0.290814
O O23 0.500000 0.500000 0.777757
O O24 0.250000 0.348787 0.785189
#
# Coordination Sequence:
#
# PCOD9339480 Si02
#       8
#     4   4   4   4   4   4   4   4
#     4   9  20  37  57  79 103 132 169 207 249 300
#     4  10  19  33  54  79 104 135 172 211 253 303
#     4  10  20  35  53  75 102 136 174 213 255 304
#     4   8  15  28  48  72 100 130 164 205 249 295
#     4  10  20  36  56  80 107 135 167 208 253 300
#     4   9  17  31  50  74 101 130 165 208 252 297
#     4  11  23  38  54  76 105 137 171 211 255 301
#     4   9  19  34  51  71  99 133 171 209 249 298
#
# _framework density 17.936558999999999
#
# number of rings (size 3 to 8) (size 9 to 14) (size 15 to 20)
#    0.000    2.500    0.000    1.875    0.000    5.000 
#    0.000    3.125    0.000    1.500    0.000    0.000 
#    0.000    0.000    0.000    0.000    0.000    0.000 
#
# Total GULP energy -178384.287281 kJ/mol
# GULP energy per Si atom -5574.508978 kJ/mol
# Density = 1.789573 g / cm^3
# Si number density = 17.936559 Si / 1000 Ang^3
#
#
#
# Elastic Constant Matrix: (Units=GPa)
#
#
# Indices 1 2 3 4 5 6 
#
# 1 28.0864 24.8234 39.2511 0.0000 0.0000 0.0000
# 2 24.8234 99.8595 114.9069 0.0000 0.0000 0.0000
# 3 39.2511 114.9069 201.0254 0.0000 0.0000 0.0000
# 4 0.0000 0.0000 0.0000 -22.0476 0.0000 0.0000
# 5 0.0000 0.0000 0.0000 0.0000 34.0942 0.0000
# 6 0.0000 0.0000 0.0000 0.0000 0.0000 29.9308
#
#
#
# Elastic Compliance Matrix: (Units=1/GPa)
#
#
# Indices 1 2 3 4 5 6 
#
# 1 0.049369 -0.003448 -0.007668 0.000000 0.000000 0.000000
# 2 -0.003448 0.029499 -0.016189 0.000000 0.000000 0.000000
# 3 -0.007668 -0.016189 0.015725 0.000000 0.000000 0.000000
# 4 0.000000 0.000000 0.000000 -0.045356 0.000000 0.000000
# 5 0.000000 0.000000 0.000000 0.000000 0.029331 0.000000
# 6 0.000000 0.000000 0.000000 0.000000 0.000000 0.033410
#
#
# Mechanical properties :
#
#
# Convention : Reuss Voigt Hill
#
# Bulk Modulus (GPa) = 25.01081 76.32602 50.66841
# Shear Modulus (GPa) = 27.79070 18.39479 23.09275
#
# Velocity S-wave (km/s) = 3.94050 3.20589 3.59202
# Velocity P-wave (km/s) = 5.88878 7.50662 6.74637
#
# Compressibility (1/GPa) = 0.03998271
#
# Stress axis : x y z
#
# Youngs Moduli (GPa) = 20.25565 33.89918 63.59205
#
# Poissons Ratio (x) = 0.11690 0.48765
# Poissons Ratio (y) = 0.06985 1.02946
# Poissons Ratio (z) = 0.15533 0.54878
#
# Static dielectric constant tensor:
#      x y z
#    x 1.607900 0.000000 0.000000 
#    y 0.000000 1.557770 0.000000 
#    z 0.000000 0.000000 1.661290 
# 
# From -- ./inp_files/7069.got.cif
#   From: 2010.05.17/outbox.cif.g08.bks.cpg/sg28_4_cif.got.tgz:7069.got - 2010.06.04 01:15:21.
