data_PCOD9339243
_publ_section_title
;
Structure prediction by ZEFSAII (Michael W. Deem and Ramdas Pophale) SiO2 
 PCOD9339243
Probable space group: P M A 2
;
_chemical_formula_sum "Si O2"
_cell_formula_units_Z 20
_cell_length_a 14.905448
_cell_length_b 7.182865
_cell_length_c 8.907578
_cell_angle_alpha 90.000000
_cell_angle_beta 90.000000
_cell_angle_gamma 90.000000
_cell_volume 953.679334
_symmetry_space_group_name_H-M "P M A 2"
_symmetry_group_IT_number 28
_symmetry_cell_setting 'orthorhombic'
loop_
_space_group_symop_operation_xyz
x,y,z
-x,-y,z
1/2-x,y,z
1/2+x,-y,z
loop_
_atom_site_type_symbol
_atom_site_label
_atom_site_fract_x
_atom_site_fract_y
_atom_site_fract_z
Si Si1 0.500000 0.000000 0.493480
Si Si2 0.000000 0.500000 0.156443
Si Si3 0.350231 0.516525 0.373186
Si Si4 0.929114 0.348483 0.677160
Si Si5 0.355564 0.752103 0.987935
Si Si6 0.650390 0.049086 0.265545
O O1 0.478447 0.821781 0.594263
O O2 0.418068 0.037358 0.380970
O O3 0.926530 0.583129 0.273638
O O4 0.935743 0.375736 0.053177
O O5 0.250000 0.443858 0.353140
O O6 0.374653 0.541376 0.547578
O O7 0.350584 0.730930 0.312486
O O8 0.870822 0.258473 0.810174
O O9 0.000000 0.500000 0.735800
O O10 0.250000 0.698373 0.015658
O O11 0.368555 0.941190 0.086579
O O12 0.750000 0.977744 0.288292
#
# Coordination Sequence:
#
# PCOD9339243 Si02
#       6
#     2   2   4   4   4   4
#     4  10  22  38  66  88 120 168 206 256 310 362
#     4  10  16  30  54  86 120 150 216 254 292 370
#     4   9  17  31  55  82 115 163 205 247 305 367
#     4  11  21  38  60  93 128 161 204 254 314 376
#     4  10  20  35  61  89 124 171 207 254 320 378
#     4   8  17  35  58  83 114 159 208 249 304 367
#
# _framework density 20.971409000000001
#
# number of rings (size 3 to 8) (size 9 to 14) (size 15 to 20)
#    0.000    2.400    2.000    2.400    0.000    1.600 
#    0.000    2.000    0.000    0.000    0.000    0.000 
#    0.000    0.000    0.000    0.000    0.000    0.000 
#
# Total GULP energy -111344.363710 kJ/mol
# GULP energy per Si atom -5567.218185 kJ/mol
# Density = 2.092368 g / cm^3
# Si number density = 20.971409 Si / 1000 Ang^3
#
#
#
# Elastic Constant Matrix: (Units=GPa)
#
#
# Indices 1 2 3 4 5 6 
#
# 1 159.1462 27.4557 65.8777 0.0000 0.0000 0.0000
# 2 27.4557 69.4311 16.4686 0.0000 0.0000 0.0000
# 3 65.8777 16.4686 147.7824 0.0000 0.0000 0.0000
# 4 0.0000 0.0000 0.0000 14.3523 0.0000 0.0000
# 5 0.0000 0.0000 0.0000 0.0000 32.1829 0.0000
# 6 0.0000 0.0000 0.0000 0.0000 0.0000 16.3813
#
#
#
# Elastic Compliance Matrix: (Units=1/GPa)
#
#
# Indices 1 2 3 4 5 6 
#
# 1 0.008078 -0.002404 -0.003333 0.000000 0.000000 0.000000
# 2 -0.002404 0.015509 -0.000657 0.000000 0.000000 0.000000
# 3 -0.003333 -0.000657 0.008326 0.000000 0.000000 0.000000
# 4 0.000000 0.000000 0.000000 0.069675 0.000000 0.000000
# 5 0.000000 0.000000 0.000000 0.000000 0.031072 0.000000
# 6 0.000000 0.000000 0.000000 0.000000 0.000000 0.061045
#
#
# Mechanical properties :
#
#
# Convention : Reuss Voigt Hill
#
# Bulk Modulus (GPa) = 52.28612 66.21819 59.25216
# Shear Modulus (GPa) = 23.48875 30.35382 26.92128
#
# Velocity S-wave (km/s) = 3.35033 3.80859 3.58678
# Velocity P-wave (km/s) = 6.32080 7.14034 6.74303
#
# Compressibility (1/GPa) = 0.01912553
#
# Stress axis : x y z
#
# Youngs Moduli (GPa) = 123.79421 64.47833 120.11013
#
# Poissons Ratio (x) = 0.15499 0.40034
# Poissons Ratio (y) = 0.29757 0.07889
# Poissons Ratio (z) = 0.41261 0.04235
#
# Static dielectric constant tensor:
#      x y z
#    x 1.770260 0.000000 0.000000 
#    y 0.000000 1.808550 0.000000 
#    z 0.000000 0.000000 1.815860 
# 
# From -- ./inp_files/3239.got.cif
#   From: 2010.05.17/outbox.cif.g08.bks.cpg/sg28_2_cif.got.tgz:3239.got - 2010.06.04 01:15:21.
