data_PCOD9339700
_publ_section_title
;
Structure prediction by ZEFSAII (Michael W. Deem and Ramdas Pophale) SiO2 
 PCOD9339700
Probable space group: P M A 2
;
_chemical_formula_sum "Si O2"
_cell_formula_units_Z 32
_cell_length_a 15.917910
_cell_length_b 12.416129
_cell_length_c 7.789632
_cell_angle_alpha 90.000000
_cell_angle_beta 90.000000
_cell_angle_gamma 90.000000
_cell_volume 1539.533708
_symmetry_space_group_name_H-M "P M A 2"
_symmetry_group_IT_number 28
_symmetry_cell_setting 'orthorhombic'
loop_
_space_group_symop_operation_xyz
x,y,z
-x,-y,z
1/2-x,y,z
1/2+x,-y,z
loop_
_atom_site_type_symbol
_atom_site_label
_atom_site_fract_x
_atom_site_fract_y
_atom_site_fract_z
Si Si1 0.649660 0.998969 0.792600
Si Si2 0.998379 0.621548 0.662526
Si Si3 0.842900 0.233923 0.163106
Si Si4 0.997457 0.622474 0.250274
Si Si5 0.155899 0.237785 0.665165
Si Si6 0.096306 0.999721 0.178394
Si Si7 0.345134 0.768405 0.748078
Si Si8 0.842068 0.763960 0.256955
O O1 0.750000 0.004866 0.832291
O O2 0.630433 0.109706 0.693755
O O3 0.635031 0.887493 0.696573
O O4 0.600624 0.996953 0.971149
O O5 0.084785 0.683892 0.696207
O O6 0.000000 0.500000 0.729597
O O7 0.988760 0.616472 0.456473
O O8 0.918991 0.688197 0.733716
O O9 0.750000 0.268786 0.219274
O O10 0.861131 0.112946 0.229274
O O11 0.916971 0.313788 0.213829
O O12 0.843048 0.227862 0.955698
O O13 0.918558 0.693051 0.184703
O O14 0.000000 0.500000 0.184191
O O15 0.250000 0.258463 0.735420
O O16 0.160291 0.255336 0.461079
O O17 0.140740 0.109224 0.234882
O O18 0.000000 0.000000 0.236504
O O19 0.250000 0.744021 0.688610
O O20 0.750000 0.737602 0.184547
#
# Coordination Sequence:
#
# PCOD9339700 Si02
#       8
#     4   4   4   4   4   4   4   4
#     4   9  19  35  54  82 111 141 179 217 267 332
#     4  10  22  37  56  80 108 144 186 228 271 317
#     4  10  21  38  57  81 114 146 179 226 275 324
#     4  10  22  39  56  81 109 143 192 232 269 325
#     4   9  20  36  55  79 110 143 179 224 272 322
#     4  11  20  33  56  85 112 143 178 221 273 331
#     4   9  20  37  56  80 111 143 177 221 273 324
#     4  10  20  37  56  79 112 146 180 226 275 325
#
# _framework density 20.785513999999999
#
# number of rings (size 3 to 8) (size 9 to 14) (size 15 to 20)
#    0.000    2.250    1.250    1.875    3.500    3.000 
#    0.000    3.750    0.000    1.500    0.000    0.000 
#    0.000    0.000    0.000    0.000    0.000    0.000 
#
# Total GULP energy -178657.430953 kJ/mol
# GULP energy per Si atom -5583.044717 kJ/mol
# Density = 2.073820 g / cm^3
# Si number density = 20.785514 Si / 1000 Ang^3
#
#
#
# Elastic Constant Matrix: (Units=GPa)
#
#
# Indices 1 2 3 4 5 6 
#
# 1 175.1064 114.7907 4.0660 0.0000 0.0000 0.0000
# 2 114.7907 183.0348 3.8341 0.0000 0.0000 0.0000
# 3 4.0660 3.8341 22.1739 0.0000 0.0000 0.0000
# 4 0.0000 0.0000 0.0000 30.6755 0.0000 0.0000
# 5 0.0000 0.0000 0.0000 0.0000 24.8879 0.0000
# 6 0.0000 0.0000 0.0000 0.0000 0.0000 25.4047
#
#
#
# Elastic Compliance Matrix: (Units=1/GPa)
#
#
# Indices 1 2 3 4 5 6 
#
# 1 0.009710 -0.006074 -0.000730 0.000000 0.000000 0.000000
# 2 -0.006074 0.009283 -0.000491 0.000000 0.000000 0.000000
# 3 -0.000730 -0.000491 0.045317 0.000000 0.000000 0.000000
# 4 0.000000 0.000000 0.000000 0.032599 0.000000 0.000000
# 5 0.000000 0.000000 0.000000 0.000000 0.040180 0.000000
# 6 0.000000 0.000000 0.000000 0.000000 0.000000 0.039363
#
#
# Mechanical properties :
#
#
# Convention : Reuss Voigt Hill
#
# Bulk Modulus (GPa) = 20.11324 69.52185 44.81755
# Shear Modulus (GPa) = 24.08290 33.36858 28.72574
#
# Velocity S-wave (km/s) = 3.40757 4.01106 3.72157
# Velocity P-wave (km/s) = 5.01793 7.41427 6.33052
#
# Compressibility (1/GPa) = 0.04971850
#
# Stress axis : x y z
#
# Youngs Moduli (GPa) = 102.99028 107.72220 22.06677
#
# Poissons Ratio (x) = 0.65432 0.01611
# Poissons Ratio (y) = 0.62558 0.01084
# Poissons Ratio (z) = 0.07520 0.05293
#
# Static dielectric constant tensor:
#      x y z
#    x 1.726990 0.000000 0.000000 
#    y 0.000000 1.729950 0.000000 
#    z 0.000000 0.000000 1.768980 
# 
# From -- ./inp_files/3531.got.cif
#   From: 2010.05.17/outbox.cif.g08.bks.cpg/sg28_2_cif.got.tgz:3531.got - 2010.06.04 01:15:21.
