data_PCOD9339621
_publ_section_title
;
Structure prediction by ZEFSAII (Michael W. Deem and Ramdas Pophale) SiO2 
 PCOD9339621
Probable space group: P M A 2
;
_chemical_formula_sum "Si O2"
_cell_formula_units_Z 32
_cell_length_a 14.008425
_cell_length_b 11.759948
_cell_length_c 9.440461
_cell_angle_alpha 90.000000
_cell_angle_beta 90.000000
_cell_angle_gamma 90.000000
_cell_volume 1555.205964
_symmetry_space_group_name_H-M "P M A 2"
_symmetry_group_IT_number 28
_symmetry_cell_setting 'orthorhombic'
loop_
_space_group_symop_operation_xyz
x,y,z
-x,-y,z
1/2-x,y,z
1/2+x,-y,z
loop_
_atom_site_type_symbol
_atom_site_label
_atom_site_fract_x
_atom_site_fract_y
_atom_site_fract_z
Si Si1 0.986427 0.739789 0.253060
Si Si2 0.639772 0.315649 0.028680
Si Si3 0.890283 0.968420 0.260102
Si Si4 0.856605 0.171153 0.460045
Si Si5 0.859565 0.578432 0.107825
Si Si6 0.562112 0.201892 0.768366
Si Si7 0.142232 0.251857 0.840425
Si Si8 0.852771 0.008260 0.940148
O O1 0.900267 0.832208 0.265875
O O2 0.932659 0.622154 0.225689
O O3 0.059080 0.751123 0.118626
O O4 0.060608 0.758745 0.379797
O O5 0.750000 0.284152 0.062656
O O6 0.627048 0.447935 0.065386
O O7 0.618247 0.293111 0.864344
O O8 0.854080 0.044393 0.390197
O O9 0.851387 0.008721 0.109898
O O10 0.000000 0.000000 0.254251
O O11 0.750000 0.219321 0.441765
O O12 0.887368 0.170755 0.622548
O O13 0.750000 0.592539 0.154299
O O14 0.872116 0.659210 0.969250
O O15 0.454064 0.247785 0.747136
O O16 0.570441 0.089272 0.867052
O O17 0.250000 0.272298 0.781108
O O18 0.142433 0.123776 0.900893
O O19 0.750000 0.052236 0.887566
#
# Coordination Sequence:
#
# PCOD9339621 Si02
#       8
#     4   4   4   4   4   4   4   4
#     4  11  21  39  63  93 124 169 218 273 323 384
#     4  11  22  38  68  98 126 162 218 280 332 388
#     4  10  20  34  54  86 122 167 208 261 315 379
#     4  11  25  41  58  89 136 177 216 263 323 393
#     4  10  21  39  65  97 126 159 213 277 331 382
#     4  12  23  39  61  93 129 172 216 262 327 397
#     4  10  21  37  61  92 124 163 211 274 328 380
#     4  11  20  33  59  91 125 161 212 269 325 389
#
# _framework density 20.576053000000002
#
# number of rings (size 3 to 8) (size 9 to 14) (size 15 to 20)
#    0.000    1.250    2.500    4.875    0.000    3.500 
#    0.000    0.625    5.500    1.500    0.000    0.000 
#    0.000    0.000    0.000    0.000    0.000    0.000 
#
# Total GULP energy -178411.080409 kJ/mol
# GULP energy per Si atom -5575.346263 kJ/mol
# Density = 2.052922 g / cm^3
# Si number density = 20.576053 Si / 1000 Ang^3
#
#
#
# Elastic Constant Matrix: (Units=GPa)
#
#
# Indices 1 2 3 4 5 6 
#
# 1 121.4452 24.2498 40.5510 0.0000 0.0000 0.0000
# 2 24.2498 92.3948 25.8341 0.0000 0.0000 0.0000
# 3 40.5510 25.8341 110.5899 0.0000 0.0000 0.0000
# 4 0.0000 0.0000 0.0000 9.9628 0.0000 0.0000
# 5 0.0000 0.0000 0.0000 0.0000 27.5514 0.0000
# 6 0.0000 0.0000 0.0000 0.0000 0.0000 25.7001
#
#
#
# Elastic Compliance Matrix: (Units=1/GPa)
#
#
# Indices 1 2 3 4 5 6 
#
# 1 0.009611 -0.001645 -0.003140 0.000000 0.000000 0.000000
# 2 -0.001645 0.011861 -0.002168 0.000000 0.000000 0.000000
# 3 -0.003140 -0.002168 0.010700 0.000000 0.000000 0.000000
# 4 0.000000 0.000000 0.000000 0.100374 0.000000 0.000000
# 5 0.000000 0.000000 0.000000 0.000000 0.036296 0.000000
# 6 0.000000 0.000000 0.000000 0.000000 0.000000 0.038910
#
#
# Mechanical properties :
#
#
# Convention : Reuss Voigt Hill
#
# Bulk Modulus (GPa) = 54.74186 56.18886 55.46536
# Shear Modulus (GPa) = 21.95434 28.22919 25.09177
#
# Velocity S-wave (km/s) = 3.27002 3.70799 3.49587
# Velocity P-wave (km/s) = 6.39686 6.76014 6.58100
#
# Compressibility (1/GPa) = 0.01826755
#
# Stress axis : x y z
#
# Youngs Moduli (GPa) = 104.04750 84.31105 93.45649
#
# Poissons Ratio (x) = 0.13865 0.29345
# Poissons Ratio (y) = 0.17111 0.20259
# Poissons Ratio (z) = 0.32671 0.18276
#
# Static dielectric constant tensor:
#      x y z
#    x 1.824870 0.000000 0.000000 
#    y 0.000000 1.823500 0.000000 
#    z 0.000000 0.000000 1.715490 
# 
# From -- ./inp_files/3566.got.cif
#   From: 2010.05.17/outbox.cif.g08.bks.cpg/sg28_2_cif.got.tgz:3566.got - 2010.06.04 01:15:21.
