data_PCOD9339670
_publ_section_title
;
Structure prediction by ZEFSAII (Michael W. Deem and Ramdas Pophale) SiO2 
 PCOD9339670
Probable space group: P M A 2
;
_chemical_formula_sum "Si O2"
_cell_formula_units_Z 28
_cell_length_a 8.586174
_cell_length_b 9.984222
_cell_length_c 18.181238
_cell_angle_alpha 90.000000
_cell_angle_beta 90.000000
_cell_angle_gamma 90.000000
_cell_volume 1558.609669
_symmetry_space_group_name_H-M "P M A 2"
_symmetry_group_IT_number 28
_symmetry_cell_setting 'orthorhombic'
loop_
_space_group_symop_operation_xyz
x,y,z
-x,-y,z
1/2-x,y,z
1/2+x,-y,z
loop_
_atom_site_type_symbol
_atom_site_label
_atom_site_fract_x
_atom_site_fract_y
_atom_site_fract_z
Si Si1 0.562249 0.350929 0.318470
Si Si2 0.061878 0.852744 0.193649
Si Si3 0.062854 0.650249 0.484957
Si Si4 0.061902 0.851817 0.025461
Si Si5 0.938120 0.349064 0.897756
Si Si6 0.564283 0.852834 0.605726
Si Si7 0.937193 0.147803 0.768405
O O1 0.500000 0.500000 0.306749
O O2 0.750000 0.354682 0.316211
O O3 0.506862 0.252362 0.254484
O O4 0.518123 0.308286 0.401459
O O5 0.250000 0.854676 0.194856
O O6 0.013814 0.821342 0.109602
O O7 0.000000 0.000000 0.211129
O O8 0.250000 0.650215 0.490187
O O9 0.000000 0.500000 0.495594
O O10 0.992938 0.747594 0.545702
O O11 0.250000 0.857599 0.023080
O O12 0.010642 0.737544 0.968739
O O13 0.000000 0.000000 0.006143
O O14 0.750000 0.354791 0.898638
O O15 0.984690 0.261058 0.826693
O O16 0.000000 0.500000 0.896961
O O17 0.750000 0.856769 0.608715
O O18 0.499431 0.820642 0.686995
O O19 0.500000 0.000000 0.586789
O O20 0.750000 0.140965 0.766587
O O21 0.000000 0.000000 0.789011
#
# Coordination Sequence:
#
# PCOD9339670 Si02
#       7
#     4   4   4   4   4   4   4
#     4   9  19  34  52  75 104 138 174 213 256 306
#     4   9  18  33  52  76 105 135 171 214 257 302
#     4  10  20  36  55  77 106 140 178 217 262 314
#     4   9  18  34  54  76 103 136 173 212 255 304
#     4  10  22  36  52  77 107 137 171 212 255 303
#     4  11  22  37  57  81 107 137 174 216 263 312
#     4  10  20  36  56  78 104 135 173 214 258 309
#
# _framework density 17.964727
#
# number of rings (size 3 to 8) (size 9 to 14) (size 15 to 20)
#    0.000    2.286    0.000    3.429    0.000    4.571 
#    0.000    2.857    0.000    0.000    0.000    0.000 
#    0.000    0.000    0.000    0.000    0.000    0.000 
#
# Total GULP energy -156272.292650 kJ/mol
# GULP energy per Si atom -5581.153309 kJ/mol
# Density = 1.792384 g / cm^3
# Si number density = 17.964727 Si / 1000 Ang^3
#
#
#
# Elastic Constant Matrix: (Units=GPa)
#
#
# Indices 1 2 3 4 5 6 
#
# 1 44.7214 37.1424 40.8614 0.0000 0.0000 0.0000
# 2 37.1424 153.8751 135.5399 0.0000 0.0000 0.0000
# 3 40.8614 135.5399 153.1245 0.0000 0.0000 0.0000
# 4 0.0000 0.0000 0.0000 38.7471 0.0000 0.0000
# 5 0.0000 0.0000 0.0000 0.0000 -28.3274 0.0000
# 6 0.0000 0.0000 0.0000 0.0000 0.0000 35.2598
#
#
#
# Elastic Compliance Matrix: (Units=1/GPa)
#
#
# Indices 1 2 3 4 5 6 
#
# 1 0.029595 -0.000850 -0.007145 0.000000 0.000000 0.000000
# 2 -0.000850 0.029523 -0.025905 0.000000 0.000000 0.000000
# 3 -0.007145 -0.025905 0.031368 0.000000 0.000000 0.000000
# 4 0.000000 0.000000 0.000000 0.025808 0.000000 0.000000
# 5 0.000000 0.000000 0.000000 0.000000 -0.035302 0.000000
# 6 0.000000 0.000000 0.000000 0.000000 0.000000 0.028361
#
#
# Mechanical properties :
#
#
# Convention : Reuss Voigt Hill
#
# Bulk Modulus (GPa) = 44.08319 86.53425 65.30872
# Shear Modulus (GPa) = 27.06868 18.34773 22.70820
#
# Velocity S-wave (km/s) = 3.88592 3.19928 3.55920
# Velocity P-wave (km/s) = 6.68774 7.86897 7.30228
#
# Compressibility (1/GPa) = 0.02268439
#
# Stress axis : x y z
#
# Youngs Moduli (GPa) = 33.78956 33.87247 31.87983
#
# Poissons Ratio (x) = 0.02879 0.22779
# Poissons Ratio (y) = 0.02872 0.82586
# Poissons Ratio (z) = 0.24143 0.87748
#
# Static dielectric constant tensor:
#      x y z
#    x 1.606850 0.000000 0.000000 
#    y 0.000000 1.576830 0.000000 
#    z 0.000000 0.000000 1.624500 
# 
# From -- ./inp_files/6717.got.cif
#   From: 2010.05.17/outbox.cif.g08.bks.cpg/sg28_4_cif.got.tgz:6717.got - 2010.06.04 01:15:21.
