data_PCOD9339228
_publ_section_title
;
Structure prediction by ZEFSAII (Michael W. Deem and Ramdas Pophale) SiO2 
 PCOD9339228
Probable space group: P C C 2
;
_chemical_formula_sum "Si O2"
_cell_formula_units_Z 32
_cell_length_a 15.000000
_cell_length_b 12.000000
_cell_length_c 9.000000
_cell_angle_alpha 90.000000
_cell_angle_beta 90.000000
_cell_angle_gamma 90.000000
_cell_volume 1620.000000
_symmetry_space_group_name_H-M "P C C 2"
_symmetry_group_IT_number 27
_symmetry_cell_setting 'orthorhombic'
loop_
_space_group_symop_operation_xyz
x,y,z
-x,-y,z
-x,y,1/2+z
x,-y,1/2+z
loop_
_atom_site_type_symbol
_atom_site_label
_atom_site_fract_x
_atom_site_fract_y
_atom_site_fract_z
Si Si1 0.707419 0.639969 0.479970
Si Si2 0.116188 0.774160 0.943169
Si Si3 0.585030 0.750595 0.990818
Si Si4 0.402231 0.817819 0.142957
Si Si5 0.605995 0.462035 0.684450
Si Si6 0.681778 0.041756 0.572334
Si Si7 0.799523 0.002364 0.825904
Si Si8 0.960979 0.872268 0.747082
O O1 0.813857 0.668350 0.448029
O O2 0.675868 0.757478 0.550640
O O3 0.671500 0.556707 0.612792
O O4 0.653369 0.595774 0.331017
O O5 0.030833 0.791066 0.831058
O O6 0.172370 0.879824 0.888315
O O7 0.075717 0.807500 0.103521
O O8 0.488596 0.783501 0.050698
O O9 0.600762 0.626785 0.049277
O O10 0.649778 0.832595 0.083290
O O11 0.592262 0.773196 0.813486
O O12 0.388059 0.949911 0.125308
O O13 0.500000 0.500000 0.712845
O O14 0.706470 0.027606 0.401048
O O15 0.774797 0.018398 0.654474
O O16 0.874619 0.908461 0.844148
O O17 0.000000 0.000000 0.713385
#
# Coordination Sequence:
#
# PCOD9339228 Si02
#       8
#     4   4   4   4   4   4   4   4
#     4  12  25  47  72 102 135 175 237 295 348 405
#     4  11  23  41  68 101 138 178 228 283 343 419
#     4  12  27  41  66  98 140 192 232 281 340 405
#     4  12  25  42  63  98 143 187 231 276 346 407
#     4  12  26  47  75 101 131 179 237 294 342 401
#     4  12  24  39  64 101 149 185 225 276 339 419
#     4  11  20  38  62  99 141 180 223 269 336 415
#     4  10  21  38  65 102 140 181 219 274 347 422
#
# _framework density 19.753086
#
# number of rings (size 3 to 8) (size 9 to 14) (size 15 to 20)
#    0.000    0.500    5.000    4.125    3.500    1.000 
#    0.000    0.000    0.000    2.250    0.000    0.000 
#    0.000    0.000    0.000    0.000    0.000    0.000 
#
# Total GULP energy -178240.864351 kJ/mol
# GULP energy per Si atom -5570.027011 kJ/mol
# Density = 1.970813 g / cm^3
# Si number density = 19.753086 Si / 1000 Ang^3
#
#
#
# Elastic Constant Matrix: (Units=GPa)
#
#
# Indices 1 2 3 4 5 6 
#
# 1 64.6974 35.1670 36.4234 0.0000 0.0000 0.0000
# 2 35.1670 76.7422 26.2525 0.0000 0.0000 0.0000
# 3 36.4234 26.2525 111.0854 0.0000 0.0000 0.0000
# 4 0.0000 0.0000 0.0000 15.3712 0.0000 0.0000
# 5 0.0000 0.0000 0.0000 0.0000 24.5824 0.0000
# 6 0.0000 0.0000 0.0000 0.0000 0.0000 32.6520
#
#
#
# Elastic Compliance Matrix: (Units=1/GPa)
#
#
# Indices 1 2 3 4 5 6 
#
# 1 0.023389 -0.008807 -0.005588 0.000000 0.000000 0.000000
# 2 -0.008807 0.017493 -0.001246 0.000000 0.000000 0.000000
# 3 -0.005588 -0.001246 0.011129 0.000000 0.000000 0.000000
# 4 0.000000 0.000000 0.000000 0.065057 0.000000 0.000000
# 5 0.000000 0.000000 0.000000 0.000000 0.040680 0.000000
# 6 0.000000 0.000000 0.000000 0.000000 0.000000 0.030626
#
#
# Mechanical properties :
#
#
# Convention : Reuss Voigt Hill
#
# Bulk Modulus (GPa) = 48.24133 49.80120 49.02127
# Shear Modulus (GPa) = 22.06875 24.83324 23.45100
#
# Velocity S-wave (km/s) = 3.34613 3.54952 3.44932
# Velocity P-wave (km/s) = 6.27726 6.48579 6.38237
#
# Compressibility (1/GPa) = 0.02072911
#
# Stress axis : x y z
#
# Youngs Moduli (GPa) = 42.75451 57.16689 89.85683
#
# Poissons Ratio (x) = 0.50345 0.50210
# Poissons Ratio (y) = 0.37652 0.11200
# Poissons Ratio (z) = 0.23890 0.07125
#
# Static dielectric constant tensor:
#      x y z
#    x 1.792890 0.000000 0.000000 
#    y 0.000000 1.734710 0.000000 
#    z 0.000000 0.000000 1.748220 
# 
# From -- ./inp_files/1459.got.cif
#   From: 2010.05.17/outbox.ucp.g08.bks.cvg/sg27_1_cif.got.tgz:1459.got - 2010.06.11 15:23:43.
