data_PCOD9339659
_publ_section_title
;
Structure prediction by ZEFSAII (Michael W. Deem and Ramdas Pophale) SiO2 
 PCOD9339659
Probable space group: P M A 2
;
_chemical_formula_sum "Si O2"
_cell_formula_units_Z 28
_cell_length_a 8.764530
_cell_length_b 9.426294
_cell_length_c 18.517979
_cell_angle_alpha 90.000000
_cell_angle_beta 90.000000
_cell_angle_gamma 90.000000
_cell_volume 1529.900548
_symmetry_space_group_name_H-M "P M A 2"
_symmetry_group_IT_number 28
_symmetry_cell_setting 'orthorhombic'
loop_
_space_group_symop_operation_xyz
x,y,z
-x,-y,z
1/2-x,y,z
1/2+x,-y,z
loop_
_atom_site_type_symbol
_atom_site_label
_atom_site_fract_x
_atom_site_fract_y
_atom_site_fract_z
Si Si1 0.932613 0.343036 0.512350
Si Si2 0.067126 0.840646 0.076532
Si Si3 0.067019 0.342451 0.946705
Si Si4 0.067641 0.657465 0.678473
Si Si5 0.067205 0.156970 0.806001
Si Si6 0.068006 0.158560 0.384384
Si Si7 0.932445 0.159129 0.237738
O O1 0.750000 0.344638 0.503043
O O2 0.965545 0.300443 0.595392
O O3 0.000000 0.500000 0.503209
O O4 0.008601 0.243132 0.453327
O O5 0.250000 0.849184 0.069008
O O6 0.033726 0.783298 0.157670
O O7 0.000000 0.000000 0.069869
O O8 0.997513 0.740447 0.015837
O O9 0.250000 0.349702 0.951089
O O10 0.025701 0.252504 0.875369
O O11 0.000000 0.500000 0.942337
O O12 0.250000 0.651360 0.687306
O O13 0.000000 0.500000 0.690192
O O14 0.996808 0.765942 0.735093
O O15 0.250000 0.148918 0.802012
O O16 0.000000 0.000000 0.813463
O O17 0.250000 0.152293 0.382746
O O18 0.006936 0.225495 0.309054
O O19 0.000000 0.000000 0.388353
O O20 0.750000 0.153510 0.246925
O O21 0.000000 0.000000 0.235348
#
# Coordination Sequence:
#
# PCOD9339659 Si02
#       7
#     4   4   4   4   4   4   4
#     4  10  21  38  58  82 112 147 186 228 277 332
#     4  10  20  35  58  85 113 146 185 230 278 329
#     4  11  24  40  59  83 113 149 186 227 276 330
#     4  10  21  38  61  85 112 147 185 227 276 331
#     4  11  24  40  60  86 115 147 184 228 276 326
#     4  11  21  34  55  82 112 148 188 232 279 328
#     4   9  17  31  52  79 110 144 183 228 278 330
#
# _framework density 18.301843000000002
#
# number of rings (size 3 to 8) (size 9 to 14) (size 15 to 20)
#    0.000    1.714    0.000    5.571    0.000    8.571 
#    0.000    0.714    0.000    3.429    0.000    0.000 
#    0.000    0.000    0.000    0.000    0.000    0.000 
#
# Total GULP energy -156388.940767 kJ/mol
# GULP energy per Si atom -5585.319313 kJ/mol
# Density = 1.826019 g / cm^3
# Si number density = 18.301843 Si / 1000 Ang^3
#
#
#
# Elastic Constant Matrix: (Units=GPa)
#
#
# Indices 1 2 3 4 5 6 
#
# 1 105.6399 58.2736 93.2113 0.0000 0.0000 0.0000
# 2 58.2736 110.5940 105.1558 0.0000 0.0000 0.0000
# 3 93.2113 105.1558 189.0140 0.0000 0.0000 0.0000
# 4 0.0000 0.0000 0.0000 243.1133 0.0000 0.0000
# 5 0.0000 0.0000 0.0000 0.0000 32.9665 0.0000
# 6 0.0000 0.0000 0.0000 0.0000 0.0000 33.4309
#
#
#
# Elastic Compliance Matrix: (Units=1/GPa)
#
#
# Indices 1 2 3 4 5 6 
#
# 1 0.016983 -0.002092 -0.007211 0.000000 0.000000 0.000000
# 2 -0.002092 0.019455 -0.009792 0.000000 0.000000 0.000000
# 3 -0.007211 -0.009792 0.014294 0.000000 0.000000 0.000000
# 4 0.000000 0.000000 0.000000 0.004113 0.000000 0.000000
# 5 0.000000 0.000000 0.000000 0.000000 0.030334 0.000000
# 6 0.000000 0.000000 0.000000 0.000000 0.000000 0.029912
#
#
# Mechanical properties :
#
#
# Convention : Reuss Voigt Hill
#
# Bulk Modulus (GPa) = 79.73161 102.05881 90.89521
# Shear Modulus (GPa) = 31.75375 71.80927 51.78151
#
# Velocity S-wave (km/s) = 4.16986 6.27067 5.32489
# Velocity P-wave (km/s) = 8.17575 10.40738 9.35833
#
# Compressibility (1/GPa) = 0.01254208
#
# Stress axis : x y z
#
# Youngs Moduli (GPa) = 58.88287 51.40179 69.95794
#
# Poissons Ratio (x) = 0.10753 0.50448
# Poissons Ratio (y) = 0.12318 0.68501
# Poissons Ratio (z) = 0.42462 0.50331
#
# Static dielectric constant tensor:
#      x y z
#    x 1.608350 0.000000 0.000000 
#    y 0.000000 1.572540 0.000000 
#    z 0.000000 0.000000 1.650990 
# 
# From -- ./inp_files/6827.got.cif
#   From: 2010.05.17/outbox.cif.g08.bks.cpg/sg28_4_cif.got.tgz:6827.got - 2010.06.04 01:15:21.
