data_PCOD9339705
_publ_section_title
;
Structure prediction by ZEFSAII (Michael W. Deem and Ramdas Pophale) SiO2 
 PCOD9339705
Probable space group: P M A 2
;
_chemical_formula_sum "Si O2"
_cell_formula_units_Z 24
_cell_length_a 8.587377
_cell_length_b 9.437925
_cell_length_c 15.831862
_cell_angle_alpha 90.000000
_cell_angle_beta 90.000000
_cell_angle_gamma 90.000000
_cell_volume 1283.125237
_symmetry_space_group_name_H-M "P M A 2"
_symmetry_group_IT_number 28
_symmetry_cell_setting 'orthorhombic'
loop_
_space_group_symop_operation_xyz
x,y,z
-x,-y,z
1/2-x,y,z
1/2+x,-y,z
loop_
_atom_site_type_symbol
_atom_site_label
_atom_site_fract_x
_atom_site_fract_y
_atom_site_fract_z
Si Si1 0.436262 0.340510 0.646850
Si Si2 0.936378 0.840080 0.310227
Si Si3 0.562442 0.340501 0.154438
Si Si4 0.437567 0.659696 0.827766
Si Si5 0.437628 0.840970 0.990537
Si Si6 0.436317 0.840981 0.492040
O O1 0.500000 0.500000 0.639051
O O2 0.250000 0.340713 0.645679
O O3 0.496170 0.288161 0.738117
O O4 0.502537 0.250813 0.569628
O O5 0.750000 0.844522 0.311302
O O6 0.996933 0.739080 0.236465
O O7 0.998809 0.790435 0.401499
O O8 0.000000 0.000000 0.296874
O O9 0.500000 0.500000 0.149349
O O10 0.750000 0.342724 0.158052
O O11 0.513807 0.250978 0.071782
O O12 0.500000 0.500000 0.841361
O O13 0.250000 0.654341 0.823296
O O14 0.485551 0.759899 0.905077
O O15 0.250000 0.846432 0.990868
O O16 0.500000 0.000000 0.994555
O O17 0.250000 0.841944 0.489775
O O18 0.500000 0.000000 0.502410
#
# Coordination Sequence:
#
# PCOD9339705 Si02
#       6
#     4   4   4   4   4   4
#     4  11  22  38  59  86 117 154 194 239 289 343
#     4  11  22  39  61  87 117 153 192 237 287 342
#     4  11  23  40  60  87 117 152 193 238 288 343
#     4  10  20  37  58  84 114 150 192 238 287 342
#     4  10  23  39  59  85 116 150 191 236 285 341
#     4  11  22  39  61  87 117 153 193 238 287 343
#
# _framework density 18.704332000000001
#
# number of rings (size 3 to 8) (size 9 to 14) (size 15 to 20)
#    0.000    1.333    0.000    8.500    0.000    5.333 
#    0.000    5.000    0.000    0.000    0.000    0.000 
#    0.000    0.000    0.000    0.000    0.000    0.000 
#
# Total GULP energy -134201.758826 kJ/mol
# GULP energy per Si atom -5591.739951 kJ/mol
# Density = 1.866176 g / cm^3
# Si number density = 18.704332 Si / 1000 Ang^3
#
#
#
# Elastic Constant Matrix: (Units=GPa)
#
#
# Indices 1 2 3 4 5 6 
#
# 1 144.5199 51.8715 79.3420 0.0000 0.0000 0.0000
# 2 51.8715 118.0064 122.6634 0.0000 0.0000 0.0000
# 3 79.3420 122.6634 226.3329 0.0000 0.0000 0.0000
# 4 0.0000 0.0000 0.0000 44.8788 0.0000 0.0000
# 5 0.0000 0.0000 0.0000 0.0000 1963.3446 0.0000
# 6 0.0000 0.0000 0.0000 0.0000 0.0000 36.3790
#
#
#
# Elastic Compliance Matrix: (Units=1/GPa)
#
#
# Indices 1 2 3 4 5 6 
#
# 1 0.008682 -0.001495 -0.002233 0.000000 0.000000 0.000000
# 2 -0.001495 0.019664 -0.010133 0.000000 0.000000 0.000000
# 3 -0.002233 -0.010133 0.010693 0.000000 0.000000 0.000000
# 4 0.000000 0.000000 0.000000 0.022282 0.000000 0.000000
# 5 0.000000 0.000000 0.000000 0.000000 0.000509 0.000000
# 6 0.000000 0.000000 0.000000 0.000000 0.000000 0.027488
#
#
# Mechanical properties :
#
#
# Convention : Reuss Voigt Hill
#
# Bulk Modulus (GPa) = 88.36641 110.73478 99.55059
# Shear Modulus (GPa) = 41.38564 424.58596 232.98580
#
# Velocity S-wave (km/s) = 4.70896 15.08282 11.17286
# Velocity P-wave (km/s) = 8.76995 19.04346 14.82507
#
# Compressibility (1/GPa) = 0.01131652
#
# Stress axis : x y z
#
# Youngs Moduli (GPa) = 115.17892 50.85337 93.51848
#
# Poissons Ratio (x) = 0.07601 0.20887
# Poissons Ratio (y) = 0.17217 0.94765
# Poissons Ratio (z) = 0.25725 0.51531
#
# Static dielectric constant tensor:
#      x y z
#    x 1.618240 0.000000 0.000000 
#    y 0.000000 1.604040 0.000000 
#    z 0.000000 0.000000 1.642810 
# 
# From -- ./inp_files/6069.got.cif
#   From: 2010.05.17/outbox.cif.g08.bks.cpg/sg28_4_cif.got.tgz:6069.got - 2010.06.04 01:15:21.
