data_PCOD9339430
_publ_section_title
;
Structure prediction by ZEFSAII (Michael W. Deem and Ramdas Pophale) SiO2 
 PCOD9339430
Probable space group: P M A 2
;
_chemical_formula_sum "Si O2"
_cell_formula_units_Z 32
_cell_length_a 8.229989
_cell_length_b 15.172455
_cell_length_c 12.736918
_cell_angle_alpha 90.000000
_cell_angle_beta 90.000000
_cell_angle_gamma 90.000000
_cell_volume 1590.447968
_symmetry_space_group_name_H-M "P M A 2"
_symmetry_group_IT_number 28
_symmetry_cell_setting 'orthorhombic'
loop_
_space_group_symop_operation_xyz
x,y,z
-x,-y,z
1/2-x,y,z
1/2+x,-y,z
loop_
_atom_site_type_symbol
_atom_site_label
_atom_site_fract_x
_atom_site_fract_y
_atom_site_fract_z
Si Si1 0.055236 0.404841 0.523250
Si Si2 0.944449 0.405622 0.982290
Si Si3 0.060995 0.161674 0.822055
Si Si4 0.943905 0.346916 0.751535
Si Si5 0.943229 0.213400 0.045290
Si Si6 0.054496 0.091574 0.613307
Si Si7 0.556071 0.101347 0.241954
Si Si8 0.446471 0.221881 0.435130
O O1 0.250000 0.402376 0.530896
O O2 0.002231 0.323294 0.449579
O O3 0.000000 0.500000 0.484150
O O4 0.986711 0.390694 0.641091
O O5 0.750000 0.403094 0.989203
O O6 0.986087 0.399792 0.857965
O O7 0.000000 0.500000 0.024860
O O8 0.007343 0.314518 0.035202
O O9 0.250000 0.142510 0.841732
O O10 0.990986 0.098696 0.732128
O O11 0.042442 0.256734 0.766338
O O12 0.972827 0.168475 0.932655
O O13 0.750000 0.328975 0.755098
O O14 0.750000 0.221030 0.061294
O O15 0.009085 0.151666 0.137833
O O16 0.250000 0.094700 0.618440
O O17 0.999664 0.171462 0.540726
O O18 0.000000 0.000000 0.564197
O O19 0.750000 0.097710 0.235409
O O20 0.509137 0.164415 0.338637
O O21 0.500000 0.000000 0.252064
O O22 0.250000 0.220150 0.430813
#
# Coordination Sequence:
#
# PCOD9339430 Si02
#       8
#     4   4   4   4   4   4   4   4
#     4  11  22  37  57  85 121 158 199 246 292 349
#     4   9  18  32  51  79 114 152 191 231 278 333
#     4  10  19  34  55  82 118 156 193 238 293 349
#     4  10  19  32  52  80 117 161 201 238 287 345
#     4   9  21  40  58  82 117 152 192 243 293 350
#     4  10  21  36  54  82 116 151 187 234 291 351
#     4  11  24  43  67  90 114 148 197 252 304 361
#     4  10  22  42  62  84 119 153 194 249 296 349
#
# _framework density 20.120117
#
# number of rings (size 3 to 8) (size 9 to 14) (size 15 to 20)
#    0.000    2.000    1.250    3.000    0.000    8.500 
#    0.000    3.125    0.000    3.000    0.000    0.000 
#    0.000    0.000    0.000    0.000    0.000    0.000 
#
# Total GULP energy -178511.754778 kJ/mol
# GULP energy per Si atom -5578.492337 kJ/mol
# Density = 2.007432 g / cm^3
# Si number density = 20.120117 Si / 1000 Ang^3
#
#
#
# Elastic Constant Matrix: (Units=GPa)
#
#
# Indices 1 2 3 4 5 6 
#
# 1 17.9977 17.7604 9.4102 0.0000 0.0000 0.0000
# 2 17.7604 163.8603 75.1474 0.0000 0.0000 0.0000
# 3 9.4102 75.1474 108.6346 0.0000 0.0000 0.0000
# 4 0.0000 0.0000 0.0000 19.6360 0.0000 0.0000
# 5 0.0000 0.0000 0.0000 0.0000 24.7728 0.0000
# 6 0.0000 0.0000 0.0000 0.0000 0.0000 97.2914
#
#
#
# Elastic Compliance Matrix: (Units=1/GPa)
#
#
# Indices 1 2 3 4 5 6 
#
# 1 0.062301 -0.006265 -0.001063 0.000000 0.000000 0.000000
# 2 -0.006265 0.009568 -0.006076 0.000000 0.000000 0.000000
# 3 -0.001063 -0.006076 0.013500 0.000000 0.000000 0.000000
# 4 0.000000 0.000000 0.000000 0.050927 0.000000 0.000000
# 5 0.000000 0.000000 0.000000 0.000000 0.040367 0.000000
# 6 0.000000 0.000000 0.000000 0.000000 0.000000 0.010278
#
#
# Mechanical properties :
#
#
# Convention : Reuss Voigt Hill
#
# Bulk Modulus (GPa) = 17.07610 55.01428 36.04519
# Shear Modulus (GPa) = 21.43435 40.88502 31.15968
#
# Velocity S-wave (km/s) = 3.26746 4.51271 3.93960
# Velocity P-wave (km/s) = 4.76871 7.38614 6.21674
#
# Compressibility (1/GPa) = 0.05856138
#
# Stress axis : x y z
#
# Youngs Moduli (GPa) = 16.05115 104.51056 74.07201
#
# Poissons Ratio (x) = 0.65479 0.07871
# Poissons Ratio (y) = 0.10057 0.45007
# Poissons Ratio (z) = 0.01706 0.63502
#
# Static dielectric constant tensor:
#      x y z
#    x 1.702760 0.000000 0.000000 
#    y 0.000000 1.756870 0.000000 
#    z 0.000000 0.000000 1.713510 
# 
# From -- ./inp_files/5088.got.cif
#   From: 2010.05.17/outbox.cif.g08.bks.cpg/sg28_3_cif.got.tgz:5088.got - 2010.06.04 01:15:21.
