data_PCOD9339755
_publ_section_title
;
Structure prediction by ZEFSAII (Michael W. Deem and Ramdas Pophale) SiO2 
 PCOD9339755
Probable space group: P M A 2
;
_chemical_formula_sum "Si O2"
_cell_formula_units_Z 28
_cell_length_a 7.492202
_cell_length_b 9.260794
_cell_length_c 19.294807
_cell_angle_alpha 90.000000
_cell_angle_beta 90.000000
_cell_angle_gamma 90.000000
_cell_volume 1338.745859
_symmetry_space_group_name_H-M "P M A 2"
_symmetry_group_IT_number 28
_symmetry_cell_setting 'orthorhombic'
loop_
_space_group_symop_operation_xyz
x,y,z
-x,-y,z
1/2-x,y,z
1/2+x,-y,z
loop_
_atom_site_type_symbol
_atom_site_label
_atom_site_fract_x
_atom_site_fract_y
_atom_site_fract_z
Si Si1 0.535955 0.170263 0.905130
Si Si2 0.463866 0.830235 0.058006
Si Si3 0.964209 0.329403 0.193834
Si Si4 0.035975 0.669499 0.768780
Si Si5 0.535687 0.328904 0.494520
Si Si6 0.535969 0.169640 0.631436
Si Si7 0.036429 0.672022 0.343822
O O1 0.750000 0.187732 0.906924
O O2 0.466372 0.260467 0.840034
O O3 0.500000 0.000000 0.895288
O O4 0.467648 0.213485 0.981622
O O5 0.250000 0.809144 0.056895
O O6 0.535133 0.747745 0.125179
O O7 0.500000 0.000000 0.065334
O O8 0.750000 0.309850 0.194777
O O9 0.032080 0.274845 0.269092
O O10 0.000000 0.500000 0.189352
O O11 0.250000 0.689294 0.769488
O O12 0.967234 0.750992 0.700402
O O13 0.000000 0.500000 0.765205
O O14 0.500000 0.500000 0.502238
O O15 0.750000 0.312445 0.492860
O O16 0.466523 0.242242 0.560760
O O17 0.467517 0.277655 0.418836
O O18 0.750000 0.189418 0.630872
O O19 0.500000 0.000000 0.633755
O O20 0.250000 0.693200 0.343814
O O21 0.000000 0.500000 0.343631
#
# Coordination Sequence:
#
# PCOD9339755 Si02
#       7
#     4   4   4   4   4   4   4
#     4   9  18  33  51  70  93 122 156 191 228 273
#     4   9  18  32  48  67  93 124 156 190 229 273
#     4   9  17  29  46  68  93 121 154 192 232 273
#     4  10  21  35  51  73  98 122 152 190 230 273
#     4   9  17  30  49  71  93 119 154 193 231 273
#     4  10  21  35  50  70  96 125 156 189 227 273
#     4   8  14  26  44  65  90 119 150 187 230 272
#
# _framework density 20.915095000000001
#
# number of rings (size 3 to 8) (size 9 to 14) (size 15 to 20)
#    0.000    2.857    0.000    0.857    0.000    2.857 
#    0.000    0.714    0.000    0.000    0.000    0.000 
#    0.000    0.000    0.000    0.000    0.000    0.000 
#
# Total GULP energy -156138.555666 kJ/mol
# GULP energy per Si atom -5576.376988 kJ/mol
# Density = 2.086749 g / cm^3
# Si number density = 20.915095 Si / 1000 Ang^3
#
#
#
# Elastic Constant Matrix: (Units=GPa)
#
#
# Indices 1 2 3 4 5 6 
#
# 1 62.0754 -7.8255 15.4247 0.0000 0.0000 0.0000
# 2 -7.8255 85.8770 115.7200 0.0000 0.0000 0.0000
# 3 15.4247 115.7200 298.2179 0.0000 0.0000 0.0000
# 4 0.0000 0.0000 0.0000 -148.2571 0.0000 0.0000
# 5 0.0000 0.0000 0.0000 0.0000 -138.0204 0.0000
# 6 0.0000 0.0000 0.0000 0.0000 0.0000 21.8935
#
#
#
# Elastic Compliance Matrix: (Units=1/GPa)
#
#
# Indices 1 2 3 4 5 6 
#
# 1 0.017661 0.005953 -0.003223 0.000000 0.000000 0.000000
# 2 0.005953 0.026413 -0.010557 0.000000 0.000000 0.000000
# 3 -0.003223 -0.010557 0.007617 0.000000 0.000000 0.000000
# 4 0.000000 0.000000 0.000000 -0.006745 0.000000 0.000000
# 5 0.000000 0.000000 0.000000 0.000000 -0.007245 0.000000
# 6 0.000000 0.000000 0.000000 0.000000 0.000000 0.045676
#
#
# Mechanical properties :
#
#
# Convention : Reuss Voigt Hill
#
# Bulk Modulus (GPa) = 27.75074 76.97875 52.36475
# Shear Modulus (GPa) = 45.02789 -31.35339 6.83725
#
# Velocity S-wave (km/s) = 4.64496 -3.87599 1.81001
# Velocity P-wave (km/s) = 6.48572 4.10538 5.42765
#
# Compressibility (1/GPa) = 0.03603507
#
# Stress axis : x y z
#
# Youngs Moduli (GPa) = 56.62230 37.86049 131.29340
#
# Poissons Ratio (x) = -0.22538 0.42322
# Poissons Ratio (y) = -0.33707 1.38607
# Poissons Ratio (z) = 0.18252 0.39970
#
# Static dielectric constant tensor:
#      x y z
#    x 1.758200 0.000000 0.000000 
#    y 0.000000 1.670570 0.000000 
#    z 0.000000 0.000000 1.820790 
# 
# From -- ./inp_files/6781.got.cif
#   From: 2010.05.17/outbox.cif.g08.bks.cpg/sg28_4_cif.got.tgz:6781.got - 2010.06.04 01:15:21.
