data_PCOD9339255
_publ_section_title
;
Structure prediction by ZEFSAII (Michael W. Deem and Ramdas Pophale) SiO2 
 PCOD9339255
Probable space group: P M A 2
;
_chemical_formula_sum "Si O2"
_cell_formula_units_Z 20
_cell_length_a 8.611622
_cell_length_b 9.323632
_cell_length_c 13.654690
_cell_angle_alpha 90.000000
_cell_angle_beta 90.000000
_cell_angle_gamma 90.000000
_cell_volume 1096.356832
_symmetry_space_group_name_H-M "P M A 2"
_symmetry_group_IT_number 28
_symmetry_cell_setting 'orthorhombic'
loop_
_space_group_symop_operation_xyz
x,y,z
-x,-y,z
1/2-x,y,z
1/2+x,-y,z
loop_
_atom_site_type_symbol
_atom_site_label
_atom_site_fract_x
_atom_site_fract_y
_atom_site_fract_z
Si Si1 0.565037 0.663512 0.540920
Si Si2 0.937343 0.338315 0.124921
Si Si3 0.936482 0.338138 0.744748
Si Si4 0.937535 0.160051 0.936463
Si Si5 0.563844 0.336850 0.340355
O O1 0.500000 0.500000 0.540700
O O2 0.250000 0.340726 0.542097
O O3 0.501204 0.725177 0.642735
O O4 0.506250 0.730670 0.438916
O O5 0.750000 0.346030 0.122149
O O6 0.979237 0.277892 0.232924
O O7 0.000000 0.500000 0.115545
O O8 0.991245 0.242690 0.034234
O O9 0.750000 0.344169 0.739107
O O10 0.984023 0.246641 0.839094
O O11 0.000000 0.500000 0.755396
O O12 0.750000 0.157093 0.938268
O O13 0.000000 0.000000 0.934231
O O14 0.500000 0.500000 0.337368
O O15 0.750000 0.340077 0.349502
#
# Coordination Sequence:
#
# PCOD9339255 Si02
#       5
#     4   4   4   4   4
#     4  10  17  26  43  69 100 129 160 197 241 289
#     4   9  18  32  51  76 102 129 163 202 243 289
#     4  10  19  32  51  75 101 129 164 203 244 290
#     4  10  22  37  52  72  99 131 166 204 247 294
#     4   9  15  25  43  68  99 128 156 194 241 288
#
# _framework density 18.242236999999999
#
# number of rings (size 3 to 8) (size 9 to 14) (size 15 to 20)
#    0.000    2.400    0.000    6.000    0.000    3.200 
#    0.000    0.000    0.000    1.200    0.000    2.800 
#    0.000    0.000    0.000    0.000    0.000    0.000 
#
# Total GULP energy -111478.143097 kJ/mol
# GULP energy per Si atom -5573.907155 kJ/mol
# Density = 1.820072 g / cm^3
# Si number density = 18.242237 Si / 1000 Ang^3
#
#
#
# Elastic Constant Matrix: (Units=GPa)
#
#
# Indices 1 2 3 4 5 6 
#
# 1 64.6664 15.7486 57.2090 0.0000 0.0000 0.0000
# 2 15.7486 54.4529 68.4940 0.0000 0.0000 0.0000
# 3 57.2090 68.4940 240.7174 0.0000 0.0000 0.0000
# 4 0.0000 0.0000 0.0000 -3.9483 0.0000 0.0000
# 5 0.0000 0.0000 0.0000 0.0000 22.9054 0.0000
# 6 0.0000 0.0000 0.0000 0.0000 0.0000 19.6772
#
#
#
# Elastic Compliance Matrix: (Units=1/GPa)
#
#
# Indices 1 2 3 4 5 6 
#
# 1 0.019584 0.000297 -0.004739 0.000000 0.000000 0.000000
# 2 0.000297 0.028606 -0.008210 0.000000 0.000000 0.000000
# 3 -0.004739 -0.008210 0.007617 0.000000 0.000000 0.000000
# 4 0.000000 0.000000 0.000000 -0.253273 0.000000 0.000000
# 5 0.000000 0.000000 0.000000 0.000000 0.043658 0.000000
# 6 0.000000 0.000000 0.000000 0.000000 0.000000 0.050820
#
#
# Mechanical properties :
#
#
# Convention : Reuss Voigt Hill
#
# Bulk Modulus (GPa) = 32.78457 71.41553 52.10005
# Shear Modulus (GPa) = -74.05518 22.28587 -25.88466
#
# Velocity S-wave (km/s) = -6.37837 3.49902 -3.77097
# Velocity P-wave (km/s) = 6.01947 7.45370 3.10835
#
# Compressibility (1/GPa) = 0.03050216
#
# Stress axis : x y z
#
# Youngs Moduli (GPa) = 51.06202 34.95802 131.29286
#
# Poissons Ratio (x) = -0.01037 0.62217
# Poissons Ratio (y) = -0.01515 1.07792
# Poissons Ratio (z) = 0.24197 0.28701
#
# Static dielectric constant tensor:
#      x y z
#    x 1.613040 0.000000 0.000000 
#    y 0.000000 1.572380 0.000000 
#    z 0.000000 0.000000 1.709970 
# 
# From -- ./inp_files/5944.got.cif
#   From: 2010.05.17/outbox.cif.g08.bks.cpg/sg28_3_cif.got.tgz:5944.got - 2010.06.04 01:15:21.
