data_PCOD9339913
_publ_section_title
;
Structure prediction by ZEFSAII (Michael W. Deem and Ramdas Pophale) SiO2 
 PCOD9339913
Probable space group: P M A 2
;
_chemical_formula_sum "Si O2"
_cell_formula_units_Z 32
_cell_length_a 14.841499
_cell_length_b 9.084873
_cell_length_c 10.801085
_cell_angle_alpha 90.000000
_cell_angle_beta 90.000000
_cell_angle_gamma 90.000000
_cell_volume 1456.344136
_symmetry_space_group_name_H-M "P M A 2"
_symmetry_group_IT_number 28
_symmetry_cell_setting 'orthorhombic'
loop_
_space_group_symop_operation_xyz
x,y,z
-x,-y,z
1/2-x,y,z
1/2+x,-y,z
loop_
_atom_site_type_symbol
_atom_site_label
_atom_site_fract_x
_atom_site_fract_y
_atom_site_fract_z
Si Si1 0.023907 0.330549 0.513380
Si Si2 0.646440 0.264440 0.988743
Si Si3 0.352457 0.863281 0.502990
Si Si4 0.147422 0.392404 0.042955
Si Si5 0.151842 0.255046 0.293448
Si Si6 0.102820 0.945675 0.223039
Si Si7 0.355064 0.150968 0.672614
Si Si8 0.523772 0.845081 0.907468
O O1 0.070701 0.268623 0.388770
O O2 0.098637 0.296288 0.616846
O O3 0.000000 0.500000 0.499452
O O4 0.933057 0.242198 0.543759
O O5 0.750000 0.234299 0.956839
O O6 0.633555 0.438097 0.009177
O O7 0.623599 0.171001 0.114196
O O8 0.575235 0.219344 0.884035
O O9 0.250000 0.812526 0.527813
O O10 0.365251 0.882730 0.355463
O O11 0.363769 0.020263 0.571670
O O12 0.250000 0.351300 0.006020
O O13 0.142550 0.380464 0.191103
O O14 0.076970 0.278101 0.985028
O O15 0.250000 0.265500 0.357273
O O16 0.151799 0.103625 0.215665
O O17 0.000000 0.000000 0.233420
O O18 0.250000 0.169407 0.701114
O O19 0.414074 0.115046 0.792370
O O20 0.500000 0.000000 0.972439
#
# Coordination Sequence:
#
# PCOD9339913 Si02
#       8
#     4   4   4   4   4   4   4   4
#     4  12  26  41  65 102 143 182 233 288 361 426
#     4  11  25  42  65 103 145 186 234 288 353 428
#     4  11  23  43  69  97 136 182 237 294 350 415
#     4  10  24  44  65  97 143 189 232 285 353 423
#     4  11  22  39  63  94 136 183 232 287 350 415
#     4  12  21  38  67  98 139 184 234 292 349 414
#     4  11  25  50  76 100 132 180 243 301 352 418
#     4  12  25  43  72 100 136 181 237 289 353 411
#
# _framework density 21.972828
#
# number of rings (size 3 to 8) (size 9 to 14) (size 15 to 20)
#    0.000    0.750    2.500    5.250    1.750    4.000 
#    0.000    0.625    0.000    0.000    0.000    0.000 
#    0.000    0.000    0.000    0.000    0.000    0.000 
#
# Total GULP energy -178858.099539 kJ/mol
# GULP energy per Si atom -5589.315611 kJ/mol
# Density = 2.192282 g / cm^3
# Si number density = 21.972828 Si / 1000 Ang^3
#
#
#
# Elastic Constant Matrix: (Units=GPa)
#
#
# Indices 1 2 3 4 5 6 
#
# 1 202.2105 74.4183 45.4778 0.0000 0.0000 0.0000
# 2 74.4183 103.9201 20.1672 0.0000 0.0000 0.0000
# 3 45.4778 20.1672 62.4444 0.0000 0.0000 0.0000
# 4 0.0000 0.0000 0.0000 18.1758 0.0000 0.0000
# 5 0.0000 0.0000 0.0000 0.0000 71.5541 0.0000
# 6 0.0000 0.0000 0.0000 0.0000 0.0000 26.3413
#
#
#
# Elastic Compliance Matrix: (Units=1/GPa)
#
#
# Indices 1 2 3 4 5 6 
#
# 1 0.007549 -0.004629 -0.004003 0.000000 0.000000 0.000000
# 2 -0.004629 0.013105 -0.000861 0.000000 0.000000 0.000000
# 3 -0.004003 -0.000861 0.019208 0.000000 0.000000 0.000000
# 4 0.000000 0.000000 0.000000 0.055018 0.000000 0.000000
# 5 0.000000 0.000000 0.000000 0.000000 0.013975 0.000000
# 6 0.000000 0.000000 0.000000 0.000000 0.000000 0.037963
#
#
# Mechanical properties :
#
#
# Convention : Reuss Voigt Hill
#
# Bulk Modulus (GPa) = 47.90318 72.07797 59.99057
# Shear Modulus (GPa) = 28.94123 38.44835 33.69479
#
# Velocity S-wave (km/s) = 3.63318 4.18762 3.92021
# Velocity P-wave (km/s) = 6.28079 7.50040 6.91753
#
# Compressibility (1/GPa) = 0.02087544
#
# Stress axis : x y z
#
# Youngs Moduli (GPa) = 132.46199 76.30706 52.06258
#
# Poissons Ratio (x) = 0.35325 0.20841
# Poissons Ratio (y) = 0.61321 0.04482
# Poissons Ratio (z) = 0.53025 0.06569
#
# Static dielectric constant tensor:
#      x y z
#    x 1.695810 0.000000 0.000000 
#    y 0.000000 1.793140 0.000000 
#    z 0.000000 0.000000 1.838820 
# 
# From -- ./inp_files/5606.got.cif
#   From: 2010.05.17/outbox.cif.g08.bks.cpg/sg28_3_cif.got.tgz:5606.got - 2010.06.04 01:15:21.
