data_PCOD9339938
_publ_section_title
;
Structure prediction by ZEFSAII (Michael W. Deem and Ramdas Pophale) SiO2 
 PCOD9339938
Probable space group: P M A 2
;
_chemical_formula_sum "Si O2"
_cell_formula_units_Z 16
_cell_length_a 26.457800
_cell_length_b 5.158508
_cell_length_c 5.160199
_cell_angle_alpha 90.000000
_cell_angle_beta 90.000000
_cell_angle_gamma 90.000000
_cell_volume 704.278269
_symmetry_space_group_name_H-M "P M A 2"
_symmetry_group_IT_number 28
_symmetry_cell_setting 'orthorhombic'
loop_
_space_group_symop_operation_xyz
x,y,z
-x,-y,z
1/2-x,y,z
1/2+x,-y,z
loop_
_atom_site_type_symbol
_atom_site_label
_atom_site_fract_x
_atom_site_fract_y
_atom_site_fract_z
Si Si1 0.192351 0.710293 0.367160
Si Si2 0.151496 0.438162 0.849873
Si Si3 0.109629 0.078387 0.224826
Si Si4 0.557142 0.424723 0.097108
O O1 0.250000 0.796637 0.379043
O O2 0.180776 0.502292 0.591339
O O3 0.152838 0.945893 0.394532
O O4 0.180286 0.576996 0.090431
O O5 0.094710 0.557623 0.850746
O O6 0.139316 0.150373 0.956319
O O7 0.066394 0.862703 0.199110
O O8 0.082502 0.352235 0.280114
O O9 0.500000 0.500000 0.046321
#
# Coordination Sequence:
#
# PCOD9339938 Si02
#       4
#     4   4   4   4
#     4  11  22  42  65  95 135 184 227 286 348 406
#     4   9  23  39  65  96 134 171 231 280 335 421
#     4   9  21  40  65  99 138 168 233 281 338 420
#     4   9  18  40  71  97 135 178 221 282 353 410
#
# _framework density 22.718292000000002
#
# number of rings (size 3 to 8) (size 9 to 14) (size 15 to 20)
#    1.500    1.000    0.000    1.500    0.000    6.000 
#    0.000    5.000    0.000    0.000    0.000    0.000 
#    0.000    0.000    0.000    0.000    0.000    0.000 
#
# Total GULP energy -89082.028847 kJ/mol
# GULP energy per Si atom -5567.626803 kJ/mol
# Density = 2.266658 g / cm^3
# Si number density = 22.718292 Si / 1000 Ang^3
#
#
#
# Elastic Constant Matrix: (Units=GPa)
#
#
# Indices 1 2 3 4 5 6 
#
# 1 107.3710 -17.0466 17.0161 0.0000 0.0000 0.0000
# 2 -17.0466 113.0809 21.6958 0.0000 0.0000 0.0000
# 3 17.0161 21.6958 106.6323 0.0000 0.0000 0.0000
# 4 0.0000 0.0000 0.0000 21.6594 0.0000 0.0000
# 5 0.0000 0.0000 0.0000 0.0000 5.5020 0.0000
# 6 0.0000 0.0000 0.0000 0.0000 0.0000 9.1712
#
#
#
# Elastic Compliance Matrix: (Units=1/GPa)
#
#
# Indices 1 2 3 4 5 6 
#
# 1 0.009922 0.001873 -0.001964 0.000000 0.000000 0.000000
# 2 0.001873 0.009556 -0.002243 0.000000 0.000000 0.000000
# 3 -0.001964 -0.002243 0.010148 0.000000 0.000000 0.000000
# 4 0.000000 0.000000 0.000000 0.046169 0.000000 0.000000
# 5 0.000000 0.000000 0.000000 0.000000 0.181753 0.000000
# 6 0.000000 0.000000 0.000000 0.000000 0.000000 0.109037
#
#
# Mechanical properties :
#
#
# Convention : Reuss Voigt Hill
#
# Bulk Modulus (GPa) = 40.07024 41.15721 40.61372
# Shear Modulus (GPa) = 13.17268 27.62777 20.40023
#
# Velocity S-wave (km/s) = 2.41057 3.49105 2.99986
# Velocity P-wave (km/s) = 5.04222 5.86563 5.46944
#
# Compressibility (1/GPa) = 0.02495618
#
# Stress axis : x y z
#
# Youngs Moduli (GPa) = 100.78495 104.64766 98.54281
#
# Poissons Ratio (x) = -0.19596 0.19357
# Poissons Ratio (y) = -0.18873 0.22104
# Poissons Ratio (z) = 0.19798 0.23473
#
# Static dielectric constant tensor:
#      x y z
#    x 1.820520 0.000000 0.000000 
#    y 0.000000 1.904550 0.000000 
#    z 0.000000 0.000000 1.905760 
# 
# From -- ./inp_files/1642.got.cif
#   From: 2010.05.17/outbox.cif.g08.bks.cpg/sg28_1_cif.got.tgz:1642.got - 2010.06.04 01:15:21.
