data_PCOD9339302
_publ_section_title
;
Structure prediction by ZEFSAII (Michael W. Deem and Ramdas Pophale) SiO2 
 PCOD9339302
Probable space group: P M A 2
;
_chemical_formula_sum "Si O2"
_cell_formula_units_Z 32
_cell_length_a 8.711882
_cell_length_b 14.293691
_cell_length_c 13.259664
_cell_angle_alpha 90.000000
_cell_angle_beta 90.000000
_cell_angle_gamma 90.000000
_cell_volume 1651.158988
_symmetry_space_group_name_H-M "P M A 2"
_symmetry_group_IT_number 28
_symmetry_cell_setting 'orthorhombic'
loop_
_space_group_symop_operation_xyz
x,y,z
-x,-y,z
1/2-x,y,z
1/2+x,-y,z
loop_
_atom_site_type_symbol
_atom_site_label
_atom_site_fract_x
_atom_site_fract_y
_atom_site_fract_z
Si Si1 0.433212 0.103354 0.875000
Si Si2 0.566425 0.105620 0.085781
Si Si3 0.433079 0.290750 0.392944
Si Si4 0.065650 0.605230 0.199131
Si Si5 0.434350 0.605230 0.972431
Si Si6 0.933079 0.709250 0.778618
Si Si7 0.932332 0.395519 0.585781
Si Si8 0.066787 0.103355 0.296562
O O1 0.250000 0.095646 0.887690
O O2 0.467045 0.180159 0.789915
O O3 0.500000 0.000000 0.855980
O O4 0.503949 0.142407 0.979759
O O5 0.750000 0.106898 0.085781
O O6 0.503949 0.142407 0.191802
O O7 0.500000 0.000000 0.085781
O O8 0.250000 0.301923 0.401003
O O9 0.490404 0.338712 0.290117
O O10 0.511327 0.340207 0.487230
O O11 0.467047 0.180159 0.381647
O O12 0.250000 0.603950 0.210788
O O13 0.031941 0.642039 0.085781
O O14 0.000000 0.500000 0.203223
O O15 0.500000 0.500000 0.968339
O O16 0.250000 0.603950 0.960774
O O17 0.509595 0.661288 0.881444
O O18 0.750000 0.698076 0.770559
O O19 0.011327 0.659793 0.684331
O O20 0.750000 0.401951 0.585781
O O21 0.000000 0.500000 0.585781
O O22 0.250000 0.095646 0.283872
O O23 0.000000 0.000000 0.315581
#
# Coordination Sequence:
#
# PCOD9339302 Si02
#       8
#     4   4   4   4   4   4   4   4
#     4  10  21  37  58  86 122 163 205 252 302 357
#     4  10  18  30  52  80 117 160 203 248 294 352
#     4  11  24  41  63  90 122 159 204 253 306 363
#     4  10  21  37  58  87 122 159 199 245 303 366
#     4  10  21  37  58  87 122 159 199 245 303 366
#     4  11  24  41  63  90 122 159 204 253 306 363
#     4  12  26  46  71  94 121 156 201 254 308 366
#     4  10  21  37  58  86 122 163 205 252 302 357
#
# _framework density 19.380327000000001
#
# number of rings (size 3 to 8) (size 9 to 14) (size 15 to 20)
#    0.000    1.500    0.000    6.750    1.750    5.500 
#    0.000    0.625    0.000    0.000    0.000    0.000 
#    0.000    0.000    0.000    0.000    0.000    0.000 
#
# Total GULP energy -178836.999351 kJ/mol
# GULP energy per Si atom -5588.656230 kJ/mol
# Density = 1.933622 g / cm^3
# Si number density = 19.380327 Si / 1000 Ang^3
#
#
#
# Elastic Constant Matrix: (Units=GPa)
#
#
# Indices 1 2 3 4 5 6 
#
# 1 127.5939 73.3815 72.4911 0.0000 0.0000 0.0000
# 2 73.3815 135.1393 93.1191 0.0000 0.0000 0.0000
# 3 72.4911 93.1191 141.6111 0.0000 0.0000 0.0000
# 4 0.0000 0.0000 0.0000 32.7280 0.0000 0.0000
# 5 0.0000 0.0000 0.0000 0.0000 34.3931 0.0000
# 6 0.0000 0.0000 0.0000 0.0000 0.0000 27.4191
#
#
#
# Elastic Compliance Matrix: (Units=1/GPa)
#
#
# Indices 1 2 3 4 5 6 
#
# 1 0.012264 -0.004267 -0.003472 0.000000 0.000000 0.000000
# 2 -0.004267 0.015015 -0.007689 0.000000 0.000000 0.000000
# 3 -0.003472 -0.007689 0.013895 0.000000 0.000000 0.000000
# 4 0.000000 0.000000 0.000000 0.030555 0.000000 0.000000
# 5 0.000000 0.000000 0.000000 0.000000 0.029076 0.000000
# 6 0.000000 0.000000 0.000000 0.000000 0.000000 0.036471
#
#
# Mechanical properties :
#
#
# Convention : Reuss Voigt Hill
#
# Bulk Modulus (GPa) = 96.92100 98.03641 97.47871
# Shear Modulus (GPa) = 29.14237 29.93154 29.53695
#
# Velocity S-wave (km/s) = 3.88198 3.93419 3.90817
# Velocity P-wave (km/s) = 8.37923 8.44585 8.41261
#
# Compressibility (1/GPa) = 0.01031768
#
# Stress axis : x y z
#
# Youngs Moduli (GPa) = 81.53932 66.59997 71.96722
#
# Poissons Ratio (x) = 0.28417 0.24989
# Poissons Ratio (y) = 0.34792 0.55337
# Poissons Ratio (z) = 0.28312 0.51210
#
# Static dielectric constant tensor:
#      x y z
#    x 1.644010 0.000000 0.000000 
#    y 0.000000 1.678310 0.000000 
#    z 0.000000 0.000000 1.669660 
# 
# From -- ./inp_files/5105.got.cif
#   From: 2010.05.17/outbox.cif.g08.bks.cpg/sg28_3_cif.got.tgz:5105.got - 2010.06.04 01:15:21.
