data_PCOD9339065
_publ_section_title
;
Structure prediction by ZEFSAII (Michael W. Deem and Ramdas Pophale) SiO2 
 PCOD9339065
Probable space group: P C C 2
;
_chemical_formula_sum "Si O2"
_cell_formula_units_Z 20
_cell_length_a 13.115550
_cell_length_b 5.173310
_cell_length_c 13.471556
_cell_angle_alpha 90.000000
_cell_angle_beta 90.000000
_cell_angle_gamma 90.000000
_cell_volume 914.055932
_symmetry_space_group_name_H-M "P C C 2"
_symmetry_group_IT_number 27
_symmetry_cell_setting 'orthorhombic'
loop_
_space_group_symop_operation_xyz
x,y,z
-x,-y,z
-x,y,1/2+z
x,-y,1/2+z
loop_
_atom_site_type_symbol
_atom_site_label
_atom_site_fract_x
_atom_site_fract_y
_atom_site_fract_z
Si Si1 0.186259 0.571609 0.365720
Si Si2 0.601904 0.630236 0.412030
Si Si3 0.888883 0.923679 0.465130
Si Si4 0.332587 0.543403 0.700021
Si Si5 0.319329 0.953197 0.072649
O O1 0.293631 0.533942 0.425343
O O2 0.113943 0.350967 0.409782
O O3 0.223027 0.506513 0.254450
O O4 0.144740 0.854722 0.386483
O O5 0.500000 0.500000 0.449764
O O6 0.599131 0.640018 0.292700
O O7 0.623592 0.895791 0.468806
O O8 0.800769 0.920334 0.547937
O O9 0.000000 0.000000 0.503010
O O10 0.357200 0.274339 0.646508
O O11 0.334099 0.773686 0.622788
#
# Coordination Sequence:
#
# PCOD9339065 Si02
#       5
#     4   4   4   4   4
#     4   9  21  40  64  90 131 173 209 282 320 384
#     4   9  22  43  69  97 136 180 216 275 335 397
#     4  11  21  40  66  95 129 179 221 271 335 396
#     4  10  23  41  66  94 135 172 221 272 330 385
#     4  11  22  42  68  96 135 176 218 276 331 396
#
# _framework density 21.880500999999999
#
# number of rings (size 3 to 8) (size 9 to 14) (size 15 to 20)
#    1.200    0.800    0.000    4.200    0.000    0.800 
#    0.000   26.000    0.000    0.000    0.000    0.000 
#    0.000    0.000    0.000    0.000    0.000    0.000 
#
# Total GULP energy -111563.160326 kJ/mol
# GULP energy per Si atom -5578.158016 kJ/mol
# Density = 2.183070 g / cm^3
# Si number density = 21.880501 Si / 1000 Ang^3
#
#
#
# Elastic Constant Matrix: (Units=GPa)
#
#
# Indices 1 2 3 4 5 6 
#
# 1 98.5296 12.3782 15.2029 0.0000 0.0000 0.0000
# 2 12.3782 125.9792 52.1910 0.0000 0.0000 0.0000
# 3 15.2029 52.1910 98.0676 0.0000 0.0000 0.0000
# 4 0.0000 0.0000 0.0000 33.4819 0.0000 0.0000
# 5 0.0000 0.0000 0.0000 0.0000 13.0655 0.0000
# 6 0.0000 0.0000 0.0000 0.0000 0.0000 21.8088
#
#
#
# Elastic Compliance Matrix: (Units=1/GPa)
#
#
# Indices 1 2 3 4 5 6 
#
# 1 0.010418 -0.000455 -0.001373 0.000000 0.000000 0.000000
# 2 -0.000455 0.010203 -0.005359 0.000000 0.000000 0.000000
# 3 -0.001373 -0.005359 0.013262 0.000000 0.000000 0.000000
# 4 0.000000 0.000000 0.000000 0.029867 0.000000 0.000000
# 5 0.000000 0.000000 0.000000 0.000000 0.076538 0.000000
# 6 0.000000 0.000000 0.000000 0.000000 0.000000 0.045853
#
#
# Mechanical properties :
#
#
# Convention : Reuss Voigt Hill
#
# Bulk Modulus (GPa) = 51.25916 53.56897 52.41407
# Shear Modulus (GPa) = 24.15249 29.85819 27.00534
#
# Velocity S-wave (km/s) = 3.32601 3.69806 3.51696
# Velocity P-wave (km/s) = 6.18284 6.53987 6.36386
#
# Compressibility (1/GPa) = 0.01950871
#
# Stress axis : x y z
#
# Youngs Moduli (GPa) = 95.98564 98.01240 75.40276
#
# Poissons Ratio (x) = 0.04458 0.10353
# Poissons Ratio (y) = 0.04366 0.40411
# Poissons Ratio (z) = 0.13179 0.52528
#
# Static dielectric constant tensor:
#      x y z
#    x 1.813560 0.000000 0.000000 
#    y 0.000000 1.785430 0.000000 
#    z 0.000000 0.000000 1.826250 
# 
# From -- ./inp_files/3534.got.cif
#   From: 2010.05.17/outbox.cif.g08.bks.cpg/sg27_2_cif.got.tgz:3534.got - 2010.06.04 01:11:05.
