data_PCOD9339909
_publ_section_title
;
Structure prediction by ZEFSAII (Michael W. Deem and Ramdas Pophale) SiO2 
 PCOD9339909
Probable space group: P M A 2
;
_chemical_formula_sum "Si O2"
_cell_formula_units_Z 32
_cell_length_a 30.187898
_cell_length_b 5.473106
_cell_length_c 8.673257
_cell_angle_alpha 90.000000
_cell_angle_beta 90.000000
_cell_angle_gamma 90.000000
_cell_volume 1433.009101
_symmetry_space_group_name_H-M "P M A 2"
_symmetry_group_IT_number 28
_symmetry_cell_setting 'orthorhombic'
loop_
_space_group_symop_operation_xyz
x,y,z
-x,-y,z
1/2-x,y,z
1/2+x,-y,z
loop_
_atom_site_type_symbol
_atom_site_label
_atom_site_fract_x
_atom_site_fract_y
_atom_site_fract_z
Si Si1 0.463152 0.309306 0.540650
Si Si2 0.880397 0.180230 0.875640
Si Si3 0.198043 0.509015 0.308374
Si Si4 0.663011 0.978663 0.160434
Si Si5 0.457078 0.131501 0.868308
Si Si6 0.869462 0.425281 0.573995
Si Si7 0.917660 0.093249 0.354777
Si Si8 0.053295 0.529941 0.102135
O O1 0.500000 0.500000 0.483424
O O2 0.478248 0.253839 0.716287
O O3 0.414259 0.419431 0.563189
O O4 0.455008 0.081156 0.426123
O O5 0.859814 0.363800 0.751657
O O6 0.915157 0.002349 0.793337
O O7 0.845357 0.039263 0.981143
O O8 0.916741 0.303992 0.988346
O O9 0.250000 0.519121 0.340551
O O10 0.183460 0.768376 0.230721
O O11 0.169656 0.476901 0.465735
O O12 0.187944 0.272753 0.200591
O O13 0.615066 0.949377 0.241519
O O14 0.500000 0.000000 0.937913
O O15 0.436934 0.278109 0.011420
O O16 0.885350 0.177656 0.490738
O O17 0.933438 0.338070 0.262598
O O18 0.000000 0.500000 0.100433
#
# Coordination Sequence:
#
# PCOD9339909 Si02
#       8
#     4   4   4   4   4   4   4   4
#     4  12  24  40  66 100 146 197 247 300 367 440
#     4  11  23  40  70  94 140 189 240 308 366 437
#     4  11  24  48  77 107 147 188 234 306 391 470
#     4  10  24  44  74 106 140 184 240 298 382 452
#     4  12  23  39  65  97 135 196 253 302 364 437
#     4  11  23  44  67 102 138 189 242 297 369 449
#     4  10  24  42  62  97 139 188 240 307 358 427
#     4  11  23  42  61  91 137 191 247 306 359 420
#
# _framework density 22.330632999999999
#
# number of rings (size 3 to 8) (size 9 to 14) (size 15 to 20)
#    0.000    1.000    5.000    1.500    5.250    0.500 
#    0.000    5.000    0.000    3.000    0.000    0.000 
#    0.000    0.000    0.000    0.000    0.000    0.000 
#
# Total GULP energy -178332.974154 kJ/mol
# GULP energy per Si atom -5572.905442 kJ/mol
# Density = 2.227981 g / cm^3
# Si number density = 22.330633 Si / 1000 Ang^3
#
#
#
# Elastic Constant Matrix: (Units=GPa)
#
#
# Indices 1 2 3 4 5 6 
#
# 1 106.6322 36.3392 39.5102 0.0000 0.0000 0.0000
# 2 36.3392 89.6003 42.8619 0.0000 0.0000 0.0000
# 3 39.5102 42.8619 128.5158 0.0000 0.0000 0.0000
# 4 0.0000 0.0000 0.0000 -59.1002 0.0000 0.0000
# 5 0.0000 0.0000 0.0000 0.0000 12.7360 0.0000
# 6 0.0000 0.0000 0.0000 0.0000 0.0000 28.5338
#
#
#
# Elastic Compliance Matrix: (Units=1/GPa)
#
#
# Indices 1 2 3 4 5 6 
#
# 1 0.011447 -0.003521 -0.002345 0.000000 0.000000 0.000000
# 2 -0.003521 0.014362 -0.003708 0.000000 0.000000 0.000000
# 3 -0.002345 -0.003708 0.009739 0.000000 0.000000 0.000000
# 4 0.000000 0.000000 0.000000 -0.016920 0.000000 0.000000
# 5 0.000000 0.000000 0.000000 0.000000 0.078517 0.000000
# 6 0.000000 0.000000 0.000000 0.000000 0.000000 0.035046
#
#
# Mechanical properties :
#
#
# Convention : Reuss Voigt Hill
#
# Bulk Modulus (GPa) = 60.97183 62.46345 61.71764
# Shear Modulus (GPa) = 31.88692 10.16973 21.02833
#
# Velocity S-wave (km/s) = 3.78292 2.13636 3.07201
# Velocity P-wave (km/s) = 6.81498 5.84108 6.34674
#
# Compressibility (1/GPa) = 0.01640102
#
# Stress axis : x y z
#
# Youngs Moduli (GPa) = 87.36140 69.62728 102.68426
#
# Poissons Ratio (x) = 0.24514 0.24078
# Poissons Ratio (y) = 0.30758 0.38071
# Poissons Ratio (z) = 0.20485 0.25815
#
# Static dielectric constant tensor:
#      x y z
#    x 1.818670 0.000000 0.000000 
#    y 0.000000 2.071950 0.000000 
#    z 0.000000 0.000000 1.882600 
# 
# From -- ./inp_files/4362.got.cif
#   From: 2010.05.17/outbox.cif.g08.bks.cpg/sg28_3_cif.got.tgz:4362.got - 2010.06.04 01:15:21.
