data_PCOD9339565
_publ_section_title
;
Structure prediction by ZEFSAII (Michael W. Deem and Ramdas Pophale) SiO2 
 PCOD9339565
Probable space group: P M A 2
;
_chemical_formula_sum "Si O2"
_cell_formula_units_Z 32
_cell_length_a 15.179186
_cell_length_b 8.963972
_cell_length_c 10.672155
_cell_angle_alpha 90.000000
_cell_angle_beta 90.000000
_cell_angle_gamma 90.000000
_cell_volume 1452.115290
_symmetry_space_group_name_H-M "P M A 2"
_symmetry_group_IT_number 28
_symmetry_cell_setting 'orthorhombic'
loop_
_space_group_symop_operation_xyz
x,y,z
-x,-y,z
1/2-x,y,z
1/2+x,-y,z
loop_
_atom_site_type_symbol
_atom_site_label
_atom_site_fract_x
_atom_site_fract_y
_atom_site_fract_z
Si Si1 0.852326 0.135988 0.705330
Si Si2 0.078935 0.782070 0.121368
Si Si3 0.851230 0.380390 0.341565
Si Si4 0.346818 0.157613 0.869013
Si Si5 0.845888 0.723479 0.418761
Si Si6 0.526406 0.328828 0.850629
Si Si7 0.119957 0.115996 0.159409
Si Si8 0.977182 0.149783 0.480733
O O1 0.750000 0.154087 0.669793
O O2 0.899080 0.288431 0.749736
O O3 0.916831 0.089408 0.593208
O O4 0.855725 0.010461 0.814207
O O5 0.121895 0.647772 0.198075
O O6 0.979885 0.823039 0.161092
O O7 0.128972 0.936630 0.151004
O O8 0.068481 0.733867 0.978579
O O9 0.750000 0.336120 0.361544
O O10 0.860036 0.551089 0.381890
O O11 0.916713 0.271123 0.413917
O O12 0.250000 0.212889 0.826749
O O13 0.434917 0.241672 0.826052
O O14 0.347282 0.164444 0.020925
O O15 0.750000 0.741716 0.480159
O O16 0.843317 0.815408 0.287593
O O17 0.928341 0.774485 0.501406
O O18 0.500000 0.500000 0.860060
O O19 0.000000 0.000000 0.403373
#
# Coordination Sequence:
#
# PCOD9339565 Si02
#       8
#     4   4   4   4   4   4   4   4
#     4  11  25  48  73  99 130 176 237 293 344 408
#     4  10  21  36  61  95 137 178 221 277 337 403
#     4  11  25  42  63  97 141 186 226 279 344 410
#     4  10  21  40  67  96 133 178 229 286 341 403
#     4  11  25  42  65 101 140 182 230 277 343 419
#     4  11  24  40  65 100 139 181 226 283 349 413
#     4  10  19  37  64  95 134 179 224 277 339 401
#     4  12  25  44  71  96 134 178 231 288 343 401
#
# _framework density 22.036818
#
# number of rings (size 3 to 8) (size 9 to 14) (size 15 to 20)
#    0.000    1.250    2.500    3.000    3.500    5.000 
#    0.000    0.625    0.000    0.000    0.000    0.000 
#    0.000    0.000    0.000    0.000    0.000    0.000 
#
# Total GULP energy -178683.469575 kJ/mol
# GULP energy per Si atom -5583.858424 kJ/mol
# Density = 2.198666 g / cm^3
# Si number density = 22.036818 Si / 1000 Ang^3
#
#
#
# Elastic Constant Matrix: (Units=GPa)
#
#
# Indices 1 2 3 4 5 6 
#
# 1 177.3225 66.9074 42.7042 0.0000 0.0000 0.0000
# 2 66.9074 100.2948 18.2927 0.0000 0.0000 0.0000
# 3 42.7042 18.2927 65.4238 0.0000 0.0000 0.0000
# 4 0.0000 0.0000 0.0000 15.4590 0.0000 0.0000
# 5 0.0000 0.0000 0.0000 0.0000 -2.4707 0.0000
# 6 0.0000 0.0000 0.0000 0.0000 0.0000 13.2073
#
#
#
# Elastic Compliance Matrix: (Units=1/GPa)
#
#
# Indices 1 2 3 4 5 6 
#
# 1 0.008496 -0.004906 -0.004174 0.000000 0.000000 0.000000
# 2 -0.004906 0.013340 -0.000527 0.000000 0.000000 0.000000
# 3 -0.004174 -0.000527 0.018157 0.000000 0.000000 0.000000
# 4 0.000000 0.000000 0.000000 0.064687 0.000000 0.000000
# 5 0.000000 0.000000 0.000000 0.000000 -0.404749 0.000000
# 6 0.000000 0.000000 0.000000 0.000000 0.000000 0.075716
#
#
# Mechanical properties :
#
#
# Convention : Reuss Voigt Hill
#
# Bulk Modulus (GPa) = 48.12861 66.53884 57.33373
# Shear Modulus (GPa) = -25.22539 19.58157 -2.82191
#
# Velocity S-wave (km/s) = -3.38700 2.98415 -1.13284
# Velocity P-wave (km/s) = 2.56745 6.49103 4.93585
#
# Compressibility (1/GPa) = 0.02077766
#
# Stress axis : x y z
#
# Youngs Moduli (GPa) = 117.70416 74.96315 55.07612
#
# Poissons Ratio (x) = 0.36780 0.22987
# Poissons Ratio (y) = 0.57751 0.02904
# Poissons Ratio (z) = 0.49126 0.03953
#
# Static dielectric constant tensor:
#      x y z
#    x 1.812350 0.000000 0.000000 
#    y 0.000000 1.778630 0.000000 
#    z 0.000000 0.000000 1.866600 
# 
# From -- ./inp_files/5549.got.cif
#   From: 2010.05.17/outbox.cif.g08.bks.cpg/sg28_3_cif.got.tgz:5549.got - 2010.06.04 01:15:21.
