data_PCOD9339836
_publ_section_title
;
Structure prediction by ZEFSAII (Michael W. Deem and Ramdas Pophale) SiO2 
 PCOD9339836
Probable space group: P M A 2
;
_chemical_formula_sum "Si O2"
_cell_formula_units_Z 20
_cell_length_a 15.953873
_cell_length_b 4.783992
_cell_length_c 10.385930
_cell_angle_alpha 90.000000
_cell_angle_beta 90.000000
_cell_angle_gamma 90.000000
_cell_volume 792.687421
_symmetry_space_group_name_H-M "P M A 2"
_symmetry_group_IT_number 28
_symmetry_cell_setting 'orthorhombic'
loop_
_space_group_symop_operation_xyz
x,y,z
-x,-y,z
1/2-x,y,z
1/2+x,-y,z
loop_
_atom_site_type_symbol
_atom_site_label
_atom_site_fract_x
_atom_site_fract_y
_atom_site_fract_z
Si Si1 0.250000 0.415043 0.316790
Si Si2 0.250000 0.921797 0.493947
Si Si3 0.000000 0.500000 0.526073
Si Si4 0.844416 0.695301 0.674530
Si Si5 0.000000 0.000000 0.328759
Si Si6 0.652394 0.819928 0.965806
Si Si7 0.388148 0.651733 0.130574
O O1 0.250000 0.097083 0.360686
O O2 0.327785 0.494782 0.230726
O O3 0.250000 0.607364 0.444368
O O4 0.173371 0.045708 0.576969
O O5 0.082416 0.496814 0.617111
O O6 0.020362 0.246421 0.429232
O O7 0.750000 0.563506 0.691045
O O8 0.867037 0.812454 0.814764
O O9 0.941388 0.163656 0.228636
O O10 0.750000 0.724312 0.981249
O O11 0.589252 0.611426 0.039836
O O12 0.647754 0.122595 0.030329
#
# Coordination Sequence:
#
# PCOD9339836 Si02
#       7
#     2   2   2   4   2   4   4
#     4  12  20  36  62  88 118 174 204 254 324 376
#     4  10  22  36  58  94 124 158 220 258 310 386
#     4  12  24  50  68  98 138 178 216 288 334 388
#     4   9  24  44  70 101 132 178 225 274 330 404
#     4  12  28  44  64 102 136 170 230 272 336 408
#     4  11  22  44  66 101 130 173 225 272 327 401
#     4  12  24  40  67  93 135 172 217 275 329 393
#
# _framework density 25.230627999999999
#
# number of rings (size 3 to 8) (size 9 to 14) (size 15 to 20)
#    0.600    0.400    2.000    4.800    0.000    4.800 
#    0.000    0.000    0.000    0.000    0.000    0.000 
#    0.000    0.000    0.000    0.000    0.000    0.000 
#
# Total GULP energy -111737.500989 kJ/mol
# GULP energy per Si atom -5586.875049 kJ/mol
# Density = 2.517320 g / cm^3
# Si number density = 25.230628 Si / 1000 Ang^3
#
#
#
# Elastic Constant Matrix: (Units=GPa)
#
#
# Indices 1 2 3 4 5 6 
#
# 1 64.3931 7.2603 30.3499 0.0000 0.0000 0.0000
# 2 7.2603 105.5120 32.1207 0.0000 0.0000 0.0000
# 3 30.3499 32.1207 177.9615 0.0000 0.0000 0.0000
# 4 0.0000 0.0000 0.0000 9.9486 0.0000 0.0000
# 5 0.0000 0.0000 0.0000 0.0000 18.7903 0.0000
# 6 0.0000 0.0000 0.0000 0.0000 0.0000 15.1691
#
#
#
# Elastic Compliance Matrix: (Units=1/GPa)
#
#
# Indices 1 2 3 4 5 6 
#
# 1 0.016896 -0.000302 -0.002827 0.000000 0.000000 0.000000
# 2 -0.000302 0.010034 -0.001760 0.000000 0.000000 0.000000
# 3 -0.002827 -0.001760 0.006419 0.000000 0.000000 0.000000
# 4 0.000000 0.000000 0.000000 0.100517 0.000000 0.000000
# 5 0.000000 0.000000 0.000000 0.000000 0.053219 0.000000
# 6 0.000000 0.000000 0.000000 0.000000 0.000000 0.065924
#
#
# Mechanical properties :
#
#
# Convention : Reuss Voigt Hill
#
# Bulk Modulus (GPa) = 42.42336 54.14759 48.28548
# Shear Modulus (GPa) = 18.47451 27.32396 22.89924
#
# Velocity S-wave (km/s) = 2.70890 3.29442 3.01590
# Velocity P-wave (km/s) = 5.16090 5.99821 5.59524
#
# Compressibility (1/GPa) = 0.02357192
#
# Stress axis : x y z
#
# Youngs Moduli (GPa) = 59.18528 99.66087 155.78994
#
# Poissons Ratio (x) = 0.03010 0.44042
# Poissons Ratio (y) = 0.01787 0.27412
# Poissons Ratio (z) = 0.16732 0.17536
#
# Static dielectric constant tensor:
#      x y z
#    x 2.110780 0.000000 0.000000 
#    y 0.000000 1.944610 0.000000 
#    z 0.000000 0.000000 1.937620 
# 
# From -- ./inp_files/3727.got.cif
#   From: 2010.05.17/outbox.cif.g08.bks.cpg/sg28_2_cif.got.tgz:3727.got - 2010.06.04 01:15:21.
