data_PCOD9339719
_publ_section_title
;
Structure prediction by ZEFSAII (Michael W. Deem and Ramdas Pophale) SiO2 
 PCOD9339719
Probable space group: P M A 2
;
_chemical_formula_sum "Si O2"
_cell_formula_units_Z 32
_cell_length_a 8.798866
_cell_length_b 15.764121
_cell_length_c 12.110478
_cell_angle_alpha 90.000000
_cell_angle_beta 90.000000
_cell_angle_gamma 90.000000
_cell_volume 1679.800664
_symmetry_space_group_name_H-M "P M A 2"
_symmetry_group_IT_number 28
_symmetry_cell_setting 'orthorhombic'
loop_
_space_group_symop_operation_xyz
x,y,z
-x,-y,z
1/2-x,y,z
1/2+x,-y,z
loop_
_atom_site_type_symbol
_atom_site_label
_atom_site_fract_x
_atom_site_fract_y
_atom_site_fract_z
Si Si1 0.933001 0.250693 0.181770
Si Si2 0.068678 0.589937 0.798704
Si Si3 0.931429 0.089764 0.330472
Si Si4 0.567698 0.743882 0.938756
Si Si5 0.431107 0.352986 0.567251
Si Si6 0.431377 0.150409 0.559485
Si Si7 0.931943 0.411441 0.335747
Si Si8 0.432976 0.089564 0.801256
O O1 0.750000 0.248853 0.165907
O O2 0.977452 0.167046 0.250728
O O3 0.969006 0.333356 0.255073
O O4 0.014613 0.253957 0.064721
O O5 0.250000 0.586846 0.800609
O O6 0.000000 0.500000 0.834829
O O7 0.007961 0.665511 0.875313
O O8 0.010194 0.608707 0.674854
O O9 0.750000 0.084648 0.330271
O O10 0.987056 0.111444 0.453814
O O11 0.000000 0.000000 0.295467
O O12 0.750000 0.735979 0.930570
O O13 0.522530 0.831352 0.877758
O O14 0.250000 0.367479 0.573676
O O15 0.457695 0.251535 0.564972
O O16 0.497427 0.392030 0.455502
O O17 0.250000 0.137289 0.547824
O O18 0.481435 0.109741 0.675326
O O19 0.750000 0.417256 0.345247
O O20 0.000000 0.500000 0.294542
O O21 0.250000 0.085004 0.801828
O O22 0.500000 0.000000 0.837558
#
# Coordination Sequence:
#
# PCOD9339719 Si02
#       8
#     4   4   4   4   4   4   4   4
#     4  10  24  44  63  87 122 162 210 260 308 368
#     4  12  25  42  66  94 127 165 206 252 309 369
#     4  11  23  40  62  91 126 162 207 255 307 368
#     4  11  24  44  66  90 123 162 210 261 312 366
#     4  11  21  38  64  94 129 163 202 250 307 369
#     4  10  20  37  62  91 126 161 200 249 308 370
#     4  11  23  41  63  92 126 161 205 251 305 368
#     4  10  22  40  61  91 125 160 201 250 304 366
#
# _framework density 19.049880000000002
#
# number of rings (size 3 to 8) (size 9 to 14) (size 15 to 20)
#    0.000    1.250    2.500    3.375    0.000    6.000 
#    0.000    3.750    0.000    0.000    0.000    0.000 
#    0.000    0.000    0.000    0.000    0.000    0.000 
#
# Total GULP energy -179000.679053 kJ/mol
# GULP energy per Si atom -5593.771220 kJ/mol
# Density = 1.900652 g / cm^3
# Si number density = 19.049880 Si / 1000 Ang^3
#
#
#
# Elastic Constant Matrix: (Units=GPa)
#
#
# Indices 1 2 3 4 5 6 
#
# 1 73.3420 77.5490 55.2367 0.0000 0.0000 0.0000
# 2 77.5490 193.2670 85.1468 0.0000 0.0000 0.0000
# 3 55.2367 85.1468 131.8691 0.0000 0.0000 0.0000
# 4 0.0000 0.0000 0.0000 -2.0937 0.0000 0.0000
# 5 0.0000 0.0000 0.0000 0.0000 29.6293 0.0000
# 6 0.0000 0.0000 0.0000 0.0000 0.0000 35.0387
#
#
#
# Elastic Compliance Matrix: (Units=1/GPa)
#
#
# Indices 1 2 3 4 5 6 
#
# 1 0.026653 -0.008072 -0.005952 0.000000 0.000000 0.000000
# 2 -0.008072 0.009676 -0.002867 0.000000 0.000000 0.000000
# 3 -0.005952 -0.002867 0.011927 0.000000 0.000000 0.000000
# 4 0.000000 0.000000 0.000000 -0.477630 0.000000 0.000000
# 5 0.000000 0.000000 0.000000 0.000000 0.033750 0.000000
# 6 0.000000 0.000000 0.000000 0.000000 0.000000 0.028540
#
#
# Mechanical properties :
#
#
# Convention : Reuss Voigt Hill
#
# Bulk Modulus (GPa) = 69.08644 92.70480 80.89562
# Shear Modulus (GPa) = -15.22175 24.55125 4.66475
#
# Velocity S-wave (km/s) = -2.82981 3.59386 1.56653
# Velocity P-wave (km/s) = 5.06633 8.12349 6.76974
#
# Compressibility (1/GPa) = 0.01447462
#
# Stress axis : x y z
#
# Youngs Moduli (GPa) = 37.51969 103.34752 83.84137
#
# Poissons Ratio (x) = 0.83425 0.49902
# Poissons Ratio (y) = 0.30287 0.24033
# Poissons Ratio (z) = 0.22332 0.29625
#
# Static dielectric constant tensor:
#      x y z
#    x 1.638350 0.000000 0.000000 
#    y 0.000000 1.659630 0.000000 
#    z 0.000000 0.000000 1.624680 
# 
# From -- ./inp_files/4989.got.cif
#   From: 2010.05.17/outbox.cif.g08.bks.cpg/sg28_3_cif.got.tgz:4989.got - 2010.06.04 01:15:21.
