data_PCOD9339757
_publ_section_title
;
Structure prediction by ZEFSAII (Michael W. Deem and Ramdas Pophale) SiO2 
 PCOD9339757
Probable space group: P M A 2
;
_chemical_formula_sum "Si O2"
_cell_formula_units_Z 30
_cell_length_a 19.524299
_cell_length_b 5.133651
_cell_length_c 15.462011
_cell_angle_alpha 90.000000
_cell_angle_beta 90.000000
_cell_angle_gamma 90.000000
_cell_volume 1549.771852
_symmetry_space_group_name_H-M "P M A 2"
_symmetry_group_IT_number 28
_symmetry_cell_setting 'orthorhombic'
loop_
_space_group_symop_operation_xyz
x,y,z
-x,-y,z
1/2-x,y,z
1/2+x,-y,z
loop_
_atom_site_type_symbol
_atom_site_label
_atom_site_fract_x
_atom_site_fract_y
_atom_site_fract_z
Si Si1 0.829008 0.291466 0.444290
Si Si2 0.829428 0.842608 0.924353
Si Si3 0.166689 0.021379 0.731823
Si Si4 0.829699 0.810394 0.329186
Si Si5 0.166467 0.521659 0.629432
Si Si6 0.426533 0.378895 0.176307
Si Si7 0.000000 0.000000 0.048037
Si Si8 0.116039 0.666644 0.014433
O O1 0.750000 0.208512 0.461439
O O2 0.828571 0.554895 0.389117
O O3 0.859044 0.369741 0.537317
O O4 0.856530 0.055299 0.385699
O O5 0.750000 0.768415 0.917131
O O6 0.855609 0.913024 0.828728
O O7 0.867344 0.594581 0.963442
O O8 0.835571 0.097715 0.984786
O O9 0.250000 0.027281 0.732841
O O10 0.144242 0.238198 0.662108
O O11 0.147699 0.734160 0.701269
O O12 0.750000 0.863191 0.302488
O O13 0.878880 0.738216 0.250007
O O14 0.250000 0.509589 0.622989
O O15 0.500000 0.500000 0.206292
O O16 0.386980 0.589183 0.116106
O O17 0.448106 0.152132 0.110122
O O18 0.041297 0.786532 0.995352
#
# Coordination Sequence:
#
# PCOD9339757 Si02
#       8
#     4   4   4   4   4   4   2   4
#     4   9  18  31  49  77 114 147 178 224 274 335
#     4  11  22  35  53  85 123 150 181 232 291 351
#     4   9  17  28  46  73 110 149 181 216 264 336
#     4  10  21  35  53  82 117 144 181 233 289 338
#     4   9  15  27  47  70 105 151 184 211 265 330
#     4  10  23  40  62  81 110 149 197 244 284 339
#     4  10  22  44  60  80 102 144 202 258 274 328
#     4  11  22  39  58  78 110 149 189 241 282 335
#
# _framework density 19.357686000000001
#
# number of rings (size 3 to 8) (size 9 to 14) (size 15 to 20)
#    0.000    2.133    1.333    2.000    3.733    6.400 
#    0.000    0.000    0.000    0.000    0.000    0.000 
#   40.000    0.000    0.000    0.000    0.000    0.000 
#
# Total GULP energy -167232.698510 kJ/mol
# GULP energy per Si atom -5574.423284 kJ/mol
# Density = 1.931363 g / cm^3
# Si number density = 19.357686 Si / 1000 Ang^3
#
#
#
# Elastic Constant Matrix: (Units=GPa)
#
#
# Indices 1 2 3 4 5 6 
#
# 1 26.5381 0.1936 26.4270 0.0000 0.0000 0.0000
# 2 0.1936 79.0468 -4.4686 0.0000 0.0000 0.0000
# 3 26.4270 -4.4686 45.2438 0.0000 0.0000 0.0000
# 4 0.0000 0.0000 0.0000 24.9836 0.0000 0.0000
# 5 0.0000 0.0000 0.0000 0.0000 -107.1445 0.0000
# 6 0.0000 0.0000 0.0000 0.0000 0.0000 16.3119
#
#
#
# Elastic Compliance Matrix: (Units=1/GPa)
#
#
# Indices 1 2 3 4 5 6 
#
# 1 0.090892 -0.003242 -0.053411 0.000000 0.000000 0.000000
# 2 -0.003242 0.012837 0.003162 0.000000 0.000000 0.000000
# 3 -0.053411 0.003162 0.053612 0.000000 0.000000 0.000000
# 4 0.000000 0.000000 0.000000 0.040026 0.000000 0.000000
# 5 0.000000 0.000000 0.000000 0.000000 -0.009333 0.000000
# 6 0.000000 0.000000 0.000000 0.000000 0.000000 0.061305
#
#
# Mechanical properties :
#
#
# Convention : Reuss Voigt Hill
#
# Bulk Modulus (GPa) = 19.85719 21.68141 20.76930
# Shear Modulus (GPa) = 13.40093 -4.59135 4.40479
#
# Velocity S-wave (km/s) = 2.63397 -1.54175 1.51010
# Velocity P-wave (km/s) = 4.41936 2.83820 3.71390
#
# Compressibility (1/GPa) = 0.05035960
#
# Stress axis : x y z
#
# Youngs Moduli (GPa) = 11.00203 77.89738 18.65252
#
# Poissons Ratio (x) = 0.25255 0.99624
# Poissons Ratio (y) = 0.03567 -0.05897
# Poissons Ratio (z) = 0.58763 -0.24628
#
# Static dielectric constant tensor:
#      x y z
#    x 1.851270 0.000000 0.000000 
#    y 0.000000 1.693970 0.000000 
#    z 0.000000 0.000000 1.691960 
# 
# From -- ./inp_files/6581.got.cif
#   From: 2010.05.17/outbox.cif.g08.bks.cpg/sg28_4_cif.got.tgz:6581.got - 2010.06.04 01:15:21.
