data_PCOD9339729
_publ_section_title
;
Structure prediction by ZEFSAII (Michael W. Deem and Ramdas Pophale) SiO2 
 PCOD9339729
Probable space group: P M A 2
;
_chemical_formula_sum "Si O2"
_cell_formula_units_Z 22
_cell_length_a 13.525961
_cell_length_b 7.564945
_cell_length_c 9.179211
_cell_angle_alpha 90.000000
_cell_angle_beta 90.000000
_cell_angle_gamma 90.000000
_cell_volume 939.245794
_symmetry_space_group_name_H-M "P M A 2"
_symmetry_group_IT_number 28
_symmetry_cell_setting 'orthorhombic'
loop_
_space_group_symop_operation_xyz
x,y,z
-x,-y,z
1/2-x,y,z
1/2+x,-y,z
loop_
_atom_site_type_symbol
_atom_site_label
_atom_site_fract_x
_atom_site_fract_y
_atom_site_fract_z
Si Si1 0.359467 0.907092 0.014250
Si Si2 0.444442 0.738971 0.435279
Si Si3 0.638109 0.941299 0.323800
Si Si4 0.987073 0.214946 0.750611
Si Si5 0.861162 0.678883 0.951328
Si Si6 0.000000 0.500000 0.193179
O O1 0.250000 0.831206 0.025921
O O2 0.394711 0.953636 0.176754
O O3 0.421650 0.794778 0.899260
O O4 0.354567 0.107610 0.957642
O O5 0.364994 0.895544 0.432990
O O6 0.448580 0.695404 0.604437
O O7 0.427622 0.598494 0.307845
O O8 0.553935 0.812010 0.384678
O O9 0.750000 0.871468 0.302171
O O10 0.080990 0.331858 0.800030
O O11 0.000000 0.000000 0.717811
O O12 0.750000 0.607638 0.956082
O O13 0.928241 0.610597 0.085415
#
# Coordination Sequence:
#
# PCOD9339729 Si02
#       6
#     4   4   4   4   4   2
#     4   9  18  35  63  92 120 158 212 263 311 372
#     4  11  23  38  59  98 129 165 205 264 331 382
#     4  10  20  38  62  89 122 161 216 268 312 374
#     4  10  20  38  63  94 126 160 208 270 322 376
#     4  10  22  39  61  89 121 171 217 253 309 382
#     4  12  24  40  66  88 136 172 214 262 316 392
#
# _framework density 23.423048000000001
#
# number of rings (size 3 to 8) (size 9 to 14) (size 15 to 20)
#    0.000    1.818    3.636    1.091    5.091    2.909 
#    0.000    0.909    0.000    3.273    0.000    0.000 
#    0.000    0.000    0.000    0.000    0.000    0.000 
#
# Total GULP energy -122489.659303 kJ/mol
# GULP energy per Si atom -5567.711786 kJ/mol
# Density = 2.336974 g / cm^3
# Si number density = 23.423048 Si / 1000 Ang^3
#
#
#
# Elastic Constant Matrix: (Units=GPa)
#
#
# Indices 1 2 3 4 5 6 
#
# 1 117.3712 12.7971 40.2408 0.0000 0.0000 0.0000
# 2 12.7971 54.2925 17.3046 0.0000 0.0000 0.0000
# 3 40.2408 17.3046 138.9375 0.0000 0.0000 0.0000
# 4 0.0000 0.0000 0.0000 27.0001 0.0000 0.0000
# 5 0.0000 0.0000 0.0000 0.0000 7.1509 0.0000
# 6 0.0000 0.0000 0.0000 0.0000 0.0000 11.5924
#
#
#
# Elastic Compliance Matrix: (Units=1/GPa)
#
#
# Indices 1 2 3 4 5 6 
#
# 1 0.009564 -0.001428 -0.002592 0.000000 0.000000 0.000000
# 2 -0.001428 0.019393 -0.002002 0.000000 0.000000 0.000000
# 3 -0.002592 -0.002002 0.008198 0.000000 0.000000 0.000000
# 4 0.000000 0.000000 0.000000 0.037037 0.000000 0.000000
# 5 0.000000 0.000000 0.000000 0.000000 0.139842 0.000000
# 6 0.000000 0.000000 0.000000 0.000000 0.000000 0.086264
#
#
# Mechanical properties :
#
#
# Convention : Reuss Voigt Hill
#
# Bulk Modulus (GPa) = 39.82324 50.14291 44.98308
# Shear Modulus (GPa) = 15.59025 25.16592 20.37808
#
# Velocity S-wave (km/s) = 2.58271 3.28137 2.95278
# Velocity P-wave (km/s) = 5.09240 5.98419 5.55621
#
# Compressibility (1/GPa) = 0.02511097
#
# Stress axis : x y z
#
# Youngs Moduli (GPa) = 104.55369 51.56388 121.98671
#
# Poissons Ratio (x) = 0.07364 0.31623
# Poissons Ratio (y) = 0.14932 0.24419
# Poissons Ratio (z) = 0.27103 0.10322
#
# Static dielectric constant tensor:
#      x y z
#    x 2.011150 0.000000 0.000000 
#    y 0.000000 2.077910 0.000000 
#    z 0.000000 0.000000 1.911990 
# 
# From -- ./inp_files/3384.got.cif
#   From: 2010.05.17/outbox.cif.g08.bks.cpg/sg28_2_cif.got.tgz:3384.got - 2010.06.04 01:15:21.
