data_PCOD9339265
_publ_section_title
;
Structure prediction by ZEFSAII (Michael W. Deem and Ramdas Pophale) SiO2 
 PCOD9339265
Probable space group: P M A 2
;
_chemical_formula_sum "Si O2"
_cell_formula_units_Z 28
_cell_length_a 8.621762
_cell_length_b 9.363940
_cell_length_c 19.191605
_cell_angle_alpha 90.000000
_cell_angle_beta 90.000000
_cell_angle_gamma 90.000000
_cell_volume 1549.408553
_symmetry_space_group_name_H-M "P M A 2"
_symmetry_group_IT_number 28
_symmetry_cell_setting 'orthorhombic'
loop_
_space_group_symop_operation_xyz
x,y,z
-x,-y,z
1/2-x,y,z
1/2+x,-y,z
loop_
_atom_site_type_symbol
_atom_site_label
_atom_site_fract_x
_atom_site_fract_y
_atom_site_fract_z
Si Si1 0.935311 0.837042 0.712440
Si Si2 0.935210 0.162853 0.855854
Si Si3 0.436928 0.660448 0.433103
Si Si4 0.564096 0.337776 0.280627
Si Si5 0.563213 0.160917 0.567646
Si Si6 0.436322 0.160768 0.000606
Si Si7 0.064586 0.339349 0.136902
O O1 0.750000 0.840451 0.713430
O O2 0.999109 0.771285 0.784329
O O3 0.997065 0.774607 0.639743
O O4 0.000000 0.000000 0.711784
O O5 0.750000 0.159403 0.853708
O O6 0.000000 0.000000 0.857015
O O7 0.994726 0.224887 0.928972
O O8 0.500000 0.500000 0.438559
O O9 0.250000 0.654039 0.434057
O O10 0.481366 0.721914 0.356708
O O11 0.486636 0.752296 0.499355
O O12 0.500000 0.500000 0.281609
O O13 0.750000 0.340623 0.275763
O O14 0.497263 0.273571 0.209515
O O15 0.750000 0.157515 0.571796
O O16 0.500000 0.000000 0.561600
O O17 0.250000 0.155910 0.994636
O O18 0.480138 0.250065 0.068836
O O19 0.500000 0.000000 0.007977
O O20 0.250000 0.346124 0.140666
O O21 0.000000 0.500000 0.130905
#
# Coordination Sequence:
#
# PCOD9339265 Si02
#       7
#     4   4   4   4   4   4   4
#     4  10  17  27  44  67  94 125 160 197 236 278
#     4  10  17  27  45  68  94 125 159 196 237 279
#     4   9  19  33  51  73  97 125 160 200 240 285
#     4   9  16  29  49  71  94 123 160 200 238 279
#     4  10  19  32  48  71 100 128 160 198 240 285
#     4  10  20  33  49  72 100 128 160 198 240 285
#     4  10  20  33  51  74  98 126 161 199 239 285
#
# _framework density 18.071411000000001
#
# number of rings (size 3 to 8) (size 9 to 14) (size 15 to 20)
#    0.000    2.286    0.000    7.714    0.000    4.000 
#    0.000    0.714    0.000    4.286    0.000    6.000 
#    0.000    0.000    0.000    0.000    0.000    0.000 
#
# Total GULP energy -156048.926690 kJ/mol
# GULP energy per Si atom -5573.175953 kJ/mol
# Density = 1.803028 g / cm^3
# Si number density = 18.071411 Si / 1000 Ang^3
#
#
#
# Elastic Constant Matrix: (Units=GPa)
#
#
# Indices 1 2 3 4 5 6 
#
# 1 89.7921 13.7526 66.6422 0.0000 0.0000 0.0000
# 2 13.7526 24.6114 49.0348 0.0000 0.0000 0.0000
# 3 66.6422 49.0348 242.4575 0.0000 0.0000 0.0000
# 4 0.0000 0.0000 0.0000 43.1285 0.0000 0.0000
# 5 0.0000 0.0000 0.0000 0.0000 39.5584 0.0000
# 6 0.0000 0.0000 0.0000 0.0000 0.0000 3.4925
#
#
#
# Elastic Compliance Matrix: (Units=1/GPa)
#
#
# Indices 1 2 3 4 5 6 
#
# 1 0.013992 -0.000262 -0.003793 0.000000 0.000000 0.000000
# 2 -0.000262 0.068057 -0.013692 0.000000 0.000000 0.000000
# 3 -0.003793 -0.013692 0.007936 0.000000 0.000000 0.000000
# 4 0.000000 0.000000 0.000000 0.023186 0.000000 0.000000
# 5 0.000000 0.000000 0.000000 0.000000 0.025279 0.000000
# 6 0.000000 0.000000 0.000000 0.000000 0.000000 0.286325
#
#
# Mechanical properties :
#
#
# Convention : Reuss Voigt Hill
#
# Bulk Modulus (GPa) = 18.35127 68.41336 43.38232
# Shear Modulus (GPa) = 10.45076 32.39798 21.42437
#
# Velocity S-wave (km/s) = 2.40740 4.23871 3.44690
# Velocity P-wave (km/s) = 4.23136 7.86734 6.31662
#
# Compressibility (1/GPa) = 0.05449213
#
# Stress axis : x y z
#
# Youngs Moduli (GPa) = 71.46958 14.69348 126.00698
#
# Poissons Ratio (x) = 0.00384 0.47794
# Poissons Ratio (y) = 0.01870 1.72530
# Poissons Ratio (z) = 0.27108 0.20118
#
# Static dielectric constant tensor:
#      x y z
#    x 1.604690 0.000000 0.000000 
#    y 0.000000 1.612880 0.000000 
#    z 0.000000 0.000000 1.708170 
# 
# From -- ./inp_files/6909.got.cif
#   From: 2010.05.17/outbox.cif.g08.bks.cpg/sg28_4_cif.got.tgz:6909.got - 2010.06.04 01:15:21.
