data_PCOD9339855
_publ_section_title
;
Structure prediction by ZEFSAII (Michael W. Deem and Ramdas Pophale) SiO2 
 PCOD9339855
Probable space group: P M A 2
;
_chemical_formula_sum "Si O2"
_cell_formula_units_Z 32
_cell_length_a 20.106027
_cell_length_b 13.167403
_cell_length_c 5.037491
_cell_angle_alpha 90.000000
_cell_angle_beta 90.000000
_cell_angle_gamma 90.000000
_cell_volume 1333.646325
_symmetry_space_group_name_H-M "P M A 2"
_symmetry_group_IT_number 28
_symmetry_cell_setting 'orthorhombic'
loop_
_space_group_symop_operation_xyz
x,y,z
-x,-y,z
1/2-x,y,z
1/2+x,-y,z
loop_
_atom_site_type_symbol
_atom_site_label
_atom_site_fract_x
_atom_site_fract_y
_atom_site_fract_z
Si Si1 0.319673 0.076653 0.261280
Si Si2 0.538731 0.098354 0.910157
Si Si3 0.402334 0.574695 0.191058
Si Si4 0.948830 0.632445 0.307140
Si Si5 0.625282 0.125660 0.422292
Si Si6 0.414008 0.190035 0.973408
Si Si7 0.174312 0.286100 0.600895
Si Si8 0.828822 0.340491 0.670335
O O1 0.250000 0.089679 0.116866
O O2 0.326908 0.173892 0.457579
O O3 0.322501 0.964599 0.377113
O O4 0.380401 0.087104 0.063619
O O5 0.579086 0.077572 0.646986
O O6 0.478228 0.169981 0.798388
O O7 0.500000 0.000000 0.014810
O O8 0.585036 0.142146 0.146184
O O9 0.472239 0.610560 0.332338
O O10 0.421727 0.458643 0.120723
O O11 0.348314 0.586287 0.424603
O O12 0.374025 0.631117 0.928754
O O13 0.887036 0.642430 0.512172
O O14 0.947980 0.745758 0.200650
O O15 0.653683 0.229097 0.549174
O O16 0.350559 0.256732 0.892083
O O17 0.250000 0.324334 0.581257
O O18 0.750000 0.346062 0.734724
#
# Coordination Sequence:
#
# PCOD9339855 Si02
#       8
#     4   4   4   4   4   4   4   4
#     4  10  22  41  61  92 137 182 229 283 348 424
#     4  12  25  40  68 103 142 184 239 294 361 416
#     4  11  27  49  74 108 141 187 241 302 370 431
#     4  10  25  44  74 103 142 184 237 298 371 435
#     4  12  25  44  67 101 137 190 239 296 355 430
#     4  11  22  40  66 100 137 184 229 297 349 438
#     4  10  23  41  67 103 139 182 231 288 361 433
#     4  12  27  49  74 105 144 192 246 304 363 434
#
# _framework density 23.994367
#
# number of rings (size 3 to 8) (size 9 to 14) (size 15 to 20)
#    0.000    1.000    1.250    4.500    8.750    2.500 
#    0.000    1.250    0.000    0.000    0.000    0.000 
#    0.000    0.000    0.000    0.000    0.000    0.000 
#
# Total GULP energy -178157.894282 kJ/mol
# GULP energy per Si atom -5567.434196 kJ/mol
# Density = 2.393976 g / cm^3
# Si number density = 23.994367 Si / 1000 Ang^3
#
#
#
# Elastic Constant Matrix: (Units=GPa)
#
#
# Indices 1 2 3 4 5 6 
#
# 1 168.2466 28.3071 33.9279 0.0000 0.0000 0.0000
# 2 28.3071 68.0083 6.3889 0.0000 0.0000 0.0000
# 3 33.9279 6.3889 76.2299 0.0000 0.0000 0.0000
# 4 0.0000 0.0000 0.0000 25.8934 0.0000 0.0000
# 5 0.0000 0.0000 0.0000 0.0000 23.4676 0.0000
# 6 0.0000 0.0000 0.0000 0.0000 0.0000 29.3329
#
#
#
# Elastic Compliance Matrix: (Units=1/GPa)
#
#
# Indices 1 2 3 4 5 6 
#
# 1 0.006967 -0.002629 -0.002880 0.000000 0.000000 0.000000
# 2 -0.002629 0.015813 -0.000155 0.000000 0.000000 0.000000
# 3 -0.002880 -0.000155 0.014413 0.000000 0.000000 0.000000
# 4 0.000000 0.000000 0.000000 0.038620 0.000000 0.000000
# 5 0.000000 0.000000 0.000000 0.000000 0.042612 0.000000
# 6 0.000000 0.000000 0.000000 0.000000 0.000000 0.034091
#
#
# Mechanical properties :
#
#
# Convention : Reuss Voigt Hill
#
# Bulk Modulus (GPa) = 38.66436 49.97028 44.31732
# Shear Modulus (GPa) = 28.99106 31.99618 30.49362
#
# Velocity S-wave (km/s) = 3.47975 3.65566 3.56879
# Velocity P-wave (km/s) = 5.68276 6.22009 5.95749
#
# Compressibility (1/GPa) = 0.02586361
#
# Stress axis : x y z
#
# Youngs Moduli (GPa) = 143.53659 63.23899 69.38083
#
# Poissons Ratio (x) = 0.16627 0.19984
# Poissons Ratio (y) = 0.37739 0.01076
# Poissons Ratio (z) = 0.41344 0.00981
#
# Static dielectric constant tensor:
#      x y z
#    x 1.961230 0.000000 0.000000 
#    y 0.000000 2.044980 0.000000 
#    z 0.000000 0.000000 1.969370 
# 
# From -- ./inp_files/1216.got.cif
#   From: 2010.05.17/outbox.cif.g08.bks.cpg/sg28_1_cif.got.tgz:1216.got - 2010.06.04 01:15:21.
