data_PCOD9339462
_publ_section_title
;
Structure prediction by ZEFSAII (Michael W. Deem and Ramdas Pophale) SiO2 
 PCOD9339462
Probable space group: P M A 2
;
_chemical_formula_sum "Si O2"
_cell_formula_units_Z 24
_cell_length_a 9.068773
_cell_length_b 16.715718
_cell_length_c 9.373738
_cell_angle_alpha 90.000000
_cell_angle_beta 90.000000
_cell_angle_gamma 90.000000
_cell_volume 1420.974805
_symmetry_space_group_name_H-M "P M A 2"
_symmetry_group_IT_number 28
_symmetry_cell_setting 'orthorhombic'
loop_
_space_group_symop_operation_xyz
x,y,z
-x,-y,z
1/2-x,y,z
1/2+x,-y,z
loop_
_atom_site_type_symbol
_atom_site_label
_atom_site_fract_x
_atom_site_fract_y
_atom_site_fract_z
Si Si1 0.576242 0.583834 0.351360
Si Si2 0.923592 0.760312 0.802600
Si Si3 0.076139 0.832143 0.236271
Si Si4 0.073832 0.735751 0.503012
Si Si5 0.077283 0.314754 0.088015
Si Si6 0.075178 0.081058 0.990176
O O1 0.500000 0.500000 0.382859
O O2 0.750000 0.580314 0.382119
O O3 0.504602 0.657000 0.438860
O O4 0.559283 0.606533 0.183055
O O5 0.750000 0.760753 0.764738
O O6 0.019350 0.750597 0.662387
O O7 0.947278 0.689586 0.919063
O O8 0.955693 0.842959 0.887488
O O9 0.250000 0.847716 0.225611
O O10 0.036914 0.811187 0.399551
O O11 0.032019 0.749866 0.156395
O O12 0.987847 0.897840 0.147074
O O13 0.250000 0.725029 0.496049
O O14 0.250000 0.288304 0.108623
O O15 0.250000 0.071522 0.997582
O O16 0.000000 0.000000 0.937974
#
# Coordination Sequence:
#
# PCOD9339462 Si02
#       6
#     4   4   4   4   4   4
#     4  10  19  33  53  75 101 131 166 210 255 298
#     4   9  18  33  52  74 101 134 168 204 250 301
#     4   9  17  30  49  72  97 126 163 203 242 290
#     4  10  20  33  51  76 103 134 171 206 246 299
#     4   8  16  31  50  71  95 127 165 202 243 292
#     4  10  20  34  53  76 101 130 167 209 254 300
#
# _framework density 16.889814000000001
#
# number of rings (size 3 to 8) (size 9 to 14) (size 15 to 20)
#    0.000    2.667    0.000    3.000    0.000    6.000 
#    0.000    1.667    0.000    4.000    0.000    0.000 
#    0.000    0.000    0.000    0.000    0.000    0.000 
#
# Total GULP energy -133640.408824 kJ/mol
# GULP energy per Si atom -5568.350368 kJ/mol
# Density = 1.685137 g / cm^3
# Si number density = 16.889814 Si / 1000 Ang^3
#
#
#
# Elastic Constant Matrix: (Units=GPa)
#
#
# Indices 1 2 3 4 5 6 
#
# 1 69.4645 40.0250 54.6892 0.0000 0.0000 0.0000
# 2 40.0250 67.7690 30.2831 0.0000 0.0000 0.0000
# 3 54.6892 30.2831 110.1327 0.0000 0.0000 0.0000
# 4 0.0000 0.0000 0.0000 12.7130 0.0000 0.0000
# 5 0.0000 0.0000 0.0000 0.0000 26.9080 0.0000
# 6 0.0000 0.0000 0.0000 0.0000 0.0000 26.0063
#
#
#
# Elastic Compliance Matrix: (Units=1/GPa)
#
#
# Indices 1 2 3 4 5 6 
#
# 1 0.031443 -0.013217 -0.011980 0.000000 0.000000 0.000000
# 2 -0.013217 0.022379 0.000410 0.000000 0.000000 0.000000
# 3 -0.011980 0.000410 0.014916 0.000000 0.000000 0.000000
# 4 0.000000 0.000000 0.000000 0.078660 0.000000 0.000000
# 5 0.000000 0.000000 0.000000 0.000000 0.037164 0.000000
# 6 0.000000 0.000000 0.000000 0.000000 0.000000 0.038452
#
#
# Mechanical properties :
#
#
# Convention : Reuss Voigt Hill
#
# Bulk Modulus (GPa) = 52.18077 55.26230 53.72154
# Shear Modulus (GPa) = 17.92267 21.28338 19.60302
#
# Velocity S-wave (km/s) = 3.26107 3.55368 3.41051
# Velocity P-wave (km/s) = 6.71873 7.04475 6.88367
#
# Compressibility (1/GPa) = 0.01916415
#
# Stress axis : x y z
#
# Youngs Moduli (GPa) = 31.80344 44.68429 67.04216
#
# Poissons Ratio (x) = 0.59061 0.80313
# Poissons Ratio (y) = 0.42036 -0.02748
# Poissons Ratio (z) = 0.38099 -0.01832
#
# Static dielectric constant tensor:
#      x y z
#    x 1.564510 0.000000 0.000000 
#    y 0.000000 1.574540 0.000000 
#    z 0.000000 0.000000 1.586720 
# 
# From -- ./inp_files/2542.got.cif
#   From: 2010.05.17/outbox.cif.g08.bks.cpg/sg28_2_cif.got.tgz:2542.got - 2010.06.04 01:15:21.
