data_PCOD9339148
_publ_section_title
;
Structure prediction by ZEFSAII (Michael W. Deem and Ramdas Pophale) SiO2 
 PCOD9339148
Probable space group: P C C 2
;
_chemical_formula_sum "Si O2"
_cell_formula_units_Z 30
_cell_length_a 9.194649
_cell_length_b 12.729667
_cell_length_c 10.830634
_cell_angle_alpha 90.000000
_cell_angle_beta 90.000000
_cell_angle_gamma 90.000000
_cell_volume 1267.669606
_symmetry_space_group_name_H-M "P C C 2"
_symmetry_group_IT_number 27
_symmetry_cell_setting 'orthorhombic'
loop_
_space_group_symop_operation_xyz
x,y,z
-x,-y,z
-x,y,1/2+z
x,-y,1/2+z
loop_
_atom_site_type_symbol
_atom_site_label
_atom_site_fract_x
_atom_site_fract_y
_atom_site_fract_z
Si Si1 0.243196 0.374520 0.591120
Si Si2 0.248729 0.219935 0.825127
Si Si3 0.536227 0.289180 0.539313
Si Si4 0.953417 0.294186 0.871930
Si Si5 0.280763 0.189354 0.222335
Si Si6 0.829488 0.973404 0.650428
Si Si7 0.000000 0.500000 0.708665
Si Si8 0.613501 0.095293 0.969005
O O1 0.244920 0.302066 0.712341
O O2 0.411313 0.377948 0.544247
O O3 0.151570 0.316676 0.485370
O O4 0.144072 0.475254 0.626642
O O5 0.228387 0.104328 0.761172
O O6 0.104611 0.241154 0.906700
O O7 0.377064 0.261138 0.914434
O O8 0.650646 0.287419 0.650577
O O9 0.450284 0.180134 0.563916
O O10 0.875400 0.220164 0.773972
O O11 0.976591 0.402170 0.798675
O O12 0.373968 0.153042 0.339087
O O13 0.257791 0.082864 0.148411
O O14 0.774973 0.927473 0.519707
O O15 0.000000 0.000000 0.659570
O O16 0.500000 0.000000 0.960838
#
# Coordination Sequence:
#
# PCOD9339148 Si02
#       8
#     4   4   4   4   4   4   2   4
#     4  11  24  49  80 107 144 193 251 308 388 466
#     4  11  25  44  72 111 154 197 255 309 376 452
#     4  12  25  42  73 103 148 197 244 310 378 449
#     4  11  24  47  78 103 143 195 246 314 385 450
#     4  12  26  42  68 102 147 197 252 306 368 439
#     4  12  25  42  65 104 148 201 259 313 361 441
#     4  10  26  48  82 110 138 182 244 316 392 462
#     4  12  25  42  64  96 146 200 246 296 366 435
#
# _framework density 23.665472000000001
#
# number of rings (size 3 to 8) (size 9 to 14) (size 15 to 20)
#    0.000    0.533    5.333    2.000    5.600    1.600 
#    0.000    0.667    0.000    0.000    0.000    0.000 
#    0.000    0.000    0.000    0.000    0.000    0.000 
#
# Total GULP energy -167516.988595 kJ/mol
# GULP energy per Si atom -5583.899620 kJ/mol
# Density = 2.361161 g / cm^3
# Si number density = 23.665472 Si / 1000 Ang^3
#
#
#
# Elastic Constant Matrix: (Units=GPa)
#
#
# Indices 1 2 3 4 5 6 
#
# 1 156.8850 28.7839 53.6008 0.0000 0.0000 0.0000
# 2 28.7839 68.0682 16.1202 0.0000 0.0000 0.0000
# 3 53.6008 16.1202 98.9763 0.0000 0.0000 0.0000
# 4 0.0000 0.0000 0.0000 13.2374 0.0000 0.0000
# 5 0.0000 0.0000 0.0000 0.0000 36.9703 0.0000
# 6 0.0000 0.0000 0.0000 0.0000 0.0000 50.0516
#
#
#
# Elastic Compliance Matrix: (Units=1/GPa)
#
#
# Indices 1 2 3 4 5 6 
#
# 1 0.008216 -0.002518 -0.004039 0.000000 0.000000 0.000000
# 2 -0.002518 0.016052 -0.001251 0.000000 0.000000 0.000000
# 3 -0.004039 -0.001251 0.012495 0.000000 0.000000 0.000000
# 4 0.000000 0.000000 0.000000 0.075544 0.000000 0.000000
# 5 0.000000 0.000000 0.000000 0.000000 0.027049 0.000000
# 6 0.000000 0.000000 0.000000 0.000000 0.000000 0.019979
#
#
# Mechanical properties :
#
#
# Convention : Reuss Voigt Hill
#
# Bulk Modulus (GPa) = 47.28841 57.88216 52.58528
# Shear Modulus (GPa) = 27.47259 35.08016 31.27637
#
# Velocity S-wave (km/s) = 3.41085 3.85429 3.63933
# Velocity P-wave (km/s) = 5.96132 6.65725 6.31887
#
# Compressibility (1/GPa) = 0.02114683
#
# Stress axis : x y z
#
# Youngs Moduli (GPa) = 121.71214 62.29732 80.03387
#
# Poissons Ratio (x) = 0.15685 0.32329
# Poissons Ratio (y) = 0.30644 0.10012
# Poissons Ratio (z) = 0.49164 0.07793
#
# Static dielectric constant tensor:
#      x y z
#    x 2.027560 0.000000 0.000000 
#    y 0.000000 2.037900 0.000000 
#    z 0.000000 0.000000 1.908070 
# 
# From -- ./inp_files/2423.got.cif
#   From: 2010.05.17/outbox.cif.g08.bks.cpg/sg27_2_cif.got.tgz:2423.got - 2010.06.04 01:11:05.
