data_PCOD9339447
_publ_section_title
;
Structure prediction by ZEFSAII (Michael W. Deem and Ramdas Pophale) SiO2 
 PCOD9339447
Probable space group: P M A 2
;
_chemical_formula_sum "Si O2"
_cell_formula_units_Z 32
_cell_length_a 14.282970
_cell_length_b 11.695144
_cell_length_c 9.555302
_cell_angle_alpha 90.000000
_cell_angle_beta 90.000000
_cell_angle_gamma 90.000000
_cell_volume 1596.130937
_symmetry_space_group_name_H-M "P M A 2"
_symmetry_group_IT_number 28
_symmetry_cell_setting 'orthorhombic'
loop_
_space_group_symop_operation_xyz
x,y,z
-x,-y,z
1/2-x,y,z
1/2+x,-y,z
loop_
_atom_site_type_symbol
_atom_site_label
_atom_site_fract_x
_atom_site_fract_y
_atom_site_fract_z
Si Si1 0.997694 0.755182 0.253810
Si Si2 0.639100 0.343057 0.028956
Si Si3 0.851322 0.956768 0.249513
Si Si4 0.926571 0.103125 0.497283
Si Si5 0.858248 0.603228 0.116488
Si Si6 0.557552 0.213858 0.778206
Si Si7 0.144972 0.232192 0.846910
Si Si8 0.852329 0.030204 0.944674
O O1 0.934250 0.867437 0.227131
O O2 0.926999 0.649120 0.235951
O O3 0.078248 0.727955 0.141423
O O4 0.035803 0.790381 0.405129
O O5 0.750000 0.321859 0.043392
O O6 0.621202 0.475714 0.064444
O O7 0.606016 0.311620 0.871698
O O8 0.750000 0.897244 0.252499
O O9 0.862377 0.033136 0.387974
O O10 0.853909 0.032528 0.111401
O O11 0.894478 0.163922 0.639032
O O12 0.000000 0.000000 0.536308
O O13 0.750000 0.607410 0.160845
O O14 0.868838 0.688355 0.983463
O O15 0.448289 0.243784 0.753377
O O16 0.566420 0.105846 0.882087
O O17 0.250000 0.256853 0.789245
O O18 0.145970 0.100765 0.896598
O O19 0.750000 0.076704 0.898924
#
# Coordination Sequence:
#
# PCOD9339447 Si02
#       8
#     4   4   4   4   4   4   4   4
#     4  11  20  38  63  89 121 160 207 261 311 369
#     4  11  24  39  64  93 120 158 210 266 325 376
#     4  10  20  36  59  91 125 165 208 254 309 372
#     4  10  24  37  55  88 129 170 206 243 307 376
#     4  10  20  38  65  95 117 147 205 269 318 363
#     4  12  22  38  57  86 129 163 201 249 313 383
#     4  10  20  34  60  90 114 152 203 260 311 361
#     4  10  19  32  56  89 119 153 200 251 310 370
#
# _framework density 20.048480000000001
#
# number of rings (size 3 to 8) (size 9 to 14) (size 15 to 20)
#    0.000    1.500    2.500    3.000    0.000    3.500 
#    0.000    4.375    5.500    0.750    0.000    0.000 
#    0.000    0.000    0.000    0.000    0.000    0.000 
#
# Total GULP energy -178422.267087 kJ/mol
# GULP energy per Si atom -5575.695846 kJ/mol
# Density = 2.000285 g / cm^3
# Si number density = 20.048480 Si / 1000 Ang^3
#
#
#
# Elastic Constant Matrix: (Units=GPa)
#
#
# Indices 1 2 3 4 5 6 
#
# 1 109.0926 27.4412 25.8913 0.0000 0.0000 0.0000
# 2 27.4412 106.7567 23.7728 0.0000 0.0000 0.0000
# 3 25.8913 23.7728 80.2632 0.0000 0.0000 0.0000
# 4 0.0000 0.0000 0.0000 19.2487 0.0000 0.0000
# 5 0.0000 0.0000 0.0000 0.0000 11.4070 0.0000
# 6 0.0000 0.0000 0.0000 0.0000 0.0000 27.0275
#
#
#
# Elastic Compliance Matrix: (Units=1/GPa)
#
#
# Indices 1 2 3 4 5 6 
#
# 1 0.010328 -0.002048 -0.002725 0.000000 0.000000 0.000000
# 2 -0.002048 0.010435 -0.002430 0.000000 0.000000 0.000000
# 3 -0.002725 -0.002430 0.014058 0.000000 0.000000 0.000000
# 4 0.000000 0.000000 0.000000 0.051952 0.000000 0.000000
# 5 0.000000 0.000000 0.000000 0.000000 0.087665 0.000000
# 6 0.000000 0.000000 0.000000 0.000000 0.000000 0.036999
#
#
# Mechanical properties :
#
#
# Convention : Reuss Voigt Hill
#
# Bulk Modulus (GPa) = 48.98444 50.03592 49.51018
# Shear Modulus (GPa) = 21.49166 26.13711 23.81438
#
# Velocity S-wave (km/s) = 3.27767 3.61459 3.45024
# Velocity P-wave (km/s) = 6.22978 6.51398 6.37347
#
# Compressibility (1/GPa) = 0.02041464
#
# Stress axis : x y z
#
# Youngs Moduli (GPa) = 96.81989 95.83473 71.13488
#
# Poissons Ratio (x) = 0.19627 0.19385
# Poissons Ratio (y) = 0.19829 0.17285
# Poissons Ratio (z) = 0.26385 0.23287
#
# Static dielectric constant tensor:
#      x y z
#    x 1.809920 0.000000 0.000000 
#    y 0.000000 1.713020 0.000000 
#    z 0.000000 0.000000 1.693270 
# 
# From -- ./inp_files/3567.got.cif
#   From: 2010.05.17/outbox.cif.g08.bks.cpg/sg28_2_cif.got.tgz:3567.got - 2010.06.04 01:15:21.
