data_PCOD9339342
_publ_section_title
;
Structure prediction by ZEFSAII (Michael W. Deem and Ramdas Pophale) SiO2 
 PCOD9339342
Probable space group: P M A 2
;
_chemical_formula_sum "Si O2"
_cell_formula_units_Z 32
_cell_length_a 16.555653
_cell_length_b 8.185714
_cell_length_c 10.270362
_cell_angle_alpha 90.000000
_cell_angle_beta 90.000000
_cell_angle_gamma 90.000000
_cell_volume 1391.837821
_symmetry_space_group_name_H-M "P M A 2"
_symmetry_group_IT_number 28
_symmetry_cell_setting 'orthorhombic'
loop_
_space_group_symop_operation_xyz
x,y,z
-x,-y,z
1/2-x,y,z
1/2+x,-y,z
loop_
_atom_site_type_symbol
_atom_site_label
_atom_site_fract_x
_atom_site_fract_y
_atom_site_fract_z
Si Si1 0.343821 0.942122 0.127730
Si Si2 0.924644 0.890358 0.782772
Si Si3 0.660985 0.191893 0.833877
Si Si4 0.513126 0.822042 0.492614
Si Si5 0.662333 0.620460 0.436684
Si Si6 0.155901 0.601376 0.185126
Si Si7 0.084978 0.590414 0.634341
Si Si8 0.650564 0.711195 0.019496
O O1 0.250000 0.960344 0.169676
O O2 0.381404 0.783563 0.199640
O O3 0.372081 0.129900 0.109854
O O4 0.347747 0.865607 0.981560
O O5 0.952971 0.838196 0.641068
O O6 0.853797 0.021565 0.760497
O O7 0.893013 0.754191 0.882584
O O8 0.000000 0.000000 0.838183
O O9 0.750000 0.256681 0.814051
O O10 0.603576 0.324658 0.770283
O O11 0.583437 0.729717 0.418376
O O12 0.431188 0.725187 0.521556
O O13 0.500000 0.000000 0.437660
O O14 0.750000 0.703329 0.429958
O O15 0.658302 0.489246 0.322088
O O16 0.651010 0.530701 0.575530
O O17 0.250000 0.627552 0.145939
O O18 0.125880 0.462905 0.082266
O O19 0.000000 0.500000 0.641959
O O20 0.750000 0.714079 0.006170
#
# Coordination Sequence:
#
# PCOD9339342 Si02
#       8
#     4   4   4   4   4   4   4   4
#     4   8  16  31  53  81 112 142 179 229 286 342
#     4  10  18  33  56  82 118 148 179 230 291 350
#     4  10  18  32  56  87 114 146 191 231 279 352
#     4  10  20  39  58  79 115 160 183 228 303 350
#     4  10  22  38  58  84 112 146 204 252 275 338
#     4   9  18  36  56  79 113 148 188 244 292 329
#     4  10  20  36  57  77 116 155 182 228 295 344
#     4   9  18  33  57  85 114 149 185 231 290 348
#
# _framework density 22.991185000000002
#
# number of rings (size 3 to 8) (size 9 to 14) (size 15 to 20)
#    0.000    2.500    2.500    1.500    0.000    3.000 
#    2.250    1.875   13.750    0.000    0.000    0.000 
#    0.000    0.000    0.000    0.000    0.000    0.000 
#
# Total GULP energy -178296.699089 kJ/mol
# GULP energy per Si atom -5571.771847 kJ/mol
# Density = 2.293886 g / cm^3
# Si number density = 22.991185 Si / 1000 Ang^3
#
#
#
# Elastic Constant Matrix: (Units=GPa)
#
#
# Indices 1 2 3 4 5 6 
#
# 1 33.3255 -8.1301 4.2036 0.0000 0.0000 0.0000
# 2 -8.1301 67.6861 -4.8556 0.0000 0.0000 0.0000
# 3 4.2036 -4.8556 36.9184 0.0000 0.0000 0.0000
# 4 0.0000 0.0000 0.0000 35.5942 0.0000 0.0000
# 5 0.0000 0.0000 0.0000 0.0000 -5.5956 0.0000
# 6 0.0000 0.0000 0.0000 0.0000 0.0000 19.3612
#
#
#
# Elastic Compliance Matrix: (Units=1/GPa)
#
#
# Indices 1 2 3 4 5 6 
#
# 1 0.031259 0.003533 -0.003095 0.000000 0.000000 0.000000
# 2 0.003533 0.015314 0.001612 0.000000 0.000000 0.000000
# 3 -0.003095 0.001612 0.027651 0.000000 0.000000 0.000000
# 4 0.000000 0.000000 0.000000 0.028094 0.000000 0.000000
# 5 0.000000 0.000000 0.000000 0.000000 -0.178711 0.000000
# 6 0.000000 0.000000 0.000000 0.000000 0.000000 0.051650
#
#
# Mechanical properties :
#
#
# Convention : Reuss Voigt Hill
#
# Bulk Modulus (GPa) = 12.76741 13.37398 13.07070
# Shear Modulus (GPa) = -1828.56246 19.65276 -904.45485
#
# Velocity S-wave (km/s) = -28.23223 2.92686 -19.85563
# Velocity P-wave (km/s) = 32.51430 4.15351 22.80272
#
# Compressibility (1/GPa) = 0.07832440
#
# Stress axis : x y z
#
# Youngs Moduli (GPa) = 31.99052 65.29954 36.16488
#
# Poissons Ratio (x) = -0.23068 0.11192
# Poissons Ratio (y) = -0.11301 -0.05829
# Poissons Ratio (z) = 0.09900 -0.10526
#
# Static dielectric constant tensor:
#      x y z
#    x 1.972980 0.000000 0.000000 
#    y 0.000000 1.993150 0.000000 
#    z 0.000000 0.000000 1.878030 
# 
# From -- ./inp_files/5726.got.cif
#   From: 2010.05.17/outbox.cif.g08.bks.cpg/sg28_3_cif.got.tgz:5726.got - 2010.06.04 01:15:21.
