data_PCOD9339000
_publ_section_title
;
Structure prediction by ZEFSAII (Michael W. Deem and Ramdas Pophale) SiO2 
 PCOD9339000
Probable space group: P C C 2
;
_chemical_formula_sum "Si O2"
_cell_formula_units_Z 26
_cell_length_a 5.016984
_cell_length_b 18.941252
_cell_length_c 11.514692
_cell_angle_alpha 90.000000
_cell_angle_beta 90.000000
_cell_angle_gamma 90.000000
_cell_volume 1094.217670
_symmetry_space_group_name_H-M "P C C 2"
_symmetry_group_IT_number 27
_symmetry_cell_setting 'orthorhombic'
loop_
_space_group_symop_operation_xyz
x,y,z
-x,-y,z
-x,y,1/2+z
x,-y,1/2+z
loop_
_atom_site_type_symbol
_atom_site_label
_atom_site_fract_x
_atom_site_fract_y
_atom_site_fract_z
Si Si1 0.721662 0.373441 0.296680
Si Si2 0.034575 0.154745 0.299707
Si Si3 0.261115 0.259642 0.969698
Si Si4 0.000000 0.000000 0.804118
Si Si5 0.500000 0.000000 0.134306
Si Si6 0.792714 0.642306 0.163223
Si Si7 0.000000 0.500000 0.213816
Si Si8 0.462618 0.153604 0.630749
O O1 0.616457 0.326812 0.401573
O O2 0.516914 0.355959 0.193600
O O3 0.020904 0.345515 0.274793
O O4 0.783444 0.457323 0.291833
O O5 0.926981 0.211234 0.391155
O O6 0.822578 0.156709 0.192882
O O7 0.320864 0.163581 0.236420
O O8 0.018924 0.077084 0.361150
O O9 0.113775 0.300604 0.072526
O O10 0.477032 0.210393 0.032532
O O11 0.749348 0.997875 0.719475
O O12 0.495645 0.075805 0.074101
O O13 0.867642 0.561065 0.136620
#
# Coordination Sequence:
#
# PCOD9339000 Si02
#       8
#     4   4   4   2   2   4   2   4
#     4  10  23  42  65  92 129 165 213 265 317 387
#     4  10  22  40  62  90 128 164 212 261 313 380
#     4  12  24  39  67  98 128 170 210 272 333 373
#     4   8  16  36  60  82 116 164 198 250 306 358
#     4   8  16  36  60  82 116 164 198 250 306 358
#     4  10  23  42  65  92 129 165 212 265 317 388
#     4   8  22  46  66  84 136 162 214 266 314 396
#     4  10  22  40  62  90 128 164 213 259 314 380
#
# _framework density 23.76127
#
# number of rings (size 3 to 8) (size 9 to 14) (size 15 to 20)
#    0.923    1.231    0.000    2.308    0.000    5.538 
#    0.000   10.769    0.000    0.000    0.000    0.000 
#    0.000    0.000    0.000    0.000    0.000    0.000 
#
# Total GULP energy -144911.151913 kJ/mol
# GULP energy per Si atom -5573.505843 kJ/mol
# Density = 2.370719 g / cm^3
# Si number density = 23.761270 Si / 1000 Ang^3
#
#
#
# Elastic Constant Matrix: (Units=GPa)
#
#
# Indices 1 2 3 4 5 6 
#
# 1 102.1271 6.3687 -1.6856 0.0000 0.0000 0.0000
# 2 6.3687 169.9571 28.2884 0.0000 0.0000 0.0000
# 3 -1.6856 28.2884 9.8285 0.0000 0.0000 0.0000
# 4 0.0000 0.0000 0.0000 -0.5921 0.0000 0.0000
# 5 0.0000 0.0000 0.0000 0.0000 5.2821 0.0000
# 6 0.0000 0.0000 0.0000 0.0000 0.0000 27.7089
#
#
#
# Elastic Compliance Matrix: (Units=1/GPa)
#
#
# Indices 1 2 3 4 5 6 
#
# 1 0.009959 -0.001262 0.005340 0.000000 0.000000 0.000000
# 2 -0.001262 0.011455 -0.033185 0.000000 0.000000 0.000000
# 3 0.005340 -0.033185 0.198173 0.000000 0.000000 0.000000
# 4 0.000000 0.000000 0.000000 -1.688918 0.000000 0.000000
# 5 0.000000 0.000000 0.000000 0.000000 0.189320 0.000000
# 6 0.000000 0.000000 0.000000 0.000000 0.000000 0.036090
#
#
# Mechanical properties :
#
#
# Convention : Reuss Voigt Hill
#
# Bulk Modulus (GPa) = 6.19683 38.65062 22.42373
# Shear Modulus (GPa) = -4.41728 23.07586 9.32929
#
# Velocity S-wave (km/s) = -1.36494 3.11972 1.98363
# Velocity P-wave (km/s) = 0.35991 5.41095 3.83457
#
# Compressibility (1/GPa) = 0.16137270
#
# Stress axis : x y z
#
# Youngs Moduli (GPa) = 100.41603 87.30163 5.04611
#
# Poissons Ratio (x) = 0.11018 -0.02695
# Poissons Ratio (y) = 0.12673 0.16745
# Poissons Ratio (z) = -0.53625 2.89709
#
# Static dielectric constant tensor:
#      x y z
#    x 1.889000 0.000000 0.000000 
#    y 0.000000 2.030100 0.000000 
#    z 0.000000 0.000000 1.946770 
# 
# From -- ./inp_files/2083.got.cif
#   From: 2010.05.17/outbox.cif.g08.bks.cpg/sg27_2_cif.got.tgz:2083.got - 2010.06.04 01:11:05.
