data_PCOD9339595
_publ_section_title
;
Structure prediction by ZEFSAII (Michael W. Deem and Ramdas Pophale) SiO2 
 PCOD9339595
Probable space group: P M A 2
;
_chemical_formula_sum "Si O2"
_cell_formula_units_Z 28
_cell_length_a 8.615535
_cell_length_b 9.352089
_cell_length_c 18.751727
_cell_angle_alpha 90.000000
_cell_angle_beta 90.000000
_cell_angle_gamma 90.000000
_cell_volume 1510.887589
_symmetry_space_group_name_H-M "P M A 2"
_symmetry_group_IT_number 28
_symmetry_cell_setting 'orthorhombic'
loop_
_space_group_symop_operation_xyz
x,y,z
-x,-y,z
1/2-x,y,z
1/2+x,-y,z
loop_
_atom_site_type_symbol
_atom_site_label
_atom_site_fract_x
_atom_site_fract_y
_atom_site_fract_z
Si Si1 0.062965 0.838724 0.274010
Si Si2 0.063271 0.340125 0.831271
Si Si3 0.562844 0.339369 0.412469
Si Si4 0.435938 0.837700 0.117083
Si Si5 0.935840 0.839329 0.546126
Si Si6 0.435506 0.160742 0.970344
Si Si7 0.935797 0.338300 0.678807
O O1 0.250000 0.847708 0.275118
O O2 0.013986 0.738615 0.339045
O O3 0.018403 0.780495 0.195290
O O4 0.000000 0.000000 0.282505
O O5 0.250000 0.343007 0.825001
O O6 0.019261 0.247153 0.899860
O O7 0.000000 0.500000 0.841252
O O8 0.992008 0.287097 0.756705
O O9 0.500000 0.500000 0.415128
O O10 0.750000 0.340789 0.416005
O O11 0.497390 0.249270 0.478469
O O12 0.250000 0.840083 0.112121
O O13 0.500000 0.000000 0.117748
O O14 0.502641 0.772348 0.044452
O O15 0.750000 0.841077 0.546015
O O16 0.997298 0.760892 0.616912
O O17 0.000000 0.000000 0.542828
O O18 0.250000 0.154716 0.974259
O O19 0.500000 0.000000 0.964947
O O20 0.750000 0.341714 0.675915
O O21 0.000000 0.500000 0.669777
#
# Coordination Sequence:
#
# PCOD9339595 Si02
#       7
#     4   4   4   4   4   4   4
#     4   9  19  34  55  81 109 141 181 228 276 327
#     4  10  21  37  56  80 110 145 186 228 273 327
#     4  11  23  40  59  83 114 149 188 228 275 329
#     4   9  16  29  50  76 106 141 180 224 274 326
#     4  12  25  42  62  87 116 146 183 227 275 326
#     4  10  20  33  52  79 109 142 182 227 274 326
#     4  11  22  39  62  86 113 148 186 226 275 329
#
# _framework density 18.532153000000001
#
# number of rings (size 3 to 8) (size 9 to 14) (size 15 to 20)
#    0.000    1.714    0.000    6.857    0.000    5.714 
#    0.000    2.143    0.000    3.429    0.000    0.000 
#    0.000    0.000    0.000    0.000    0.000    0.000 
#
# Total GULP energy -156365.325857 kJ/mol
# GULP energy per Si atom -5584.475923 kJ/mol
# Density = 1.848997 g / cm^3
# Si number density = 18.532153 Si / 1000 Ang^3
#
#
#
# Elastic Constant Matrix: (Units=GPa)
#
#
# Indices 1 2 3 4 5 6 
#
# 1 99.4428 40.8576 73.2150 0.0000 0.0000 0.0000
# 2 40.8576 94.3872 101.7027 0.0000 0.0000 0.0000
# 3 73.2150 101.7027 231.1847 0.0000 0.0000 0.0000
# 4 0.0000 0.0000 0.0000 71.2017 0.0000 0.0000
# 5 0.0000 0.0000 0.0000 0.0000 40.6020 0.0000
# 6 0.0000 0.0000 0.0000 0.0000 0.0000 20.1797
#
#
#
# Elastic Compliance Matrix: (Units=1/GPa)
#
#
# Indices 1 2 3 4 5 6 
#
# 1 0.013378 -0.002331 -0.003211 0.000000 0.000000 0.000000
# 2 -0.002331 0.020549 -0.008302 0.000000 0.000000 0.000000
# 3 -0.003211 -0.008302 0.008995 0.000000 0.000000 0.000000
# 4 0.000000 0.000000 0.000000 0.014045 0.000000 0.000000
# 5 0.000000 0.000000 0.000000 0.000000 0.024629 0.000000
# 6 0.000000 0.000000 0.000000 0.000000 0.000000 0.049555
#
#
# Mechanical properties :
#
#
# Convention : Reuss Voigt Hill
#
# Bulk Modulus (GPa) = 65.64329 95.17393 80.40861
# Shear Modulus (GPa) = 30.50355 40.34598 35.42477
#
# Velocity S-wave (km/s) = 4.06147 4.67098 4.37685
# Velocity P-wave (km/s) = 7.58236 8.97543 8.30815
#
# Compressibility (1/GPa) = 0.01523385
#
# Stress axis : x y z
#
# Youngs Moduli (GPa) = 74.74930 48.66518 111.17704
#
# Poissons Ratio (x) = 0.11342 0.35704
# Poissons Ratio (y) = 0.17421 0.92295
# Poissons Ratio (z) = 0.24006 0.40400
#
# Static dielectric constant tensor:
#      x y z
#    x 1.622710 0.000000 0.000000 
#    y 0.000000 1.588320 0.000000 
#    z 0.000000 0.000000 1.670240 
# 
# From -- ./inp_files/7020.got.cif
#   From: 2010.05.17/outbox.cif.g08.bks.cpg/sg28_4_cif.got.tgz:7020.got - 2010.06.04 01:15:21.
