data_PCOD9339682
_publ_section_title
;
Structure prediction by ZEFSAII (Michael W. Deem and Ramdas Pophale) SiO2 
 PCOD9339682
Probable space group: P M A 2
;
_chemical_formula_sum "Si O2"
_cell_formula_units_Z 32
_cell_length_a 15.449746
_cell_length_b 5.147743
_cell_length_c 18.858941
_cell_angle_alpha 90.000000
_cell_angle_beta 90.000000
_cell_angle_gamma 90.000000
_cell_volume 1499.876506
_symmetry_space_group_name_H-M "P M A 2"
_symmetry_group_IT_number 28
_symmetry_cell_setting 'orthorhombic'
loop_
_space_group_symop_operation_xyz
x,y,z
-x,-y,z
1/2-x,y,z
1/2+x,-y,z
loop_
_atom_site_type_symbol
_atom_site_label
_atom_site_fract_x
_atom_site_fract_y
_atom_site_fract_z
Si Si1 0.646039 0.246269 0.119670
Si Si2 0.853961 0.753649 0.035321
Si Si3 0.851043 0.918169 0.501614
Si Si4 0.350704 0.437666 0.746198
Si Si5 0.056350 0.740645 0.265556
Si Si6 0.149296 0.562313 0.408791
Si Si7 0.056351 0.259354 0.889436
Si Si8 0.851044 0.081853 0.653375
O O1 0.750000 0.248937 0.115330
O O2 0.614931 0.499945 0.077489
O O3 0.622351 0.214061 0.201730
O O4 0.611463 0.999943 0.077503
O O5 0.750000 0.750976 0.039662
O O6 0.877648 0.785924 0.953263
O O7 0.750000 0.841277 0.515843
O O8 0.851834 0.177984 0.455516
O O9 0.889735 0.000011 0.577495
O O10 0.887363 0.678524 0.455345
O O11 0.250000 0.501338 0.763307
O O12 0.399885 0.366320 0.817864
O O13 0.387364 0.678502 0.699644
O O14 0.351835 0.177961 0.699474
O O15 0.100114 0.633664 0.337126
O O16 0.000000 0.500000 0.238882
O O17 0.000000 0.000000 0.278781
O O18 0.250000 0.498640 0.391682
O O19 0.000000 0.500000 0.916106
O O20 0.000000 0.000000 0.876214
O O21 0.750000 0.158743 0.639147
#
# Coordination Sequence:
#
# PCOD9339682 Si02
#       8
#     4   4   4   4   4   4   4   4
#     4  10  22  41  64  88 115 150 195 245 296 353
#     4  10  22  41  64  88 115 150 195 245 296 353
#     4   9  17  31  56  88 114 141 188 245 291 336
#     4  10  20  36  58  83 115 153 192 237 290 348
#     4  12  25  39  58  85 120 158 196 241 291 350
#     4  10  20  36  58  83 115 153 192 237 290 348
#     4  12  25  39  58  85 120 158 196 241 291 350
#     4   9  17  31  56  88 114 141 188 245 291 336
#
# _framework density 21.335090999999998
#
# number of rings (size 3 to 8) (size 9 to 14) (size 15 to 20)
#    0.000    1.750    0.000    4.500    0.000    6.000 
#    0.000   10.000    0.000   11.250    0.000    0.000 
#    0.000    0.000    0.000    0.000    0.000    0.000 
#
# Total GULP energy -178732.054780 kJ/mol
# GULP energy per Si atom -5585.376712 kJ/mol
# Density = 2.128653 g / cm^3
# Si number density = 21.335091 Si / 1000 Ang^3
#
#
#
# Elastic Constant Matrix: (Units=GPa)
#
#
# Indices 1 2 3 4 5 6 
#
# 1 30.5802 24.8383 25.0900 0.0000 0.0000 0.0000
# 2 24.8383 165.7797 61.1912 0.0000 0.0000 0.0000
# 3 25.0900 61.1912 161.4795 0.0000 0.0000 0.0000
# 4 0.0000 0.0000 0.0000 96.3264 0.0000 0.0000
# 5 0.0000 0.0000 0.0000 0.0000 -31.2812 0.0000
# 6 0.0000 0.0000 0.0000 0.0000 0.0000 6.6084
#
#
#
# Elastic Compliance Matrix: (Units=1/GPa)
#
#
# Indices 1 2 3 4 5 6 
#
# 1 0.039946 -0.004295 -0.004579 0.000000 0.000000 0.000000
# 2 -0.004295 0.007475 -0.002165 0.000000 0.000000 0.000000
# 3 -0.004579 -0.002165 0.007725 0.000000 0.000000 0.000000
# 4 0.000000 0.000000 0.000000 0.010381 0.000000 0.000000
# 5 0.000000 0.000000 0.000000 0.000000 -0.031968 0.000000
# 6 0.000000 0.000000 0.000000 0.000000 0.000000 0.151322
#
#
# Mechanical properties :
#
#
# Convention : Reuss Voigt Hill
#
# Bulk Modulus (GPa) = 30.24121 64.45313 47.34717
# Shear Modulus (GPa) = 22.93768 30.77873 26.85820
#
# Velocity S-wave (km/s) = 3.28245 3.80232 3.55191
# Velocity P-wave (km/s) = 5.34520 7.03934 6.24994
#
# Compressibility (1/GPa) = 0.03306746
#
# Stress axis : x y z
#
# Youngs Moduli (GPa) = 25.03354 133.78328 129.45465
#
# Poissons Ratio (x) = 0.57457 0.59280
# Poissons Ratio (y) = 0.10751 0.28029
# Poissons Ratio (z) = 0.11463 0.28967
#
# Static dielectric constant tensor:
#      x y z
#    x 1.803450 0.000000 0.000000 
#    y 0.000000 1.743590 0.000000 
#    z 0.000000 0.000000 1.728240 
# 
# From -- ./inp_files/6983.got.cif
#   From: 2010.05.17/outbox.cif.g08.bks.cpg/sg28_4_cif.got.tgz:6983.got - 2010.06.04 01:15:21.
