data_PCOD9339834
_publ_section_title
;
Structure prediction by ZEFSAII (Michael W. Deem and Ramdas Pophale) SiO2 
 PCOD9339834
Probable space group: P M A 2
;
_chemical_formula_sum "Si O2"
_cell_formula_units_Z 20
_cell_length_a 17.705690
_cell_length_b 7.773095
_cell_length_c 6.740311
_cell_angle_alpha 90.000000
_cell_angle_beta 90.000000
_cell_angle_gamma 90.000000
_cell_volume 927.655592
_symmetry_space_group_name_H-M "P M A 2"
_symmetry_group_IT_number 28
_symmetry_cell_setting 'orthorhombic'
loop_
_space_group_symop_operation_xyz
x,y,z
-x,-y,z
1/2-x,y,z
1/2+x,-y,z
loop_
_atom_site_type_symbol
_atom_site_label
_atom_site_fract_x
_atom_site_fract_y
_atom_site_fract_z
Si Si1 0.582548 0.973807 0.219640
Si Si2 0.094272 0.411965 0.175951
Si Si3 0.250000 0.691247 0.678622
Si Si4 0.250000 0.388744 0.981397
Si Si5 0.911489 0.290827 0.484992
Si Si6 0.250000 0.991821 0.008464
Si Si7 0.500000 0.500000 0.807138
O O1 0.574999 0.101014 0.404838
O O2 0.666102 0.016929 0.120279
O O3 0.500000 0.000000 0.108936
O O4 0.584568 0.772973 0.276310
O O5 0.072529 0.576163 0.305555
O O6 0.180409 0.431209 0.120159
O O7 0.055671 0.407938 0.960642
O O8 0.250000 0.510376 0.792673
O O9 0.175423 0.701002 0.548127
O O10 0.250000 0.843353 0.843192
O O11 0.250000 0.187278 0.926956
O O12 0.959108 0.360835 0.669788
#
# Coordination Sequence:
#
# PCOD9339834 Si02
#       7
#     4   4   2   2   4   2   2
#     4  11  24  46  72 101 144 190 229 298 364 418
#     4  11  24  46  70  99 142 184 235 289 357 431
#     4  12  24  44  70 104 141 182 237 306 357 419
#     4  10  21  45  71  96 133 194 224 285 366 417
#     4  12  26  44  71 108 136 184 243 296 353 431
#     4  10  25  43  71 108 138 186 249 285 355 452
#     4  12  24  44  72 102 144 180 244 288 350 452
#
# _framework density 21.559726000000001
#
# number of rings (size 3 to 8) (size 9 to 14) (size 15 to 20)
#    0.000    0.800    2.000    5.400    2.800    1.600 
#    7.200    2.000    0.000    0.000    0.000    0.000 
#    0.000    0.000    0.000    0.000    0.000    0.000 
#
# Total GULP energy -111649.284813 kJ/mol
# GULP energy per Si atom -5582.464241 kJ/mol
# Density = 2.151066 g / cm^3
# Si number density = 21.559726 Si / 1000 Ang^3
#
#
#
# Elastic Constant Matrix: (Units=GPa)
#
#
# Indices 1 2 3 4 5 6 
#
# 1 160.0207 34.7290 40.2629 0.0000 0.0000 0.0000
# 2 34.7290 134.6008 72.6721 0.0000 0.0000 0.0000
# 3 40.2629 72.6721 99.8046 0.0000 0.0000 0.0000
# 4 0.0000 0.0000 0.0000 35.4089 0.0000 0.0000
# 5 0.0000 0.0000 0.0000 0.0000 26.7472 0.0000
# 6 0.0000 0.0000 0.0000 0.0000 0.0000 48.3478
#
#
#
# Elastic Compliance Matrix: (Units=1/GPa)
#
#
# Indices 1 2 3 4 5 6 
#
# 1 0.006973 -0.000462 -0.002476 0.000000 0.000000 0.000000
# 2 -0.000462 0.012273 -0.008750 0.000000 0.000000 0.000000
# 3 -0.002476 -0.008750 0.017390 0.000000 0.000000 0.000000
# 4 0.000000 0.000000 0.000000 0.028242 0.000000 0.000000
# 5 0.000000 0.000000 0.000000 0.000000 0.037387 0.000000
# 6 0.000000 0.000000 0.000000 0.000000 0.000000 0.020683
#
#
# Mechanical properties :
#
#
# Convention : Reuss Voigt Hill
#
# Bulk Modulus (GPa) = 75.42403 76.63934 76.03169
# Shear Modulus (GPa) = 33.16891 38.55156 35.86024
#
# Velocity S-wave (km/s) = 3.92658 4.23321 4.08278
# Velocity P-wave (km/s) = 7.45769 7.71480 7.58733
#
# Compressibility (1/GPa) = 0.01325837
#
# Stress axis : x y z
#
# Youngs Moduli (GPa) = 143.41945 81.48132 57.50476
#
# Poissons Ratio (x) = 0.03764 0.14241
# Poissons Ratio (y) = 0.06625 0.50316
# Poissons Ratio (z) = 0.35518 0.71296
#
# Static dielectric constant tensor:
#      x y z
#    x 1.899390 0.000000 0.000000 
#    y 0.000000 1.742490 0.000000 
#    z 0.000000 0.000000 1.741050 
# 
# From -- ./inp_files/1097.got.cif
#   From: 2010.05.17/outbox.cif.g08.bks.cpg/sg28_1_cif.got.tgz:1097.got - 2010.06.04 01:15:21.
