data_PCOD9339661
_publ_section_title
;
Structure prediction by ZEFSAII (Michael W. Deem and Ramdas Pophale) SiO2 
 PCOD9339661
Probable space group: P M A 2
;
_chemical_formula_sum "Si O2"
_cell_formula_units_Z 24
_cell_length_a 8.665647
_cell_length_b 9.194982
_cell_length_c 15.978938
_cell_angle_alpha 90.000000
_cell_angle_beta 90.000000
_cell_angle_gamma 90.000000
_cell_volume 1273.209261
_symmetry_space_group_name_H-M "P M A 2"
_symmetry_group_IT_number 28
_symmetry_cell_setting 'orthorhombic'
loop_
_space_group_symop_operation_xyz
x,y,z
-x,-y,z
1/2-x,y,z
1/2+x,-y,z
loop_
_atom_site_type_symbol
_atom_site_label
_atom_site_fract_x
_atom_site_fract_y
_atom_site_fract_z
Si Si1 0.064961 0.835649 0.506610
Si Si2 0.934836 0.163986 0.692066
Si Si3 0.934546 0.835170 0.333503
Si Si4 0.565195 0.337244 0.175051
Si Si5 0.435608 0.162783 0.016535
Si Si6 0.934613 0.661612 0.848600
O O1 0.250000 0.838611 0.496816
O O2 0.027253 0.775607 0.598870
O O3 0.989470 0.771535 0.423148
O O4 0.000000 0.000000 0.509485
O O5 0.750000 0.156451 0.698284
O O6 0.001183 0.261552 0.765750
O O7 0.000000 0.000000 0.699195
O O8 0.750000 0.840539 0.330364
O O9 0.001245 0.742193 0.257558
O O10 0.000000 0.000000 0.327050
O O11 0.500000 0.500000 0.171084
O O12 0.750000 0.339413 0.176702
O O13 0.506482 0.249008 0.094462
O O14 0.250000 0.160274 0.024294
O O15 0.500000 0.000000 0.015301
O O16 0.476831 0.244179 0.930283
O O17 0.750000 0.655752 0.843830
O O18 0.000000 0.500000 0.856743
#
# Coordination Sequence:
#
# PCOD9339661 Si02
#       6
#     4   4   4   4   4   4
#     4   9  17  31  53  83 115 150 192 241 290 338
#     4  10  20  35  58  86 118 153 195 242 289 341
#     4  11  21  36  59  87 118 154 195 241 288 340
#     4  12  25  42  62  86 118 154 191 236 288 346
#     4  11  24  42  64  91 118 150 191 237 285 338
#     4  11  24  40  60  85 118 155 193 237 289 345
#
# _framework density 18.850002
#
# number of rings (size 3 to 8) (size 9 to 14) (size 15 to 20)
#    0.000    1.333    0.000    7.500    0.000    7.333 
#    0.000    0.833    0.000    4.000    0.000    0.000 
#    0.000    0.000    0.000    0.000    0.000    0.000 
#
# Total GULP energy -134148.785378 kJ/mol
# GULP energy per Si atom -5589.532724 kJ/mol
# Density = 1.880710 g / cm^3
# Si number density = 18.850002 Si / 1000 Ang^3
#
#
#
# Elastic Constant Matrix: (Units=GPa)
#
#
# Indices 1 2 3 4 5 6 
#
# 1 129.7504 61.2029 96.6569 0.0000 0.0000 0.0000
# 2 61.2029 133.3622 103.9227 0.0000 0.0000 0.0000
# 3 96.6569 103.9227 225.7492 0.0000 0.0000 0.0000
# 4 0.0000 0.0000 0.0000 -30.8675 0.0000 0.0000
# 5 0.0000 0.0000 0.0000 0.0000 35.9911 0.0000
# 6 0.0000 0.0000 0.0000 0.0000 0.0000 31.2732
#
#
#
# Elastic Compliance Matrix: (Units=1/GPa)
#
#
# Indices 1 2 3 4 5 6 
#
# 1 0.011751 -0.002296 -0.003974 0.000000 0.000000 0.000000
# 2 -0.002296 0.012141 -0.004606 0.000000 0.000000 0.000000
# 3 -0.003974 -0.004606 0.008252 0.000000 0.000000 0.000000
# 4 0.000000 0.000000 0.000000 -0.032397 0.000000 0.000000
# 5 0.000000 0.000000 0.000000 0.000000 0.027785 0.000000
# 6 0.000000 0.000000 0.000000 0.000000 0.000000 0.031976
#
#
# Mechanical properties :
#
#
# Convention : Reuss Voigt Hill
#
# Bulk Modulus (GPa) = 96.23493 112.49187 104.36340
# Shear Modulus (GPa) = 59.01466 22.41797 40.71632
#
# Velocity S-wave (km/s) = 5.60138 3.45234 4.65264
# Velocity P-wave (km/s) = 9.64354 8.70049 9.18412
#
# Compressibility (1/GPa) = 0.01039124
#
# Stress axis : x y z
#
# Youngs Moduli (GPa) = 85.10188 82.36301 121.18442
#
# Poissons Ratio (x) = 0.18907 0.48163
# Poissons Ratio (y) = 0.19536 0.55822
# Poissons Ratio (z) = 0.33823 0.37939
#
# Static dielectric constant tensor:
#      x y z
#    x 1.629130 0.000000 0.000000 
#    y 0.000000 1.612160 0.000000 
#    z 0.000000 0.000000 1.669530 
# 
# From -- ./inp_files/6070.got.cif
#   From: 2010.05.17/outbox.cif.g08.bks.cpg/sg28_4_cif.got.tgz:6070.got - 2010.06.04 01:15:21.
