data_PCOD9339088
_publ_section_title
;
Structure prediction by ZEFSAII (Michael W. Deem and Ramdas Pophale) SiO2 
 PCOD9339088
Probable space group: P C C 2
;
_chemical_formula_sum "Si O2"
_cell_formula_units_Z 10
_cell_length_a 5.162234
_cell_length_b 5.081343
_cell_length_c 16.198563
_cell_angle_alpha 90.000000
_cell_angle_beta 90.000000
_cell_angle_gamma 90.000000
_cell_volume 424.905828
_symmetry_space_group_name_H-M "P C C 2"
_symmetry_group_IT_number 27
_symmetry_cell_setting 'orthorhombic'
loop_
_space_group_symop_operation_xyz
x,y,z
-x,-y,z
-x,y,1/2+z
x,-y,1/2+z
loop_
_atom_site_type_symbol
_atom_site_label
_atom_site_fract_x
_atom_site_fract_y
_atom_site_fract_z
Si Si1 0.500000 0.500000 0.962291
Si Si2 0.000000 0.000000 0.741392
Si Si3 0.000000 0.500000 0.351784
Si Si4 0.168032 0.770613 0.083400
O O1 0.251003 0.435893 0.907025
O O2 0.411278 0.720545 0.026824
O O3 0.075401 0.753118 0.797069
O O4 0.792053 0.880111 0.676051
O O5 0.000000 0.500000 0.089373
O O6 0.000000 0.000000 0.042271
#
# Coordination Sequence:
#
# PCOD9339088 Si02
#       4
#     2   2   2   4
#     4  12  28  50  78 116 154 202 262 322 390 460
#     4  10  24  52  72 114 152 206 254 316 392 464
#     4  12  28  48  74 116 158 194 248 342 390 442
#     4  10  23  49  78 106 147 208 265 305 376 487
#
# _framework density 23.534625999999999
#
# number of rings (size 3 to 8) (size 9 to 14) (size 15 to 20)
#    1.200    0.000    4.000    0.000    2.800    8.000 
#    7.200    0.000    0.000    0.000    0.000    0.000 
#    0.000    0.000    0.000    0.000    0.000    0.000 
#
# Total GULP energy -55838.801616 kJ/mol
# GULP energy per Si atom -5583.880162 kJ/mol
# Density = 2.348106 g / cm^3
# Si number density = 23.534626 Si / 1000 Ang^3
#
#
#
# Elastic Constant Matrix: (Units=GPa)
#
#
# Indices 1 2 3 4 5 6 
#
# 1 142.5772 60.4504 76.3489 0.0000 0.0000 0.0000
# 2 60.4504 197.2565 75.6146 0.0000 0.0000 0.0000
# 3 76.3489 75.6146 172.5907 0.0000 0.0000 0.0000
# 4 0.0000 0.0000 0.0000 109.8252 0.0000 0.0000
# 5 0.0000 0.0000 0.0000 0.0000 82.0988 0.0000
# 6 0.0000 0.0000 0.0000 0.0000 0.0000 36.0000
#
#
#
# Elastic Compliance Matrix: (Units=1/GPa)
#
#
# Indices 1 2 3 4 5 6 
#
# 1 0.009582 -0.001576 -0.003548 0.000000 0.000000 0.000000
# 2 -0.001576 0.006352 -0.002086 0.000000 0.000000 0.000000
# 3 -0.003548 -0.002086 0.008277 0.000000 0.000000 0.000000
# 4 0.000000 0.000000 0.000000 0.009105 0.000000 0.000000
# 5 0.000000 0.000000 0.000000 0.000000 0.012180 0.000000
# 6 0.000000 0.000000 0.000000 0.000000 0.000000 0.027778
#
#
# Mechanical properties :
#
#
# Convention : Reuss Voigt Hill
#
# Bulk Modulus (GPa) = 102.13183 104.13914 103.13549
# Shear Modulus (GPa) = 54.96957 65.58551 60.27754
#
# Velocity S-wave (km/s) = 4.83814 5.28471 5.06635
# Velocity P-wave (km/s) = 8.64296 9.03233 8.83979
#
# Compressibility (1/GPa) = 0.00979127
#
# Stress axis : x y z
#
# Youngs Moduli (GPa) = 104.36091 157.42798 120.81052
#
# Poissons Ratio (x) = 0.24816 0.42866
# Poissons Ratio (y) = 0.16451 0.25197
# Poissons Ratio (z) = 0.37030 0.32834
#
# Static dielectric constant tensor:
#      x y z
#    x 1.753800 0.000000 0.000000 
#    y 0.000000 1.872820 0.000000 
#    z 0.000000 0.000000 1.911030 
# 
# From -- ./inp_files/3797.got.cif
#   From: 2010.05.17/outbox.cif.g08.bks.cpg/sg27_2_cif.got.tgz:3797.got - 2010.06.04 01:11:05.
