data_PCOD9339194
_publ_section_title
;
Structure prediction by ZEFSAII (Michael W. Deem and Ramdas Pophale) SiO2 
 PCOD9339194
Probable space group: P C C 2
;
_chemical_formula_sum "Si O2"
_cell_formula_units_Z 16
_cell_length_a 11.266875
_cell_length_b 5.320331
_cell_length_c 8.983883
_cell_angle_alpha 90.000000
_cell_angle_beta 90.000000
_cell_angle_gamma 90.000000
_cell_volume 538.525430
_symmetry_space_group_name_H-M "P C C 2"
_symmetry_group_IT_number 27
_symmetry_cell_setting 'orthorhombic'
loop_
_space_group_symop_operation_xyz
x,y,z
-x,-y,z
-x,y,1/2+z
x,-y,1/2+z
loop_
_atom_site_type_symbol
_atom_site_label
_atom_site_fract_x
_atom_site_fract_y
_atom_site_fract_z
Si Si1 0.379637 0.930771 0.705360
Si Si2 0.869755 0.962731 0.676597
Si Si3 0.622852 0.562900 0.518114
Si Si4 0.126902 0.633492 0.410433
O O1 0.246952 0.948124 0.765322
O O2 0.375858 0.153829 0.580886
O O3 0.500000 0.000000 0.791205
O O4 0.388387 0.653395 0.642288
O O5 0.872236 0.121050 0.523608
O O6 0.862673 0.671852 0.729207
O O7 0.000000 0.000000 0.743960
O O8 0.500000 0.500000 0.431280
O O9 0.749452 0.503703 0.446298
O O10 0.000000 0.500000 0.437074
#
# Coordination Sequence:
#
# PCOD9339194 Si02
#       4
#     4   4   4   4
#     4   9  19  39  68 103 143 189 242 303 372 447
#     4  11  24  45  69 104 148 193 250 313 378 454
#     4   9  19  40  69 102 143 190 242 303 372 447
#     4  11  25  46  74 107 149 200 256 317 386 462
#
# _framework density 29.710760000000001
#
# number of rings (size 3 to 8) (size 9 to 14) (size 15 to 20)
#    0.000    2.000    0.000    2.250    0.000    7.000 
#    0.000   17.500    0.000    0.000    0.000   14.000 
#    0.000    0.000    0.000    0.000    0.000    0.000 
#
# Total GULP energy -89213.142544 kJ/mol
# GULP energy per Si atom -5575.821409 kJ/mol
# Density = 2.964314 g / cm^3
# Si number density = 29.710760 Si / 1000 Ang^3
#
#
#
# Elastic Constant Matrix: (Units=GPa)
#
#
# Indices 1 2 3 4 5 6 
#
# 1 320.8255 52.6726 84.6271 0.0000 0.0000 0.0000
# 2 52.6726 179.7567 102.4165 0.0000 0.0000 0.0000
# 3 84.6271 102.4165 137.2784 0.0000 0.0000 0.0000
# 4 0.0000 0.0000 0.0000 72.2723 0.0000 0.0000
# 5 0.0000 0.0000 0.0000 0.0000 -23.2843 0.0000
# 6 0.0000 0.0000 0.0000 0.0000 0.0000 46.3647
#
#
#
# Elastic Compliance Matrix: (Units=1/GPa)
#
#
# Indices 1 2 3 4 5 6 
#
# 1 0.003737 0.000378 -0.002586 0.000000 0.000000 0.000000
# 2 0.000378 0.009714 -0.007481 0.000000 0.000000 0.000000
# 3 -0.002586 -0.007481 0.014459 0.000000 0.000000 0.000000
# 4 0.000000 0.000000 0.000000 0.013837 0.000000 0.000000
# 5 0.000000 0.000000 0.000000 0.000000 -0.042947 0.000000
# 6 0.000000 0.000000 0.000000 0.000000 0.000000 0.021568
#
#
# Mechanical properties :
#
#
# Convention : Reuss Voigt Hill
#
# Bulk Modulus (GPa) = 117.17344 124.14368 120.65856
# Shear Modulus (GPa) = 117.40064 45.61350 81.50707
#
# Velocity S-wave (km/s) = 6.29288 3.92248 5.24338
# Velocity P-wave (km/s) = 9.60854 7.89869 8.79526
#
# Compressibility (1/GPa) = 0.00853436
#
# Stress axis : x y z
#
# Youngs Moduli (GPa) = 267.59663 102.94146 69.15879
#
# Poissons Ratio (x) = -0.03895 0.17884
# Poissons Ratio (y) = -0.10124 0.51735
# Poissons Ratio (z) = 0.69200 0.77006
#
# Static dielectric constant tensor:
#      x y z
#    x 2.346270 0.000000 0.000000 
#    y 0.000000 2.392740 0.000000 
#    z 0.000000 0.000000 2.263350 
# 
# From -- ./inp_files/2473.got.cif
#   From: 2010.05.17/outbox.cif.g08.bks.cpg/sg27_2_cif.got.tgz:2473.got - 2010.06.04 01:11:05.
