data_PCOD9339418
_publ_section_title
;
Structure prediction by ZEFSAII (Michael W. Deem and Ramdas Pophale) SiO2 
 PCOD9339418
Probable space group: P M A 2
;
_chemical_formula_sum "Si O2"
_cell_formula_units_Z 32
_cell_length_a 15.215262
_cell_length_b 7.667001
_cell_length_c 12.685028
_cell_angle_alpha 90.000000
_cell_angle_beta 90.000000
_cell_angle_gamma 90.000000
_cell_volume 1479.777383
_symmetry_space_group_name_H-M "P M A 2"
_symmetry_group_IT_number 28
_symmetry_cell_setting 'orthorhombic'
loop_
_space_group_symop_operation_xyz
x,y,z
-x,-y,z
1/2-x,y,z
1/2+x,-y,z
loop_
_atom_site_type_symbol
_atom_site_label
_atom_site_fract_x
_atom_site_fract_y
_atom_site_fract_z
Si Si1 0.998917 0.285464 0.119380
Si Si2 0.409232 0.111363 0.498009
Si Si3 0.150198 0.675902 0.723679
Si Si4 0.501083 0.285464 0.876636
Si Si5 0.850466 0.740352 0.276153
Si Si6 0.849802 0.324097 0.272338
Si Si7 0.149534 0.259649 0.719864
Si Si8 0.652818 0.250954 0.498008
O O1 0.910618 0.242502 0.183542
O O2 0.000000 0.500000 0.120868
O O3 0.081208 0.209001 0.184395
O O4 0.998695 0.231835 0.998008
O O5 0.391562 0.216639 0.390639
O O6 0.391562 0.216641 0.605377
O O7 0.500000 0.000000 0.498009
O O8 0.339765 0.955109 0.498009
O O9 0.250000 0.745569 0.724124
O O10 0.155328 0.468254 0.734276
O O11 0.108889 0.702394 0.607919
O O12 0.089382 0.757498 0.812474
O O13 0.500000 0.500000 0.875148
O O14 0.418792 0.209001 0.811621
O O15 0.750000 0.808104 0.269132
O O16 0.844672 0.531746 0.261742
O O17 0.750000 0.254429 0.271892
O O18 0.891111 0.297603 0.388097
O O19 0.250000 0.191896 0.726885
O O20 0.750000 0.337282 0.498008
#
# Coordination Sequence:
#
# PCOD9339418 Si02
#       8
#     4   4   4   4   4   4   4   4
#     4   9  18  32  51  78 108 137 177 226 268 311
#     4  12  23  34  52  78 107 140 177 224 277 326
#     4   9  18  33  55  81 110 145 180 220 272 328
#     4   9  18  32  51  78 108 137 177 226 268 311
#     4  10  20  35  55  79 109 144 181 221 270 330
#     4   9  18  33  55  81 110 145 180 220 272 328
#     4  10  20  35  55  79 109 144 181 221 270 330
#     4  10  19  32  51  76 105 134 170 216 267 322
#
# _framework density 21.624874999999999
#
# number of rings (size 3 to 8) (size 9 to 14) (size 15 to 20)
#    0.000    2.250    0.000    3.375    0.000    3.000 
#    0.000   10.000    0.000    6.750    0.000    7.000 
#    0.000    0.000    0.000    0.000    0.000    0.000 
#
# Total GULP energy -178492.015053 kJ/mol
# GULP energy per Si atom -5577.875470 kJ/mol
# Density = 2.157566 g / cm^3
# Si number density = 21.624875 Si / 1000 Ang^3
#
#
#
# Elastic Constant Matrix: (Units=GPa)
#
#
# Indices 1 2 3 4 5 6 
#
# 1 178.3389 11.1671 106.1128 0.0000 0.0000 0.0000
# 2 11.1671 34.0812 -1.1222 0.0000 0.0000 0.0000
# 3 106.1128 -1.1222 223.7719 0.0000 0.0000 0.0000
# 4 0.0000 0.0000 0.0000 -37.6271 0.0000 0.0000
# 5 0.0000 0.0000 0.0000 0.0000 39.6965 0.0000
# 6 0.0000 0.0000 0.0000 0.0000 0.0000 14.1914
#
#
#
# Elastic Compliance Matrix: (Units=1/GPa)
#
#
# Indices 1 2 3 4 5 6 
#
# 1 0.008064 -0.002769 -0.003838 0.000000 0.000000 0.000000
# 2 -0.002769 0.030297 0.001465 0.000000 0.000000 0.000000
# 3 -0.003838 0.001465 0.006296 0.000000 0.000000 0.000000
# 4 0.000000 0.000000 0.000000 -0.026577 0.000000 0.000000
# 5 0.000000 0.000000 0.000000 0.000000 0.025191 0.000000
# 6 0.000000 0.000000 0.000000 0.000000 0.000000 0.070465
#
#
# Mechanical properties :
#
#
# Convention : Reuss Voigt Hill
#
# Bulk Modulus (GPa) = 29.09183 74.27861 51.68522
# Shear Modulus (GPa) = 36.90613 24.58779 30.74696
#
# Velocity S-wave (km/s) = 4.13565 3.37562 3.77481
# Velocity P-wave (km/s) = 6.02386 7.04389 6.55375
#
# Compressibility (1/GPa) = 0.03437391
#
# Stress axis : x y z
#
# Youngs Moduli (GPa) = 124.00333 33.00641 158.82699
#
# Poissons Ratio (x) = 0.09139 0.60958
# Poissons Ratio (y) = 0.34333 -0.23266
# Poissons Ratio (z) = 0.47592 -0.04835
#
# Static dielectric constant tensor:
#      x y z
#    x 1.858020 0.000000 0.000000 
#    y 0.000000 1.801690 0.000000 
#    z 0.000000 0.000000 1.770290 
# 
# From -- ./inp_files/5604.got.cif
#   From: 2010.05.17/outbox.cif.g08.bks.cpg/sg28_3_cif.got.tgz:5604.got - 2010.06.04 01:15:21.
