data_PCOD9339959
_publ_section_title
;
Structure prediction by ZEFSAII (Michael W. Deem and Ramdas Pophale) SiO2 
 PCOD9339959
Probable space group: P M A 2
;
_chemical_formula_sum "Si O2"
_cell_formula_units_Z 14
_cell_length_a 14.324795
_cell_length_b 4.959474
_cell_length_c 8.013364
_cell_angle_alpha 90.000000
_cell_angle_beta 90.000000
_cell_angle_gamma 90.000000
_cell_volume 569.297012
_symmetry_space_group_name_H-M "P M A 2"
_symmetry_group_IT_number 28
_symmetry_cell_setting 'orthorhombic'
loop_
_space_group_symop_operation_xyz
x,y,z
-x,-y,z
1/2-x,y,z
1/2+x,-y,z
loop_
_atom_site_type_symbol
_atom_site_label
_atom_site_fract_x
_atom_site_fract_y
_atom_site_fract_z
Si Si1 0.642295 0.925751 0.414310
Si Si2 0.250000 0.478270 0.945973
Si Si3 0.100277 0.587399 0.191999
Si Si4 0.434720 0.237485 0.773829
O O1 0.750000 0.007187 0.443296
O O2 0.641387 0.669862 0.290929
O O3 0.595308 0.853139 0.587870
O O4 0.592561 0.171987 0.322436
O O5 0.335951 0.301099 0.862676
O O6 0.169796 0.656557 0.045303
O O7 0.000000 0.500000 0.128273
O O8 0.500000 0.500000 0.757478
O O9 0.500000 0.000000 0.848055
#
# Coordination Sequence:
#
# PCOD9339959 Si02
#       4
#     4   2   4   4
#     4  12  23  49  76 107 145 196 256 319 369 447
#     4  12  28  50  72 114 162 198 252 316 388 474
#     4  12  26  46  77 107 147 197 255 312 381 449
#     4  12  28  49  78 113 155 206 257 318 388 456
#
# _framework density 24.591733999999999
#
# number of rings (size 3 to 8) (size 9 to 14) (size 15 to 20)
#    0.000    0.000    4.286    6.000    0.000    8.000 
#    0.000    0.000    0.000    0.000    0.000    0.000 
#    0.000    0.000    0.000    0.000    0.000    0.000 
#
# Total GULP energy -78001.996666 kJ/mol
# GULP energy per Si atom -5571.571190 kJ/mol
# Density = 2.453576 g / cm^3
# Si number density = 24.591734 Si / 1000 Ang^3
#
#
#
# Elastic Constant Matrix: (Units=GPa)
#
#
# Indices 1 2 3 4 5 6 
#
# 1 266.3357 43.6844 40.9302 0.0000 0.0000 0.0000
# 2 43.6844 97.5281 20.9608 0.0000 0.0000 0.0000
# 3 40.9302 20.9608 76.7446 0.0000 0.0000 0.0000
# 4 0.0000 0.0000 0.0000 84.4369 0.0000 0.0000
# 5 0.0000 0.0000 0.0000 0.0000 17.4047 0.0000
# 6 0.0000 0.0000 0.0000 0.0000 0.0000 23.2285
#
#
#
# Elastic Compliance Matrix: (Units=1/GPa)
#
#
# Indices 1 2 3 4 5 6 
#
# 1 0.004292 -0.001520 -0.001874 0.000000 0.000000 0.000000
# 2 -0.001520 0.011431 -0.002312 0.000000 0.000000 0.000000
# 3 -0.001874 -0.002312 0.014661 0.000000 0.000000 0.000000
# 4 0.000000 0.000000 0.000000 0.011843 0.000000 0.000000
# 5 0.000000 0.000000 0.000000 0.000000 0.057456 0.000000
# 6 0.000000 0.000000 0.000000 0.000000 0.000000 0.043051
#
#
# Mechanical properties :
#
#
# Convention : Reuss Voigt Hill
#
# Bulk Modulus (GPa) = 52.70514 72.41767 62.56141
# Shear Modulus (GPa) = 31.15881 47.34956 39.25418
#
# Velocity S-wave (km/s) = 3.56342 4.39273 3.99963
# Velocity P-wave (km/s) = 6.19751 7.43236 6.84285
#
# Compressibility (1/GPa) = 0.01897348
#
# Stress axis : x y z
#
# Youngs Moduli (GPa) = 232.99704 87.48183 68.20808
#
# Poissons Ratio (x) = 0.13294 0.12782
# Poissons Ratio (y) = 0.35408 0.15767
# Poissons Ratio (z) = 0.43662 0.20222
#
# Static dielectric constant tensor:
#      x y z
#    x 1.930000 0.000000 0.000000 
#    y 0.000000 1.910560 0.000000 
#    z 0.000000 0.000000 1.971880 
# 
# From -- ./inp_files/3181.got.cif
#   From: 2010.05.17/outbox.cif.g08.bks.cpg/sg28_2_cif.got.tgz:3181.got - 2010.06.04 01:15:21.
