data_PCOD9339768
_publ_section_title
;
Structure prediction by ZEFSAII (Michael W. Deem and Ramdas Pophale) SiO2 
 PCOD9339768
Probable space group: P M A 2
;
_chemical_formula_sum "Si O2"
_cell_formula_units_Z 24
_cell_length_a 9.614005
_cell_length_b 20.604571
_cell_length_c 5.560710
_cell_angle_alpha 90.000000
_cell_angle_beta 90.000000
_cell_angle_gamma 90.000000
_cell_volume 1101.534660
_symmetry_space_group_name_H-M "P M A 2"
_symmetry_group_IT_number 28
_symmetry_cell_setting 'orthorhombic'
loop_
_space_group_symop_operation_xyz
x,y,z
-x,-y,z
1/2-x,y,z
1/2+x,-y,z
loop_
_atom_site_type_symbol
_atom_site_label
_atom_site_fract_x
_atom_site_fract_y
_atom_site_fract_z
Si Si1 0.914199 0.566133 0.761710
Si Si2 0.906659 0.256536 0.012158
Si Si3 0.084638 0.356518 0.264792
Si Si4 0.594435 0.811400 0.678430
Si Si5 0.096325 0.874043 0.287496
Si Si6 0.905665 0.947168 0.959752
O O1 0.750000 0.551861 0.753665
O O2 0.944051 0.607269 0.517581
O O3 0.000000 0.500000 0.753685
O O4 0.939592 0.601288 0.019631
O O5 0.750000 0.280172 0.949383
O O6 0.889244 0.181200 0.083892
O O7 0.977458 0.297492 0.224717
O O8 0.027754 0.250146 0.812928
O O9 0.250000 0.338589 0.263262
O O10 0.750000 0.796508 0.586759
O O11 0.482881 0.834741 0.489049
O O12 0.608856 0.877137 0.836091
O O13 0.250000 0.895942 0.359337
O O14 0.996566 0.930171 0.193764
O O15 0.750000 0.972070 0.002534
O O16 0.000000 0.000000 0.822187
#
# Coordination Sequence:
#
# PCOD9339768 Si02
#       6
#     4   4   4   4   4   4
#     4  10  22  40  62  89 123 161 206 253 307 363
#     4  10  22  38  57  85 117 151 196 247 299 356
#     4  10  22  39  60  90 123 162 206 253 307 370
#     4  10  21  37  58  82 112 151 192 239 299 361
#     4  10  21  37  57  82 114 149 189 242 297 354
#     4  10  21  37  56  80 109 146 191 238 293 355
#
# _framework density 21.787783999999998
#
# number of rings (size 3 to 8) (size 9 to 14) (size 15 to 20)
#    0.000    2.000    0.000    2.500    2.333    6.000 
#    0.000    1.667    0.000    0.000    0.000    0.000 
#    0.000    0.000    0.000    0.000    0.000    0.000 
#
# Total GULP energy -133764.184820 kJ/mol
# GULP energy per Si atom -5573.507701 kJ/mol
# Density = 2.173819 g / cm^3
# Si number density = 21.787784 Si / 1000 Ang^3
#
#
#
# Elastic Constant Matrix: (Units=GPa)
#
#
# Indices 1 2 3 4 5 6 
#
# 1 149.7226 39.7338 28.4909 0.0000 0.0000 0.0000
# 2 39.7338 93.7180 25.9516 0.0000 0.0000 0.0000
# 3 28.4909 25.9516 79.2925 0.0000 0.0000 0.0000
# 4 0.0000 0.0000 0.0000 20.1416 0.0000 0.0000
# 5 0.0000 0.0000 0.0000 0.0000 19.5057 0.0000
# 6 0.0000 0.0000 0.0000 0.0000 0.0000 30.2301
#
#
#
# Elastic Compliance Matrix: (Units=1/GPa)
#
#
# Indices 1 2 3 4 5 6 
#
# 1 0.007774 -0.002774 -0.001885 0.000000 0.000000 0.000000
# 2 -0.002774 0.012723 -0.003168 0.000000 0.000000 0.000000
# 3 -0.001885 -0.003168 0.014326 0.000000 0.000000 0.000000
# 4 0.000000 0.000000 0.000000 0.049649 0.000000 0.000000
# 5 0.000000 0.000000 0.000000 0.000000 0.051267 0.000000
# 6 0.000000 0.000000 0.000000 0.000000 0.000000 0.033080
#
#
# Mechanical properties :
#
#
# Convention : Reuss Voigt Hill
#
# Bulk Modulus (GPa) = 52.16641 56.78730 54.47685
# Shear Modulus (GPa) = 26.19694 29.21258 27.70476
#
# Velocity S-wave (km/s) = 3.47128 3.66564 3.56978
# Velocity P-wave (km/s) = 6.32940 6.63598 6.48450
#
# Compressibility (1/GPa) = 0.01916942
#
# Stress axis : x y z
#
# Youngs Moduli (GPa) = 128.63507 78.59483 69.80451
#
# Poissons Ratio (x) = 0.21801 0.13161
# Poissons Ratio (y) = 0.35681 0.22111
# Poissons Ratio (z) = 0.24253 0.24896
#
# Static dielectric constant tensor:
#      x y z
#    x 1.821030 0.000000 0.000000 
#    y 0.000000 1.857750 0.000000 
#    z 0.000000 0.000000 1.898210 
# 
# From -- ./inp_files/214.got.cif
#   From: 2010.05.17/outbox.cif.g08.bks.cpg/sg28_1_cif.got.tgz:214.got - 2010.06.04 01:15:21.
