data_PCOD9339594
_publ_section_title
;
Structure prediction by ZEFSAII (Michael W. Deem and Ramdas Pophale) SiO2 
 PCOD9339594
Probable space group: P M A 2
;
_chemical_formula_sum "Si O2"
_cell_formula_units_Z 24
_cell_length_a 8.885698
_cell_length_b 16.639286
_cell_length_c 9.381154
_cell_angle_alpha 90.000000
_cell_angle_beta 90.000000
_cell_angle_gamma 90.000000
_cell_volume 1387.019289
_symmetry_space_group_name_H-M "P M A 2"
_symmetry_group_IT_number 28
_symmetry_cell_setting 'orthorhombic'
loop_
_space_group_symop_operation_xyz
x,y,z
-x,-y,z
1/2-x,y,z
1/2+x,-y,z
loop_
_atom_site_type_symbol
_atom_site_label
_atom_site_fract_x
_atom_site_fract_y
_atom_site_fract_z
Si Si1 0.931072 0.245647 0.846860
Si Si2 0.578310 0.835414 0.273578
Si Si3 0.428047 0.916267 0.017300
Si Si4 0.568065 0.735004 0.535302
Si Si5 0.930190 0.414672 0.364736
Si Si6 0.576463 0.665895 0.102045
O O1 0.750000 0.251546 0.839355
O O2 0.970770 0.159222 0.917311
O O3 0.005264 0.253335 0.692796
O O4 0.996127 0.313080 0.954006
O O5 0.750000 0.865235 0.278148
O O6 0.527785 0.810042 0.431456
O O7 0.578840 0.750272 0.189133
O O8 0.480241 0.894027 0.177471
O O9 0.250000 0.923370 0.014007
O O10 0.500000 0.000000 0.972057
O O11 0.750000 0.728141 0.533225
O O12 0.496016 0.655576 0.465092
O O13 0.750000 0.415567 0.370762
O O14 0.000000 0.500000 0.406719
O O15 0.986480 0.393921 0.204627
O O16 0.750000 0.640541 0.082992
#
# Coordination Sequence:
#
# PCOD9339594 Si02
#       6
#     4   4   4   4   4   4
#     4  10  20  34  53  79 107 140 177 215 260 313
#     4   8  16  31  51  73  98 129 168 207 249 302
#     4  10  20  33  52  76 103 134 173 217 263 310
#     4  10  20  35  55  79 106 140 176 213 260 316
#     4  11  21  35  55  79 107 138 174 218 262 309
#     4   9  17  32  53  76 101 133 171 210 252 304
#
# _framework density 17.303291999999999
#
# number of rings (size 3 to 8) (size 9 to 14) (size 15 to 20)
#    0.000    2.333    0.000    4.500    0.000    6.667 
#    0.000    1.667    0.000    2.000    0.000    0.000 
#    0.000    0.000    0.000    0.000    0.000    0.000 
#
# Total GULP energy -133838.340025 kJ/mol
# GULP energy per Si atom -5576.597501 kJ/mol
# Density = 1.726391 g / cm^3
# Si number density = 17.303292 Si / 1000 Ang^3
#
#
#
# Elastic Constant Matrix: (Units=GPa)
#
#
# Indices 1 2 3 4 5 6 
#
# 1 100.6604 46.9484 54.9425 0.0000 0.0000 0.0000
# 2 46.9484 73.9907 38.2227 0.0000 0.0000 0.0000
# 3 54.9425 38.2227 141.8357 0.0000 0.0000 0.0000
# 4 0.0000 0.0000 0.0000 14.4775 0.0000 0.0000
# 5 0.0000 0.0000 0.0000 0.0000 28.2563 0.0000
# 6 0.0000 0.0000 0.0000 0.0000 0.0000 27.0878
#
#
#
# Elastic Compliance Matrix: (Units=1/GPa)
#
#
# Indices 1 2 3 4 5 6 
#
# 1 0.015834 -0.007991 -0.003980 0.000000 0.000000 0.000000
# 2 -0.007991 0.019734 -0.002223 0.000000 0.000000 0.000000
# 3 -0.003980 -0.002223 0.009191 0.000000 0.000000 0.000000
# 4 0.000000 0.000000 0.000000 0.069073 0.000000 0.000000
# 5 0.000000 0.000000 0.000000 0.000000 0.035390 0.000000
# 6 0.000000 0.000000 0.000000 0.000000 0.000000 0.036917
#
#
# Mechanical properties :
#
#
# Convention : Reuss Voigt Hill
#
# Bulk Modulus (GPa) = 61.08102 66.30155 63.69129
# Shear Modulus (GPa) = 22.72909 25.72254 24.22582
#
# Velocity S-wave (km/s) = 3.62825 3.85979 3.74581
# Velocity P-wave (km/s) = 7.27524 7.63311 7.45633
#
# Compressibility (1/GPa) = 0.01637170
#
# Stress axis : x y z
#
# Youngs Moduli (GPa) = 63.15647 50.67498 108.80064
#
# Poissons Ratio (x) = 0.40493 0.43304
# Poissons Ratio (y) = 0.50466 0.24182
# Poissons Ratio (z) = 0.25137 0.11263
#
# Static dielectric constant tensor:
#      x y z
#    x 1.578090 0.000000 0.000000 
#    y 0.000000 1.591220 0.000000 
#    z 0.000000 0.000000 1.584580 
# 
# From -- ./inp_files/2469.got.cif
#   From: 2010.05.17/outbox.cif.g08.bks.cpg/sg28_2_cif.got.tgz:2469.got - 2010.06.04 01:15:21.
