data_PCOD9339024
_publ_section_title
;
Structure prediction by ZEFSAII (Michael W. Deem and Ramdas Pophale) SiO2 
 PCOD9339024
Probable space group: P C C 2
;
_chemical_formula_sum "Si O2"
_cell_formula_units_Z 32
_cell_length_a 5.286835
_cell_length_b 19.881361
_cell_length_c 13.541473
_cell_angle_alpha 90.000000
_cell_angle_beta 90.000000
_cell_angle_gamma 90.000000
_cell_volume 1423.337120
_symmetry_space_group_name_H-M "P C C 2"
_symmetry_group_IT_number 27
_symmetry_cell_setting 'orthorhombic'
loop_
_space_group_symop_operation_xyz
x,y,z
-x,-y,z
-x,y,1/2+z
x,-y,1/2+z
loop_
_atom_site_type_symbol
_atom_site_label
_atom_site_fract_x
_atom_site_fract_y
_atom_site_fract_z
Si Si1 0.479201 0.842753 0.500000
Si Si2 0.420034 0.075851 0.818823
Si Si3 0.861756 0.931850 0.608276
Si Si4 0.769729 0.831103 0.189586
Si Si5 0.044171 0.428993 0.155768
Si Si6 0.496061 0.297214 0.404175
Si Si7 0.004085 0.298586 0.280775
Si Si8 0.452054 0.428362 0.533692
O O1 0.317629 0.880385 0.411521
O O2 0.655045 0.905202 0.532818
O O3 0.434961 0.808289 0.609366
O O4 0.577778 0.776075 0.445495
O O5 0.246565 0.065443 0.720755
O O6 0.649083 0.121675 0.773622
O O7 0.500000 0.000000 0.847038
O O8 0.076847 0.876714 0.613544
O O9 0.000000 0.000000 0.581321
O O10 0.944862 0.772029 0.227129
O O11 0.961455 0.362111 0.211481
O O12 0.335665 0.427775 0.120768
O O13 0.000000 0.500000 0.211181
O O14 0.839994 0.431138 0.066840
O O15 0.272374 0.314367 0.330038
O O16 0.503749 0.359194 0.478386
O O17 0.769664 0.290660 0.354018
O O18 0.500000 0.500000 0.479647
#
# Coordination Sequence:
#
# PCOD9339024 Si02
#       8
#     4   4   4   4   4   4   4   4
#     4  11  27  42  70  99 136 182 240 286 362 435
#     4  11  23  45  65  94 137 170 222 293 352 424
#     4  11  25  44  68  96 131 177 228 286 358 428
#     4  11  25  44  68  94 136 180 227 290 350 426
#     4  10  22  42  69 100 140 190 241 290 358 428
#     4  12  26  44  68 104 142 184 239 297 358 423
#     4  12  26  43  70 100 144 187 236 298 357 422
#     4  10  22  42  69 101 140 185 239 298 354 424
#
# _framework density 22.482378000000001
#
# number of rings (size 3 to 8) (size 9 to 14) (size 15 to 20)
#    0.000    1.000    2.500    3.000    7.000    2.000 
#    0.000    0.000    0.000    0.000    0.000    0.000 
#    0.000    0.000    0.000    0.000    0.000    0.000 
#
# Total GULP energy -178397.912537 kJ/mol
# GULP energy per Si atom -5574.934767 kJ/mol
# Density = 2.243121 g / cm^3
# Si number density = 22.482378 Si / 1000 Ang^3
#
#
#
# Elastic Constant Matrix: (Units=GPa)
#
#
# Indices 1 2 3 4 5 6 
#
# 1 88.4184 -7.2684 26.3884 0.0000 0.0000 0.0000
# 2 -7.2684 123.1092 41.3217 0.0000 0.0000 0.0000
# 3 26.3884 41.3217 64.7698 0.0000 0.0000 0.0000
# 4 0.0000 0.0000 0.0000 26.8233 0.0000 0.0000
# 5 0.0000 0.0000 0.0000 0.0000 18.9552 0.0000
# 6 0.0000 0.0000 0.0000 0.0000 0.0000 22.0651
#
#
#
# Elastic Compliance Matrix: (Units=1/GPa)
#
#
# Indices 1 2 3 4 5 6 
#
# 1 0.013954 0.003477 -0.007903 0.000000 0.000000 0.000000
# 2 0.003477 0.011202 -0.008563 0.000000 0.000000 0.000000
# 3 -0.007903 -0.008563 0.024122 0.000000 0.000000 0.000000
# 4 0.000000 0.000000 0.000000 0.037281 0.000000 0.000000
# 5 0.000000 0.000000 0.000000 0.000000 0.052756 0.000000
# 6 0.000000 0.000000 0.000000 0.000000 0.000000 0.045320
#
#
# Mechanical properties :
#
#
# Convention : Reuss Voigt Hill
#
# Bulk Modulus (GPa) = 42.91981 44.13120 43.52551
# Shear Modulus (GPa) = 22.89556 27.95912 25.42734
#
# Velocity S-wave (km/s) = 3.19467 3.53030 3.36667
# Velocity P-wave (km/s) = 5.72186 6.02405 5.87490
#
# Compressibility (1/GPa) = 0.02329926
#
# Stress axis : x y z
#
# Youngs Moduli (GPa) = 71.66205 89.26641 41.45511
#
# Poissons Ratio (x) = -0.31035 0.32763
# Poissons Ratio (y) = -0.24914 0.35499
# Poissons Ratio (z) = 0.56637 0.76442
#
# Static dielectric constant tensor:
#      x y z
#    x 1.041650 0.000000 0.000000 
#    y 0.000000 1.822060 0.000000 
#    z 0.000000 0.000000 1.903960 
# 
# From -- ./inp_files/3165.got.cif
#   From: 2010.05.17/outbox.cif.g08.bks.cpg/sg27_2_cif.got.tgz:3165.got - 2010.06.04 01:11:05.
