data_PCOD9339894
_publ_section_title
;
Structure prediction by ZEFSAII (Michael W. Deem and Ramdas Pophale) SiO2 
 PCOD9339894
Probable space group: P M A 2
;
_chemical_formula_sum "Si O2"
_cell_formula_units_Z 20
_cell_length_a 28.759212
_cell_length_b 4.980686
_cell_length_c 5.545670
_cell_angle_alpha 90.000000
_cell_angle_beta 90.000000
_cell_angle_gamma 90.000000
_cell_volume 794.365124
_symmetry_space_group_name_H-M "P M A 2"
_symmetry_group_IT_number 28
_symmetry_cell_setting 'orthorhombic'
loop_
_space_group_symop_operation_xyz
x,y,z
-x,-y,z
1/2-x,y,z
1/2+x,-y,z
loop_
_atom_site_type_symbol
_atom_site_label
_atom_site_fract_x
_atom_site_fract_y
_atom_site_fract_z
Si Si1 0.000000 0.000000 0.738060
Si Si2 0.250000 0.572943 0.724708
Si Si3 0.849443 0.054190 0.389932
Si Si4 0.349122 0.447486 0.731903
Si Si5 0.750000 0.930505 0.391706
Si Si6 0.500000 0.500000 0.410486
Si Si7 0.922702 0.749383 0.074369
O O1 0.013918 0.750327 0.573859
O O2 0.956883 0.907990 0.897594
O O3 0.298786 0.507708 0.848060
O O4 0.250000 0.374253 0.488353
O O5 0.250000 0.875433 0.628283
O O6 0.849388 0.846949 0.614970
O O7 0.798661 0.007573 0.269204
O O8 0.854508 0.344793 0.510184
O O9 0.889874 0.954769 0.216928
O O10 0.390096 0.450346 0.923186
O O11 0.543409 0.590935 0.251941
#
# Coordination Sequence:
#
# PCOD9339894 Si02
#       7
#     2   2   4   4   2   2   4
#     4  12  30  52  72 100 142 184 236 304 362 418
#     4   8  16  37  64  97 143 182 215 275 344 403
#     4  10  23  42  69 105 143 181 229 284 341 417
#     4  10  23  42  69 105 143 181 229 284 341 417
#     4   8  16  37  64  97 143 182 215 275 344 403
#     4  12  30  52  72 100 142 184 236 304 362 418
#     4  12  28  47  76 104 134 189 242 288 360 420
#
# _framework density 25.177339
#
# number of rings (size 3 to 8) (size 9 to 14) (size 15 to 20)
#    0.000    1.600    0.000    2.400    0.000   18.400 
#    0.000    0.000    0.000   14.400    0.000    4.200 
#    0.000    0.000    0.000    0.000    0.000    0.000 
#
# Total GULP energy -112244.682955 kJ/mol
# GULP energy per Si atom -5612.234148 kJ/mol
# Density = 2.512003 g / cm^3
# Si number density = 25.177339 Si / 1000 Ang^3
#
#
#
# Elastic Constant Matrix: (Units=GPa)
#
#
# Indices 1 2 3 4 5 6 
#
# 1 253.2268 48.9113 93.8522 0.0000 0.0000 0.0000
# 2 48.9113 124.9306 45.1200 0.0000 0.0000 0.0000
# 3 93.8522 45.1200 94.8544 0.0000 0.0000 0.0000
# 4 0.0000 0.0000 0.0000 31.3828 0.0000 0.0000
# 5 0.0000 0.0000 0.0000 0.0000 -20.8131 0.0000
# 6 0.0000 0.0000 0.0000 0.0000 0.0000 1417.1395
#
#
#
# Elastic Compliance Matrix: (Units=1/GPa)
#
#
# Indices 1 2 3 4 5 6 
#
# 1 0.006243 -0.000258 -0.006054 0.000000 0.000000 0.000000
# 2 -0.000258 0.009675 -0.004348 0.000000 0.000000 0.000000
# 3 -0.006054 -0.004348 0.018601 0.000000 0.000000 0.000000
# 4 0.000000 0.000000 0.000000 0.031865 0.000000 0.000000
# 5 0.000000 0.000000 0.000000 0.000000 -0.048047 0.000000
# 6 0.000000 0.000000 0.000000 0.000000 0.000000 0.000706
#
#
# Mechanical properties :
#
#
# Convention : Reuss Voigt Hill
#
# Bulk Modulus (GPa) = 75.75620 94.30875 85.03248
# Shear Modulus (GPa) = 111.70475 304.55038 208.12757
#
# Velocity S-wave (km/s) = 6.66810 11.01021 9.10187
# Velocity P-wave (km/s) = 9.45722 14.11283 12.01272
#
# Compressibility (1/GPa) = 0.01320024
#
# Stress axis : x y z
#
# Youngs Moduli (GPa) = 160.19022 103.35451 53.76151
#
# Poissons Ratio (x) = 0.02661 0.32548
# Poissons Ratio (y) = 0.04125 0.23373
# Poissons Ratio (z) = 0.96981 0.44934
#
# Static dielectric constant tensor:
#      x y z
#    x 1.999710 0.000000 0.000000 
#    y 0.000000 1.919850 0.000000 
#    z 0.000000 0.000000 1.970100 
# 
# From -- ./inp_files/1712.got.cif
#   From: 2010.05.17/outbox.cif.g08.bks.cpg/sg28_1_cif.got.tgz:1712.got - 2010.06.04 01:15:21.
