data_PCOD9339388
_publ_section_title
;
Structure prediction by ZEFSAII (Michael W. Deem and Ramdas Pophale) SiO2 
 PCOD9339388
Probable space group: P M A 2
;
_chemical_formula_sum "Si O2"
_cell_formula_units_Z 32
_cell_length_a 8.679831
_cell_length_b 9.894878
_cell_length_c 21.070632
_cell_angle_alpha 90.000000
_cell_angle_beta 90.000000
_cell_angle_gamma 90.000000
_cell_volume 1809.669536
_symmetry_space_group_name_H-M "P M A 2"
_symmetry_group_IT_number 28
_symmetry_cell_setting 'orthorhombic'
loop_
_space_group_symop_operation_xyz
x,y,z
-x,-y,z
1/2-x,y,z
1/2+x,-y,z
loop_
_atom_site_type_symbol
_atom_site_label
_atom_site_fract_x
_atom_site_fract_y
_atom_site_fract_z
Si Si1 0.065411 0.848232 0.428350
Si Si2 0.435634 0.352118 0.177878
Si Si3 0.065136 0.151764 0.699536
Si Si4 0.565280 0.648162 0.323771
Si Si5 0.064076 0.351822 0.955817
Si Si6 0.064206 0.352256 0.810681
Si Si7 0.434492 0.847462 0.568768
Si Si8 0.436290 0.150896 0.067036
O O1 0.250000 0.854279 0.424137
O O2 0.026075 0.791542 0.498975
O O3 0.998933 0.756071 0.373028
O O4 0.000000 0.000000 0.423530
O O5 0.500000 0.500000 0.160909
O O6 0.250000 0.359777 0.175524
O O7 0.480753 0.321653 0.250677
O O8 0.485557 0.237338 0.128667
O O9 0.250000 0.144846 0.697786
O O10 0.015060 0.242346 0.759041
O O11 0.005957 0.212913 0.632696
O O12 0.000000 0.000000 0.705511
O O13 0.500000 0.500000 0.338915
O O14 0.750000 0.645835 0.326719
O O15 0.250000 0.359046 0.957683
O O16 0.016606 0.320694 0.883237
O O17 0.000000 0.500000 0.972556
O O18 0.014889 0.237706 0.005476
O O19 0.250000 0.357401 0.809715
O O20 0.000000 0.500000 0.794948
O O21 0.250000 0.851133 0.574935
O O22 0.500000 0.000000 0.567382
O O23 0.250000 0.144626 0.067121
O O24 0.500000 0.000000 0.066932
#
# Coordination Sequence:
#
# PCOD9339388 Si02
#       8
#     4   4   4   4   4   4   4   4
#     4  10  20  34  53  77 103 133 170 211 255 303
#     4   9  19  35  54  76 100 131 170 207 246 296
#     4  10  19  31  49  73 100 130 165 205 248 295
#     4  10  20  35  54  76 104 135 169 210 254 302
#     4   9  18  34  54  74  98 130 168 206 244 293
#     4   9  19  34  51  73 100 130 165 205 248 293
#     4   9  17  30  49  72  98 129 166 205 246 296
#     4  10  21  35  51  75 106 134 164 205 249 292
#
# _framework density 17.682786
#
# number of rings (size 3 to 8) (size 9 to 14) (size 15 to 20)
#    0.000    2.500    0.000    2.625    0.000    5.000 
#    0.000    1.875    0.000    1.500    0.000    0.000 
#    0.000    0.000    0.000    0.000    0.000    0.000 
#
# Total GULP energy -178444.087437 kJ/mol
# GULP energy per Si atom -5576.377732 kJ/mol
# Density = 1.764254 g / cm^3
# Si number density = 17.682786 Si / 1000 Ang^3
#
#
#
# Elastic Constant Matrix: (Units=GPa)
#
#
# Indices 1 2 3 4 5 6 
#
# 1 32.2089 31.1982 40.2893 0.0000 0.0000 0.0000
# 2 31.1982 122.9358 113.7982 0.0000 0.0000 0.0000
# 3 40.2893 113.7982 154.5419 0.0000 0.0000 0.0000
# 4 0.0000 0.0000 0.0000 48.7608 0.0000 0.0000
# 5 0.0000 0.0000 0.0000 0.0000 32.0246 0.0000
# 6 0.0000 0.0000 0.0000 0.0000 0.0000 31.0537
#
#
#
# Elastic Compliance Matrix: (Units=1/GPa)
#
#
# Indices 1 2 3 4 5 6 
#
# 1 0.046199 -0.001807 -0.010714 0.000000 0.000000 0.000000
# 2 -0.001807 0.025620 -0.018395 0.000000 0.000000 0.000000
# 3 -0.010714 -0.018395 0.022809 0.000000 0.000000 0.000000
# 4 0.000000 0.000000 0.000000 0.020508 0.000000 0.000000
# 5 0.000000 0.000000 0.000000 0.000000 0.031226 0.000000
# 6 0.000000 0.000000 0.000000 0.000000 0.000000 0.032202
#
#
# Mechanical properties :
#
#
# Convention : Reuss Voigt Hill
#
# Bulk Modulus (GPa) = 30.48992 75.58421 53.03706
# Shear Modulus (GPa) = 19.89439 30.66123 25.27781
#
# Velocity S-wave (km/s) = 3.35785 4.16860 3.78499
# Velocity P-wave (km/s) = 5.68451 8.12447 7.01144
#
# Compressibility (1/GPa) = 0.03279772
#
# Stress axis : x y z
#
# Youngs Moduli (GPa) = 21.64555 39.03162 43.84277
#
# Poissons Ratio (x) = 0.07053 0.46971
# Poissons Ratio (y) = 0.03911 0.80647
# Poissons Ratio (z) = 0.23190 0.71797
#
# Static dielectric constant tensor:
#      x y z
#    x 1.596790 0.000000 0.000000 
#    y 0.000000 1.559260 0.000000 
#    z 0.000000 0.000000 1.638430 
# 
# From -- ./inp_files/7214.got.cif
#   From: 2010.05.17/outbox.cif.g08.bks.cpg/sg28_4_cif.got.tgz:7214.got - 2010.06.04 01:15:21.
