data_PCOD9339925
_publ_section_title
;
Structure prediction by ZEFSAII (Michael W. Deem and Ramdas Pophale) SiO2 
 PCOD9339925
Probable space group: P M A 2
;
_chemical_formula_sum "Si O2"
_cell_formula_units_Z 20
_cell_length_a 18.194392
_cell_length_b 9.998500
_cell_length_c 4.852931
_cell_angle_alpha 90.000000
_cell_angle_beta 90.000000
_cell_angle_gamma 90.000000
_cell_volume 882.828845
_symmetry_space_group_name_H-M "P M A 2"
_symmetry_group_IT_number 28
_symmetry_cell_setting 'orthorhombic'
loop_
_space_group_symop_operation_xyz
x,y,z
-x,-y,z
1/2-x,y,z
1/2+x,-y,z
loop_
_atom_site_type_symbol
_atom_site_label
_atom_site_fract_x
_atom_site_fract_y
_atom_site_fract_z
Si Si1 0.161540 0.492719 0.701670
Si Si2 0.389043 0.895000 0.790159
Si Si3 0.072449 0.409337 0.232419
Si Si4 0.667541 0.253970 0.321316
Si Si5 0.462636 0.126842 0.974999
O O1 0.250000 0.482124 0.721261
O O2 0.121176 0.386743 0.504686
O O3 0.142271 0.625988 0.522786
O O4 0.122994 0.481139 0.997846
O O5 0.338151 0.867968 0.533950
O O6 0.474897 0.857319 0.738812
O O7 0.390585 0.051301 0.868195
O O8 0.370082 0.798773 0.046520
O O9 0.000000 0.500000 0.280993
O O10 0.049024 0.265127 0.120274
O O11 0.750000 0.289399 0.239025
O O12 0.500000 0.000000 0.139699
#
# Coordination Sequence:
#
# PCOD9339925 Si02
#       5
#     4   4   4   4   4
#     4  11  25  40  62  92 136 169 205 265 332 377
#     4   9  21  37  58  84 116 152 193 246 307 349
#     4  12  23  42  68  98 120 172 221 264 310 392
#     4  11  20  37  59  86 117 158 201 243 292 371
#     4   8  22  41  63  86 126 151 198 263 314 348
#
# _framework density 22.654451000000002
#
# number of rings (size 3 to 8) (size 9 to 14) (size 15 to 20)
#    1.200    0.400    0.000    5.400    0.000    9.600 
#    0.000    6.000    0.000    0.000    0.000    0.000 
#    0.000    0.000    0.000    0.000    0.000    0.000 
#
# Total GULP energy -111447.861132 kJ/mol
# GULP energy per Si atom -5572.393057 kJ/mol
# Density = 2.260289 g / cm^3
# Si number density = 22.654451 Si / 1000 Ang^3
#
#
#
# Elastic Constant Matrix: (Units=GPa)
#
#
# Indices 1 2 3 4 5 6 
#
# 1 98.7276 13.5382 37.9415 0.0000 0.0000 0.0000
# 2 13.5382 83.8424 -4.5522 0.0000 0.0000 0.0000
# 3 37.9415 -4.5522 108.7109 0.0000 0.0000 0.0000
# 4 0.0000 0.0000 0.0000 0.7767 0.0000 0.0000
# 5 0.0000 0.0000 0.0000 0.0000 28.7769 0.0000
# 6 0.0000 0.0000 0.0000 0.0000 0.0000 -2.4501
#
#
#
# Elastic Compliance Matrix: (Units=1/GPa)
#
#
# Indices 1 2 3 4 5 6 
#
# 1 0.012085 -0.002185 -0.004309 0.000000 0.000000 0.000000
# 2 -0.002185 0.012349 0.001280 0.000000 0.000000 0.000000
# 3 -0.004309 0.001280 0.010756 0.000000 0.000000 0.000000
# 4 0.000000 0.000000 0.000000 1.287516 0.000000 0.000000
# 5 0.000000 0.000000 0.000000 0.000000 0.034750 0.000000
# 6 0.000000 0.000000 0.000000 0.000000 0.000000 -0.408143
#
#
# Mechanical properties :
#
#
# Convention : Reuss Voigt Hill
#
# Bulk Modulus (GPa) = 40.38602 42.79287 41.58945
# Shear Modulus (GPa) = 5.16531 21.71091 13.43811
#
# Velocity S-wave (km/s) = 1.51162 3.09908 2.43817
# Velocity P-wave (km/s) = 4.57300 5.63348 5.13071
#
# Compressibility (1/GPa) = 0.02476104
#
# Stress axis : x y z
#
# Youngs Moduli (GPa) = 82.75009 80.97494 92.96912
#
# Poissons Ratio (x) = 0.17695 0.40062
# Poissons Ratio (y) = 0.18083 -0.11898
# Poissons Ratio (z) = 0.35658 -0.10363
#
# Static dielectric constant tensor:
#      x y z
#    x 1.843160 0.000000 0.000000 
#    y 0.000000 1.954810 0.000000 
#    z 0.000000 0.000000 1.863210 
# 
# From -- ./inp_files/1041.got.cif
#   From: 2010.05.17/outbox.cif.g08.bks.cpg/sg28_1_cif.got.tgz:1041.got - 2010.06.04 01:15:21.
