data_PCOD9339531
_publ_section_title
;
Structure prediction by ZEFSAII (Michael W. Deem and Ramdas Pophale) SiO2 
 PCOD9339531
Probable space group: P M A 2
;
_chemical_formula_sum "Si O2"
_cell_formula_units_Z 32
_cell_length_a 8.594769
_cell_length_b 9.339622
_cell_length_c 21.662341
_cell_angle_alpha 90.000000
_cell_angle_beta 90.000000
_cell_angle_gamma 90.000000
_cell_volume 1738.877133
_symmetry_space_group_name_H-M "P M A 2"
_symmetry_group_IT_number 28
_symmetry_cell_setting 'orthorhombic'
loop_
_space_group_symop_operation_xyz
x,y,z
-x,-y,z
1/2-x,y,z
1/2+x,-y,z
loop_
_atom_site_type_symbol
_atom_site_label
_atom_site_fract_x
_atom_site_fract_y
_atom_site_fract_z
Si Si1 0.062297 0.662933 0.903290
Si Si2 0.435766 0.160628 0.018832
Si Si3 0.936445 0.662439 0.262700
Si Si4 0.062697 0.662020 0.767871
Si Si5 0.436735 0.839946 0.514065
Si Si6 0.563383 0.662092 0.399243
Si Si7 0.064460 0.662564 0.134374
Si Si8 0.438191 0.662032 0.633372
O O1 0.250000 0.660405 0.907555
O O2 0.015956 0.721297 0.834922
O O3 0.000000 0.500000 0.908483
O O4 0.993721 0.757298 0.957846
O O5 0.250000 0.159286 0.020284
O O6 0.499185 0.245338 0.078229
O O7 0.500000 0.000000 0.018955
O O8 0.750000 0.660460 0.256289
O O9 0.976448 0.721465 0.330601
O O10 0.009961 0.725162 0.200601
O O11 0.000000 0.500000 0.264472
O O12 0.250000 0.659059 0.767979
O O13 0.013542 0.722171 0.701065
O O14 0.000000 0.500000 0.767597
O O15 0.250000 0.841874 0.513936
O O16 0.495036 0.756025 0.453940
O O17 0.490490 0.756791 0.575795
O O18 0.500000 0.000000 0.513986
O O19 0.500000 0.500000 0.404147
O O20 0.750000 0.657265 0.403703
O O21 0.750000 0.342823 0.132255
O O22 0.000000 0.500000 0.129502
O O23 0.500000 0.500000 0.627404
O O24 0.250000 0.656204 0.632166
#
# Coordination Sequence:
#
# PCOD9339531 Si02
#       8
#     4   4   4   4   4   4   4   4
#     4  10  19  34  57  84 111 142 179 221 266 316
#     4  12  25  41  57  77 108 144 182 224 269 320
#     4   9  17  31  53  82 111 139 173 218 266 314
#     4   8  15  29  51  78 108 136 170 216 265 314
#     4  11  23  37  53  74 106 144 184 226 271 320
#     4  10  20  35  57  83 111 141 178 220 266 318
#     4  11  21  36  59  86 113 143 179 220 264 314
#     4   9  18  33  54  80 106 137 175 219 267 318
#
# _framework density 18.40268
#
# number of rings (size 3 to 8) (size 9 to 14) (size 15 to 20)
#    0.000    2.000    0.000    5.250    0.000    4.000 
#    0.000    1.250    0.000    4.500    0.000    0.000 
#    0.000    0.000    0.000    0.000    0.000    0.000 
#
# Total GULP energy -178511.689663 kJ/mol
# GULP energy per Si atom -5578.490302 kJ/mol
# Density = 1.836079 g / cm^3
# Si number density = 18.402680 Si / 1000 Ang^3
#
#
#
# Elastic Constant Matrix: (Units=GPa)
#
#
# Indices 1 2 3 4 5 6 
#
# 1 94.0229 34.6036 69.5806 0.0000 0.0000 0.0000
# 2 34.6036 83.3264 88.4521 0.0000 0.0000 0.0000
# 3 69.5806 88.4521 239.3100 0.0000 0.0000 0.0000
# 4 0.0000 0.0000 0.0000 -7.4116 0.0000 0.0000
# 5 0.0000 0.0000 0.0000 0.0000 25.0641 0.0000
# 6 0.0000 0.0000 0.0000 0.0000 0.0000 26.4229
#
#
#
# Elastic Compliance Matrix: (Units=1/GPa)
#
#
# Indices 1 2 3 4 5 6 
#
# 1 0.013844 -0.002430 -0.003127 0.000000 0.000000 0.000000
# 2 -0.002430 0.020176 -0.006751 0.000000 0.000000 0.000000
# 3 -0.003127 -0.006751 0.007583 0.000000 0.000000 0.000000
# 4 0.000000 0.000000 0.000000 -0.134924 0.000000 0.000000
# 5 0.000000 0.000000 0.000000 0.000000 0.039898 0.000000
# 6 0.000000 0.000000 0.000000 0.000000 0.000000 0.037846
#
#
# Mechanical properties :
#
#
# Convention : Reuss Voigt Hill
#
# Bulk Modulus (GPa) = 58.86517 89.10354 73.98436
# Shear Modulus (GPa) = 340.11137 23.74995 181.93066
#
# Velocity S-wave (km/s) = 13.60946 3.59635 9.95367
# Velocity P-wave (km/s) = 16.70369 8.10980 13.12978
#
# Compressibility (1/GPa) = 0.01698797
#
# Stress axis : x y z
#
# Youngs Moduli (GPa) = 72.23263 49.56335 131.87042
#
# Poissons Ratio (x) = 0.12042 0.41239
# Poissons Ratio (y) = 0.17549 0.89026
# Poissons Ratio (z) = 0.22589 0.33460
#
# Static dielectric constant tensor:
#      x y z
#    x 1.620810 0.000000 0.000000 
#    y 0.000000 1.577840 0.000000 
#    z 0.000000 0.000000 1.687360 
# 
# From -- ./inp_files/7039.got.cif
#   From: 2010.05.17/outbox.cif.g08.bks.cpg/sg28_4_cif.got.tgz:7039.got - 2010.06.04 01:15:21.
