data_PCOD9339368
_publ_section_title
;
Structure prediction by ZEFSAII (Michael W. Deem and Ramdas Pophale) SiO2 
 PCOD9339368
Probable space group: P M A 2
;
_chemical_formula_sum "Si O2"
_cell_formula_units_Z 32
_cell_length_a 8.719538
_cell_length_b 14.691024
_cell_length_c 16.077288
_cell_angle_alpha 90.000000
_cell_angle_beta 90.000000
_cell_angle_gamma 90.000000
_cell_volume 2059.483583
_symmetry_space_group_name_H-M "P M A 2"
_symmetry_group_IT_number 28
_symmetry_cell_setting 'orthorhombic'
loop_
_space_group_symop_operation_xyz
x,y,z
-x,-y,z
1/2-x,y,z
1/2+x,-y,z
loop_
_atom_site_type_symbol
_atom_site_label
_atom_site_fract_x
_atom_site_fract_y
_atom_site_fract_z
Si Si1 0.066035 0.102369 0.102830
Si Si2 0.565113 0.102010 0.458023
Si Si3 0.935131 0.218377 0.616573
Si Si4 0.434297 0.403178 0.874301
Si Si5 0.933808 0.102427 0.274126
Si Si6 0.435465 0.208942 0.936571
Si Si7 0.566042 0.101288 0.778893
Si Si8 0.066519 0.402702 0.680103
O O1 0.250000 0.096122 0.106469
O O2 0.004458 0.142537 0.190010
O O3 0.020995 0.163251 0.023860
O O4 0.000000 0.000000 0.092762
O O5 0.750000 0.094944 0.461355
O O6 0.514460 0.166602 0.533031
O O7 0.525526 0.139331 0.365752
O O8 0.500000 0.000000 0.467481
O O9 0.750000 0.224721 0.615508
O O10 0.979328 0.158223 0.696941
O O11 0.003632 0.318209 0.628263
O O12 0.500000 0.500000 0.902392
O O13 0.250000 0.408338 0.876453
O O14 0.483054 0.314130 0.925306
O O15 0.480229 0.389525 0.777351
O O16 0.750000 0.100080 0.266458
O O17 0.000000 0.000000 0.275770
O O18 0.250000 0.205618 0.930316
O O19 0.503735 0.151687 0.860473
O O20 0.750000 0.097341 0.782167
O O21 0.500000 0.000000 0.774437
O O22 0.250000 0.404754 0.676990
O O23 0.000000 0.500000 0.653408
#
# Coordination Sequence:
#
# PCOD9339368 Si02
#       8
#     4   4   4   4   4   4   4   4
#     4  10  19  30  46  66  92 123 155 192 231 272
#     4   9  18  31  47  68  95 126 157 194 233 276
#     4  10  20  33  47  68  95 124 159 193 231 276
#     4   9  18  32  49  68  90 117 151 192 233 274
#     4   9  16  28  46  66  90 119 153 192 234 273
#     4  10  20  34  48  66  93 124 157 192 231 275
#     4  11  22  32  45  64  92 128 161 191 223 266
#     4  10  19  32  51  70  92 121 155 196 238 278
#
# _framework density 15.537875
#
# number of rings (size 3 to 8) (size 9 to 14) (size 15 to 20)
#    0.000    2.250    1.250    3.000    0.000    4.500 
#    0.000    0.000    0.000    0.000    0.000    0.875 
#    0.000    4.000    0.000    0.000    0.000    0.000 
#
# Total GULP energy -178428.377495 kJ/mol
# GULP energy per Si atom -5575.886797 kJ/mol
# Density = 1.550251 g / cm^3
# Si number density = 15.537875 Si / 1000 Ang^3
#
#
#
# Elastic Constant Matrix: (Units=GPa)
#
#
# Indices 1 2 3 4 5 6 
#
# 1 23.2109 28.8521 37.4545 0.0000 0.0000 0.0000
# 2 28.8521 125.2375 77.4074 0.0000 0.0000 0.0000
# 3 37.4545 77.4074 150.6473 0.0000 0.0000 0.0000
# 4 0.0000 0.0000 0.0000 4.6415 0.0000 0.0000
# 5 0.0000 0.0000 0.0000 0.0000 -54.6310 0.0000
# 6 0.0000 0.0000 0.0000 0.0000 0.0000 24.3149
#
#
#
# Elastic Compliance Matrix: (Units=1/GPa)
#
#
# Indices 1 2 3 4 5 6 
#
# 1 0.078010 -0.008769 -0.014889 0.000000 0.000000 0.000000
# 2 -0.008769 0.012687 -0.004339 0.000000 0.000000 0.000000
# 3 -0.014889 -0.004339 0.012569 0.000000 0.000000 0.000000
# 4 0.000000 0.000000 0.000000 0.215448 0.000000 0.000000
# 5 0.000000 0.000000 0.000000 0.000000 -0.018305 0.000000
# 6 0.000000 0.000000 0.000000 0.000000 0.000000 0.041127
#
#
# Mechanical properties :
#
#
# Convention : Reuss Voigt Hill
#
# Bulk Modulus (GPa) = 21.15425 65.16931 43.16178
# Shear Modulus (GPa) = 12.09813 5.22385 8.66099
#
# Velocity S-wave (km/s) = 2.79341 1.83557 2.36352
# Velocity P-wave (km/s) = 4.90391 6.82097 5.94029
#
# Compressibility (1/GPa) = 0.04727181
#
# Stress axis : x y z
#
# Youngs Moduli (GPa) = 12.81890 78.82294 79.55958
#
# Poissons Ratio (x) = 0.69120 1.18459
# Poissons Ratio (y) = 0.11241 0.34518
# Poissons Ratio (z) = 0.19086 0.34198
#
# Static dielectric constant tensor:
#      x y z
#    x 1.524290 0.000000 0.000000 
#    y 0.000000 1.503650 0.000000 
#    z 0.000000 0.000000 1.537110 
# 
# From -- ./inp_files/6394.got.cif
#   From: 2010.05.17/outbox.cif.g08.bks.cpg/sg28_4_cif.got.tgz:6394.got - 2010.06.04 01:15:21.
