data_PCOD9339221
_publ_section_title
;
Structure prediction by ZEFSAII (Michael W. Deem and Ramdas Pophale) SiO2 
 PCOD9339221
Probable space group: P C C 2
;
_chemical_formula_sum "Si O2"
_cell_formula_units_Z 22
_cell_length_a 5.193396
_cell_length_b 14.101479
_cell_length_c 12.853213
_cell_angle_alpha 90.000000
_cell_angle_beta 90.000000
_cell_angle_gamma 90.000000
_cell_volume 941.299458
_symmetry_space_group_name_H-M "P C C 2"
_symmetry_group_IT_number 27
_symmetry_cell_setting 'orthorhombic'
loop_
_space_group_symop_operation_xyz
x,y,z
-x,-y,z
-x,y,1/2+z
x,-y,1/2+z
loop_
_atom_site_type_symbol
_atom_site_label
_atom_site_fract_x
_atom_site_fract_y
_atom_site_fract_z
Si Si1 0.434170 0.801515 0.342020
Si Si2 0.761304 0.644394 0.391573
Si Si3 0.869990 0.400527 0.671010
Si Si4 0.911562 0.783755 0.032341
Si Si5 0.944580 0.109451 0.733193
Si Si6 0.500000 0.500000 0.042041
O O1 0.508788 0.690801 0.339009
O O2 0.340054 0.809510 0.463012
O O3 0.677680 0.857025 0.289603
O O4 0.185086 0.832405 0.278523
O O5 0.916382 0.609623 0.292501
O O6 0.689438 0.557238 0.464880
O O7 0.892763 0.733454 0.450397
O O8 0.921750 0.301286 0.616422
O O9 0.590568 0.419635 0.621723
O O10 0.000000 0.500000 0.638714
O O11 0.949390 0.872463 0.108769
O O12 0.000000 0.000000 0.756779
#
# Coordination Sequence:
#
# PCOD9339221 Si02
#       6
#     4   4   4   4   4   2
#     4  12  26  52  82 114 155 205 258 333 401 472
#     4  12  27  46  74 115 158 212 266 323 388 471
#     4  12  26  43  71 110 158 207 260 321 374 466
#     4  12  26  49  81 111 161 209 264 323 403 470
#     4  12  30  54  82 118 156 199 267 335 410 483
#     4  12  26  40  72 112 156 206 264 312 388 456
#
# _framework density 23.371949000000001
#
# number of rings (size 3 to 8) (size 9 to 14) (size 15 to 20)
#    0.000    0.000    7.273    1.091    7.636    3.636 
#    3.273    0.000    0.000    0.000    0.000    0.000 
#    0.000    0.000    0.000    0.000    0.000    0.000 
#
# Total GULP energy -122524.300848 kJ/mol
# GULP energy per Si atom -5569.286402 kJ/mol
# Density = 2.331875 g / cm^3
# Si number density = 23.371949 Si / 1000 Ang^3
#
#
#
# Elastic Constant Matrix: (Units=GPa)
#
#
# Indices 1 2 3 4 5 6 
#
# 1 116.3600 43.5260 60.4733 0.0000 0.0000 0.0000
# 2 43.5260 72.3128 58.0168 0.0000 0.0000 0.0000
# 3 60.4733 58.0168 149.2449 0.0000 0.0000 0.0000
# 4 0.0000 0.0000 0.0000 18.6119 0.0000 0.0000
# 5 0.0000 0.0000 0.0000 0.0000 31.0033 0.0000
# 6 0.0000 0.0000 0.0000 0.0000 0.0000 16.8246
#
#
#
# Elastic Compliance Matrix: (Units=1/GPa)
#
#
# Indices 1 2 3 4 5 6 
#
# 1 0.011933 -0.004800 -0.002969 0.000000 0.000000 0.000000
# 2 -0.004800 0.022028 -0.006618 0.000000 0.000000 0.000000
# 3 -0.002969 -0.006618 0.010476 0.000000 0.000000 0.000000
# 4 0.000000 0.000000 0.000000 0.053729 0.000000 0.000000
# 5 0.000000 0.000000 0.000000 0.000000 0.032255 0.000000
# 6 0.000000 0.000000 0.000000 0.000000 0.000000 0.059437
#
#
# Mechanical properties :
#
#
# Convention : Reuss Voigt Hill
#
# Bulk Modulus (GPa) = 63.84900 73.54999 68.69950
# Shear Modulus (GPa) = 22.33618 25.01474 23.67546
#
# Velocity S-wave (km/s) = 3.09477 3.27508 3.18620
# Velocity P-wave (km/s) = 6.33625 6.77046 6.55695
#
# Compressibility (1/GPa) = 0.01566195
#
# Stress axis : x y z
#
# Youngs Moduli (GPa) = 83.80347 45.39717 95.45615
#
# Poissons Ratio (x) = 0.21793 0.28341
# Poissons Ratio (y) = 0.40229 0.63172
# Poissons Ratio (z) = 0.24881 0.30043
#
# Static dielectric constant tensor:
#      x y z
#    x 2.075260 0.000000 0.000000 
#    y 0.000000 1.063430 0.000000 
#    z 0.000000 0.000000 1.965320 
# 
# From -- ./inp_files/1983.got.cif
#   From: 2010.05.17/outbox.cif.g08.bks.cpg/sg27_1_cif.got.tgz:1983.got - 2010.06.04 01:11:05.
