data_PCOD9339187
_publ_section_title
;
Structure prediction by ZEFSAII (Michael W. Deem and Ramdas Pophale) SiO2 
 PCOD9339187
Probable space group: P C C 2
;
_chemical_formula_sum "Si O2"
_cell_formula_units_Z 24
_cell_length_a 14.208304
_cell_length_b 5.002963
_cell_length_c 13.289736
_cell_angle_alpha 90.000000
_cell_angle_beta 90.000000
_cell_angle_gamma 90.000000
_cell_volume 944.682533
_symmetry_space_group_name_H-M "P C C 2"
_symmetry_group_IT_number 27
_symmetry_cell_setting 'orthorhombic'
loop_
_space_group_symop_operation_xyz
x,y,z
-x,-y,z
-x,y,1/2+z
x,-y,1/2+z
loop_
_atom_site_type_symbol
_atom_site_label
_atom_site_fract_x
_atom_site_fract_y
_atom_site_fract_z
Si Si1 0.000000 0.500000 0.922230
Si Si2 0.000000 0.000000 0.595249
Si Si3 0.500000 0.500000 0.355803
Si Si4 0.141111 0.601348 0.548807
Si Si5 0.874899 0.720458 0.748478
Si Si6 0.338429 0.277463 0.097309
Si Si7 0.500000 0.000000 0.470408
Si Si8 0.335221 0.219731 0.731790
O O1 0.949603 0.693263 0.835684
O O2 0.890450 0.386022 0.966178
O O3 0.956945 0.238529 0.529831
O O4 0.086087 0.065287 0.668424
O O5 0.451224 0.248454 0.412400
O O6 0.579416 0.335010 0.296106
O O7 0.132034 0.517218 0.665214
O O8 0.239608 0.744511 0.538641
O O9 0.767452 0.757809 0.781337
O O10 0.424417 0.170037 0.032850
O O11 0.339672 0.584505 0.133658
O O12 0.342251 0.083360 0.193882
#
# Coordination Sequence:
#
# PCOD9339187 Si02
#       8
#     2   2   2   4   4   4   2   4
#     4  12  22  42  64 100 140 186 232 300 364 426
#     4  12  18  46  62  94 134 180 230 302 342 422
#     4  12  26  46  72 108 148 174 244 318 368 438
#     4  11  24  42  65  97 140 185 237 295 353 444
#     4  11  24  42  66  98 145 181 245 295 362 435
#     4  11  24  46  74  99 140 196 243 287 376 446
#     4  12  26  46  70 112 144 176 240 326 366 438
#     4  11  24  46  73  99 137 200 239 290 369 453
#
# _framework density 25.405356999999999
#
# number of rings (size 3 to 8) (size 9 to 14) (size 15 to 20)
#    0.000    0.667    5.000    3.000    2.333    0.667 
#    3.000    0.000    0.000    0.000    0.000    0.000 
#    0.000    0.000    0.000    0.000    0.000    0.000 
#
# Total GULP energy -133677.356534 kJ/mol
# GULP energy per Si atom -5569.889856 kJ/mol
# Density = 2.534753 g / cm^3
# Si number density = 25.405357 Si / 1000 Ang^3
#
#
#
# Elastic Constant Matrix: (Units=GPa)
#
#
# Indices 1 2 3 4 5 6 
#
# 1 154.7792 11.3269 30.9853 0.0000 0.0000 0.0000
# 2 11.3269 60.2001 -10.8564 0.0000 0.0000 0.0000
# 3 30.9853 -10.8564 89.1706 0.0000 0.0000 0.0000
# 4 0.0000 0.0000 0.0000 10.0715 0.0000 0.0000
# 5 0.0000 0.0000 0.0000 0.0000 -41.4347 0.0000
# 6 0.0000 0.0000 0.0000 0.0000 0.0000 40.0192
#
#
#
# Elastic Compliance Matrix: (Units=1/GPa)
#
#
# Indices 1 2 3 4 5 6 
#
# 1 0.007136 -0.001830 -0.002702 0.000000 0.000000 0.000000
# 2 -0.001830 0.017453 0.002761 0.000000 0.000000 0.000000
# 3 -0.002702 0.002761 0.012490 0.000000 0.000000 0.000000
# 4 0.000000 0.000000 0.000000 0.099290 0.000000 0.000000
# 5 0.000000 0.000000 0.000000 0.000000 -0.024134 0.000000
# 6 0.000000 0.000000 0.000000 0.000000 0.000000 0.024988
#
#
# Mechanical properties :
#
#
# Convention : Reuss Voigt Hill
#
# Bulk Modulus (GPa) = 29.81885 40.78461 35.30173
# Shear Modulus (GPa) = 32.90688 19.91081 26.40884
#
# Velocity S-wave (km/s) = 3.60289 2.80255 3.22762
# Velocity P-wave (km/s) = 5.39171 5.15371 5.27405
#
# Compressibility (1/GPa) = 0.03353584
#
# Stress axis : x y z
#
# Youngs Moduli (GPa) = 140.14014 57.29521 80.06660
#
# Poissons Ratio (x) = 0.10485 0.21637
# Poissons Ratio (y) = 0.25645 -0.22105
# Poissons Ratio (z) = 0.37871 -0.15818
#
# Static dielectric constant tensor:
#      x y z
#    x 2.415840 0.000000 0.000000 
#    y 0.000000 2.205180 0.000000 
#    z 0.000000 0.000000 2.144200 
# 
# From -- ./inp_files/3065.got.cif
#   From: 2010.05.17/outbox.cif.g08.bks.cpg/sg27_2_cif.got.tgz:3065.got - 2010.06.04 01:11:05.
