data_PCOD9339505
_publ_section_title
;
Structure prediction by ZEFSAII (Michael W. Deem and Ramdas Pophale) SiO2 
 PCOD9339505
Probable space group: P M A 2
;
_chemical_formula_sum "Si O2"
_cell_formula_units_Z 32
_cell_length_a 8.676688
_cell_length_b 14.623504
_cell_length_c 16.075106
_cell_angle_alpha 90.000000
_cell_angle_beta 90.000000
_cell_angle_gamma 90.000000
_cell_volume 2039.667025
_symmetry_space_group_name_H-M "P M A 2"
_symmetry_group_IT_number 28
_symmetry_cell_setting 'orthorhombic'
loop_
_space_group_symop_operation_xyz
x,y,z
-x,-y,z
1/2-x,y,z
1/2+x,-y,z
loop_
_atom_site_type_symbol
_atom_site_label
_atom_site_fract_x
_atom_site_fract_y
_atom_site_fract_z
Si Si1 0.436687 0.719794 0.769070
Si Si2 0.065176 0.603129 0.111910
Si Si3 0.566673 0.603149 0.284117
Si Si4 0.435617 0.601882 0.607740
Si Si5 0.066200 0.098035 0.700281
Si Si6 0.935062 0.097673 0.514247
Si Si7 0.064343 0.602700 0.928159
Si Si8 0.063984 0.709975 0.440717
O O1 0.250000 0.727568 0.768507
O O2 0.482793 0.658863 0.689155
O O3 0.508760 0.819197 0.757098
O O4 0.484800 0.667655 0.852892
O O5 0.250000 0.601622 0.119553
O O6 0.000000 0.500000 0.110045
O O7 0.994392 0.642885 0.196203
O O8 0.023468 0.640092 0.020319
O O9 0.500000 0.500000 0.294071
O O10 0.750000 0.596505 0.281729
O O11 0.511496 0.664652 0.360570
O O12 0.500000 0.500000 0.609780
O O13 0.250000 0.597968 0.608122
O O14 0.482479 0.653947 0.523516
O O15 0.250000 0.094364 0.696688
O O16 0.000758 0.114083 0.606972
O O17 0.000000 0.000000 0.727450
O O18 0.750000 0.093083 0.520582
O O19 0.976038 0.184103 0.457135
O O20 0.000000 0.000000 0.485556
O O21 0.250000 0.595816 0.925394
O O22 0.000000 0.500000 0.918309
O O23 0.250000 0.703725 0.433273
#
# Coordination Sequence:
#
# PCOD9339505 Si02
#       8
#     4   4   4   4   4   4   4   4
#     4  10  19  34  49  68  98 130 162 199 240 286
#     4   9  16  29  47  69  94 125 161 199 243 286
#     4  11  21  32  48  70  96 129 164 203 243 285
#     4  10  20  32  45  63  94 131 164 193 229 273
#     4  11  21  33  51  72  94 124 162 203 245 286
#     4  10  19  34  53  72  96 124 158 200 246 286
#     4   9  18  30  49  72  99 131 163 200 240 283
#     4  10  20  34  49  68  95 130 162 197 240 283
#
# _framework density 15.688836
#
# number of rings (size 3 to 8) (size 9 to 14) (size 15 to 20)
#    0.000    2.000    1.250    5.250    0.000    4.000 
#    0.000    0.000    0.000    0.000    0.000    0.875 
#    0.000    4.000    0.000    0.000    0.000    0.000 
#
# Total GULP energy -178509.363499 kJ/mol
# GULP energy per Si atom -5578.417609 kJ/mol
# Density = 1.565313 g / cm^3
# Si number density = 15.688836 Si / 1000 Ang^3
#
#
#
# Elastic Constant Matrix: (Units=GPa)
#
#
# Indices 1 2 3 4 5 6 
#
# 1 58.7609 41.7074 47.6715 0.0000 0.0000 0.0000
# 2 41.7074 118.3388 77.1180 0.0000 0.0000 0.0000
# 3 47.6715 77.1180 152.6019 0.0000 0.0000 0.0000
# 4 0.0000 0.0000 0.0000 7.9680 0.0000 0.0000
# 5 0.0000 0.0000 0.0000 0.0000 17.1054 0.0000
# 6 0.0000 0.0000 0.0000 0.0000 0.0000 26.1653
#
#
#
# Elastic Compliance Matrix: (Units=1/GPa)
#
#
# Indices 1 2 3 4 5 6 
#
# 1 0.025026 -0.005555 -0.005011 0.000000 0.000000 0.000000
# 2 -0.005555 0.013833 -0.005255 0.000000 0.000000 0.000000
# 3 -0.005011 -0.005255 0.010774 0.000000 0.000000 0.000000
# 4 0.000000 0.000000 0.000000 0.125502 0.000000 0.000000
# 5 0.000000 0.000000 0.000000 0.000000 0.058461 0.000000
# 6 0.000000 0.000000 0.000000 0.000000 0.000000 0.038219
#
#
# Mechanical properties :
#
#
# Convention : Reuss Voigt Hill
#
# Bulk Modulus (GPa) = 55.58253 73.63283 64.60768
# Shear Modulus (GPa) = 16.15757 21.12805 18.64281
#
# Velocity S-wave (km/s) = 3.21265 3.67371 3.45089
# Velocity P-wave (km/s) = 7.01901 8.06412 7.55965
#
# Compressibility (1/GPa) = 0.01799126
#
# Stress axis : x y z
#
# Youngs Moduli (GPa) = 39.95859 72.29261 92.81593
#
# Poissons Ratio (x) = 0.40157 0.46508
# Poissons Ratio (y) = 0.22196 0.48776
# Poissons Ratio (z) = 0.20022 0.37991
#
# Static dielectric constant tensor:
#      x y z
#    x 1.525760 0.000000 0.000000 
#    y 0.000000 1.496910 0.000000 
#    z 0.000000 0.000000 1.538450 
# 
# From -- ./inp_files/6437.got.cif
#   From: 2010.05.17/outbox.cif.g08.bks.cpg/sg28_4_cif.got.tgz:6437.got - 2010.06.04 01:15:21.
