data_PCOD9339347
_publ_section_title
;
Structure prediction by ZEFSAII (Michael W. Deem and Ramdas Pophale) SiO2 
 PCOD9339347
Probable space group: P M A 2
;
_chemical_formula_sum "Si O2"
_cell_formula_units_Z 20
_cell_length_a 10.357837
_cell_length_b 7.563379
_cell_length_c 11.883210
_cell_angle_alpha 90.000000
_cell_angle_beta 90.000000
_cell_angle_gamma 90.000000
_cell_volume 930.933605
_symmetry_space_group_name_H-M "P M A 2"
_symmetry_group_IT_number 28
_symmetry_cell_setting 'orthorhombic'
loop_
_space_group_symop_operation_xyz
x,y,z
-x,-y,z
1/2-x,y,z
1/2+x,-y,z
loop_
_atom_site_type_symbol
_atom_site_label
_atom_site_fract_x
_atom_site_fract_y
_atom_site_fract_z
Si Si1 0.407897 0.827274 0.168180
Si Si2 0.250000 0.686942 0.790964
Si Si3 0.750000 0.730084 0.819764
Si Si4 0.250000 0.771002 0.536948
Si Si5 0.500914 0.783378 0.405475
Si Si6 0.750000 0.801682 0.550002
Si Si7 0.986734 0.290179 0.923846
O O1 0.250000 0.855240 0.184209
O O2 0.471153 0.730465 0.276581
O O3 0.500000 0.000000 0.159408
O O4 0.434684 0.734958 0.049609
O O5 0.250000 0.483306 0.828463
O O6 0.250000 0.691730 0.659006
O O7 0.122990 0.776668 0.839646
O O8 0.750000 0.764040 0.684530
O O9 0.622872 0.792191 0.886825
O O10 0.377911 0.717827 0.472967
O O11 0.250000 0.984522 0.543967
O O12 0.626894 0.736433 0.477638
O O13 0.500000 0.000000 0.402772
O O14 0.000000 0.500000 0.906589
#
# Coordination Sequence:
#
# PCOD9339347 Si02
#       7
#     4   2   2   2   4   2   4
#     4  11  23  39  62  90 118 151 196 246 291 347
#     4  10  20  37  58  80 114 157 193 240 295 340
#     4  10  22  37  56  86 116 151 197 238 287 348
#     4  10  18  33  56  80 108 151 187 230 287 346
#     4   9  19  34  56  82 114 146 186 232 293 341
#     4  10  20  35  56  84 114 147 189 238 283 348
#     4  10  22  40  60  82 118 160 195 238 295 348
#
# _framework density 21.483809999999998
#
# number of rings (size 3 to 8) (size 9 to 14) (size 15 to 20)
#    0.000    2.000    2.000    1.200    5.600    1.600 
#    0.000    2.000    0.000    0.000    0.000    0.000 
#    0.000    0.000    0.000    0.000    0.000    0.000 
#
# Total GULP energy -111488.618136 kJ/mol
# GULP energy per Si atom -5574.430907 kJ/mol
# Density = 2.143491 g / cm^3
# Si number density = 21.483810 Si / 1000 Ang^3
#
#
#
# Elastic Constant Matrix: (Units=GPa)
#
#
# Indices 1 2 3 4 5 6 
#
# 1 144.7669 -3.5110 36.8863 0.0000 0.0000 0.0000
# 2 -3.5110 28.4035 -32.5564 0.0000 0.0000 0.0000
# 3 36.8863 -32.5564 111.1441 0.0000 0.0000 0.0000
# 4 0.0000 0.0000 0.0000 29.2026 0.0000 0.0000
# 5 0.0000 0.0000 0.0000 0.0000 43.1361 0.0000
# 6 0.0000 0.0000 0.0000 0.0000 0.0000 -10.1299
#
#
#
# Elastic Compliance Matrix: (Units=1/GPa)
#
#
# Indices 1 2 3 4 5 6 
#
# 1 0.007710 -0.002980 -0.003432 0.000000 0.000000 0.000000
# 2 -0.002980 0.054155 0.016852 0.000000 0.000000 0.000000
# 3 -0.003432 0.016852 0.015073 0.000000 0.000000 0.000000
# 4 0.000000 0.000000 0.000000 0.034244 0.000000 0.000000
# 5 0.000000 0.000000 0.000000 0.000000 0.023182 0.000000
# 6 0.000000 0.000000 0.000000 0.000000 0.000000 -0.098717
#
#
# Mechanical properties :
#
#
# Convention : Reuss Voigt Hill
#
# Bulk Modulus (GPa) = 10.22320 31.77249 20.99785
# Shear Modulus (GPa) = 105.54918 31.34147 68.44533
#
# Velocity S-wave (km/s) = 7.01686 3.82362 5.65050
# Velocity P-wave (km/s) = 8.39150 5.85787 7.23643
#
# Compressibility (1/GPa) = 0.09781671
#
# Stress axis : x y z
#
# Youngs Moduli (GPa) = 129.70551 18.46567 66.34559
#
# Poissons Ratio (x) = 0.05504 0.22768
# Poissons Ratio (y) = 0.38659 -1.11807
# Poissons Ratio (z) = 0.44512 -0.31119
#
# Static dielectric constant tensor:
#      x y z
#    x 1.821540 0.000000 0.000000 
#    y 0.000000 1.806410 0.000000 
#    z 0.000000 0.000000 1.749580 
# 
# From -- ./inp_files/2307.got.cif
#   From: 2010.05.17/outbox.cif.g08.bks.cpg/sg28_2_cif.got.tgz:2307.got - 2010.06.04 01:15:21.
