data_PCOD9339915
_publ_section_title
;
Structure prediction by ZEFSAII (Michael W. Deem and Ramdas Pophale) SiO2 
 PCOD9339915
Probable space group: P M A 2
;
_chemical_formula_sum "Si O2"
_cell_formula_units_Z 32
_cell_length_a 8.741548
_cell_length_b 15.732427
_cell_length_c 12.023351
_cell_angle_alpha 90.000000
_cell_angle_beta 90.000000
_cell_angle_gamma 90.000000
_cell_volume 1653.520553
_symmetry_space_group_name_H-M "P M A 2"
_symmetry_group_IT_number 28
_symmetry_cell_setting 'orthorhombic'
loop_
_space_group_symop_operation_xyz
x,y,z
-x,-y,z
1/2-x,y,z
1/2+x,-y,z
loop_
_atom_site_type_symbol
_atom_site_label
_atom_site_fract_x
_atom_site_fract_y
_atom_site_fract_z
Si Si1 0.567083 0.351101 0.063940
Si Si2 0.932553 0.589508 0.297284
Si Si3 0.432389 0.742814 0.694842
Si Si4 0.932361 0.252846 0.432286
Si Si5 0.933101 0.089075 0.834090
Si Si6 0.567122 0.838708 0.059372
Si Si7 0.568338 0.588260 0.831553
Si Si8 0.067523 0.091970 0.304884
O O1 0.750000 0.356089 0.067219
O O2 0.496760 0.393274 0.173656
O O3 0.513608 0.252993 0.061478
O O4 0.504508 0.394349 0.952475
O O5 0.750000 0.586279 0.294083
O O6 0.000000 0.500000 0.337787
O O7 0.987881 0.667566 0.372804
O O8 0.250000 0.728700 0.711475
O O9 0.462688 0.746320 0.563842
O O10 0.470771 0.831979 0.753899
O O11 0.521432 0.666794 0.753996
O O12 0.750000 0.258777 0.414492
O O13 0.993696 0.166448 0.377696
O O14 0.750000 0.083410 0.843750
O O15 0.000000 0.000000 0.792942
O O16 0.004575 0.109816 0.954310
O O17 0.750000 0.826646 0.049258
O O18 0.535923 0.885863 0.175483
O O19 0.500000 0.500000 0.787503
O O20 0.750000 0.582423 0.841608
O O21 0.250000 0.092206 0.320140
O O22 0.000000 0.000000 0.331997
#
# Coordination Sequence:
#
# PCOD9339915 Si02
#       8
#     4   4   4   4   4   4   4   4
#     4  12  23  39  65  96 132 169 206 256 317 380
#     4  12  25  43  66  96 130 167 213 261 316 382
#     4  10  24  45  66  92 126 167 216 266 317 375
#     4  11  24  44  68  93 126 168 215 268 321 377
#     4  11  23  40  64  93 129 168 210 263 315 377
#     4  11  22  38  63  96 130 166 208 257 314 381
#     4  12  25  42  67  96 130 169 211 260 315 378
#     4  11  24  41  64  94 131 168 213 264 316 381
#
# _framework density 19.352647000000001
#
# number of rings (size 3 to 8) (size 9 to 14) (size 15 to 20)
#    0.000    0.750    2.500    5.625    0.000    5.000 
#    0.000    1.250    0.000    0.000    0.000    0.000 
#    0.000    0.000    0.000    0.000    0.000    0.000 
#
# Total GULP energy -179144.094674 kJ/mol
# GULP energy per Si atom -5598.252959 kJ/mol
# Density = 1.930860 g / cm^3
# Si number density = 19.352647 Si / 1000 Ang^3
#
#
#
# Elastic Constant Matrix: (Units=GPa)
#
#
# Indices 1 2 3 4 5 6 
#
# 1 141.2151 88.9616 79.3020 0.0000 0.0000 0.0000
# 2 88.9616 179.4042 60.0298 0.0000 0.0000 0.0000
# 3 79.3020 60.0298 100.6474 0.0000 0.0000 0.0000
# 4 0.0000 0.0000 0.0000 -8.8371 0.0000 0.0000
# 5 0.0000 0.0000 0.0000 0.0000 -11.0302 0.0000
# 6 0.0000 0.0000 0.0000 0.0000 0.0000 39.9362
#
#
#
# Elastic Compliance Matrix: (Units=1/GPa)
#
#
# Indices 1 2 3 4 5 6 
#
# 1 0.015005 -0.004353 -0.009226 0.000000 0.000000 0.000000
# 2 -0.004353 0.008227 -0.001477 0.000000 0.000000 0.000000
# 3 -0.009226 -0.001477 0.018086 0.000000 0.000000 0.000000
# 4 0.000000 0.000000 0.000000 -0.113159 0.000000 0.000000
# 5 0.000000 0.000000 0.000000 0.000000 -0.090660 0.000000
# 6 0.000000 0.000000 0.000000 0.000000 0.000000 0.025040
#
#
# Mechanical properties :
#
#
# Convention : Reuss Voigt Hill
#
# Bulk Modulus (GPa) = 89.24405 97.53928 93.39166
# Shear Modulus (GPa) = -48.25608 16.87868 -15.68870
#
# Velocity S-wave (km/s) = -4.99893 2.95645 -2.85032
# Velocity P-wave (km/s) = 3.59106 7.88445 6.12618
#
# Compressibility (1/GPa) = 0.01120523
#
# Stress axis : x y z
#
# Youngs Moduli (GPa) = 66.64374 121.55307 55.29152
#
# Poissons Ratio (x) = 0.52918 0.51014
# Poissons Ratio (y) = 0.29013 0.08164
# Poissons Ratio (z) = 0.61487 0.17949
#
# Static dielectric constant tensor:
#      x y z
#    x 1.645770 0.000000 0.000000 
#    y 0.000000 1.664330 0.000000 
#    z 0.000000 0.000000 1.649130 
# 
# From -- ./inp_files/5091.got.cif
#   From: 2010.05.17/outbox.cif.g08.bks.cpg/sg28_3_cif.got.tgz:5091.got - 2010.06.04 01:15:21.
