data_PCOD9339300
_publ_section_title
;
Structure prediction by ZEFSAII (Michael W. Deem and Ramdas Pophale) SiO2 
 PCOD9339300
Probable space group: P M A 2
;
_chemical_formula_sum "Si O2"
_cell_formula_units_Z 24
_cell_length_a 8.581217
_cell_length_b 9.251214
_cell_length_c 16.122972
_cell_angle_alpha 90.000000
_cell_angle_beta 90.000000
_cell_angle_gamma 90.000000
_cell_volume 1279.949136
_symmetry_space_group_name_H-M "P M A 2"
_symmetry_group_IT_number 28
_symmetry_cell_setting 'orthorhombic'
loop_
_space_group_symop_operation_xyz
x,y,z
-x,-y,z
1/2-x,y,z
1/2+x,-y,z
loop_
_atom_site_type_symbol
_atom_site_label
_atom_site_fract_x
_atom_site_fract_y
_atom_site_fract_z
Si Si1 0.435878 0.164677 0.160640
Si Si2 0.561914 0.337933 0.497645
Si Si3 0.562767 0.163705 0.987425
Si Si4 0.437233 0.836295 0.333855
Si Si5 0.438444 0.837614 0.660640
Si Si6 0.938086 0.337933 0.823635
O O1 0.250000 0.162802 0.160640
O O2 0.498560 0.226819 0.247159
O O3 0.500000 0.000000 0.160640
O O4 0.498560 0.226819 0.074121
O O5 0.500000 0.500000 0.500791
O O6 0.750000 0.341674 0.498562
O O7 0.514041 0.257110 0.413208
O O8 0.510283 0.247594 0.578208
O O9 0.750000 0.157869 0.991669
O O10 0.514041 0.257110 0.908072
O O11 0.500000 0.000000 0.978167
O O12 0.250000 0.842131 0.329611
O O13 0.500000 0.000000 0.343113
O O14 0.250000 0.841572 0.660640
O O15 0.489717 0.752406 0.743072
O O16 0.500000 0.000000 0.660640
O O17 0.750000 0.341674 0.822718
O O18 0.000000 0.500000 0.820489
#
# Coordination Sequence:
#
# PCOD9339300 Si02
#       6
#     4   4   4   4   4   4
#     4  10  18  30  51  78 105 138 176 220 268 314
#     4  10  22  37  55  79 110 143 178 217 263 315
#     4  10  19  33  53  79 107 139 178 222 265 313
#     4  10  19  33  53  79 107 139 178 222 265 313
#     4  10  21  38  58  84 110 138 177 220 262 312
#     4  10  22  37  55  79 110 143 178 217 263 315
#
# _framework density 18.750744000000001
#
# number of rings (size 3 to 8) (size 9 to 14) (size 15 to 20)
#    0.000    2.000    0.000    6.000    0.000    4.000 
#    0.000    0.833    0.000    0.000    0.000    0.000 
#    0.000    0.000    0.000    0.000    0.000    0.000 
#
# Total GULP energy -134010.427978 kJ/mol
# GULP energy per Si atom -5583.767832 kJ/mol
# Density = 1.870807 g / cm^3
# Si number density = 18.750744 Si / 1000 Ang^3
#
#
#
# Elastic Constant Matrix: (Units=GPa)
#
#
# Indices 1 2 3 4 5 6 
#
# 1 52.7300 25.7604 49.9491 0.0000 0.0000 0.0000
# 2 25.7604 126.8753 106.1876 0.0000 0.0000 0.0000
# 3 49.9491 106.1876 240.1146 0.0000 0.0000 0.0000
# 4 0.0000 0.0000 0.0000 -6.3272 0.0000 0.0000
# 5 0.0000 0.0000 0.0000 0.0000 14.0280 0.0000
# 6 0.0000 0.0000 0.0000 0.0000 0.0000 31.0755
#
#
#
# Elastic Compliance Matrix: (Units=1/GPa)
#
#
# Indices 1 2 3 4 5 6 
#
# 1 0.023713 -0.001089 -0.004451 0.000000 0.000000 0.000000
# 2 -0.001089 0.012563 -0.005329 0.000000 0.000000 0.000000
# 3 -0.004451 -0.005329 0.007447 0.000000 0.000000 0.000000
# 4 0.000000 0.000000 0.000000 -0.158047 0.000000 0.000000
# 5 0.000000 0.000000 0.000000 0.000000 0.071286 0.000000
# 6 0.000000 0.000000 0.000000 0.000000 0.000000 0.032180
#
#
# Mechanical properties :
#
#
# Convention : Reuss Voigt Hill
#
# Bulk Modulus (GPa) = 45.48706 87.05713 66.27209
# Shear Modulus (GPa) = 274.57050 23.61011 149.09031
#
# Velocity S-wave (km/s) = 12.11403 3.55231 8.92661
# Velocity P-wave (km/s) = 14.83165 7.95956 11.90236
#
# Compressibility (1/GPa) = 0.02198428
#
# Stress axis : x y z
#
# Youngs Moduli (GPa) = 42.17083 79.59688 134.27415
#
# Poissons Ratio (x) = 0.08671 0.59767
# Poissons Ratio (y) = 0.04594 0.71560
# Poissons Ratio (z) = 0.18771 0.42420
#
# Static dielectric constant tensor:
#      x y z
#    x 1.635490 0.000000 0.000000 
#    y 0.000000 1.609710 0.000000 
#    z 0.000000 0.000000 1.684240 
# 
# From -- ./inp_files/6046.got.cif
#   From: 2010.05.17/outbox.cif.g08.bks.cpg/sg28_4_cif.got.tgz:6046.got - 2010.06.04 01:15:21.
