data_PCOD9339334
_publ_section_title
;
Structure prediction by ZEFSAII (Michael W. Deem and Ramdas Pophale) SiO2 
 PCOD9339334
Probable space group: P M A 2
;
_chemical_formula_sum "Si O2"
_cell_formula_units_Z 28
_cell_length_a 8.839402
_cell_length_b 18.407906
_cell_length_c 9.806554
_cell_angle_alpha 90.000000
_cell_angle_beta 90.000000
_cell_angle_gamma 90.000000
_cell_volume 1595.672268
_symmetry_space_group_name_H-M "P M A 2"
_symmetry_group_IT_number 28
_symmetry_cell_setting 'orthorhombic'
loop_
_space_group_symop_operation_xyz
x,y,z
-x,-y,z
1/2-x,y,z
1/2+x,-y,z
loop_
_atom_site_type_symbol
_atom_site_label
_atom_site_fract_x
_atom_site_fract_y
_atom_site_fract_z
Si Si1 0.079613 0.193876 0.733120
Si Si2 0.431577 0.079497 0.157416
Si Si3 0.571343 0.420741 0.729191
Si Si4 0.575049 0.072752 0.860378
Si Si5 0.924637 0.686204 0.509345
Si Si6 0.569188 0.300278 0.946057
Si Si7 0.066043 0.244377 0.225541
O O1 0.250000 0.165577 0.753475
O O2 0.073969 0.239659 0.596433
O O3 0.956665 0.131995 0.746688
O O4 0.033200 0.247865 0.853833
O O5 0.250000 0.072568 0.160033
O O6 0.471205 0.157160 0.229270
O O7 0.500000 0.000000 0.201094
O O8 0.489680 0.090590 0.002000
O O9 0.500000 0.500000 0.730095
O O10 0.750000 0.426945 0.713497
O O11 0.510448 0.372319 0.602672
O O12 0.543706 0.377921 0.872243
O O13 0.750000 0.064302 0.891690
O O14 0.500000 0.000000 0.809006
O O15 0.750000 0.661782 0.498209
O O16 0.978599 0.710529 0.360483
O O17 0.750000 0.284212 0.934153
O O18 0.513989 0.283741 0.098106
O O19 0.250000 0.247918 0.211719
#
# Coordination Sequence:
#
# PCOD9339334 Si02
#       7
#     4   4   4   4   4   4   4
#     4  10  18  32  52  74 102 137 178 222 268 318
#     4  10  19  31  49  74 105 142 184 227 277 325
#     4  10  21  38  60  86 112 141 178 221 268 327
#     4  11  20  30  47  72 102 135 179 229 279 325
#     4   9  20  37  57  80 109 147 183 219 268 326
#     4  10  20  33  54  82 108 136 177 222 266 315
#     4  10  20  35  55  80 111 146 185 225 272 326
#
# _framework density 17.547463
#
# number of rings (size 3 to 8) (size 9 to 14) (size 15 to 20)
#    0.000    2.000    1.429    3.857    0.000    3.429 
#    0.000    1.429    0.000    3.429    0.000    0.000 
#    0.000    0.000    0.000    0.000    0.000    0.000 
#
# Total GULP energy -155943.622126 kJ/mol
# GULP energy per Si atom -5569.415076 kJ/mol
# Density = 1.750752 g / cm^3
# Si number density = 17.547463 Si / 1000 Ang^3
#
#
#
# Elastic Constant Matrix: (Units=GPa)
#
#
# Indices 1 2 3 4 5 6 
#
# 1 61.4810 39.7212 28.7840 0.0000 0.0000 0.0000
# 2 39.7212 109.9846 37.9046 0.0000 0.0000 0.0000
# 3 28.7840 37.9046 102.4126 0.0000 0.0000 0.0000
# 4 0.0000 0.0000 0.0000 17.1209 0.0000 0.0000
# 5 0.0000 0.0000 0.0000 0.0000 28.1750 0.0000
# 6 0.0000 0.0000 0.0000 0.0000 0.0000 27.9676
#
#
#
# Elastic Compliance Matrix: (Units=1/GPa)
#
#
# Indices 1 2 3 4 5 6 
#
# 1 0.022429 -0.006794 -0.003789 0.000000 0.000000 0.000000
# 2 -0.006794 0.012480 -0.002709 0.000000 0.000000 0.000000
# 3 -0.003789 -0.002709 0.011832 0.000000 0.000000 0.000000
# 4 0.000000 0.000000 0.000000 0.058408 0.000000 0.000000
# 5 0.000000 0.000000 0.000000 0.000000 0.035492 0.000000
# 6 0.000000 0.000000 0.000000 0.000000 0.000000 0.035756
#
#
# Mechanical properties :
#
#
# Convention : Reuss Voigt Hill
#
# Bulk Modulus (GPa) = 49.61530 54.07753 51.84642
# Shear Modulus (GPa) = 23.84347 25.81725 24.83036
#
# Velocity S-wave (km/s) = 3.69019 3.83989 3.76578
# Velocity P-wave (km/s) = 6.81857 7.10946 6.96554
#
# Compressibility (1/GPa) = 0.02015507
#
# Stress axis : x y z
#
# Youngs Moduli (GPa) = 44.58546 80.13002 84.51539
#
# Poissons Ratio (x) = 0.54443 0.32024
# Poissons Ratio (y) = 0.30293 0.22898
# Poissons Ratio (z) = 0.16894 0.21710
#
# Static dielectric constant tensor:
#      x y z
#    x 1.593880 0.000000 0.000000 
#    y 0.000000 1.622280 0.000000 
#    z 0.000000 0.000000 1.594290 
# 
# From -- ./inp_files/2633.got.cif
#   From: 2010.05.17/outbox.cif.g08.bks.cpg/sg28_2_cif.got.tgz:2633.got - 2010.06.04 01:15:21.
