data_PCOD9339460
_publ_section_title
;
Structure prediction by ZEFSAII (Michael W. Deem and Ramdas Pophale) SiO2 
 PCOD9339460
Probable space group: P M A 2
;
_chemical_formula_sum "Si O2"
_cell_formula_units_Z 24
_cell_length_a 15.086742
_cell_length_b 13.469165
_cell_length_c 4.982170
_cell_angle_alpha 90.000000
_cell_angle_beta 90.000000
_cell_angle_gamma 90.000000
_cell_volume 1012.405927
_symmetry_space_group_name_H-M "P M A 2"
_symmetry_group_IT_number 28
_symmetry_cell_setting 'orthorhombic'
loop_
_space_group_symop_operation_xyz
x,y,z
-x,-y,z
1/2-x,y,z
1/2+x,-y,z
loop_
_atom_site_type_symbol
_atom_site_label
_atom_site_fract_x
_atom_site_fract_y
_atom_site_fract_z
Si Si1 0.648187 0.231543 0.927220
Si Si2 0.348487 0.570605 0.660897
Si Si3 0.145953 0.236384 0.132336
Si Si4 0.351876 0.903159 0.403928
Si Si5 0.591893 0.541846 0.128817
Si Si6 0.353039 0.104400 0.649186
O O1 0.750000 0.257170 0.013025
O O2 0.608668 0.332922 0.805099
O O3 0.652042 0.159952 0.673587
O O4 0.608052 0.168016 0.173231
O O5 0.250000 0.602901 0.571664
O O6 0.391254 0.517581 0.404981
O O7 0.341942 0.490793 0.896528
O O8 0.250000 0.255534 0.059720
O O9 0.096022 0.340398 0.151182
O O10 0.145873 0.187996 0.423621
O O11 0.110099 0.155785 0.917221
O O12 0.250000 0.925688 0.308953
O O13 0.392300 0.007218 0.503543
O O14 0.500000 0.500000 0.022430
O O15 0.250000 0.077025 0.714100
#
# Coordination Sequence:
#
# PCOD9339460 Si02
#       6
#     4   4   4   4   4   4
#     4   9  17  28  48  77 110 143 179 224 280 335
#     4  11  22  39  61  86 115 154 198 244 295 355
#     4  10  19  33  52  77 107 146 190 233 280 338
#     4   9  15  26  44  75 113 141 169 222 284 335
#     4  12  25  40  58  84 117 155 199 250 303 354
#     4   9  17  28  48  77 110 143 179 225 282 335
#
# _framework density 23.705907
#
# number of rings (size 3 to 8) (size 9 to 14) (size 15 to 20)
#    0.000    2.000    0.000    5.000    0.000    8.000 
#    0.000    0.000    0.000    0.000    0.000   17.500 
#    0.000    0.000    0.000    0.000    0.000    0.000 
#
# Total GULP energy -133956.156030 kJ/mol
# GULP energy per Si atom -5581.506501 kJ/mol
# Density = 2.365195 g / cm^3
# Si number density = 23.705907 Si / 1000 Ang^3
#
#
#
# Elastic Constant Matrix: (Units=GPa)
#
#
# Indices 1 2 3 4 5 6 
#
# 1 45.9430 12.8113 11.2744 0.0000 0.0000 0.0000
# 2 12.8113 82.6838 2.4398 0.0000 0.0000 0.0000
# 3 11.2744 2.4398 107.2975 0.0000 0.0000 0.0000
# 4 0.0000 0.0000 0.0000 48.3077 0.0000 0.0000
# 5 0.0000 0.0000 0.0000 0.0000 11.5945 0.0000
# 6 0.0000 0.0000 0.0000 0.0000 0.0000 -1.6867
#
#
#
# Elastic Compliance Matrix: (Units=1/GPa)
#
#
# Indices 1 2 3 4 5 6 
#
# 1 0.023337 -0.003546 -0.002372 0.000000 0.000000 0.000000
# 2 -0.003546 0.012641 0.000085 0.000000 0.000000 0.000000
# 3 -0.002372 0.000085 0.009567 0.000000 0.000000 0.000000
# 4 0.000000 0.000000 0.000000 0.020701 0.000000 0.000000
# 5 0.000000 0.000000 0.000000 0.000000 0.086248 0.000000
# 6 0.000000 0.000000 0.000000 0.000000 0.000000 -0.592885
#
#
# Mechanical properties :
#
#
# Convention : Reuss Voigt Hill
#
# Bulk Modulus (GPa) = 29.51541 32.10836 30.81188
# Shear Modulus (GPa) = -11.97797 25.60303 6.81253
#
# Velocity S-wave (km/s) = -2.25027 3.28994 1.69706
# Velocity P-wave (km/s) = 2.39292 5.29202 4.10680
#
# Compressibility (1/GPa) = 0.03388061
#
# Stress axis : x y z
#
# Youngs Moduli (GPa) = 42.85067 79.10664 104.52451
#
# Poissons Ratio (x) = 0.28050 0.24788
# Poissons Ratio (y) = 0.15194 -0.00890
# Poissons Ratio (z) = 0.10162 -0.00674
#
# Static dielectric constant tensor:
#      x y z
#    x 1.925190 0.000000 0.000000 
#    y 0.000000 1.930450 0.000000 
#    z 0.000000 0.000000 1.841510 
# 
# From -- ./inp_files/1131.got.cif
#   From: 2010.05.17/outbox.cif.g08.bks.cpg/sg28_1_cif.got.tgz:1131.got - 2010.06.04 01:15:21.
