data_PCOD9339707
_publ_section_title
;
Structure prediction by ZEFSAII (Michael W. Deem and Ramdas Pophale) SiO2 
 PCOD9339707
Probable space group: P M A 2
;
_chemical_formula_sum "Si O2"
_cell_formula_units_Z 32
_cell_length_a 8.595477
_cell_length_b 9.521339
_cell_length_c 20.938822
_cell_angle_alpha 90.000000
_cell_angle_beta 90.000000
_cell_angle_gamma 90.000000
_cell_volume 1713.642623
_symmetry_space_group_name_H-M "P M A 2"
_symmetry_group_IT_number 28
_symmetry_cell_setting 'orthorhombic'
loop_
_space_group_symop_operation_xyz
x,y,z
-x,-y,z
1/2-x,y,z
1/2+x,-y,z
loop_
_atom_site_type_symbol
_atom_site_label
_atom_site_fract_x
_atom_site_fract_y
_atom_site_fract_z
Si Si1 0.937115 0.342330 0.366490
Si Si2 0.062278 0.342686 0.126357
Si Si3 0.936805 0.155413 0.631009
Si Si4 0.563362 0.656395 0.744428
Si Si5 0.937668 0.844561 0.863009
Si Si6 0.561990 0.843817 0.007880
Si Si7 0.062918 0.158486 0.249355
Si Si8 0.062640 0.845011 0.484979
O O1 0.750000 0.345577 0.364203
O O2 0.986897 0.269592 0.433144
O O3 0.000000 0.500000 0.360663
O O4 0.999004 0.244476 0.309659
O O5 0.250000 0.348890 0.125837
O O6 0.009972 0.267439 0.060878
O O7 0.016037 0.244056 0.185716
O O8 0.000000 0.500000 0.132825
O O9 0.750000 0.154734 0.634017
O O10 0.984877 0.188324 0.557829
O O11 0.003302 0.262479 0.682244
O O12 0.000000 0.000000 0.645636
O O13 0.500000 0.500000 0.745061
O O14 0.750000 0.655403 0.743755
O O15 0.510209 0.738666 0.808133
O O16 0.750000 0.848766 0.862280
O O17 0.986646 0.806966 0.935384
O O18 0.000000 0.000000 0.849235
O O19 0.750000 0.849067 0.009420
O O20 0.500000 0.000000 0.022229
O O21 0.250000 0.154307 0.252185
O O22 0.000000 0.000000 0.248409
O O23 0.250000 0.851780 0.483828
O O24 0.000000 0.000000 0.468642
#
# Coordination Sequence:
#
# PCOD9339707 Si02
#       8
#     4   4   4   4   4   4   4   4
#     4  11  23  39  58  83 114 148 183 224 272 324
#     4  10  22  37  55  80 112 145 180 221 269 321
#     4  10  20  37  59  83 110 143 182 225 270 322
#     4  11  23  37  53  78 110 145 182 226 276 328
#     4   9  19  35  56  79 106 139 179 223 269 320
#     4   9  18  35  56  80 107 139 179 223 267 318
#     4  11  23  39  59  84 111 144 184 228 273 323
#     4   9  20  37  58  83 110 141 181 224 269 320
#
# _framework density 18.673672
#
# number of rings (size 3 to 8) (size 9 to 14) (size 15 to 20)
#    0.000    2.000    0.000    3.000    0.000    8.000 
#    0.000    1.250    0.000    0.000    0.000    0.000 
#    0.000    0.000    0.000    0.000    0.000    0.000 
#
# Total GULP energy -178746.885185 kJ/mol
# GULP energy per Si atom -5585.840162 kJ/mol
# Density = 1.863117 g / cm^3
# Si number density = 18.673672 Si / 1000 Ang^3
#
#
#
# Elastic Constant Matrix: (Units=GPa)
#
#
# Indices 1 2 3 4 5 6 
#
# 1 32.2869 39.6502 40.3863 0.0000 0.0000 0.0000
# 2 39.6502 190.0762 135.2494 0.0000 0.0000 0.0000
# 3 40.3863 135.2494 152.8293 0.0000 0.0000 0.0000
# 4 0.0000 0.0000 0.0000 -6.4598 0.0000 0.0000
# 5 0.0000 0.0000 0.0000 0.0000 14.8037 0.0000
# 6 0.0000 0.0000 0.0000 0.0000 0.0000 37.3195
#
#
#
# Elastic Compliance Matrix: (Units=1/GPa)
#
#
# Indices 1 2 3 4 5 6 
#
# 1 0.046735 -0.002596 -0.010053 0.000000 0.000000 0.000000
# 2 -0.002596 0.014352 -0.012015 0.000000 0.000000 0.000000
# 3 -0.010053 -0.012015 0.019833 0.000000 0.000000 0.000000
# 4 0.000000 0.000000 0.000000 -0.154804 0.000000 0.000000
# 5 0.000000 0.000000 0.000000 0.000000 0.067551 0.000000
# 6 0.000000 0.000000 0.000000 0.000000 0.000000 0.026796
#
#
# Mechanical properties :
#
#
# Convention : Reuss Voigt Hill
#
# Bulk Modulus (GPa) = 31.65349 89.52935 60.59142
# Shear Modulus (GPa) = 62.25138 19.79312 41.02225
#
# Velocity S-wave (km/s) = 5.78004 3.25922 4.69208
# Velocity P-wave (km/s) = 7.84428 7.88743 7.86589
#
# Compressibility (1/GPa) = 0.03159209
#
# Stress axis : x y z
#
# Youngs Moduli (GPa) = 21.39734 69.67737 50.42185
#
# Poissons Ratio (x) = 0.18087 0.50688
# Poissons Ratio (y) = 0.05554 0.60582
# Poissons Ratio (z) = 0.21510 0.83717
#
# Static dielectric constant tensor:
#      x y z
#    x 1.637150 0.000000 0.000000 
#    y 0.000000 1.590490 0.000000 
#    z 0.000000 0.000000 1.658200 
# 
# From -- ./inp_files/7196.got.cif
#   From: 2010.05.17/outbox.cif.g08.bks.cpg/sg28_4_cif.got.tgz:7196.got - 2010.06.04 01:15:21.
