data_PCOD9339446
_publ_section_title
;
Structure prediction by ZEFSAII (Michael W. Deem and Ramdas Pophale) SiO2 
 PCOD9339446
Probable space group: P M A 2
;
_chemical_formula_sum "Si O2"
_cell_formula_units_Z 32
_cell_length_a 15.920500
_cell_length_b 11.057851
_cell_length_c 9.749240
_cell_angle_alpha 90.000000
_cell_angle_beta 90.000000
_cell_angle_gamma 90.000000
_cell_volume 1716.319744
_symmetry_space_group_name_H-M "P M A 2"
_symmetry_group_IT_number 28
_symmetry_cell_setting 'orthorhombic'
loop_
_space_group_symop_operation_xyz
x,y,z
-x,-y,z
1/2-x,y,z
1/2+x,-y,z
loop_
_atom_site_type_symbol
_atom_site_label
_atom_site_fract_x
_atom_site_fract_y
_atom_site_fract_z
Si Si1 0.605991 0.778408 0.747530
Si Si2 0.344532 0.044581 0.512943
Si Si3 0.415374 0.860511 0.715126
Si Si4 0.154891 0.396678 0.557344
Si Si5 0.492279 0.354662 0.338351
Si Si6 0.657175 0.319622 0.516120
Si Si7 0.653799 0.966429 0.956066
Si Si8 0.932104 0.898161 0.239325
O O1 0.646702 0.843855 0.615818
O O2 0.508237 0.812757 0.745203
O O3 0.626715 0.642255 0.710055
O O4 0.647924 0.838443 0.877604
O O5 0.250000 0.995747 0.523192
O O6 0.364808 0.087059 0.361074
O O7 0.407926 0.949041 0.582758
O O8 0.360196 0.751139 0.657496
O O9 0.383801 0.936434 0.846894
O O10 0.250000 0.356300 0.522441
O O11 0.081341 0.357642 0.452695
O O12 0.157321 0.539936 0.549400
O O13 0.500000 0.500000 0.294016
O O14 0.579171 0.309555 0.409893
O O15 0.465780 0.241437 0.239299
O O16 0.750000 0.285982 0.460923
O O17 0.750000 0.998902 0.983022
O O18 0.603787 0.944764 0.095080
O O19 0.000000 0.000000 0.277975
#
# Coordination Sequence:
#
# PCOD9339446 Si02
#       8
#     4   4   4   4   4   4   4   4
#     4  11  19  34  57  83 115 152 193 246 297 356
#     4  11  20  31  54  86 114 147 192 243 297 354
#     4  11  20  35  56  85 119 156 193 243 308 370
#     4  10  19  32  56  89 119 151 199 254 301 358
#     4  10  21  38  61  89 126 158 200 251 312 365
#     4  10  19  33  56  90 125 156 194 250 313 366
#     4  11  24  39  57  82 116 157 201 252 306 363
#     4  12  23  38  58  84 116 157 201 252 302 363
#
# _framework density 18.644544
#
# number of rings (size 3 to 8) (size 9 to 14) (size 15 to 20)
#    0.000    1.250    2.500    7.125    0.000    0.500 
#    0.000    0.625    5.500    0.000    0.000    0.000 
#    0.000    0.000    0.000    0.000    0.000    0.000 
#
# Total GULP energy -178225.413017 kJ/mol
# GULP energy per Si atom -5569.544157 kJ/mol
# Density = 1.860211 g / cm^3
# Si number density = 18.644544 Si / 1000 Ang^3
#
#
#
# Elastic Constant Matrix: (Units=GPa)
#
#
# Indices 1 2 3 4 5 6 
#
# 1 127.7349 31.8135 26.2894 0.0000 0.0000 0.0000
# 2 31.8135 58.1981 16.0361 0.0000 0.0000 0.0000
# 3 26.2894 16.0361 80.1340 0.0000 0.0000 0.0000
# 4 0.0000 0.0000 0.0000 19.7064 0.0000 0.0000
# 5 0.0000 0.0000 0.0000 0.0000 13.2273 0.0000
# 6 0.0000 0.0000 0.0000 0.0000 0.0000 23.3051
#
#
#
# Elastic Compliance Matrix: (Units=1/GPa)
#
#
# Indices 1 2 3 4 5 6 
#
# 1 0.009408 -0.004543 -0.002177 0.000000 0.000000 0.000000
# 2 -0.004543 0.020379 -0.002588 0.000000 0.000000 0.000000
# 3 -0.002177 -0.002588 0.013711 0.000000 0.000000 0.000000
# 4 0.000000 0.000000 0.000000 0.050745 0.000000 0.000000
# 5 0.000000 0.000000 0.000000 0.000000 0.075601 0.000000
# 6 0.000000 0.000000 0.000000 0.000000 0.000000 0.042909
#
#
# Mechanical properties :
#
#
# Convention : Reuss Voigt Hill
#
# Bulk Modulus (GPa) = 40.18920 46.03834 43.11377
# Shear Modulus (GPa) = 20.86252 24.04298 22.45275
#
# Velocity S-wave (km/s) = 3.34872 3.59492 3.47400
# Velocity P-wave (km/s) = 6.04600 6.47901 6.26625
#
# Compressibility (1/GPa) = 0.02488231
#
# Stress axis : x y z
#
# Youngs Moduli (GPa) = 106.28873 49.06977 72.93249
#
# Poissons Ratio (x) = 0.22292 0.15881
# Poissons Ratio (y) = 0.48287 0.18873
# Poissons Ratio (z) = 0.23144 0.12698
#
# Static dielectric constant tensor:
#      x y z
#    x 1.728190 0.000000 0.000000 
#    y 0.000000 1.799100 0.000000 
#    z 0.000000 0.000000 1.616080 
# 
# From -- ./inp_files/3529.got.cif
#   From: 2010.05.17/outbox.cif.g08.bks.cpg/sg28_2_cif.got.tgz:3529.got - 2010.06.04 01:15:21.
