data_PCOD9339739
_publ_section_title
;
Structure prediction by ZEFSAII (Michael W. Deem and Ramdas Pophale) SiO2 
 PCOD9339739
Probable space group: P M A 2
;
_chemical_formula_sum "Si O2"
_cell_formula_units_Z 16
_cell_length_a 11.481065
_cell_length_b 7.164941
_cell_length_c 6.793668
_cell_angle_alpha 90.000000
_cell_angle_beta 90.000000
_cell_angle_gamma 90.000000
_cell_volume 558.854965
_symmetry_space_group_name_H-M "P M A 2"
_symmetry_group_IT_number 28
_symmetry_cell_setting 'orthorhombic'
loop_
_space_group_symop_operation_xyz
x,y,z
-x,-y,z
1/2-x,y,z
1/2+x,-y,z
loop_
_atom_site_type_symbol
_atom_site_label
_atom_site_fract_x
_atom_site_fract_y
_atom_site_fract_z
Si Si1 0.874880 0.998467 0.181800
Si Si2 0.376475 0.677436 0.662202
Si Si3 0.624602 0.415374 0.196989
Si Si4 0.622248 0.743825 0.797093
O O1 0.750000 0.969446 0.285851
O O2 0.869741 0.210127 0.103307
O O3 0.000000 0.000000 0.289483
O O4 0.119414 0.149193 0.005296
O O5 0.250000 0.769658 0.693708
O O6 0.378475 0.616963 0.433147
O O7 0.496968 0.783487 0.699824
O O8 0.376229 0.483592 0.786247
O O9 0.500000 0.500000 0.150444
O O10 0.750000 0.511303 0.161279
O O11 0.750000 0.792298 0.709103
#
# Coordination Sequence:
#
# PCOD9339739 Si02
#       4
#     4   4   4   4
#     4  10  23  42  62  93 138 181 222 276 341 407
#     4   9  17  33  64  98 128 169 224 277 332 399
#     4  10  20  38  66 100 135 175 225 281 337 400
#     4   9  17  34  61  93 129 172 221 274 334 398
#
# _framework density 28.62997
#
# number of rings (size 3 to 8) (size 9 to 14) (size 15 to 20)
#    0.000    2.500    2.500    0.000    0.000    2.000 
#    4.500    1.250    0.000    6.000    0.000    0.000 
#    0.000    0.000    0.000    0.000    0.000    0.000 
#
# Total GULP energy -89455.261853 kJ/mol
# GULP energy per Si atom -5590.953866 kJ/mol
# Density = 2.856481 g / cm^3
# Si number density = 28.629970 Si / 1000 Ang^3
#
#
#
# Elastic Constant Matrix: (Units=GPa)
#
#
# Indices 1 2 3 4 5 6 
#
# 1 453.3844 49.4334 76.2261 0.0000 0.0000 0.0000
# 2 49.4334 171.8756 40.7610 0.0000 0.0000 0.0000
# 3 76.2261 40.7610 129.2406 0.0000 0.0000 0.0000
# 4 0.0000 0.0000 0.0000 36.6788 0.0000 0.0000
# 5 0.0000 0.0000 0.0000 0.0000 21.9491 0.0000
# 6 0.0000 0.0000 0.0000 0.0000 0.0000 21.2516
#
#
#
# Elastic Compliance Matrix: (Units=1/GPa)
#
#
# Indices 1 2 3 4 5 6 
#
# 1 0.002473 -0.000395 -0.001334 0.000000 0.000000 0.000000
# 2 -0.000395 0.006352 -0.001770 0.000000 0.000000 0.000000
# 3 -0.001334 -0.001770 0.009083 0.000000 0.000000 0.000000
# 4 0.000000 0.000000 0.000000 0.027264 0.000000 0.000000
# 5 0.000000 0.000000 0.000000 0.000000 0.045560 0.000000
# 6 0.000000 0.000000 0.000000 0.000000 0.000000 0.047055
#
#
# Mechanical properties :
#
#
# Convention : Reuss Voigt Hill
#
# Bulk Modulus (GPa) = 91.66938 120.81572 106.24255
# Shear Modulus (GPa) = 33.68801 55.18125 44.43463
#
# Velocity S-wave (km/s) = 3.43398 4.39497 3.94386
# Velocity P-wave (km/s) = 6.91456 8.24894 7.61105
#
# Compressibility (1/GPa) = 0.01090877
#
# Stress axis : x y z
#
# Youngs Moduli (GPa) = 404.37155 157.44137 110.10012
#
# Poissons Ratio (x) = 0.06217 0.14688
# Poissons Ratio (y) = 0.15968 0.19491
# Poissons Ratio (z) = 0.53944 0.27872
#
# Static dielectric constant tensor:
#      x y z
#    x 2.222220 0.000000 0.000000 
#    y 0.000000 2.204790 0.000000 
#    z 0.000000 0.000000 2.241960 
# 
# From -- ./inp_files/2843.got.cif
#   From: 2010.05.17/outbox.cif.g08.bks.cpg/sg28_2_cif.got.tgz:2843.got - 2010.06.04 01:15:21.
