data_PCOD9339644
_publ_section_title
;
Structure prediction by ZEFSAII (Michael W. Deem and Ramdas Pophale) SiO2 
 PCOD9339644
Probable space group: P M A 2
;
_chemical_formula_sum "Si O2"
_cell_formula_units_Z 32
_cell_length_a 16.024578
_cell_length_b 19.165522
_cell_length_c 4.868432
_cell_angle_alpha 90.000000
_cell_angle_beta 90.000000
_cell_angle_gamma 90.000000
_cell_volume 1495.189925
_symmetry_space_group_name_H-M "P M A 2"
_symmetry_group_IT_number 28
_symmetry_cell_setting 'orthorhombic'
loop_
_space_group_symop_operation_xyz
x,y,z
-x,-y,z
1/2-x,y,z
1/2+x,-y,z
loop_
_atom_site_type_symbol
_atom_site_label
_atom_site_fract_x
_atom_site_fract_y
_atom_site_fract_z
Si Si1 0.579391 0.129411 0.018440
Si Si2 0.110269 0.663621 0.263636
Si Si3 0.565047 0.935020 0.313605
Si Si4 0.109147 0.570380 0.795585
Si Si5 0.157692 0.806281 0.530371
Si Si6 0.345960 0.417397 0.617646
Si Si7 0.448546 0.379433 0.083816
Si Si8 0.153711 0.015200 0.822789
O O1 0.489781 0.124220 0.166263
O O2 0.639369 0.141090 0.279927
O O3 0.593733 0.186966 0.783479
O O4 0.606815 0.059312 0.855035
O O5 0.106104 0.605081 0.498470
O O6 0.151696 0.731234 0.387428
O O7 0.013386 0.679648 0.184322
O O8 0.152038 0.625887 0.002357
O O9 0.601133 0.935545 0.618084
O O10 0.500000 0.000000 0.305541
O O11 0.643211 0.952073 0.122154
O O12 0.146305 0.493960 0.758481
O O13 0.016844 0.571638 0.929752
O O14 0.250000 0.818361 0.644515
O O15 0.250000 0.404570 0.547812
O O16 0.402686 0.412376 0.345752
O O17 0.381552 0.364698 0.847971
O O18 0.250000 0.006293 0.744911
#
# Coordination Sequence:
#
# PCOD9339644 Si02
#       8
#     4   4   4   4   4   4   4   4
#     4  11  23  38  58  87 125 164 198 236 296 343
#     4  10  22  37  59  78 110 163 202 232 281 351
#     4  10  20  35  54  81 117 155 189 230 280 358
#     4  10  21  36  59  78 116 157 191 230 294 364
#     4  12  24  39  59  88 122 157 205 250 278 332
#     4  12  23  34  57  90 115 142 188 249 307 356
#     4  10  21  38  55  80 114 154 191 237 295 367
#     4  11  20  34  57  87 118 153 189 237 290 337
#
# _framework density 21.401962999999999
#
# number of rings (size 3 to 8) (size 9 to 14) (size 15 to 20)
#    0.750    0.500    1.250    7.125    1.750    1.000 
#    0.000    0.000    0.000    0.000    0.000   17.500 
#    0.000    0.000    0.000    0.000    0.000    0.000 
#
# Total GULP energy -178413.130330 kJ/mol
# GULP energy per Si atom -5575.410323 kJ/mol
# Density = 2.135325 g / cm^3
# Si number density = 21.401963 Si / 1000 Ang^3
#
#
#
# Elastic Constant Matrix: (Units=GPa)
#
#
# Indices 1 2 3 4 5 6 
#
# 1 99.6053 11.1657 18.5356 0.0000 0.0000 0.0000
# 2 11.1657 19.7066 2.4446 0.0000 0.0000 0.0000
# 3 18.5356 2.4446 110.7202 0.0000 0.0000 0.0000
# 4 0.0000 0.0000 0.0000 28.0868 0.0000 0.0000
# 5 0.0000 0.0000 0.0000 0.0000 -11.0812 0.0000
# 6 0.0000 0.0000 0.0000 0.0000 0.0000 13.3802
#
#
#
# Elastic Compliance Matrix: (Units=1/GPa)
#
#
# Indices 1 2 3 4 5 6 
#
# 1 0.011036 -0.006040 -0.001714 0.000000 0.000000 0.000000
# 2 -0.006040 0.054190 -0.000185 0.000000 0.000000 0.000000
# 3 -0.001714 -0.000185 0.009323 0.000000 0.000000 0.000000
# 4 0.000000 0.000000 0.000000 0.035604 0.000000 0.000000
# 5 0.000000 0.000000 0.000000 0.000000 -0.090243 0.000000
# 6 0.000000 0.000000 0.000000 0.000000 0.000000 0.074737
#
#
# Mechanical properties :
#
#
# Convention : Reuss Voigt Hill
#
# Bulk Modulus (GPa) = 17.04474 32.70266 24.87370
# Shear Modulus (GPa) = 38.43721 19.26956 28.85338
#
# Velocity S-wave (km/s) = 4.24248 3.00386 3.67572
# Velocity P-wave (km/s) = 5.65505 5.22918 5.44628
#
# Compressibility (1/GPa) = 0.05866912
#
# Stress axis : x y z
#
# Youngs Moduli (GPa) = 90.61496 18.45369 107.26358
#
# Poissons Ratio (x) = 0.11146 0.18386
# Poissons Ratio (y) = 0.54733 0.01987
# Poissons Ratio (z) = 0.15532 0.00342
#
# Static dielectric constant tensor:
#      x y z
#    x 1.845290 0.000000 0.000000 
#    y 0.000000 1.831140 0.000000 
#    z 0.000000 0.000000 1.781630 
# 
# From -- ./inp_files/1258.got.cif
#   From: 2010.05.17/outbox.cif.g08.bks.cpg/sg28_1_cif.got.tgz:1258.got - 2010.06.04 01:15:21.
