data_PCOD9339090
_publ_section_title
;
Structure prediction by ZEFSAII (Michael W. Deem and Ramdas Pophale) SiO2 
 PCOD9339090
Probable space group: P C C 2
;
_chemical_formula_sum "Si O2"
_cell_formula_units_Z 18
_cell_length_a 11.874296
_cell_length_b 7.603342
_cell_length_c 9.121414
_cell_angle_alpha 90.000000
_cell_angle_beta 90.000000
_cell_angle_gamma 90.000000
_cell_volume 823.520784
_symmetry_space_group_name_H-M "P C C 2"
_symmetry_group_IT_number 27
_symmetry_cell_setting 'orthorhombic'
loop_
_space_group_symop_operation_xyz
x,y,z
-x,-y,z
-x,y,1/2+z
x,-y,1/2+z
loop_
_atom_site_type_symbol
_atom_site_label
_atom_site_fract_x
_atom_site_fract_y
_atom_site_fract_z
Si Si1 0.000000 0.500000 0.891220
Si Si2 0.154490 0.657805 0.143393
Si Si3 0.000000 0.000000 0.423112
Si Si4 0.654831 0.633629 0.164738
Si Si5 0.160936 0.930297 0.663970
Si Si6 0.500000 0.500000 0.914639
O O1 0.909625 0.407885 0.997960
O O2 0.928674 0.377942 0.280077
O O3 0.262548 0.534772 0.164036
O O4 0.092282 0.918308 0.814943
O O5 0.185400 0.863199 0.139766
O O6 0.927287 0.118737 0.535332
O O7 0.732816 0.804881 0.163003
O O8 0.577499 0.617088 0.308211
O O9 0.577206 0.616871 0.021438
#
# Coordination Sequence:
#
# PCOD9339090 Si02
#       6
#     2   4   2   4   4   2
#     4  10  24  38  66 110 156 180 220 262 346 426
#     4  11  24  41  68 105 139 190 219 275 341 432
#     4  10  26  42  66 114 152 176 222 270 338 446
#     4  11  26  48  75  96 135 183 237 304 350 399
#     4  11  26  43  71 103 150 186 224 277 343 430
#     4  10  26  54  70 100 132 176 254 314 346 392
#
# _framework density 21.857368999999998
#
# number of rings (size 3 to 8) (size 9 to 14) (size 15 to 20)
#    0.000    1.333    0.000    2.667   24.889    0.000 
#    0.000    6.667    0.000    0.000    0.000    0.000 
#    0.000    0.000    0.000    0.000    0.000    0.000 
#
# Total GULP energy -100824.059903 kJ/mol
# GULP energy per Si atom -5601.336661 kJ/mol
# Density = 2.180762 g / cm^3
# Si number density = 21.857369 Si / 1000 Ang^3
#
#
#
# Elastic Constant Matrix: (Units=GPa)
#
#
# Indices 1 2 3 4 5 6 
#
# 1 147.1559 76.3048 73.3515 0.0000 0.0000 0.0000
# 2 76.3048 162.4180 46.9391 0.0000 0.0000 0.0000
# 3 73.3515 46.9391 187.1316 0.0000 0.0000 0.0000
# 4 0.0000 0.0000 0.0000 25.0592 0.0000 0.0000
# 5 0.0000 0.0000 0.0000 0.0000 21.9022 0.0000
# 6 0.0000 0.0000 0.0000 0.0000 0.0000 47.9760
#
#
#
# Elastic Compliance Matrix: (Units=1/GPa)
#
#
# Indices 1 2 3 4 5 6 
#
# 1 0.010401 -0.003998 -0.003074 0.000000 0.000000 0.000000
# 2 -0.003998 0.008175 -0.000483 0.000000 0.000000 0.000000
# 3 -0.003074 -0.000483 0.006670 0.000000 0.000000 0.000000
# 4 0.000000 0.000000 0.000000 0.039906 0.000000 0.000000
# 5 0.000000 0.000000 0.000000 0.000000 0.045658 0.000000
# 6 0.000000 0.000000 0.000000 0.000000 0.000000 0.020844
#
#
# Mechanical properties :
#
#
# Convention : Reuss Voigt Hill
#
# Bulk Modulus (GPa) = 98.66903 98.87737 98.77320
# Shear Modulus (GPa) = 33.30178 38.99481 36.14829
#
# Velocity S-wave (km/s) = 3.90756 4.22839 4.07114
# Velocity P-wave (km/s) = 8.09932 8.31714 8.20895
#
# Compressibility (1/GPa) = 0.01013489
#
# Stress axis : x y z
#
# Youngs Moduli (GPa) = 96.14542 122.32506 149.92329
#
# Poissons Ratio (x) = 0.48905 0.46088
# Poissons Ratio (y) = 0.38439 0.07248
# Poissons Ratio (z) = 0.29556 0.05914
#
# Static dielectric constant tensor:
#      x y z
#    x 1.770930 0.000000 0.000000 
#    y 0.000000 1.886460 0.000000 
#    z 0.000000 0.000000 1.806950 
# 
# From -- ./inp_files/1330.got.cif
#   From: 2010.05.17/outbox.cif.g08.bks.cpg/sg27_1_cif.got.tgz:1330.got - 2010.06.04 01:11:05.
