data_PCOD9339577
_publ_section_title
;
Structure prediction by ZEFSAII (Michael W. Deem and Ramdas Pophale) SiO2 
 PCOD9339577
Probable space group: P M A 2
;
_chemical_formula_sum "Si O2"
_cell_formula_units_Z 32
_cell_length_a 7.281334
_cell_length_b 24.668765
_cell_length_c 8.067194
_cell_angle_alpha 90.000000
_cell_angle_beta 90.000000
_cell_angle_gamma 90.000000
_cell_volume 1449.041627
_symmetry_space_group_name_H-M "P M A 2"
_symmetry_group_IT_number 28
_symmetry_cell_setting 'orthorhombic'
loop_
_space_group_symop_operation_xyz
x,y,z
-x,-y,z
1/2-x,y,z
1/2+x,-y,z
loop_
_atom_site_type_symbol
_atom_site_label
_atom_site_fract_x
_atom_site_fract_y
_atom_site_fract_z
Si Si1 0.468607 0.063911 0.060010
Si Si2 0.472383 0.256267 0.752427
Si Si3 0.473960 0.134262 0.368985
Si Si4 0.026040 0.134262 0.751034
Si Si5 0.025818 0.370998 0.879529
Si Si6 0.468626 0.436154 0.560012
Si Si7 0.974182 0.629001 0.240493
Si Si8 0.027617 0.256267 0.367596
O O1 0.250000 0.072664 0.060010
O O2 0.536537 0.092529 0.228566
O O3 0.500000 0.000000 0.060011
O O4 0.536537 0.092529 0.891453
O O5 0.250000 0.255704 0.760190
O O6 0.530623 0.195616 0.798774
O O7 0.532204 0.308562 0.853661
O O8 0.522007 0.264822 0.560012
O O9 0.250000 0.133575 0.371892
O O10 0.530996 0.123554 0.560010
O O11 0.530623 0.195617 0.321247
O O12 0.250000 0.133574 0.748127
O O13 0.250000 0.371120 0.876841
O O14 0.962119 0.407083 0.726042
O O15 0.968628 0.390939 0.060011
O O16 0.500000 0.500000 0.560013
O O17 0.250000 0.427356 0.560011
O O18 0.537881 0.407084 0.393980
O O19 0.750000 0.628879 0.243181
O O20 0.032204 0.691438 0.266362
O O21 0.250000 0.255704 0.359833
#
# Coordination Sequence:
#
# PCOD9339577 Si02
#       8
#     4   4   4   4   4   4   4   4
#     4  10  20  32  46  66  92 124 157 186 220 268
#     4   8  12  21  38  62  93 118 138 178 235 280
#     4   8  15  26  41  64  93 119 145 184 231 272
#     4   8  15  26  41  64  93 119 145 184 231 272
#     4   9  16  25  41  66  94 120 146 183 232 275
#     4  10  20  34  48  66  94 126 157 188 220 264
#     4   9  16  25  41  66  94 120 146 183 232 275
#     4   8  12  21  38  62  93 118 138 178 235 280
#
# _framework density 22.083562000000001
#
# number of rings (size 3 to 8) (size 9 to 14) (size 15 to 20)
#    0.000    3.250    1.250    1.500    1.750    1.000 
#    0.000    0.000    0.000    0.000    0.000    1.750 
#    0.000    0.000    0.000    0.000    0.000    0.000 
#
# Total GULP energy -178621.616714 kJ/mol
# GULP energy per Si atom -5581.925522 kJ/mol
# Density = 2.203330 g / cm^3
# Si number density = 22.083562 Si / 1000 Ang^3
#
#
#
# Elastic Constant Matrix: (Units=GPa)
#
#
# Indices 1 2 3 4 5 6 
#
# 1 93.9164 -1.9776 8.0788 0.0000 0.0000 0.0000
# 2 -1.9776 169.5285 138.1369 0.0000 0.0000 0.0000
# 3 8.0788 138.1369 206.5719 0.0000 0.0000 0.0000
# 4 0.0000 0.0000 0.0000 4.3169 0.0000 0.0000
# 5 0.0000 0.0000 0.0000 0.0000 -20.1411 0.0000
# 6 0.0000 0.0000 0.0000 0.0000 0.0000 8.8608
#
#
#
# Elastic Compliance Matrix: (Units=1/GPa)
#
#
# Indices 1 2 3 4 5 6 
#
# 1 0.010765 0.001030 -0.001110 0.000000 0.000000 0.000000
# 2 0.001030 0.013059 -0.008773 0.000000 0.000000 0.000000
# 3 -0.001110 -0.008773 0.010751 0.000000 0.000000 0.000000
# 4 0.000000 0.000000 0.000000 0.231649 0.000000 0.000000
# 5 0.000000 0.000000 0.000000 0.000000 -0.049650 0.000000
# 6 0.000000 0.000000 0.000000 0.000000 0.000000 0.112857
#
#
# Mechanical properties :
#
#
# Convention : Reuss Voigt Hill
#
# Bulk Modulus (GPa) = 59.27982 84.27701 71.77841
# Shear Modulus (GPa) = 14.17391 20.32591 17.24991
#
# Velocity S-wave (km/s) = 2.53619 3.03712 2.79788
# Velocity P-wave (km/s) = 5.95634 7.10946 6.55829
#
# Compressibility (1/GPa) = 0.01686915
#
# Stress axis : x y z
#
# Youngs Moduli (GPa) = 92.89454 76.57305 93.01385
#
# Poissons Ratio (x) = -0.07885 0.10320
# Poissons Ratio (y) = -0.09565 0.81603
# Poissons Ratio (z) = 0.10307 0.67179
#
# Static dielectric constant tensor:
#      x y z
#    x 1.912400 0.000000 0.000000 
#    y 0.000000 1.758790 0.000000 
#    z 0.000000 0.000000 1.791040 
# 
# From -- ./inp_files/3161.got.cif
#   From: 2010.05.17/outbox.cif.g08.bks.cpg/sg28_2_cif.got.tgz:3161.got - 2010.06.04 01:15:21.
