data_PCOD9339354
_publ_section_title
;
Structure prediction by ZEFSAII (Michael W. Deem and Ramdas Pophale) SiO2 
 PCOD9339354
Probable space group: P M A 2
;
_chemical_formula_sum "Si O2"
_cell_formula_units_Z 24
_cell_length_a 16.813896
_cell_length_b 9.714905
_cell_length_c 7.617462
_cell_angle_alpha 90.000000
_cell_angle_beta 90.000000
_cell_angle_gamma 90.000000
_cell_volume 1244.277395
_symmetry_space_group_name_H-M "P M A 2"
_symmetry_group_IT_number 28
_symmetry_cell_setting 'orthorhombic'
loop_
_space_group_symop_operation_xyz
x,y,z
-x,-y,z
1/2-x,y,z
1/2+x,-y,z
loop_
_atom_site_type_symbol
_atom_site_label
_atom_site_fract_x
_atom_site_fract_y
_atom_site_fract_z
Si Si1 0.842704 0.845804 0.018250
Si Si2 0.614588 0.802786 0.399161
Si Si3 0.560842 0.608156 0.843940
Si Si4 0.157842 0.980687 0.691352
Si Si5 0.157634 0.496300 0.525897
Si Si6 0.046873 0.744271 0.538184
O O1 0.750000 0.813566 0.981623
O O2 0.853539 0.871962 0.223306
O O3 0.897888 0.716812 0.969338
O O4 0.863875 0.970464 0.887567
O O5 0.646106 0.886242 0.567266
O O6 0.643260 0.644859 0.418910
O O7 0.518827 0.801335 0.404756
O O8 0.500000 0.500000 0.930216
O O9 0.628717 0.535012 0.725609
O O10 0.506682 0.684167 0.697295
O O11 0.250000 0.938467 0.688351
O O12 0.102318 0.862599 0.615130
O O13 0.250000 0.533038 0.519337
O O14 0.100447 0.619960 0.465404
#
# Coordination Sequence:
#
# PCOD9339354 Si02
#       6
#     4   4   4   4   4   4
#     4  11  22  37  62  88 115 157 204 247 297 357
#     4  11  22  38  61  88 117 152 203 245 292 358
#     4   9  19  34  57  85 117 148 193 242 291 350
#     4  11  22  40  61  84 119 156 199 247 294 353
#     4  10  18  35  62  88 117 155 198 243 296 358
#     4  10  21  38  57  89 120 155 194 241 306 352
#
# _framework density 19.288302000000002
#
# number of rings (size 3 to 8) (size 9 to 14) (size 15 to 20)
#    0.000    1.667    3.333    4.500    0.000    1.333 
#    6.000    0.000    0.000    0.000    0.000    0.000 
#    0.000    0.000    0.000    0.000    0.000    0.000 
#
# Total GULP energy -133988.439553 kJ/mol
# GULP energy per Si atom -5582.851648 kJ/mol
# Density = 1.924440 g / cm^3
# Si number density = 19.288302 Si / 1000 Ang^3
#
#
#
# Elastic Constant Matrix: (Units=GPa)
#
#
# Indices 1 2 3 4 5 6 
#
# 1 101.3118 21.3638 5.1326 0.0000 0.0000 0.0000
# 2 21.3638 55.3185 3.6268 0.0000 0.0000 0.0000
# 3 5.1326 3.6268 53.0372 0.0000 0.0000 0.0000
# 4 0.0000 0.0000 0.0000 14.8094 0.0000 0.0000
# 5 0.0000 0.0000 0.0000 0.0000 19.8962 0.0000
# 6 0.0000 0.0000 0.0000 0.0000 0.0000 34.9107
#
#
#
# Elastic Compliance Matrix: (Units=1/GPa)
#
#
# Indices 1 2 3 4 5 6 
#
# 1 0.010776 -0.004112 -0.000762 0.000000 0.000000 0.000000
# 2 -0.004112 0.019727 -0.000951 0.000000 0.000000 0.000000
# 3 -0.000762 -0.000951 0.018993 0.000000 0.000000 0.000000
# 4 0.000000 0.000000 0.000000 0.067525 0.000000 0.000000
# 5 0.000000 0.000000 0.000000 0.000000 0.050261 0.000000
# 6 0.000000 0.000000 0.000000 0.000000 0.000000 0.028645
#
#
# Mechanical properties :
#
#
# Convention : Reuss Voigt Hill
#
# Bulk Modulus (GPa) = 26.42149 29.99041 28.20595
# Shear Modulus (GPa) = 22.70743 25.89287 24.30015
#
# Velocity S-wave (km/s) = 3.43485 3.66787 3.55327
# Velocity P-wave (km/s) = 5.42760 5.78964 5.61154
#
# Compressibility (1/GPa) = 0.03784799
#
# Stress axis : x y z
#
# Youngs Moduli (GPa) = 92.79744 50.69080 52.64974
#
# Poissons Ratio (x) = 0.20843 0.04010
# Poissons Ratio (y) = 0.38156 0.05007
# Poissons Ratio (z) = 0.07068 0.04821
#
# Static dielectric constant tensor:
#      x y z
#    x 1.681160 0.000000 0.000000 
#    y 0.000000 1.680410 0.000000 
#    z 0.000000 0.000000 1.669600 
# 
# From -- ./inp_files/3793.got.cif
#   From: 2010.05.17/outbox.cif.g08.bks.cpg/sg28_2_cif.got.tgz:3793.got - 2010.06.04 01:15:21.
