data_PCOD9339414
_publ_section_title
;
Structure prediction by ZEFSAII (Michael W. Deem and Ramdas Pophale) SiO2 
 PCOD9339414
Probable space group: P M A 2
;
_chemical_formula_sum "Si O2"
_cell_formula_units_Z 32
_cell_length_a 9.030503
_cell_length_b 17.854954
_cell_length_c 11.805727
_cell_angle_alpha 90.000000
_cell_angle_beta 90.000000
_cell_angle_gamma 90.000000
_cell_volume 1903.546162
_symmetry_space_group_name_H-M "P M A 2"
_symmetry_group_IT_number 28
_symmetry_cell_setting 'orthorhombic'
loop_
_space_group_symop_operation_xyz
x,y,z
-x,-y,z
1/2-x,y,z
1/2+x,-y,z
loop_
_atom_site_type_symbol
_atom_site_label
_atom_site_fract_x
_atom_site_fract_y
_atom_site_fract_z
Si Si1 0.082035 0.195016 0.689430
Si Si2 0.072102 0.277681 0.474742
Si Si3 0.573195 0.422905 0.581522
Si Si4 0.070452 0.923199 0.131218
Si Si5 0.420303 0.362087 0.799770
Si Si6 0.579296 0.301867 0.009837
Si Si7 0.581702 0.136093 0.895439
Si Si8 0.573552 0.771673 0.217283
O O1 0.250000 0.168863 0.678994
O O2 0.022939 0.213273 0.564023
O O3 0.082431 0.277330 0.748814
O O4 0.999307 0.141029 0.776026
O O5 0.250000 0.288457 0.493346
O O6 0.049342 0.254917 0.345508
O O7 0.988157 0.353267 0.508884
O O8 0.500000 0.500000 0.541378
O O9 0.750000 0.426123 0.578551
O O10 0.515653 0.408255 0.709670
O O11 0.250000 0.923402 0.134846
O O12 0.007289 0.850734 0.195369
O O13 0.021152 0.912478 0.999467
O O14 0.000000 0.000000 0.174559
O O15 0.250000 0.388054 0.804216
O O16 0.494571 0.355927 0.922786
O O17 0.750000 0.324073 0.027614
O O18 0.494216 0.286638 0.126700
O O19 0.582135 0.220347 0.947981
O O20 0.750000 0.113278 0.875529
O O21 0.750000 0.779557 0.197615
#
# Coordination Sequence:
#
# PCOD9339414 Si02
#       8
#     4   4   4   4   4   4   4   4
#     4   8  14  25  43  66  91 118 149 189 232 277
#     4   9  19  34  50  72 101 133 173 214 250 298
#     4  11  21  33  51  74 101 132 166 208 258 308
#     4  10  20  33  49  71  99 128 163 208 257 311
#     4   9  16  28  46  69  96 124 156 193 239 292
#     4   9  16  27  44  69  98 124 156 197 240 287
#     4   8  15  26  41  64  92 118 146 186 234 286
#     4  10  19  32  51  73 100 135 173 213 256 301
#
# _framework density 16.810728999999998
#
# number of rings (size 3 to 8) (size 9 to 14) (size 15 to 20)
#    0.000    2.750    0.000    4.125    0.000    7.500 
#    0.000    0.000    0.000    1.500    0.000    3.500 
#    0.000    0.000    0.000    0.000    0.000    0.000 
#
# Total GULP energy -178227.040017 kJ/mol
# GULP energy per Si atom -5569.595001 kJ/mol
# Density = 1.677247 g / cm^3
# Si number density = 16.810729 Si / 1000 Ang^3
#
#
#
# Elastic Constant Matrix: (Units=GPa)
#
#
# Indices 1 2 3 4 5 6 
#
# 1 103.3833 37.1324 63.6389 0.0000 0.0000 0.0000
# 2 37.1324 50.2551 32.0143 0.0000 0.0000 0.0000
# 3 63.6389 32.0143 122.7762 0.0000 0.0000 0.0000
# 4 0.0000 0.0000 0.0000 11.1015 0.0000 0.0000
# 5 0.0000 0.0000 0.0000 0.0000 23.7352 0.0000
# 6 0.0000 0.0000 0.0000 0.0000 0.0000 11.5254
#
#
#
# Elastic Compliance Matrix: (Units=1/GPa)
#
#
# Indices 1 2 3 4 5 6 
#
# 1 0.016575 -0.008123 -0.006473 0.000000 0.000000 0.000000
# 2 -0.008123 0.027843 -0.003050 0.000000 0.000000 0.000000
# 3 -0.006473 -0.003050 0.012295 0.000000 0.000000 0.000000
# 4 0.000000 0.000000 0.000000 0.090078 0.000000 0.000000
# 5 0.000000 0.000000 0.000000 0.000000 0.042132 0.000000
# 6 0.000000 0.000000 0.000000 0.000000 0.000000 0.086765
#
#
# Mechanical properties :
#
#
# Convention : Reuss Voigt Hill
#
# Bulk Modulus (GPa) = 46.68221 60.22065 53.45143
# Shear Modulus (GPa) = 15.71731 18.84770 17.28251
#
# Velocity S-wave (km/s) = 3.06102 3.35202 3.20982
# Velocity P-wave (km/s) = 6.35002 7.13316 6.75295
#
# Compressibility (1/GPa) = 0.02142144
#
# Stress axis : x y z
#
# Youngs Moduli (GPa) = 60.33160 35.91522 81.33127
#
# Poissons Ratio (x) = 0.29175 0.52648
# Poissons Ratio (y) = 0.49009 0.24803
# Poissons Ratio (z) = 0.39054 0.10953
#
# Static dielectric constant tensor:
#      x y z
#    x 1.573480 0.000000 0.000000 
#    y 0.000000 1.574230 0.000000 
#    z 0.000000 0.000000 1.576730 
# 
# From -- ./inp_files/5205.got.cif
#   From: 2010.05.17/outbox.cif.g08.bks.cpg/sg28_3_cif.got.tgz:5205.got - 2010.06.04 01:15:21.
