data_PCOD9339886
_publ_section_title
;
Structure prediction by ZEFSAII (Michael W. Deem and Ramdas Pophale) SiO2 
 PCOD9339886
Probable space group: P M A 2
;
_chemical_formula_sum "Si O2"
_cell_formula_units_Z 32
_cell_length_a 8.722994
_cell_length_b 15.791626
_cell_length_c 12.087882
_cell_angle_alpha 90.000000
_cell_angle_beta 90.000000
_cell_angle_gamma 90.000000
_cell_volume 1665.108874
_symmetry_space_group_name_H-M "P M A 2"
_symmetry_group_IT_number 28
_symmetry_cell_setting 'orthorhombic'
loop_
_space_group_symop_operation_xyz
x,y,z
-x,-y,z
1/2-x,y,z
1/2+x,-y,z
loop_
_atom_site_type_symbol
_atom_site_label
_atom_site_fract_x
_atom_site_fract_y
_atom_site_fract_z
Si Si1 0.934585 0.343695 0.284050
Si Si2 0.066558 0.411552 0.057316
Si Si3 0.065762 0.590462 0.525505
Si Si4 0.566434 0.846254 0.281518
Si Si5 0.565516 0.246738 0.669057
Si Si6 0.932712 0.089474 0.054562
Si Si7 0.933335 0.908387 0.528421
Si Si8 0.066116 0.245329 0.915201
O O1 0.750000 0.338387 0.279680
O O2 0.979977 0.387740 0.399317
O O3 0.996407 0.393254 0.177960
O O4 0.004347 0.249576 0.281839
O O5 0.250000 0.416653 0.065964
O O6 0.000000 0.500000 0.014646
O O7 0.026992 0.332081 0.979545
O O8 0.250000 0.586415 0.528221
O O9 0.017589 0.668312 0.603283
O O10 0.000000 0.500000 0.559221
O O11 0.750000 0.845590 0.265740
O O12 0.489092 0.894485 0.179828
O O13 0.531132 0.887866 0.399862
O O14 0.750000 0.244374 0.672541
O O15 0.505233 0.165521 0.602406
O O16 0.498486 0.247264 0.791796
O O17 0.750000 0.087889 0.050906
O O18 0.000000 0.000000 0.015565
O O19 0.995993 0.166688 0.981845
O O20 0.750000 0.908079 0.541218
O O21 0.000000 0.000000 0.557437
O O22 0.250000 0.237335 0.913855
#
# Coordination Sequence:
#
# PCOD9339886 Si02
#       8
#     4   4   4   4   4   4   4   4
#     4  11  21  37  63  94 129 168 207 255 315 376
#     4  11  24  41  64  93 129 166 209 261 313 377
#     4  10  23  40  62  93 127 165 207 257 311 370
#     4  11  22  38  63  96 131 168 207 254 313 377
#     4  11  24  44  66  91 124 164 213 264 315 371
#     4  12  25  42  67  96 129 168 208 258 313 375
#     4  11  24  41  65  95 128 167 208 256 312 372
#     4  11  25  45  66  92 125 164 213 264 315 373
#
# _framework density 19.217960999999999
#
# number of rings (size 3 to 8) (size 9 to 14) (size 15 to 20)
#    0.000    1.000    2.500    4.125    0.000    8.000 
#    0.000    5.000    0.000    0.000    0.000    0.000 
#    0.000    0.000    0.000    0.000    0.000    0.000 
#
# Total GULP energy -179063.748486 kJ/mol
# GULP energy per Si atom -5595.742140 kJ/mol
# Density = 1.917422 g / cm^3
# Si number density = 19.217961 Si / 1000 Ang^3
#
#
#
# Elastic Constant Matrix: (Units=GPa)
#
#
# Indices 1 2 3 4 5 6 
#
# 1 81.9962 70.2805 67.6550 0.0000 0.0000 0.0000
# 2 70.2805 200.5634 86.1418 0.0000 0.0000 0.0000
# 3 67.6550 86.1418 151.9162 0.0000 0.0000 0.0000
# 4 0.0000 0.0000 0.0000 -5.9389 0.0000 0.0000
# 5 0.0000 0.0000 0.0000 0.0000 149.8065 0.0000
# 6 0.0000 0.0000 0.0000 0.0000 0.0000 34.8618
#
#
#
# Elastic Compliance Matrix: (Units=1/GPa)
#
#
# Indices 1 2 3 4 5 6 
#
# 1 0.022148 -0.004659 -0.007221 0.000000 0.000000 0.000000
# 2 -0.004659 0.007571 -0.002218 0.000000 0.000000 0.000000
# 3 -0.007221 -0.002218 0.011056 0.000000 0.000000 0.000000
# 4 0.000000 0.000000 0.000000 -0.168381 0.000000 0.000000
# 5 0.000000 0.000000 0.000000 0.000000 0.006675 0.000000
# 6 0.000000 0.000000 0.000000 0.000000 0.000000 0.028685
#
#
# Mechanical properties :
#
#
# Convention : Reuss Voigt Hill
#
# Bulk Modulus (GPa) = 79.50640 98.07005 88.78822
# Shear Modulus (GPa) = -83.53527 49.77242 -16.88143
#
# Velocity S-wave (km/s) = -6.60013 5.09462 -2.96703
# Velocity P-wave (km/s) = 4.07695 9.26002 5.87905
#
# Compressibility (1/GPa) = 0.01257760
#
# Stress axis : x y z
#
# Youngs Moduli (GPa) = 45.15169 132.07634 90.44558
#
# Poissons Ratio (x) = 0.61538 0.65314
# Poissons Ratio (y) = 0.21038 0.20063
# Poissons Ratio (z) = 0.32605 0.29298
#
# Static dielectric constant tensor:
#      x y z
#    x 1.642480 0.000000 0.000000 
#    y 0.000000 1.655610 0.000000 
#    z 0.000000 0.000000 1.644920 
# 
# From -- ./inp_files/4984.got.cif
#   From: 2010.05.17/outbox.cif.g08.bks.cpg/sg28_3_cif.got.tgz:4984.got - 2010.06.04 01:15:21.
