data_PCOD9339444
_publ_section_title
;
Structure prediction by ZEFSAII (Michael W. Deem and Ramdas Pophale) SiO2 
 PCOD9339444
Probable space group: P M A 2
;
_chemical_formula_sum "Si O2"
_cell_formula_units_Z 32
_cell_length_a 8.865721
_cell_length_b 14.924291
_cell_length_c 12.445073
_cell_angle_alpha 90.000000
_cell_angle_beta 90.000000
_cell_angle_gamma 90.000000
_cell_volume 1646.664858
_symmetry_space_group_name_H-M "P M A 2"
_symmetry_group_IT_number 28
_symmetry_cell_setting 'orthorhombic'
loop_
_space_group_symop_operation_xyz
x,y,z
-x,-y,z
1/2-x,y,z
1/2+x,-y,z
loop_
_atom_site_type_symbol
_atom_site_label
_atom_site_fract_x
_atom_site_fract_y
_atom_site_fract_z
Si Si1 0.576556 0.684425 0.107260
Si Si2 0.575041 0.591099 0.898586
Si Si3 0.429676 0.727263 0.742759
Si Si4 0.430924 0.906774 0.290359
Si Si5 0.928771 0.716182 0.350941
Si Si6 0.569181 0.400383 0.540849
Si Si7 0.073877 0.862695 0.044931
Si Si8 0.929182 0.906749 0.817238
O O1 0.750000 0.719490 0.094991
O O2 0.551886 0.671715 0.233011
O O3 0.461432 0.758673 0.065438
O O4 0.565258 0.601410 0.027257
O O5 0.500000 0.500000 0.861371
O O6 0.750000 0.594289 0.867736
O O7 0.489105 0.673240 0.845407
O O8 0.250000 0.738706 0.746855
O O9 0.468001 0.663591 0.642224
O O10 0.507421 0.823725 0.748662
O O11 0.250000 0.905266 0.302796
O O12 0.500942 0.816304 0.341322
O O13 0.464831 0.903190 0.161775
O O14 0.500000 0.000000 0.332316
O O15 0.750000 0.723515 0.372426
O O16 0.007016 0.653397 0.438171
O O17 0.500000 0.500000 0.549953
O O18 0.750000 0.408707 0.535077
O O19 0.250000 0.878763 0.022653
O O20 0.980082 0.893663 0.941878
O O21 0.750000 0.908779 0.812295
O O22 0.000000 0.000000 0.779786
#
# Coordination Sequence:
#
# PCOD9339444 Si02
#       8
#     4   4   4   4   4   4   4   4
#     4   9  19  35  55  84 122 163 201 246 302 359
#     4  11  22  36  57  87 122 161 200 245 303 366
#     4  11  24  43  65  90 121 156 201 256 310 364
#     4  10  20  34  55  87 125 167 210 253 301 358
#     4  10  21  39  63  90 123 160 203 255 308 363
#     4  11  25  45  69  94 120 154 203 258 309 367
#     4  10  19  32  54  84 121 165 208 249 296 353
#     4  12  24  38  59  88 124 164 205 250 301 362
#
# _framework density 19.433222000000001
#
# number of rings (size 3 to 8) (size 9 to 14) (size 15 to 20)
#    0.000    1.500    1.250    4.125    0.000    7.000 
#    0.000    1.875    0.000    3.000    0.000    0.000 
#    0.000    0.000    0.000    0.000    0.000    0.000 
#
# Total GULP energy -178714.053417 kJ/mol
# GULP energy per Si atom -5584.814169 kJ/mol
# Density = 1.938899 g / cm^3
# Si number density = 19.433222 Si / 1000 Ang^3
#
#
#
# Elastic Constant Matrix: (Units=GPa)
#
#
# Indices 1 2 3 4 5 6 
#
# 1 87.6562 75.4273 53.9227 0.0000 0.0000 0.0000
# 2 75.4273 152.1689 63.5723 0.0000 0.0000 0.0000
# 3 53.9227 63.5723 88.9499 0.0000 0.0000 0.0000
# 4 0.0000 0.0000 0.0000 10.9223 0.0000 0.0000
# 5 0.0000 0.0000 0.0000 0.0000 32.3930 0.0000
# 6 0.0000 0.0000 0.0000 0.0000 0.0000 34.5858
#
#
#
# Elastic Compliance Matrix: (Units=1/GPa)
#
#
# Indices 1 2 3 4 5 6 
#
# 1 0.023686 -0.008186 -0.008508 0.000000 0.000000 0.000000
# 2 -0.008186 0.012198 -0.003755 0.000000 0.000000 0.000000
# 3 -0.008508 -0.003755 0.019084 0.000000 0.000000 0.000000
# 4 0.000000 0.000000 0.000000 0.091555 0.000000 0.000000
# 5 0.000000 0.000000 0.000000 0.000000 0.030871 0.000000
# 6 0.000000 0.000000 0.000000 0.000000 0.000000 0.028914
#
#
# Mechanical properties :
#
#
# Convention : Reuss Voigt Hill
#
# Bulk Modulus (GPa) = 71.07954 79.40219 75.24086
# Shear Modulus (GPa) = 19.84924 24.63708 22.24316
#
# Velocity S-wave (km/s) = 3.19941 3.56445 3.38686
# Velocity P-wave (km/s) = 7.09253 7.60843 7.35500
#
# Compressibility (1/GPa) = 0.01406875
#
# Stress axis : x y z
#
# Youngs Moduli (GPa) = 42.21820 81.97777 52.39952
#
# Poissons Ratio (x) = 0.67110 0.44583
# Poissons Ratio (y) = 0.34561 0.19679
# Poissons Ratio (z) = 0.35920 0.30787
#
# Static dielectric constant tensor:
#      x y z
#    x 1.657420 0.000000 0.000000 
#    y 0.000000 1.682350 0.000000 
#    z 0.000000 0.000000 1.690090 
# 
# From -- ./inp_files/5099.got.cif
#   From: 2010.05.17/outbox.cif.g08.bks.cpg/sg28_3_cif.got.tgz:5099.got - 2010.06.04 01:15:21.
