data_PCOD9339574
_publ_section_title
;
Structure prediction by ZEFSAII (Michael W. Deem and Ramdas Pophale) SiO2 
 PCOD9339574
Probable space group: P M A 2
;
_chemical_formula_sum "Si O2"
_cell_formula_units_Z 30
_cell_length_a 19.916874
_cell_length_b 5.471652
_cell_length_c 13.628450
_cell_angle_alpha 90.000000
_cell_angle_beta 90.000000
_cell_angle_gamma 90.000000
_cell_volume 1485.203997
_symmetry_space_group_name_H-M "P M A 2"
_symmetry_group_IT_number 28
_symmetry_cell_setting 'orthorhombic'
loop_
_space_group_symop_operation_xyz
x,y,z
-x,-y,z
1/2-x,y,z
1/2+x,-y,z
loop_
_atom_site_type_symbol
_atom_site_label
_atom_site_fract_x
_atom_site_fract_y
_atom_site_fract_z
Si Si1 0.172551 0.129095 0.841880
Si Si2 0.668318 0.294225 0.160770
Si Si3 0.831007 0.796061 0.264839
Si Si4 0.934448 0.112518 0.482977
Si Si5 0.826622 0.485070 0.444980
Si Si6 0.668022 0.365061 0.933662
Si Si7 0.500000 0.500000 0.630175
Si Si8 0.369359 0.266858 0.634168
O O1 0.250000 0.117316 0.874792
O O2 0.143988 0.370409 0.895507
O O3 0.171099 0.165712 0.725060
O O4 0.143157 0.865415 0.869849
O O5 0.750000 0.291950 0.166549
O O6 0.646417 0.551104 0.208162
O O7 0.644363 0.048265 0.216496
O O8 0.650998 0.305236 0.046098
O O9 0.750000 0.808351 0.257223
O O10 0.844533 0.721387 0.378152
O O11 0.880020 0.272265 0.424848
O O12 0.970414 0.298259 0.557669
O O13 0.895756 0.933251 0.557229
O O14 0.000000 0.000000 0.428654
O O15 0.750000 0.412620 0.420629
O O16 0.831692 0.548384 0.560503
O O17 0.750000 0.375890 0.926402
O O18 0.435648 0.389093 0.682220
#
# Coordination Sequence:
#
# PCOD9339574 Si02
#       8
#     4   4   4   4   4   4   2   4
#     4  10  20  31  47  75 108 141 176 212 263 331
#     4   9  16  30  48  66  98 141 178 221 267 316
#     4   9  18  29  46  72 103 139 180 218 268 329
#     4   9  19  36  55  72 103 151 194 235 269 329
#     4  10  21  32  48  79 116 149 181 228 286 343
#     4   9  18  31  47  69 101 140 180 217 262 322
#     4   8  18  36  52  70  92 132 186 234 260 312
#     4  10  20  33  51  71 106 141 178 220 274 327
#
# _framework density 20.199244
#
# number of rings (size 3 to 8) (size 9 to 14) (size 15 to 20)
#    0.000    2.667    0.000    1.200    5.600    4.267 
#    0.000    0.000    0.000    0.000    0.000    0.000 
#    8.000    0.000    0.000    0.000    0.000    0.000 
#
# Total GULP energy -167042.749444 kJ/mol
# GULP energy per Si atom -5568.091648 kJ/mol
# Density = 2.015327 g / cm^3
# Si number density = 20.199244 Si / 1000 Ang^3
#
#
#
# Elastic Constant Matrix: (Units=GPa)
#
#
# Indices 1 2 3 4 5 6 
#
# 1 39.3478 16.7580 -0.4211 0.0000 0.0000 0.0000
# 2 16.7580 98.6322 20.7554 0.0000 0.0000 0.0000
# 3 -0.4211 20.7554 69.4460 0.0000 0.0000 0.0000
# 4 0.0000 0.0000 0.0000 23.4506 0.0000 0.0000
# 5 0.0000 0.0000 0.0000 0.0000 -1.4846 0.0000
# 6 0.0000 0.0000 0.0000 0.0000 0.0000 14.9210
#
#
#
# Elastic Compliance Matrix: (Units=1/GPa)
#
#
# Indices 1 2 3 4 5 6 
#
# 1 0.027578 -0.005038 0.001673 0.000000 0.000000 0.000000
# 2 -0.005038 0.011739 -0.003539 0.000000 0.000000 0.000000
# 3 0.001673 -0.003539 0.015468 0.000000 0.000000 0.000000
# 4 0.000000 0.000000 0.000000 0.042643 0.000000 0.000000
# 5 0.000000 0.000000 0.000000 0.000000 -0.673560 0.000000
# 6 0.000000 0.000000 0.000000 0.000000 0.000000 0.067020
#
#
# Mechanical properties :
#
#
# Convention : Reuss Voigt Hill
#
# Bulk Modulus (GPa) = 24.40398 31.29007 27.84702
# Shear Modulus (GPa) = -10.38106 18.73297 4.17595
#
# Velocity S-wave (km/s) = -2.26947 3.04864 1.43940
# Velocity P-wave (km/s) = 2.28922 5.28362 4.07168
#
# Compressibility (1/GPa) = 0.04097692
#
# Stress axis : x y z
#
# Youngs Moduli (GPa) = 36.26110 85.18378 64.65147
#
# Poissons Ratio (x) = 0.42912 -0.10815
# Poissons Ratio (y) = 0.18267 0.22881
# Poissons Ratio (z) = -0.06066 0.30147
#
# Static dielectric constant tensor:
#      x y z
#    x 1.745360 0.000000 0.000000 
#    y 0.000000 1.806250 0.000000 
#    z 0.000000 0.000000 1.708670 
# 
# From -- ./inp_files/5839.got.cif
#   From: 2010.05.17/outbox.cif.g08.bks.cpg/sg28_3_cif.got.tgz:5839.got - 2010.06.04 01:15:21.
