data_PCOD9339698
_publ_section_title
;
Structure prediction by ZEFSAII (Michael W. Deem and Ramdas Pophale) SiO2 
 PCOD9339698
Probable space group: P M A 2
;
_chemical_formula_sum "Si O2"
_cell_formula_units_Z 26
_cell_length_a 20.806471
_cell_length_b 9.418183
_cell_length_c 5.903424
_cell_angle_alpha 90.000000
_cell_angle_beta 90.000000
_cell_angle_gamma 90.000000
_cell_volume 1156.829958
_symmetry_space_group_name_H-M "P M A 2"
_symmetry_group_IT_number 28
_symmetry_cell_setting 'orthorhombic'
loop_
_space_group_symop_operation_xyz
x,y,z
-x,-y,z
1/2-x,y,z
1/2+x,-y,z
loop_
_atom_site_type_symbol
_atom_site_label
_atom_site_fract_x
_atom_site_fract_y
_atom_site_fract_z
Si Si1 0.536253 0.234771 0.547930
Si Si2 0.389057 0.590198 0.172787
Si Si3 0.821282 0.631841 0.448258
Si Si4 0.924111 0.644027 0.832073
Si Si5 0.821788 0.842343 0.062897
Si Si6 0.500000 0.000000 0.232445
Si Si7 0.616932 0.118056 0.932357
O O1 0.568451 0.346441 0.377749
O O2 0.492244 0.305998 0.738566
O O3 0.490312 0.133227 0.399413
O O4 0.591004 0.142299 0.676809
O O5 0.331433 0.492819 0.264926
O O6 0.427030 0.481515 0.012422
O O7 0.367833 0.726583 0.029456
O O8 0.750000 0.621773 0.546176
O O9 0.878235 0.605369 0.622711
O O10 0.827358 0.784258 0.321103
O O11 0.882543 0.769709 0.943332
O O12 0.750000 0.793354 0.994044
O O13 0.827967 0.006145 0.992828
O O14 0.442500 0.947486 0.075260
#
# Coordination Sequence:
#
# PCOD9339698 Si02
#       7
#     4   4   4   4   4   2   4
#     4  11  23  39  63  94 130 169 212 267 331 388
#     4  10  25  41  60  93 128 165 213 264 324 396
#     4  10  22  42  66  91 122 165 216 269 323 380
#     4  11  22  41  66  90 125 168 214 267 322 387
#     4  10  22  40  64  93 122 162 218 267 314 383
#     4  10  20  36  60  90 124 162 212 266 324 392
#     4  11  22  39  60  89 128 169 206 260 332 388
#
# _framework density 22.475213
#
# number of rings (size 3 to 8) (size 9 to 14) (size 15 to 20)
#    0.000    1.538    0.000    4.615    0.000    9.846 
#    0.000    2.308    0.000    0.000    0.000    0.000 
#    0.000    0.000    0.000    0.000    0.000    0.000 
#
# Total GULP energy -145265.867167 kJ/mol
# GULP energy per Si atom -5587.148737 kJ/mol
# Density = 2.242406 g / cm^3
# Si number density = 22.475213 Si / 1000 Ang^3
#
#
#
# Elastic Constant Matrix: (Units=GPa)
#
#
# Indices 1 2 3 4 5 6 
#
# 1 71.6921 25.0574 23.6771 0.0000 0.0000 0.0000
# 2 25.0574 129.1839 40.8865 0.0000 0.0000 0.0000
# 3 23.6771 40.8865 81.5495 0.0000 0.0000 0.0000
# 4 0.0000 0.0000 0.0000 45.5806 0.0000 0.0000
# 5 0.0000 0.0000 0.0000 0.0000 213.8648 0.0000
# 6 0.0000 0.0000 0.0000 0.0000 0.0000 118.2748
#
#
#
# Elastic Compliance Matrix: (Units=1/GPa)
#
#
# Indices 1 2 3 4 5 6 
#
# 1 0.015818 -0.001919 -0.003630 0.000000 0.000000 0.000000
# 2 -0.001919 0.009434 -0.004173 0.000000 0.000000 0.000000
# 3 -0.003630 -0.004173 0.015409 0.000000 0.000000 0.000000
# 4 0.000000 0.000000 0.000000 0.021939 0.000000 0.000000
# 5 0.000000 0.000000 0.000000 0.000000 0.004676 0.000000
# 6 0.000000 0.000000 0.000000 0.000000 0.000000 0.008455
#
#
# Mechanical properties :
#
#
# Convention : Reuss Voigt Hill
#
# Bulk Modulus (GPa) = 47.13385 51.29637 49.21511
# Shear Modulus (GPa) = 48.90112 88.39768 68.64940
#
# Velocity S-wave (km/s) = 4.66959 6.27826 5.53270
# Velocity P-wave (km/s) = 7.07746 8.68496 7.92209
#
# Compressibility (1/GPa) = 0.02121617
#
# Stress axis : x y z
#
# Youngs Moduli (GPa) = 63.21783 106.00200 64.89888
#
# Poissons Ratio (x) = 0.20344 0.23561
# Poissons Ratio (y) = 0.12133 0.27080
# Poissons Ratio (z) = 0.22951 0.44230
#
# Static dielectric constant tensor:
#      x y z
#    x 1.796380 0.000000 0.000000 
#    y 0.000000 1.874760 0.000000 
#    z 0.000000 0.000000 1.877270 
# 
# From -- ./inp_files/1755.got.cif
#   From: 2010.05.17/outbox.cif.g08.bks.cpg/sg28_1_cif.got.tgz:1755.got - 2010.06.04 01:15:21.
