data_PCOD9339306
_publ_section_title
;
Structure prediction by ZEFSAII (Michael W. Deem and Ramdas Pophale) SiO2 
 PCOD9339306
Probable space group: P M A 2
;
_chemical_formula_sum "Si O2"
_cell_formula_units_Z 32
_cell_length_a 29.857501
_cell_length_b 8.471893
_cell_length_c 5.567078
_cell_angle_alpha 90.000000
_cell_angle_beta 90.000000
_cell_angle_gamma 90.000000
_cell_volume 1408.189896
_symmetry_space_group_name_H-M "P M A 2"
_symmetry_group_IT_number 28
_symmetry_cell_setting 'orthorhombic'
loop_
_space_group_symop_operation_xyz
x,y,z
-x,-y,z
1/2-x,y,z
1/2+x,-y,z
loop_
_atom_site_type_symbol
_atom_site_label
_atom_site_fract_x
_atom_site_fract_y
_atom_site_fract_z
Si Si1 0.885068 0.985695 0.884630
Si Si2 0.169552 0.124710 0.257468
Si Si3 0.699199 0.115040 0.607854
Si Si4 0.301754 0.427840 0.013736
Si Si5 0.027357 0.832844 0.811451
Si Si6 0.402046 0.293950 0.550260
Si Si7 0.506989 0.807616 0.314480
Si Si8 0.841710 0.453161 0.511587
O O1 0.836404 0.030623 0.781972
O O2 0.921246 0.117776 0.834011
O O3 0.904680 0.819002 0.784184
O O4 0.873772 0.968792 0.161893
O O5 0.190574 0.241433 0.062531
O O6 0.146132 0.238966 0.448252
O O7 0.201663 0.002487 0.381694
O O8 0.750000 0.143732 0.697236
O O9 0.673047 0.272510 0.536311
O O10 0.250000 0.466302 0.050753
O O11 0.328660 0.509928 0.232666
O O12 0.315426 0.473352 0.744394
O O13 0.018781 0.753450 0.555115
O O14 0.000000 0.000000 0.801047
O O15 0.010327 0.750398 0.055403
O O16 0.442620 0.246389 0.377062
O O17 0.392097 0.480564 0.564047
O O18 0.500000 0.000000 0.303634
#
# Coordination Sequence:
#
# PCOD9339306 Si02
#       8
#     4   4   4   4   4   4   4   4
#     4  11  21  39  63  96 131 169 218 276 333 398
#     4  10  22  38  62  91 127 165 218 283 335 392
#     4  11  26  43  61  92 132 184 231 281 345 417
#     4  11  22  40  64  89 121 164 224 283 330 389
#     4  10  19  31  58  95 126 161 203 261 321 397
#     4  10  20  38  62  97 127 166 218 272 330 390
#     4  10  18  30  57  95 126 157 199 263 318 397
#     4  11  25  43  64  91 128 177 223 275 337 408
#
# _framework density 22.724208000000001
#
# number of rings (size 3 to 8) (size 9 to 14) (size 15 to 20)
#    0.000    1.500    3.750    3.000    3.500    1.000 
#    0.000    0.000    0.000    0.750    0.000    0.000 
#    0.000    0.000    0.000    0.000    0.000    0.000 
#
# Total GULP energy -178221.018620 kJ/mol
# GULP energy per Si atom -5569.406832 kJ/mol
# Density = 2.267249 g / cm^3
# Si number density = 22.724208 Si / 1000 Ang^3
#
#
#
# Elastic Constant Matrix: (Units=GPa)
#
#
# Indices 1 2 3 4 5 6 
#
# 1 60.6041 6.4346 15.8733 0.0000 0.0000 0.0000
# 2 6.4346 57.8603 15.2364 0.0000 0.0000 0.0000
# 3 15.8733 15.2364 97.5244 0.0000 0.0000 0.0000
# 4 0.0000 0.0000 0.0000 11.5195 0.0000 0.0000
# 5 0.0000 0.0000 0.0000 0.0000 19.0945 0.0000
# 6 0.0000 0.0000 0.0000 0.0000 0.0000 12.4504
#
#
#
# Elastic Compliance Matrix: (Units=1/GPa)
#
#
# Indices 1 2 3 4 5 6 
#
# 1 0.017319 -0.001235 -0.002626 0.000000 0.000000 0.000000
# 2 -0.001235 0.018113 -0.002629 0.000000 0.000000 0.000000
# 3 -0.002626 -0.002629 0.011092 0.000000 0.000000 0.000000
# 4 0.000000 0.000000 0.000000 0.086809 0.000000 0.000000
# 5 0.000000 0.000000 0.000000 0.000000 0.052371 0.000000
# 6 0.000000 0.000000 0.000000 0.000000 0.000000 0.080319
#
#
# Mechanical properties :
#
#
# Convention : Reuss Voigt Hill
#
# Bulk Modulus (GPa) = 29.81061 32.34191 31.07626
# Shear Modulus (GPa) = 17.23048 20.50919 18.86984
#
# Velocity S-wave (km/s) = 2.75661 3.00747 2.88477
# Velocity P-wave (km/s) = 4.82481 5.13060 4.98005
#
# Compressibility (1/GPa) = 0.03354510
#
# Stress axis : x y z
#
# Youngs Moduli (GPa) = 57.73859 55.21033 90.15530
#
# Poissons Ratio (x) = 0.06816 0.23676
# Poissons Ratio (y) = 0.07128 0.23700
# Poissons Ratio (z) = 0.15163 0.14514
#
# Static dielectric constant tensor:
#      x y z
#    x 1.853750 0.000000 0.000000 
#    y 0.000000 2.011320 0.000000 
#    z 0.000000 0.000000 1.932010 
# 
# From -- ./inp_files/1907.got.cif
#   From: 2010.05.17/outbox.cif.g08.bks.cpg/sg28_1_cif.got.tgz:1907.got - 2010.06.04 01:15:21.
