data_PCOD9339726
_publ_section_title
;
Structure prediction by ZEFSAII (Michael W. Deem and Ramdas Pophale) SiO2 
 PCOD9339726
Probable space group: P M A 2
;
_chemical_formula_sum "Si O2"
_cell_formula_units_Z 26
_cell_length_a 24.820788
_cell_length_b 5.129850
_cell_length_c 10.491793
_cell_angle_alpha 90.000000
_cell_angle_beta 90.000000
_cell_angle_gamma 90.000000
_cell_volume 1335.887681
_symmetry_space_group_name_H-M "P M A 2"
_symmetry_group_IT_number 28
_symmetry_cell_setting 'orthorhombic'
loop_
_space_group_symop_operation_xyz
x,y,z
-x,-y,z
1/2-x,y,z
1/2+x,-y,z
loop_
_atom_site_type_symbol
_atom_site_label
_atom_site_fract_x
_atom_site_fract_y
_atom_site_fract_z
Si Si1 0.440505 0.605774 0.689100
Si Si2 0.078977 0.389678 0.419801
Si Si3 0.250000 0.871735 0.196546
Si Si4 0.250000 0.375533 0.017237
Si Si5 0.500000 0.000000 0.525800
Si Si6 0.660148 0.573022 0.804665
Si Si7 0.189298 0.928495 0.651967
Si Si8 0.143391 0.887034 0.369178
O O1 0.500000 0.500000 0.718057
O O2 0.413686 0.451427 0.570420
O O3 0.454364 0.882825 0.620712
O O4 0.400147 0.552253 0.805302
O O5 0.098298 0.659474 0.354774
O O6 0.116365 0.169540 0.358107
O O7 0.021801 0.234455 0.436696
O O8 0.250000 0.628541 0.103487
O O9 0.195724 0.859988 0.281174
O O10 0.250000 0.127573 0.109109
O O11 0.303626 0.383528 0.929402
O O12 0.689344 0.347623 0.723147
O O13 0.659559 0.852902 0.735310
O O14 0.250000 0.026989 0.636961
O O15 0.164399 0.883032 0.514259
#
# Coordination Sequence:
#
# PCOD9339726 Si02
#       8
#     4   4   2   2   2   4   4   4
#     4  10  21  34  58  97 138 164 194 251 323 407
#     4  11  20  35  58  95 131 164 196 238 330 389
#     4  12  28  46  60  90 128 170 242 262 316 368
#     4  12  26  46  62  86 122 188 224 280 310 362
#     4  10  20  38  56  98 152 158 192 246 330 436
#     4  12  23  39  63  90 134 166 214 257 327 396
#     4  12  20  35  58  97 123 159 202 257 335 393
#     4  12  22  37  62  90 129 168 203 266 314 391
#
# _framework density 19.462713000000001
#
# number of rings (size 3 to 8) (size 9 to 14) (size 15 to 20)
#    0.000    0.615    6.923    1.846    2.154    0.000 
#    0.000    0.000    0.000    0.000    8.000    0.000 
#    0.000    0.000    0.000    0.000    0.000    0.000 
#
# Total GULP energy -144809.349759 kJ/mol
# GULP energy per Si atom -5569.590375 kJ/mol
# Density = 1.941841 g / cm^3
# Si number density = 19.462713 Si / 1000 Ang^3
#
#
#
# Elastic Constant Matrix: (Units=GPa)
#
#
# Indices 1 2 3 4 5 6 
#
# 1 136.0296 33.4630 45.2346 0.0000 0.0000 0.0000
# 2 33.4630 150.4518 51.3967 0.0000 0.0000 0.0000
# 3 45.2346 51.3967 87.0375 0.0000 0.0000 0.0000
# 4 0.0000 0.0000 0.0000 16.6456 0.0000 0.0000
# 5 0.0000 0.0000 0.0000 0.0000 5.6832 0.0000
# 6 0.0000 0.0000 0.0000 0.0000 0.0000 31.1443
#
#
#
# Elastic Compliance Matrix: (Units=1/GPa)
#
#
# Indices 1 2 3 4 5 6 
#
# 1 0.008917 -0.000501 -0.004338 0.000000 0.000000 0.000000
# 2 -0.000501 0.008354 -0.004673 0.000000 0.000000 0.000000
# 3 -0.004338 -0.004673 0.016503 0.000000 0.000000 0.000000
# 4 0.000000 0.000000 0.000000 0.060076 0.000000 0.000000
# 5 0.000000 0.000000 0.000000 0.000000 0.175959 0.000000
# 6 0.000000 0.000000 0.000000 0.000000 0.000000 0.032109
#
#
# Mechanical properties :
#
#
# Convention : Reuss Voigt Hill
#
# Bulk Modulus (GPa) = 67.79653 70.41193 69.10423
# Shear Modulus (GPa) = 15.34401 26.92294 21.13347
#
# Velocity S-wave (km/s) = 2.81086 3.72332 3.29879
# Velocity P-wave (km/s) = 6.74123 7.39869 7.07760
#
# Compressibility (1/GPa) = 0.01475002
#
# Stress axis : x y z
#
# Youngs Moduli (GPa) = 112.14104 119.69641 60.59339
#
# Poissons Ratio (x) = 0.06000 0.26288
# Poissons Ratio (y) = 0.05621 0.28315
# Poissons Ratio (z) = 0.48652 0.55933
#
# Static dielectric constant tensor:
#      x y z
#    x 1.787830 0.000000 0.000000 
#    y 0.000000 1.727040 0.000000 
#    z 0.000000 0.000000 1.637950 
# 
# From -- ./inp_files/4299.got.cif
#   From: 2010.05.17/outbox.cif.g08.bks.cpg/sg28_3_cif.got.tgz:4299.got - 2010.06.04 01:15:21.
