data_PCOD9339287
_publ_section_title
;
Structure prediction by ZEFSAII (Michael W. Deem and Ramdas Pophale) SiO2 
 PCOD9339287
Probable space group: P M A 2
;
_chemical_formula_sum "Si O2"
_cell_formula_units_Z 32
_cell_length_a 11.472874
_cell_length_b 29.182579
_cell_length_c 5.138430
_cell_angle_alpha 90.000000
_cell_angle_beta 90.000000
_cell_angle_gamma 90.000000
_cell_volume 1720.387738
_symmetry_space_group_name_H-M "P M A 2"
_symmetry_group_IT_number 28
_symmetry_cell_setting 'orthorhombic'
loop_
_space_group_symop_operation_xyz
x,y,z
-x,-y,z
1/2-x,y,z
1/2+x,-y,z
loop_
_atom_site_type_symbol
_atom_site_label
_atom_site_fract_x
_atom_site_fract_y
_atom_site_fract_z
Si Si1 0.493806 0.185606 0.694170
Si Si2 0.380116 0.725237 0.663379
Si Si3 0.387683 0.466668 0.549870
Si Si4 0.116476 0.404158 0.049212
Si Si5 0.117288 0.094097 0.573456
Si Si6 0.884699 0.968532 0.073818
Si Si7 0.994542 0.691427 0.163768
Si Si8 0.123651 0.217831 0.191329
O O1 0.601699 0.219687 0.644598
O O2 0.480281 0.132646 0.622481
O O3 0.401763 0.208576 0.492877
O O4 0.463439 0.192121 0.996921
O O5 0.250000 0.712968 0.598171
O O6 0.461125 0.699726 0.455301
O O7 0.412666 0.709192 0.952293
O O8 0.500000 0.500000 0.581298
O O9 0.250000 0.483997 0.571832
O O10 0.398643 0.442801 0.269302
O O11 0.400127 0.427854 0.770977
O O12 0.250000 0.388043 0.065959
O O13 0.037735 0.360342 0.103977
O O14 0.250000 0.113500 0.598504
O O15 0.107894 0.070927 0.292593
O O16 0.107655 0.054975 0.791659
O O17 0.750000 0.988078 0.097850
O O18 0.000000 0.000000 0.107438
O O19 0.890432 0.728296 0.134226
O O20 0.250000 0.200592 0.122519
#
# Coordination Sequence:
#
# PCOD9339287 Si02
#       8
#     4   4   4   4   4   4   4   4
#     4  10  20  32  50  75 101 136 174 207 253 307
#     4  10  21  37  52  71 108 148 180 216 258 306
#     4  10  21  38  59  82 112 146 180 226 281 333
#     4  10  20  36  58  82 109 138 175 225 275 324
#     4  10  19  33  55  80 105 132 170 219 267 316
#     4  10  21  37  56  78 106 138 172 218 273 325
#     4  10  20  34  54  77 101 137 179 214 257 311
#     4  10  18  29  48  75 106 131 160 205 252 302
#
# _framework density 18.600458
#
# number of rings (size 3 to 8) (size 9 to 14) (size 15 to 20)
#    0.000    2.000    0.000    4.125    0.000    1.000 
#    0.000    8.750    0.000    0.000    0.000    0.000 
#    0.000    0.000    0.000    0.000    0.000    0.000 
#
# Total GULP energy -178178.348291 kJ/mol
# GULP energy per Si atom -5568.073384 kJ/mol
# Density = 1.855812 g / cm^3
# Si number density = 18.600458 Si / 1000 Ang^3
#
#
#
# Elastic Constant Matrix: (Units=GPa)
#
#
# Indices 1 2 3 4 5 6 
#
# 1 64.7030 28.3598 -14.3441 0.0000 0.0000 0.0000
# 2 28.3598 51.5705 -18.5175 0.0000 0.0000 0.0000
# 3 -14.3441 -18.5175 41.7899 0.0000 0.0000 0.0000
# 4 0.0000 0.0000 0.0000 20.0405 0.0000 0.0000
# 5 0.0000 0.0000 0.0000 0.0000 15.7029 0.0000
# 6 0.0000 0.0000 0.0000 0.0000 0.0000 12.2025
#
#
#
# Elastic Compliance Matrix: (Units=1/GPa)
#
#
# Indices 1 2 3 4 5 6 
#
# 1 0.020570 -0.010437 0.002436 0.000000 0.000000 0.000000
# 2 -0.010437 0.028356 0.008982 0.000000 0.000000 0.000000
# 3 0.002436 0.008982 0.028745 0.000000 0.000000 0.000000
# 4 0.000000 0.000000 0.000000 0.049899 0.000000 0.000000
# 5 0.000000 0.000000 0.000000 0.000000 0.063683 0.000000
# 6 0.000000 0.000000 0.000000 0.000000 0.000000 0.081950
#
#
# Mechanical properties :
#
#
# Convention : Reuss Voigt Hill
#
# Bulk Modulus (GPa) = 12.55772 16.56220 14.55996
# Shear Modulus (GPa) = 16.79059 20.42687 18.60873
#
# Velocity S-wave (km/s) = 3.00775 3.31749 3.16641
# Velocity P-wave (km/s) = 4.33913 4.85776 4.60575
#
# Compressibility (1/GPa) = 0.07963227
#
# Stress axis : x y z
#
# Youngs Moduli (GPa) = 48.61460 35.26599 34.78823
#
# Poissons Ratio (x) = 0.36808 -0.08473
# Poissons Ratio (y) = 0.50741 -0.31248
# Poissons Ratio (z) = -0.11841 -0.31677
#
# Static dielectric constant tensor:
#      x y z
#    x 1.693310 0.000000 0.000000 
#    y 0.000000 1.639570 0.000000 
#    z 0.000000 0.000000 1.622330 
# 
# From -- ./inp_files/575.got.cif
#   From: 2010.05.17/outbox.cif.g08.bks.cpg/sg28_1_cif.got.tgz:575.got - 2010.06.04 01:15:21.
