data_PCOD9339393
_publ_section_title
;
Structure prediction by ZEFSAII (Michael W. Deem and Ramdas Pophale) SiO2 
 PCOD9339393
Probable space group: P M A 2
;
_chemical_formula_sum "Si O2"
_cell_formula_units_Z 32
_cell_length_a 9.428975
_cell_length_b 16.687049
_cell_length_c 11.146323
_cell_angle_alpha 90.000000
_cell_angle_beta 90.000000
_cell_angle_gamma 90.000000
_cell_volume 1753.782166
_symmetry_space_group_name_H-M "P M A 2"
_symmetry_group_IT_number 28
_symmetry_cell_setting 'orthorhombic'
loop_
_space_group_symop_operation_xyz
x,y,z
-x,-y,z
1/2-x,y,z
1/2+x,-y,z
loop_
_atom_site_type_symbol
_atom_site_label
_atom_site_fract_x
_atom_site_fract_y
_atom_site_fract_z
Si Si1 0.422317 0.414880 0.616430
Si Si2 0.089786 0.925131 0.354959
Si Si3 0.910432 0.613874 0.334047
Si Si4 0.411119 0.568495 0.108052
Si Si5 0.587478 0.253916 0.008437
Si Si6 0.420601 0.742678 0.725294
Si Si7 0.589375 0.792891 0.231843
Si Si8 0.087243 0.921042 0.643473
O O1 0.500000 0.500000 0.648505
O O2 0.250000 0.418210 0.638035
O O3 0.443427 0.401998 0.472735
O O4 0.493850 0.335791 0.678162
O O5 0.250000 0.929053 0.312076
O O6 0.090197 0.926133 0.499176
O O7 0.012808 0.847056 0.309356
O O8 0.000000 0.000000 0.310760
O O9 0.750000 0.583412 0.312310
O O10 0.907940 0.707255 0.298155
O O11 0.023464 0.580284 0.240159
O O12 0.500000 0.500000 0.043957
O O13 0.250000 0.543773 0.114633
O O14 0.420028 0.652317 0.041098
O O15 0.750000 0.227019 0.033106
O O16 0.476869 0.214018 0.099107
O O17 0.559581 0.247197 0.867952
O O18 0.250000 0.731476 0.701657
O O19 0.463956 0.830247 0.672498
O O20 0.750000 0.823514 0.227562
O O21 0.250000 0.926629 0.687980
O O22 0.000000 0.000000 0.685442
#
# Coordination Sequence:
#
# PCOD9339393 Si02
#       8
#     4   4   4   4   4   4   4   4
#     4  11  23  37  54  79 111 146 183 225 274 328
#     4  10  19  32  52  80 111 139 169 208 260 320
#     4   9  19  34  52  76 105 136 171 215 267 323
#     4  10  19  31  50  74  99 131 171 217 267 315
#     4   9  20  37  54  73 101 139 180 220 262 312
#     4  10  21  39  59  79 107 145 188 231 274 320
#     4  10  19  33  54  79 106 136 173 217 266 319
#     4   9  19  35  58  86 113 142 177 221 272 327
#
# _framework density 18.246279999999999
#
# number of rings (size 3 to 8) (size 9 to 14) (size 15 to 20)
#    0.000    2.250    0.000    2.625    0.000    5.000 
#    0.000    1.875    0.000    1.500    0.000    0.000 
#    0.000    0.000    0.000    0.000    0.000    0.000 
#
# Total GULP energy -178303.311994 kJ/mol
# GULP energy per Si atom -5571.978500 kJ/mol
# Density = 1.820475 g / cm^3
# Si number density = 18.246280 Si / 1000 Ang^3
#
#
#
# Elastic Constant Matrix: (Units=GPa)
#
#
# Indices 1 2 3 4 5 6 
#
# 1 120.3773 55.2186 19.1895 0.0000 0.0000 0.0000
# 2 55.2186 98.8875 14.3333 0.0000 0.0000 0.0000
# 3 19.1895 14.3333 24.4552 0.0000 0.0000 0.0000
# 4 0.0000 0.0000 0.0000 18.3625 0.0000 0.0000
# 5 0.0000 0.0000 0.0000 0.0000 62.0496 0.0000
# 6 0.0000 0.0000 0.0000 0.0000 0.0000 33.9945
#
#
#
# Elastic Compliance Matrix: (Units=1/GPa)
#
#
# Indices 1 2 3 4 5 6 
#
# 1 0.011912 -0.005788 -0.005954 0.000000 0.000000 0.000000
# 2 -0.005788 0.013864 -0.003584 0.000000 0.000000 0.000000
# 3 -0.005954 -0.003584 0.047664 0.000000 0.000000 0.000000
# 4 0.000000 0.000000 0.000000 0.054459 0.000000 0.000000
# 5 0.000000 0.000000 0.000000 0.000000 0.016116 0.000000
# 6 0.000000 0.000000 0.000000 0.000000 0.000000 0.029417
#
#
# Mechanical properties :
#
#
# Convention : Reuss Voigt Hill
#
# Bulk Modulus (GPa) = 23.37171 46.80028 35.08600
# Shear Modulus (GPa) = 22.89941 33.21321 28.05631
#
# Velocity S-wave (km/s) = 3.54647 4.27109 3.92554
# Velocity P-wave (km/s) = 5.44121 7.07304 6.31010
#
# Compressibility (1/GPa) = 0.04278677
#
# Stress axis : x y z
#
# Youngs Moduli (GPa) = 83.95188 72.12830 20.98028
#
# Poissons Ratio (x) = 0.41751 0.12492
# Poissons Ratio (y) = 0.48594 0.07519
# Poissons Ratio (z) = 0.49987 0.25850
#
# Static dielectric constant tensor:
#      x y z
#    x 1.638760 0.000000 0.000000 
#    y 0.000000 1.628010 0.000000 
#    z 0.000000 0.000000 1.602020 
# 
# From -- ./inp_files/5102.got.cif
#   From: 2010.05.17/outbox.cif.g08.bks.cpg/sg28_3_cif.got.tgz:5102.got - 2010.06.04 01:15:21.
