data_PCOD9339213
_publ_section_title
;
Structure prediction by ZEFSAII (Michael W. Deem and Ramdas Pophale) SiO2 
 PCOD9339213
Probable space group: P C C 2
;
_chemical_formula_sum "Si O2"
_cell_formula_units_Z 20
_cell_length_a 8.623552
_cell_length_b 5.030682
_cell_length_c 17.765240
_cell_angle_alpha 90.000000
_cell_angle_beta 90.000000
_cell_angle_gamma 90.000000
_cell_volume 770.697821
_symmetry_space_group_name_H-M "P C C 2"
_symmetry_group_IT_number 27
_symmetry_cell_setting 'orthorhombic'
loop_
_space_group_symop_operation_xyz
x,y,z
-x,-y,z
-x,y,1/2+z
x,-y,1/2+z
loop_
_atom_site_type_symbol
_atom_site_label
_atom_site_fract_x
_atom_site_fract_y
_atom_site_fract_z
Si Si1 0.500000 0.500000 0.533650
Si Si2 0.753153 0.235699 0.929997
Si Si3 0.901687 0.253605 0.780513
Si Si4 0.000000 0.000000 0.540832
Si Si5 0.500000 0.500000 0.233672
Si Si6 0.500000 0.000000 0.841927
Si Si7 0.736994 0.274599 0.637283
O O1 0.366922 0.393160 0.480250
O O2 0.589970 0.264201 0.580461
O O3 0.820399 0.369627 0.854773
O O4 0.651783 0.997080 0.894293
O O5 0.887572 0.160753 0.986621
O O6 0.790399 0.136700 0.715282
O O7 0.000000 0.500000 0.746940
O O8 0.000000 0.000000 0.806250
O O9 0.111182 0.799464 0.588367
O O10 0.504598 0.748394 0.288196
O O11 0.344613 0.527486 0.181478
#
# Coordination Sequence:
#
# PCOD9339213 Si02
#       7
#     2   4   4   2   2   2   4
#     4  11  29  48  78 121 163 220 258 345 405 488
#     4  12  28  50  81 115 164 209 272 326 408 475
#     4  12  29  50  82 118 159 209 273 334 396 475
#     4  12  28  48  78 120 164 218 260 344 406 486
#     4  11  27  48  86 115 159 206 274 335 393 472
#     4  12  26  50  82 120 156 208 272 336 392 472
#     4  11  27  52  79 118 161 213 268 333 401 483
#
# _framework density 25.950507000000002
#
# number of rings (size 3 to 8) (size 9 to 14) (size 15 to 20)
#    0.000    0.400    4.000    1.800    8.400    3.200 
#    0.000    0.000    0.000    0.000    0.000    0.000 
#    0.000    0.000    0.000    0.000    0.000    0.000 
#
# Total GULP energy -111427.039739 kJ/mol
# GULP energy per Si atom -5571.351987 kJ/mol
# Density = 2.589144 g / cm^3
# Si number density = 25.950507 Si / 1000 Ang^3
#
#
#
# Elastic Constant Matrix: (Units=GPa)
#
#
# Indices 1 2 3 4 5 6 
#
# 1 188.9631 55.2623 94.3565 0.0000 0.0000 0.0000
# 2 55.2623 105.4834 44.2089 0.0000 0.0000 0.0000
# 3 94.3565 44.2089 190.6338 0.0000 0.0000 0.0000
# 4 0.0000 0.0000 0.0000 -12.5729 0.0000 0.0000
# 5 0.0000 0.0000 0.0000 0.0000 51.2030 0.0000
# 6 0.0000 0.0000 0.0000 0.0000 0.0000 46.8070
#
#
#
# Elastic Compliance Matrix: (Units=1/GPa)
#
#
# Indices 1 2 3 4 5 6 
#
# 1 0.007659 -0.002685 -0.003168 0.000000 0.000000 0.000000
# 2 -0.002685 0.011442 -0.001325 0.000000 0.000000 0.000000
# 3 -0.003168 -0.001325 0.007121 0.000000 0.000000 0.000000
# 4 0.000000 0.000000 0.000000 -0.079536 0.000000 0.000000
# 5 0.000000 0.000000 0.000000 0.000000 0.019530 0.000000
# 6 0.000000 0.000000 0.000000 0.000000 0.000000 0.021364
#
#
# Mechanical properties :
#
#
# Convention : Reuss Voigt Hill
#
# Bulk Modulus (GPa) = 84.26954 96.97064 90.62009
# Shear Modulus (GPa) = 848.69178 36.50427 442.59803
#
# Velocity S-wave (km/s) = 18.10393 3.75465 13.07383
# Velocity P-wave (km/s) = 21.66903 7.49968 16.21407
#
# Compressibility (1/GPa) = 0.01186668
#
# Stress axis : x y z
#
# Youngs Moduli (GPa) = 130.55955 87.39858 140.42766
#
# Poissons Ratio (x) = 0.23464 0.44494
# Poissons Ratio (y) = 0.35052 0.18600
# Poissons Ratio (z) = 0.41367 0.11576
#
# Static dielectric constant tensor:
#      x y z
#    x 2.166290 0.000000 0.000000 
#    y 0.000000 1.995070 0.000000 
#    z 0.000000 0.000000 2.078350 
# 
# From -- ./inp_files/4195.got.cif
#   From: 2010.05.17/outbox.cif.g08.bks.cpg/sg27_3_cif.got.tgz:4195.got - 2010.06.04 01:11:05.
