data_PCOD9339588
_publ_section_title
;
Structure prediction by ZEFSAII (Michael W. Deem and Ramdas Pophale) SiO2 
 PCOD9339588
Probable space group: P M A 2
;
_chemical_formula_sum "Si O2"
_cell_formula_units_Z 32
_cell_length_a 9.094466
_cell_length_b 17.764043
_cell_length_c 11.858477
_cell_angle_alpha 90.000000
_cell_angle_beta 90.000000
_cell_angle_gamma 90.000000
_cell_volume 1915.790146
_symmetry_space_group_name_H-M "P M A 2"
_symmetry_group_IT_number 28
_symmetry_cell_setting 'orthorhombic'
loop_
_space_group_symop_operation_xyz
x,y,z
-x,-y,z
1/2-x,y,z
1/2+x,-y,z
loop_
_atom_site_type_symbol
_atom_site_label
_atom_site_fract_x
_atom_site_fract_y
_atom_site_fract_z
Si Si1 0.916754 0.804699 0.467900
Si Si2 0.928048 0.723392 0.250056
Si Si3 0.572687 0.075624 0.904961
Si Si4 0.081800 0.861675 0.673215
Si Si5 0.072819 0.763620 0.014883
Si Si6 0.081178 0.693223 0.780884
Si Si7 0.074096 0.577731 0.361964
Si Si8 0.917507 0.636147 0.575572
O O1 0.750000 0.831482 0.460237
O O2 0.972423 0.787323 0.342102
O O3 0.915333 0.721498 0.525672
O O4 0.002897 0.857640 0.553626
O O5 0.750000 0.716356 0.254927
O O6 0.985751 0.743393 0.126912
O O7 0.003773 0.646505 0.292024
O O8 0.750000 0.069215 0.901956
O O9 0.518747 0.089534 0.776044
O O10 0.500000 0.000000 0.950079
O O11 0.538997 0.151247 0.974569
O O12 0.250000 0.884080 0.655605
O O13 0.082276 0.776652 0.724332
O O14 0.250000 0.758845 0.031766
O O15 0.036329 0.708457 0.909807
O O16 0.250000 0.666142 0.778007
O O17 0.978590 0.642729 0.702062
O O18 0.250000 0.576557 0.352617
O O19 0.000000 0.500000 0.324432
O O20 0.023891 0.591696 0.491507
O O21 0.750000 0.607672 0.570157
#
# Coordination Sequence:
#
# PCOD9339588 Si02
#       8
#     4   4   4   4   4   4   4   4
#     4   8  15  26  41  64  92 117 145 187 231 275
#     4  10  20  33  49  73 101 129 168 211 250 296
#     4   9  18  31  47  70  98 126 160 203 251 302
#     4   8  14  25  42  64  89 116 147 185 230 282
#     4   9  18  32  49  71  99 132 172 212 249 295
#     4   8  14  26  44  66  92 121 153 190 233 281
#     4  11  21  34  52  73  99 130 163 202 250 299
#     4   9  16  27  44  69  97 121 150 188 233 284
#
# _framework density 16.703292000000001
#
# number of rings (size 3 to 8) (size 9 to 14) (size 15 to 20)
#    0.000    3.000    0.000    4.125    0.000    5.000 
#    0.000    2.500    0.000    1.500    0.000    0.000 
#    0.000    0.000    0.000    0.000    0.000    0.000 
#
# Total GULP energy -178145.136864 kJ/mol
# GULP energy per Si atom -5567.035527 kJ/mol
# Density = 1.666527 g / cm^3
# Si number density = 16.703292 Si / 1000 Ang^3
#
#
#
# Elastic Constant Matrix: (Units=GPa)
#
#
# Indices 1 2 3 4 5 6 
#
# 1 72.3752 30.7140 54.9982 0.0000 0.0000 0.0000
# 2 30.7140 48.4020 30.7236 0.0000 0.0000 0.0000
# 3 54.9982 30.7236 135.1172 0.0000 0.0000 0.0000
# 4 0.0000 0.0000 0.0000 10.7959 0.0000 0.0000
# 5 0.0000 0.0000 0.0000 0.0000 29.2509 0.0000
# 6 0.0000 0.0000 0.0000 0.0000 0.0000 14.7559
#
#
#
# Elastic Compliance Matrix: (Units=1/GPa)
#
#
# Indices 1 2 3 4 5 6 
#
# 1 0.023819 -0.010472 -0.007314 0.000000 0.000000 0.000000
# 2 -0.010472 0.028749 -0.002275 0.000000 0.000000 0.000000
# 3 -0.007314 -0.002275 0.010895 0.000000 0.000000 0.000000
# 4 0.000000 0.000000 0.000000 0.092627 0.000000 0.000000
# 5 0.000000 0.000000 0.000000 0.000000 0.034187 0.000000
# 6 0.000000 0.000000 0.000000 0.000000 0.000000 0.067769
#
#
# Mechanical properties :
#
#
# Convention : Reuss Voigt Hill
#
# Bulk Modulus (GPa) = 42.84092 54.30735 48.57413
# Shear Modulus (GPa) = 16.34260 20.25779 18.30019
#
# Velocity S-wave (km/s) = 3.13134 3.48631 3.31358
# Velocity P-wave (km/s) = 6.22717 6.98494 6.61691
#
# Compressibility (1/GPa) = 0.02334217
#
# Stress axis : x y z
#
# Youngs Moduli (GPa) = 41.98360 34.78366 91.78225
#
# Poissons Ratio (x) = 0.36425 0.67131
# Poissons Ratio (y) = 0.43964 0.20878
# Poissons Ratio (z) = 0.30707 0.07912
#
# Static dielectric constant tensor:
#      x y z
#    x 1.566870 0.000000 0.000000 
#    y 0.000000 1.571580 0.000000 
#    z 0.000000 0.000000 1.576250 
# 
# From -- ./inp_files/5179.got.cif
#   From: 2010.05.17/outbox.cif.g08.bks.cpg/sg28_3_cif.got.tgz:5179.got - 2010.06.04 01:15:21.
