data_PCOD9339499
_publ_section_title
;
Structure prediction by ZEFSAII (Michael W. Deem and Ramdas Pophale) SiO2 
 PCOD9339499
Probable space group: P M A 2
;
_chemical_formula_sum "Si O2"
_cell_formula_units_Z 32
_cell_length_a 8.816432
_cell_length_b 14.788175
_cell_length_c 12.531732
_cell_angle_alpha 90.000000
_cell_angle_beta 90.000000
_cell_angle_gamma 90.000000
_cell_volume 1633.873926
_symmetry_space_group_name_H-M "P M A 2"
_symmetry_group_IT_number 28
_symmetry_cell_setting 'orthorhombic'
loop_
_space_group_symop_operation_xyz
x,y,z
-x,-y,z
1/2-x,y,z
1/2+x,-y,z
loop_
_atom_site_type_symbol
_atom_site_label
_atom_site_fract_x
_atom_site_fract_y
_atom_site_fract_z
Si Si1 0.575875 0.864559 0.662920
Si Si2 0.428952 0.592305 0.805723
Si Si3 0.931767 0.600550 0.174240
Si Si4 0.068932 0.907861 0.436439
Si Si5 0.430836 0.904836 0.893374
Si Si6 0.567568 0.295438 0.376601
Si Si7 0.930543 0.726922 0.970300
Si Si8 0.576430 0.654414 0.599130
O O1 0.750000 0.897796 0.667511
O O2 0.492247 0.900822 0.557810
O O3 0.492739 0.887082 0.773049
O O4 0.579819 0.756974 0.643781
O O5 0.500000 0.500000 0.849049
O O6 0.250000 0.593926 0.820135
O O7 0.506379 0.673767 0.868308
O O8 0.473795 0.600772 0.682149
O O9 0.750000 0.593401 0.186259
O O10 0.000000 0.500000 0.162861
O O11 0.002906 0.652195 0.275189
O O12 0.963272 0.663511 0.071552
O O13 0.250000 0.914408 0.437690
O O14 0.027507 0.812159 0.380582
O O15 0.000000 0.000000 0.388934
O O16 0.250000 0.907272 0.891365
O O17 0.489562 0.823810 0.967901
O O18 0.500000 0.000000 0.928645
O O19 0.750000 0.301955 0.380648
O O20 0.495083 0.339512 0.482346
O O21 0.750000 0.738967 0.960973
O O22 0.750000 0.620659 0.597379
#
# Coordination Sequence:
#
# PCOD9339499 Si02
#       8
#     4   4   4   4   4   4   4   4
#     4  10  19  33  55  83 122 166 208 253 301 361
#     4  12  24  38  60  90 125 164 205 251 310 377
#     4  11  25  45  71  96 121 156 204 258 313 374
#     4  10  20  34  55  86 124 165 209 253 302 362
#     4  12  24  38  60  89 125 167 210 256 307 369
#     4  10  22  40  63  91 125 161 207 259 310 369
#     4  11  24  44  66  92 125 160 205 259 313 373
#     4  10  20  36  59  87 125 165 204 253 310 369
#
# _framework density 19.585355
#
# number of rings (size 3 to 8) (size 9 to 14) (size 15 to 20)
#    0.000    1.250    1.250    5.250    0.000    6.000 
#    0.000    3.125    0.000    1.500    0.000    0.000 
#    0.000    0.000    0.000    0.000    0.000    0.000 
#
# Total GULP energy -178918.405105 kJ/mol
# GULP energy per Si atom -5591.200160 kJ/mol
# Density = 1.954078 g / cm^3
# Si number density = 19.585355 Si / 1000 Ang^3
#
#
#
# Elastic Constant Matrix: (Units=GPa)
#
#
# Indices 1 2 3 4 5 6 
#
# 1 110.5372 54.2093 54.5858 0.0000 0.0000 0.0000
# 2 54.2093 129.0517 50.5074 0.0000 0.0000 0.0000
# 3 54.5858 50.5074 94.2849 0.0000 0.0000 0.0000
# 4 0.0000 0.0000 0.0000 14.6320 0.0000 0.0000
# 5 0.0000 0.0000 0.0000 0.0000 15.2610 0.0000
# 6 0.0000 0.0000 0.0000 0.0000 0.0000 30.7772
#
#
#
# Elastic Compliance Matrix: (Units=1/GPa)
#
#
# Indices 1 2 3 4 5 6 
#
# 1 0.013732 -0.003362 -0.006149 0.000000 0.000000 0.000000
# 2 -0.003362 0.010627 -0.003747 0.000000 0.000000 0.000000
# 3 -0.006149 -0.003747 0.016173 0.000000 0.000000 0.000000
# 4 0.000000 0.000000 0.000000 0.068343 0.000000 0.000000
# 5 0.000000 0.000000 0.000000 0.000000 0.065527 0.000000
# 6 0.000000 0.000000 0.000000 0.000000 0.000000 0.032492
#
#
# Mechanical properties :
#
#
# Convention : Reuss Voigt Hill
#
# Bulk Modulus (GPa) = 71.34012 72.49763 71.91888
# Shear Modulus (GPa) = 21.00117 23.77211 22.38664
#
# Velocity S-wave (km/s) = 3.27814 3.48770 3.38454
# Velocity P-wave (km/s) = 7.12969 7.30174 7.21623
#
# Compressibility (1/GPa) = 0.01401736
#
# Stress axis : x y z
#
# Youngs Moduli (GPa) = 72.82287 94.09758 61.83008
#
# Poissons Ratio (x) = 0.31631 0.38021
# Poissons Ratio (y) = 0.24480 0.23166
# Poissons Ratio (z) = 0.44781 0.35256
#
# Static dielectric constant tensor:
#      x y z
#    x 1.654270 0.000000 0.000000 
#    y 0.000000 1.718430 0.000000 
#    z 0.000000 0.000000 1.662050 
# 
# From -- ./inp_files/4977.got.cif
#   From: 2010.05.17/outbox.cif.g08.bks.cpg/sg28_3_cif.got.tgz:4977.got - 2010.06.04 01:15:21.
