data_PCOD9339863
_publ_section_title
;
Structure prediction by ZEFSAII (Michael W. Deem and Ramdas Pophale) SiO2 
 PCOD9339863
Probable space group: P M A 2
;
_chemical_formula_sum "Si O2"
_cell_formula_units_Z 32
_cell_length_a 17.972826
_cell_length_b 15.059297
_cell_length_c 5.301896
_cell_angle_alpha 90.000000
_cell_angle_beta 90.000000
_cell_angle_gamma 90.000000
_cell_volume 1435.001229
_symmetry_space_group_name_H-M "P M A 2"
_symmetry_group_IT_number 28
_symmetry_cell_setting 'orthorhombic'
loop_
_space_group_symop_operation_xyz
x,y,z
-x,-y,z
1/2-x,y,z
1/2+x,-y,z
loop_
_atom_site_type_symbol
_atom_site_label
_atom_site_fract_x
_atom_site_fract_y
_atom_site_fract_z
Si Si1 0.833188 0.087594 0.067810
Si Si2 0.955412 0.360438 0.137721
Si Si3 0.111736 0.455554 0.148396
Si Si4 0.937494 0.196684 0.792274
Si Si5 0.663498 0.881047 0.066208
Si Si6 0.588379 0.807623 0.562128
Si Si7 0.166619 0.375760 0.638058
Si Si8 0.332377 0.741723 0.431013
O O1 0.750000 0.095480 0.944655
O O2 0.834591 0.164293 0.281670
O O3 0.837014 0.984904 0.141053
O O4 0.909421 0.107000 0.918499
O O5 0.899090 0.321424 0.344296
O O6 0.910217 0.447045 0.046627
O O7 0.969421 0.275282 0.963217
O O8 0.035040 0.401937 0.198945
O O9 0.156225 0.411226 0.920571
O O10 0.151954 0.448517 0.418705
O O11 0.856835 0.235235 0.711883
O O12 0.999553 0.179967 0.582867
O O13 0.750000 0.852026 0.055041
O O14 0.619882 0.832653 0.289837
O O15 0.626000 0.861918 0.794336
O O16 0.610420 0.705584 0.605309
O O17 0.250000 0.341159 0.603665
O O18 0.250000 0.704186 0.404888
#
# Coordination Sequence:
#
# PCOD9339863 Si02
#       8
#     4   4   4   4   4   4   4   4
#     4   9  22  43  66  96 134 178 224 277 345 405
#     4  10  24  43  68  97 135 175 228 275 341 409
#     4  11  25  44  71 100 134 181 224 277 341 405
#     4  11  23  42  68  98 138 178 224 284 336 418
#     4  11  25  46  70 100 135 180 233 285 340 411
#     4  12  26  44  71 101 137 183 231 283 344 404
#     4  12  25  44  68 100 138 178 225 280 339 397
#     4  10  22  41  68  97 132 179 223 277 344 408
#
# _framework density 22.299631999999999
#
# number of rings (size 3 to 8) (size 9 to 14) (size 15 to 20)
#    0.000    1.250    1.250    3.375    7.000    3.000 
#    0.000    0.000    0.000    0.000    0.000    0.000 
#    0.000    0.000    0.000    0.000    0.000    0.000 
#
# Total GULP energy -178525.386491 kJ/mol
# GULP energy per Si atom -5578.918328 kJ/mol
# Density = 2.224888 g / cm^3
# Si number density = 22.299632 Si / 1000 Ang^3
#
#
#
# Elastic Constant Matrix: (Units=GPa)
#
#
# Indices 1 2 3 4 5 6 
#
# 1 93.0534 2.8796 23.7289 0.0000 0.0000 0.0000
# 2 2.8796 49.8750 5.7258 0.0000 0.0000 0.0000
# 3 23.7289 5.7258 57.0274 0.0000 0.0000 0.0000
# 4 0.0000 0.0000 0.0000 8.3747 0.0000 0.0000
# 5 0.0000 0.0000 0.0000 0.0000 39.1562 0.0000
# 6 0.0000 0.0000 0.0000 0.0000 0.0000 -41.9787
#
#
#
# Elastic Compliance Matrix: (Units=1/GPa)
#
#
# Indices 1 2 3 4 5 6 
#
# 1 0.012023 -0.000121 -0.004990 0.000000 0.000000 0.000000
# 2 -0.000121 0.020285 -0.001986 0.000000 0.000000 0.000000
# 3 -0.004990 -0.001986 0.019811 0.000000 0.000000 0.000000
# 4 0.000000 0.000000 0.000000 0.119407 0.000000 0.000000
# 5 0.000000 0.000000 0.000000 0.000000 0.025539 0.000000
# 6 0.000000 0.000000 0.000000 0.000000 0.000000 -0.023822
#
#
# Mechanical properties :
#
#
# Convention : Reuss Voigt Hill
#
# Bulk Modulus (GPa) = 26.36895 29.40271 27.88583
# Shear Modulus (GPa) = 24.98992 12.28520 18.63756
#
# Velocity S-wave (km/s) = 3.35123 2.34970 2.89412
# Velocity P-wave (km/s) = 5.17927 4.53601 4.86828
#
# Compressibility (1/GPa) = 0.03792340
#
# Stress axis : x y z
#
# Youngs Moduli (GPa) = 83.17495 49.29712 50.47605
#
# Poissons Ratio (x) = 0.00598 0.25190
# Poissons Ratio (y) = 0.01008 0.10026
# Poissons Ratio (z) = 0.41508 0.09792
#
# Static dielectric constant tensor:
#      x y z
#    x 1.826580 0.000000 0.000000 
#    y 0.000000 1.860750 0.000000 
#    z 0.000000 0.000000 1.874460 
# 
# From -- ./inp_files/1198.got.cif
#   From: 2010.05.17/outbox.cif.g08.bks.cpg/sg28_1_cif.got.tgz:1198.got - 2010.06.04 01:15:21.
