data_PCOD9339624
_publ_section_title
;
Structure prediction by ZEFSAII (Michael W. Deem and Ramdas Pophale) SiO2 
 PCOD9339624
Probable space group: P M A 2
;
_chemical_formula_sum "Si O2"
_cell_formula_units_Z 32
_cell_length_a 11.395318
_cell_length_b 14.492048
_cell_length_c 7.213102
_cell_angle_alpha 90.000000
_cell_angle_beta 90.000000
_cell_angle_gamma 90.000000
_cell_volume 1191.182451
_symmetry_space_group_name_H-M "P M A 2"
_symmetry_group_IT_number 28
_symmetry_cell_setting 'orthorhombic'
loop_
_space_group_symop_operation_xyz
x,y,z
-x,-y,z
1/2-x,y,z
1/2+x,-y,z
loop_
_atom_site_type_symbol
_atom_site_label
_atom_site_fract_x
_atom_site_fract_y
_atom_site_fract_z
Si Si1 0.379252 0.449454 0.551830
Si Si2 0.876622 0.979649 0.060858
Si Si3 0.876381 0.729714 0.298265
Si Si4 0.376929 0.703785 0.774158
Si Si5 0.376470 0.230058 0.905086
Si Si6 0.123775 0.503889 0.965616
Si Si7 0.373935 0.776810 0.406030
Si Si8 0.374967 0.959631 0.649313
O O1 0.500000 0.500000 0.504447
O O2 0.250000 0.492007 0.514203
O O3 0.379052 0.353768 0.441165
O O4 0.381980 0.441825 0.777525
O O5 0.750000 0.996972 0.154848
O O6 0.876464 0.874175 0.987701
O O7 0.000000 0.000000 0.160479
O O8 0.879034 0.041715 0.873696
O O9 0.750000 0.779253 0.328537
O O10 0.873930 0.702234 0.082511
O O11 0.001024 0.780594 0.310041
O O12 0.250000 0.748407 0.822912
O O13 0.376136 0.607639 0.881342
O O14 0.374812 0.692388 0.551760
O O15 0.499629 0.754837 0.809477
O O16 0.250000 0.239807 0.804613
O O17 0.250000 0.490414 0.059861
O O18 0.000000 0.500000 0.071075
O O19 0.250000 0.773409 0.297905
O O20 0.368922 0.864027 0.542303
O O21 0.250000 0.009671 0.609296
O O22 0.500000 0.000000 0.594844
#
# Coordination Sequence:
#
# PCOD9339624 Si02
#       8
#     4   4   4   4   4   4   4   4
#     4   9  17  32  55  79 105 141 184 230 279 332
#     4   9  17  32  55  79 105 141 184 230 279 332
#     4  10  22  39  58  84 118 155 195 237 285 345
#     4  10  20  34  55  84 114 144 185 237 287 340
#     4  10  22  39  58  84 118 155 195 237 285 345
#     4   9  17  29  48  76 105 135 177 227 279 332
#     4  10  20  34  55  84 114 144 185 237 287 340
#     4   9  17  29  48  76 105 135 177 227 279 332
#
# _framework density 26.864062000000001
#
# number of rings (size 3 to 8) (size 9 to 14) (size 15 to 20)
#    0.000    2.500    0.000    3.000    0.000    5.000 
#    0.000    1.250    0.000    6.000    0.000    0.000 
#    0.000    0.000    0.000    0.000    0.000    0.000 
#
# Total GULP energy -178681.223826 kJ/mol
# GULP energy per Si atom -5583.788245 kJ/mol
# Density = 2.680292 g / cm^3
# Si number density = 26.864062 Si / 1000 Ang^3
#
#
#
# Elastic Constant Matrix: (Units=GPa)
#
#
# Indices 1 2 3 4 5 6 
#
# 1 396.8367 45.8600 35.7048 0.0000 0.0000 0.0000
# 2 45.8600 59.9746 5.7127 0.0000 0.0000 0.0000
# 3 35.7048 5.7127 76.6460 0.0000 0.0000 0.0000
# 4 0.0000 0.0000 0.0000 19.9933 0.0000 0.0000
# 5 0.0000 0.0000 0.0000 0.0000 6.4526 0.0000
# 6 0.0000 0.0000 0.0000 0.0000 0.0000 38.1695
#
#
#
# Elastic Compliance Matrix: (Units=1/GPa)
#
#
# Indices 1 2 3 4 5 6 
#
# 1 0.002866 -0.002079 -0.001180 0.000000 0.000000 0.000000
# 2 -0.002079 0.018301 -0.000395 0.000000 0.000000 0.000000
# 3 -0.001180 -0.000395 0.013626 0.000000 0.000000 0.000000
# 4 0.000000 0.000000 0.000000 0.050017 0.000000 0.000000
# 5 0.000000 0.000000 0.000000 0.000000 0.154976 0.000000
# 6 0.000000 0.000000 0.000000 0.000000 0.000000 0.026199
#
#
# Mechanical properties :
#
#
# Convention : Reuss Voigt Hill
#
# Bulk Modulus (GPa) = 36.38493 78.66804 57.52648
# Shear Modulus (GPa) = 17.70176 42.66841 30.18508
#
# Velocity S-wave (km/s) = 2.56976 3.98968 3.35569
# Velocity P-wave (km/s) = 4.73058 7.11131 6.03942
#
# Compressibility (1/GPa) = 0.02748391
#
# Stress axis : x y z
#
# Youngs Moduli (GPa) = 348.86610 54.64056 73.38751
#
# Poissons Ratio (x) = 0.11362 0.08662
# Poissons Ratio (y) = 0.72543 0.02902
# Poissons Ratio (z) = 0.41177 0.02160
#
# Static dielectric constant tensor:
#      x y z
#    x 2.167570 0.000000 0.000000 
#    y 0.000000 2.192750 0.000000 
#    z 0.000000 0.000000 2.037420 
# 
# From -- ./inp_files/3122.got.cif
#   From: 2010.05.17/outbox.cif.g08.bks.cpg/sg28_2_cif.got.tgz:3122.got - 2010.06.04 01:15:21.
