data_PCOD9339840
_publ_section_title
;
Structure prediction by ZEFSAII (Michael W. Deem and Ramdas Pophale) SiO2 
 PCOD9339840
Probable space group: P M A 2
;
_chemical_formula_sum "Si O2"
_cell_formula_units_Z 16
_cell_length_a 21.244570
_cell_length_b 5.280361
_cell_length_c 7.950554
_cell_angle_alpha 90.000000
_cell_angle_beta 90.000000
_cell_angle_gamma 90.000000
_cell_volume 891.885188
_symmetry_space_group_name_H-M "P M A 2"
_symmetry_group_IT_number 28
_symmetry_cell_setting 'orthorhombic'
loop_
_space_group_symop_operation_xyz
x,y,z
-x,-y,z
1/2-x,y,z
1/2+x,-y,z
loop_
_atom_site_type_symbol
_atom_site_label
_atom_site_fract_x
_atom_site_fract_y
_atom_site_fract_z
Si Si1 0.179618 0.848240 0.556840
Si Si2 0.070706 0.103636 0.378922
Si Si3 0.457316 0.251044 0.013647
Si Si4 0.627703 0.659195 0.690126
O O1 0.250000 0.815967 0.488650
O O2 0.160778 0.609214 0.669532
O O3 0.124849 0.896093 0.418715
O O4 0.175061 0.106225 0.664625
O O5 0.081887 0.305764 0.527690
O O6 0.077236 0.207856 0.191270
O O7 0.000000 0.000000 0.393364
O O8 0.500000 0.500000 0.031153
O O9 0.410946 0.300005 0.859070
O O10 0.500000 0.000000 0.981826
#
# Coordination Sequence:
#
# PCOD9339840 Si02
#       4
#     4   4   4   4
#     4  10  22  40  62  84 122 165 205 245 304 366
#     4   9  23  37  64  90 122 154 201 250 308 360
#     4  11  23  36  61  95 127 152 203 257 312 366
#     4  10  22  37  63  81 125 155 203 244 310 348
#
# _framework density 17.939530000000001
#
# number of rings (size 3 to 8) (size 9 to 14) (size 15 to 20)
#    1.500    0.500    0.000    3.000   10.500    0.000 
#    0.000    2.500    0.000    0.000    0.000    0.000 
#    0.000    0.000    0.000    0.000    0.000    0.000 
#
# Total GULP energy -89077.632402 kJ/mol
# GULP energy per Si atom -5567.352025 kJ/mol
# Density = 1.789870 g / cm^3
# Si number density = 17.939530 Si / 1000 Ang^3
#
#
#
# Elastic Constant Matrix: (Units=GPa)
#
#
# Indices 1 2 3 4 5 6 
#
# 1 118.7536 43.6676 64.9747 0.0000 0.0000 0.0000
# 2 43.6676 129.2423 35.8226 0.0000 0.0000 0.0000
# 3 64.9747 35.8226 115.4137 0.0000 0.0000 0.0000
# 4 0.0000 0.0000 0.0000 176.6095 0.0000 0.0000
# 5 0.0000 0.0000 0.0000 0.0000 217.7779 0.0000
# 6 0.0000 0.0000 0.0000 0.0000 0.0000 -0.6957
#
#
#
# Elastic Compliance Matrix: (Units=1/GPa)
#
#
# Indices 1 2 3 4 5 6 
#
# 1 0.012903 -0.002567 -0.006467 0.000000 0.000000 0.000000
# 2 -0.002567 0.008976 -0.001341 0.000000 0.000000 0.000000
# 3 -0.006467 -0.001341 0.012722 0.000000 0.000000 0.000000
# 4 0.000000 0.000000 0.000000 0.005662 0.000000 0.000000
# 5 0.000000 0.000000 0.000000 0.000000 0.004592 0.000000
# 6 0.000000 0.000000 0.000000 0.000000 0.000000 -1.437428
#
#
# Mechanical properties :
#
#
# Convention : Reuss Voigt Hill
#
# Bulk Modulus (GPa) = 72.19954 72.48216 72.34085
# Shear Modulus (GPa) = -3.65710 93.33466 44.83878
#
# Velocity S-wave (km/s) = -1.42933 7.22083 5.00486
# Velocity P-wave (km/s) = 6.13265 10.48865 8.59131
#
# Compressibility (1/GPa) = 0.01385050
#
# Stress axis : x y z
#
# Youngs Moduli (GPa) = 77.49929 111.40277 78.60603
#
# Poissons Ratio (x) = 0.28598 0.50838
# Poissons Ratio (y) = 0.19895 0.10541
# Poissons Ratio (z) = 0.50122 0.14938
#
# Static dielectric constant tensor:
#      x y z
#    x 1.604180 0.000000 0.000000 
#    y 0.000000 1.605310 0.000000 
#    z 0.000000 0.000000 1.591890 
# 
# From -- ./inp_files/3611.got.cif
#   From: 2010.05.17/outbox.cif.g08.bks.cpg/sg28_2_cif.got.tgz:3611.got - 2010.06.04 01:15:21.
