data_PCOD9339633
_publ_section_title
;
Structure prediction by ZEFSAII (Michael W. Deem and Ramdas Pophale) SiO2 
 PCOD9339633
Probable space group: P M A 2
;
_chemical_formula_sum "Si O2"
_cell_formula_units_Z 30
_cell_length_a 13.874549
_cell_length_b 11.695840
_cell_length_c 9.782201
_cell_angle_alpha 90.000000
_cell_angle_beta 90.000000
_cell_angle_gamma 90.000000
_cell_volume 1587.401827
_symmetry_space_group_name_H-M "P M A 2"
_symmetry_group_IT_number 28
_symmetry_cell_setting 'orthorhombic'
loop_
_space_group_symop_operation_xyz
x,y,z
-x,-y,z
1/2-x,y,z
1/2+x,-y,z
loop_
_atom_site_type_symbol
_atom_site_label
_atom_site_fract_x
_atom_site_fract_y
_atom_site_fract_z
Si Si1 0.355163 0.704452 0.427060
Si Si2 0.635383 0.909059 0.485041
Si Si3 0.135569 0.871659 0.658754
Si Si4 0.394200 0.452324 0.483310
Si Si5 0.139753 0.272805 0.704725
Si Si6 0.867663 0.806125 0.993820
Si Si7 0.500000 0.000000 0.873743
Si Si8 0.551014 0.748689 0.282571
O O1 0.250000 0.754616 0.393240
O O2 0.381457 0.752398 0.579136
O O3 0.345504 0.568157 0.435878
O O4 0.438658 0.733210 0.319302
O O5 0.750000 0.890932 0.466917
O O6 0.597281 0.824530 0.605266
O O7 0.584071 0.868052 0.349325
O O8 0.620365 0.035676 0.537965
O O9 0.250000 0.877167 0.698570
O O10 0.066484 0.915302 0.779972
O O11 0.500000 0.500000 0.508522
O O12 0.362318 0.389981 0.621524
O O13 0.396818 0.353617 0.367859
O O14 0.250000 0.234640 0.717163
O O15 0.106634 0.270301 0.859924
O O16 0.750000 0.817669 0.008325
O O17 0.923639 0.924647 0.960210
O O18 0.914042 0.750730 0.128071
#
# Coordination Sequence:
#
# PCOD9339633 Si02
#       8
#     4   4   4   4   4   4   2   4
#     4  10  21  36  59  88 120 155 197 244 306 368
#     4   9  16  31  57  85 111 144 194 247 294 341
#     4  10  20  34  57  89 119 150 190 242 299 361
#     4   9  19  35  61  88 114 148 198 255 301 347
#     4   9  17  33  56  83 111 145 194 247 289 336
#     4  11  24  39  58  88 121 159 204 245 294 356
#     4  12  22  36  60  82 128 164 190 240 302 366
#     4  10  21  38  57  86 117 155 201 252 296 340
#
# _framework density 18.898807000000001
#
# number of rings (size 3 to 8) (size 9 to 14) (size 15 to 20)
#    0.000    2.133    1.333    2.000    3.733    2.667 
#    0.000    4.667    0.000    0.000    0.000    0.000 
#    0.000    0.000    0.000    0.000    0.000    0.000 
#
# Total GULP energy -167106.293822 kJ/mol
# GULP energy per Si atom -5570.209794 kJ/mol
# Density = 1.885579 g / cm^3
# Si number density = 18.898807 Si / 1000 Ang^3
#
#
#
# Elastic Constant Matrix: (Units=GPa)
#
#
# Indices 1 2 3 4 5 6 
#
# 1 108.3138 22.4578 38.2784 0.0000 0.0000 0.0000
# 2 22.4578 63.6008 28.6603 0.0000 0.0000 0.0000
# 3 38.2784 28.6603 129.2548 0.0000 0.0000 0.0000
# 4 0.0000 0.0000 0.0000 17.3020 0.0000 0.0000
# 5 0.0000 0.0000 0.0000 0.0000 42.1438 0.0000
# 6 0.0000 0.0000 0.0000 0.0000 0.0000 28.3173
#
#
#
# Elastic Compliance Matrix: (Units=1/GPa)
#
#
# Indices 1 2 3 4 5 6 
#
# 1 0.010687 -0.002608 -0.002587 0.000000 0.000000 0.000000
# 2 -0.002608 0.018105 -0.003242 0.000000 0.000000 0.000000
# 3 -0.002587 -0.003242 0.009222 0.000000 0.000000 0.000000
# 4 0.000000 0.000000 0.000000 0.057797 0.000000 0.000000
# 5 0.000000 0.000000 0.000000 0.000000 0.023728 0.000000
# 6 0.000000 0.000000 0.000000 0.000000 0.000000 0.035314
#
#
# Mechanical properties :
#
#
# Convention : Reuss Voigt Hill
#
# Bulk Modulus (GPa) = 47.30361 53.32916 50.31639
# Shear Modulus (GPa) = 27.96834 31.67082 29.81958
#
# Velocity S-wave (km/s) = 3.85112 4.09811 3.97653
# Velocity P-wave (km/s) = 6.69769 7.11844 6.91127
#
# Compressibility (1/GPa) = 0.02114003
#
# Stress axis : x y z
#
# Youngs Moduli (GPa) = 93.56859 55.23335 108.44111
#
# Poissons Ratio (x) = 0.14405 0.28051
# Poissons Ratio (y) = 0.24404 0.35158
# Poissons Ratio (z) = 0.24203 0.17907
#
# Static dielectric constant tensor:
#      x y z
#    x 1.687240 0.000000 0.000000 
#    y 0.000000 1.677060 0.000000 
#    z 0.000000 0.000000 1.651630 
# 
# From -- ./inp_files/3507.got.cif
#   From: 2010.05.17/outbox.cif.g08.bks.cpg/sg28_2_cif.got.tgz:3507.got - 2010.06.04 01:15:21.
