data_PCOD9339001
_publ_section_title
;
Structure prediction by ZEFSAII (Michael W. Deem and Ramdas Pophale) SiO2 
 PCOD9339001
Probable space group: P C C 2
;
_chemical_formula_sum "Si O2"
_cell_formula_units_Z 18
_cell_length_a 4.756747
_cell_length_b 10.811160
_cell_length_c 15.967873
_cell_angle_alpha 90.000000
_cell_angle_beta 90.000000
_cell_angle_gamma 90.000000
_cell_volume 821.163085
_symmetry_space_group_name_H-M "P C C 2"
_symmetry_group_IT_number 27
_symmetry_cell_setting 'orthorhombic'
loop_
_space_group_symop_operation_xyz
x,y,z
-x,-y,z
-x,y,1/2+z
x,-y,1/2+z
loop_
_atom_site_type_symbol
_atom_site_label
_atom_site_fract_x
_atom_site_fract_y
_atom_site_fract_z
Si Si1 0.087416 0.858041 0.034820
Si Si2 0.394340 0.360179 0.776855
Si Si3 0.618326 0.293614 0.596840
Si Si4 0.000000 0.500000 0.008965
Si Si5 0.128668 0.705088 0.881362
O O1 0.398226 0.797854 0.048436
O O2 0.893836 0.790823 0.103787
O O3 0.000000 0.000000 0.041388
O O4 0.013660 0.813339 0.940357
O O5 0.500000 0.500000 0.792068
O O6 0.461239 0.330928 0.681158
O O7 0.080586 0.340588 0.808776
O O8 0.579606 0.271787 0.836178
O O9 0.768349 0.417248 0.557690
O O10 0.840108 0.405666 0.948382
#
# Coordination Sequence:
#
# PCOD9339001 Si02
#       5
#     4   4   4   2   4
#     4  11  25  48  69  94 131 186 244 289 327 405
#     4  12  24  40  61 103 143 169 208 280 363 427
#     4  11  26  40  72  98 138 176 232 280 354 415
#     4  10  22  40  64 104 128 182 218 284 344 428
#     4  11  23  40  66  95 136 175 221 274 347 416
#
# _framework density 21.920127000000001
#
# number of rings (size 3 to 8) (size 9 to 14) (size 15 to 20)
#    0.000    0.889    2.222    4.667    9.333    0.000 
#    0.000    6.667    0.000    0.000    0.000    0.000 
#    0.000    0.000    0.000    0.000    0.000    0.000 
#
# Total GULP energy -100394.653459 kJ/mol
# GULP energy per Si atom -5577.480748 kJ/mol
# Density = 2.187024 g / cm^3
# Si number density = 21.920127 Si / 1000 Ang^3
#
#
#
# Elastic Constant Matrix: (Units=GPa)
#
#
# Indices 1 2 3 4 5 6 
#
# 1 117.5685 42.3794 29.9725 0.0000 0.0000 0.0000
# 2 42.3794 132.0334 50.5302 0.0000 0.0000 0.0000
# 3 29.9725 50.5302 107.9128 0.0000 0.0000 0.0000
# 4 0.0000 0.0000 0.0000 16.6549 0.0000 0.0000
# 5 0.0000 0.0000 0.0000 0.0000 35.3448 0.0000
# 6 0.0000 0.0000 0.0000 0.0000 0.0000 27.5880
#
#
#
# Elastic Compliance Matrix: (Units=1/GPa)
#
#
# Indices 1 2 3 4 5 6 
#
# 1 0.009820 -0.002568 -0.001525 0.000000 0.000000 0.000000
# 2 -0.002568 0.009899 -0.003922 0.000000 0.000000 0.000000
# 3 -0.001525 -0.003922 0.011527 0.000000 0.000000 0.000000
# 4 0.000000 0.000000 0.000000 0.060042 0.000000 0.000000
# 5 0.000000 0.000000 0.000000 0.000000 0.028293 0.000000
# 6 0.000000 0.000000 0.000000 0.000000 0.000000 0.036248
#
#
# Mechanical properties :
#
#
# Convention : Reuss Voigt Hill
#
# Bulk Modulus (GPa) = 65.72177 67.03099 66.37638
# Shear Modulus (GPa) = 28.25957 31.55972 29.90965
#
# Velocity S-wave (km/s) = 3.59445 3.79853 3.69790
# Velocity P-wave (km/s) = 6.87562 7.06290 6.96989
#
# Compressibility (1/GPa) = 0.01521566
#
# Stress axis : x y z
#
# Youngs Moduli (GPa) = 101.83018 101.01823 86.75512
#
# Poissons Ratio (x) = 0.25946 0.13229
# Poissons Ratio (y) = 0.26155 0.34025
# Poissons Ratio (z) = 0.15528 0.39618
#
# Static dielectric constant tensor:
#      x y z
#    x 1.847250 0.000000 0.000000 
#    y 0.000000 1.849060 0.000000 
#    z 0.000000 0.000000 1.809970 
# 
# From -- ./inp_files/2925.got.cif
#   From: 2010.05.17/outbox.cif.g08.bks.cpg/sg27_2_cif.got.tgz:2925.got - 2010.06.04 01:11:05.
