data_PCOD9339163
_publ_section_title
;
Structure prediction by ZEFSAII (Michael W. Deem and Ramdas Pophale) SiO2 
 PCOD9339163
Probable space group: P C C 2
;
_chemical_formula_sum "Si O2"
_cell_formula_units_Z 20
_cell_length_a 8.642607
_cell_length_b 10.148344
_cell_length_c 9.847909
_cell_angle_alpha 90.000000
_cell_angle_beta 90.000000
_cell_angle_gamma 90.000000
_cell_volume 863.741869
_symmetry_space_group_name_H-M "P C C 2"
_symmetry_group_IT_number 27
_symmetry_cell_setting 'orthorhombic'
loop_
_space_group_symop_operation_xyz
x,y,z
-x,-y,z
-x,y,1/2+z
x,-y,1/2+z
loop_
_atom_site_type_symbol
_atom_site_label
_atom_site_fract_x
_atom_site_fract_y
_atom_site_fract_z
Si Si1 0.830743 0.934161 0.041350
Si Si2 0.176557 0.289817 0.267639
Si Si3 0.620971 0.384179 0.541349
Si Si4 0.658058 0.201164 0.041349
Si Si5 0.176558 0.289818 0.815060
O O1 0.824895 0.842529 0.174625
O O2 0.824896 0.842527 0.908076
O O3 0.000000 0.000000 0.041350
O O4 0.700207 0.046723 0.041349
O O5 0.261671 0.260629 0.407719
O O6 0.999999 0.329576 0.291347
O O7 0.272205 0.388533 0.173394
O O8 0.500000 0.500000 0.541350
O O9 0.519382 0.249038 0.541348
O O10 0.727796 0.388534 0.409305
O O11 0.738325 0.260628 0.174982
#
# Coordination Sequence:
#
# PCOD9339163 Si02
#       5
#     4   4   4   4   4
#     4  11  21  40  73 107 156 192 237 304 365 455
#     4  11  23  43  74 108 143 197 252 299 379 460
#     4  11  28  52  70 100 153 199 254 327 375 434
#     4  12  23  39  72 109 147 193 242 305 384 429
#     4  11  23  43  74 108 143 197 252 299 379 460
#
# _framework density 23.155066999999999
#
# number of rings (size 3 to 8) (size 9 to 14) (size 15 to 20)
#    0.000    0.800    4.000    3.600    0.000    6.400 
#    0.000   14.000    0.000    0.000    0.000    0.000 
#    0.000    0.000    0.000    0.000    0.000    0.000 
#
# Total GULP energy -112138.789540 kJ/mol
# GULP energy per Si atom -5606.939477 kJ/mol
# Density = 2.310236 g / cm^3
# Si number density = 23.155067 Si / 1000 Ang^3
#
#
#
# Elastic Constant Matrix: (Units=GPa)
#
#
# Indices 1 2 3 4 5 6 
#
# 1 193.2119 52.0782 79.9718 0.0000 0.0000 0.0000
# 2 52.0782 98.7794 35.8679 0.0000 0.0000 0.0000
# 3 79.9718 35.8679 221.6313 0.0000 0.0000 0.0000
# 4 0.0000 0.0000 0.0000 28.5369 0.0000 0.0000
# 5 0.0000 0.0000 0.0000 0.0000 -18.9419 0.0000
# 6 0.0000 0.0000 0.0000 0.0000 0.0000 55.4720
#
#
#
# Elastic Compliance Matrix: (Units=1/GPa)
#
#
# Indices 1 2 3 4 5 6 
#
# 1 0.006762 -0.002846 -0.001979 0.000000 0.000000 0.000000
# 2 -0.002846 0.011954 -0.000907 0.000000 0.000000 0.000000
# 3 -0.001979 -0.000907 0.005373 0.000000 0.000000 0.000000
# 4 0.000000 0.000000 0.000000 0.035042 0.000000 0.000000
# 5 0.000000 0.000000 0.000000 0.000000 -0.052793 0.000000
# 6 0.000000 0.000000 0.000000 0.000000 0.000000 0.018027
#
#
# Mechanical properties :
#
#
# Convention : Reuss Voigt Hill
#
# Bulk Modulus (GPa) = 79.22343 94.38426 86.80385
# Shear Modulus (GPa) = 124.87749 36.06039 80.46894
#
# Velocity S-wave (km/s) = 7.35174 3.95060 5.90149
# Velocity P-wave (km/s) = 10.31274 7.85239 9.16549
#
# Compressibility (1/GPa) = 0.01262253
#
# Stress axis : x y z
#
# Youngs Moduli (GPa) = 147.88193 83.65571 186.11320
#
# Poissons Ratio (x) = 0.23812 0.36838
# Poissons Ratio (y) = 0.42093 0.16889
# Poissons Ratio (z) = 0.29271 0.07592
#
# Static dielectric constant tensor:
#      x y z
#    x 1.823400 0.000000 0.000000 
#    y 0.000000 1.950540 0.000000 
#    z 0.000000 0.000000 1.797480 
# 
# From -- ./inp_files/1054.got.cif
#   From: 2010.05.17/outbox.cif.g08.bks.cpg/sg27_1_cif.got.tgz:1054.got - 2010.06.04 01:11:05.
