data_PCOD9339238
_publ_section_title
;
Structure prediction by ZEFSAII (Michael W. Deem and Ramdas Pophale) SiO2 
 PCOD9339238
Probable space group: P M A 2
;
_chemical_formula_sum "Si O2"
_cell_formula_units_Z 24
_cell_length_a 8.588820
_cell_length_b 9.183492
_cell_length_c 16.416261
_cell_angle_alpha 90.000000
_cell_angle_beta 90.000000
_cell_angle_gamma 90.000000
_cell_volume 1294.838492
_symmetry_space_group_name_H-M "P M A 2"
_symmetry_group_IT_number 28
_symmetry_cell_setting 'orthorhombic'
loop_
_space_group_symop_operation_xyz
x,y,z
-x,-y,z
1/2-x,y,z
1/2+x,-y,z
loop_
_atom_site_type_symbol
_atom_site_label
_atom_site_fract_x
_atom_site_fract_y
_atom_site_fract_z
Si Si1 0.935523 0.833402 0.788720
Si Si2 0.936068 0.835214 0.126654
Si Si3 0.562515 0.164125 0.442616
Si Si4 0.937634 0.337069 0.281925
Si Si5 0.064068 0.833677 0.956737
Si Si6 0.436911 0.833969 0.621238
O O1 0.750000 0.838101 0.791960
O O2 0.002075 0.766694 0.872259
O O3 0.991900 0.766076 0.703189
O O4 0.000000 0.000000 0.787254
O O5 0.750000 0.839211 0.123557
O O6 0.995294 0.746943 0.204136
O O7 0.000000 0.000000 0.133862
O O8 0.000733 0.770635 0.041487
O O9 0.750000 0.156583 0.441532
O O10 0.511600 0.257991 0.365519
O O11 0.519028 0.226453 0.532041
O O12 0.500000 0.000000 0.435136
O O13 0.750000 0.335151 0.278292
O O14 0.000000 0.500000 0.281661
O O15 0.250000 0.836561 0.956677
O O16 0.000000 0.000000 0.957061
O O17 0.250000 0.836369 0.629069
O O18 0.500000 0.000000 0.618272
#
# Coordination Sequence:
#
# PCOD9339238 Si02
#       6
#     4   4   4   4   4   4
#     4  10  16  23  36  60  94 130 162 198 242 293
#     4  11  21  35  54  78 105 136 171 213 257 306
#     4   9  19  33  52  75 102 132 169 210 253 301
#     4  11  23  39  55  76 102 134 172 214 261 311
#     4  10  17  27  43  66  96 131 166 204 247 297
#     4   9  15  25  40  63  93 127 161 199 243 292
#
# _framework density 18.535129000000001
#
# number of rings (size 3 to 8) (size 9 to 14) (size 15 to 20)
#    0.000    2.000    0.000    9.000    0.000    3.333 
#    0.000    0.000    0.000    0.000    0.000    1.167 
#    0.000    2.667    0.000    0.000    0.000    0.000 
#
# Total GULP energy -133840.307676 kJ/mol
# GULP energy per Si atom -5576.679486 kJ/mol
# Density = 1.849294 g / cm^3
# Si number density = 18.535129 Si / 1000 Ang^3
#
#
#
# Elastic Constant Matrix: (Units=GPa)
#
#
# Indices 1 2 3 4 5 6 
#
# 1 138.9548 19.7326 78.3145 0.0000 0.0000 0.0000
# 2 19.7326 38.4092 54.7320 0.0000 0.0000 0.0000
# 3 78.3145 54.7320 245.8118 0.0000 0.0000 0.0000
# 4 0.0000 0.0000 0.0000 -4.2453 0.0000 0.0000
# 5 0.0000 0.0000 0.0000 0.0000 31.5276 0.0000
# 6 0.0000 0.0000 0.0000 0.0000 0.0000 12.9885
#
#
#
# Elastic Compliance Matrix: (Units=1/GPa)
#
#
# Indices 1 2 3 4 5 6 
#
# 1 0.008787 -0.000769 -0.002628 0.000000 0.000000 0.000000
# 2 -0.000769 0.038202 -0.008261 0.000000 0.000000 0.000000
# 3 -0.002628 -0.008261 0.006745 0.000000 0.000000 0.000000
# 4 0.000000 0.000000 0.000000 -0.235554 0.000000 0.000000
# 5 0.000000 0.000000 0.000000 0.000000 0.031718 0.000000
# 6 0.000000 0.000000 0.000000 0.000000 0.000000 0.076991
#
#
# Mechanical properties :
#
#
# Convention : Reuss Voigt Hill
#
# Bulk Modulus (GPa) = 32.87594 80.97044 56.92319
# Shear Modulus (GPa) = -126.08940 26.08060 -50.00440
#
# Velocity S-wave (km/s) = -8.25681 3.75519 -5.19969
# Velocity P-wave (km/s) = 8.55128 7.91085 2.29594
#
# Compressibility (1/GPa) = 0.03041739
#
# Stress axis : x y z
#
# Youngs Moduli (GPa) = 113.80329 26.17652 148.26051
#
# Poissons Ratio (x) = 0.02013 0.38967
# Poissons Ratio (y) = 0.08753 1.22478
# Poissons Ratio (z) = 0.29911 0.21624
#
# Static dielectric constant tensor:
#      x y z
#    x 1.618020 0.000000 0.000000 
#    y 0.000000 1.569760 0.000000 
#    z 0.000000 0.000000 1.729450 
# 
# From -- ./inp_files/6682.got.cif
#   From: 2010.05.17/outbox.cif.g08.bks.cpg/sg28_4_cif.got.tgz:6682.got - 2010.06.04 01:15:21.
