data_PCOD9339935
_publ_section_title
;
Structure prediction by ZEFSAII (Michael W. Deem and Ramdas Pophale) SiO2 
 PCOD9339935
Probable space group: P M A 2
;
_chemical_formula_sum "Si O2"
_cell_formula_units_Z 24
_cell_length_a 17.702267
_cell_length_b 7.612397
_cell_length_c 9.862897
_cell_angle_alpha 90.000000
_cell_angle_beta 90.000000
_cell_angle_gamma 90.000000
_cell_volume 1329.091296
_symmetry_space_group_name_H-M "P M A 2"
_symmetry_group_IT_number 28
_symmetry_cell_setting 'orthorhombic'
loop_
_space_group_symop_operation_xyz
x,y,z
-x,-y,z
1/2-x,y,z
1/2+x,-y,z
loop_
_atom_site_type_symbol
_atom_site_label
_atom_site_fract_x
_atom_site_fract_y
_atom_site_fract_z
Si Si1 0.340667 0.546011 0.885320
Si Si2 0.159383 0.250000 0.365440
Si Si3 0.341844 0.250000 0.676305
Si Si4 0.411412 0.542253 0.176902
Si Si5 0.411412 0.957746 0.176904
Si Si6 0.840667 0.046010 0.885322
O O1 0.250000 0.527568 0.902609
O O2 0.364919 0.419531 0.763717
O O3 0.356769 0.750000 0.855706
O O4 0.379526 0.498994 0.027341
O O5 0.250000 0.250003 0.363434
O O6 0.132427 0.249999 0.521386
O O7 0.129593 0.420591 0.286257
O O8 0.129595 0.079406 0.286258
O O9 0.250000 0.250002 0.672165
O O10 0.364917 0.080468 0.763718
O O11 0.500000 0.500000 0.180446
O O12 0.398859 0.749999 0.200080
O O13 0.500000 0.000000 0.180454
O O14 0.379528 0.001006 0.027341
O O15 0.750000 0.027565 0.902617
#
# Coordination Sequence:
#
# PCOD9339935 Si02
#       6
#     4   4   4   4   4   4
#     4   9  18  34  58  86 112 145 194 244 289 341
#     4  11  23  39  61  89 120 159 198 237 291 354
#     4   9  19  35  57  85 117 149 188 239 290 344
#     4  11  22  38  61  85 121 156 196 245 295 342
#     4  11  22  38  61  85 121 156 196 245 295 342
#     4   9  18  34  58  86 112 145 194 244 289 341
#
# _framework density 18.057449999999999
#
# number of rings (size 3 to 8) (size 9 to 14) (size 15 to 20)
#    0.000    2.000    1.667    2.000    0.000    4.667 
#    0.000    5.000    0.000    0.000    0.000    0.000 
#    0.000    0.000    0.000    0.000    0.000    0.000 
#
# Total GULP energy -134004.334626 kJ/mol
# GULP energy per Si atom -5583.513943 kJ/mol
# Density = 1.801635 g / cm^3
# Si number density = 18.057450 Si / 1000 Ang^3
#
#
#
# Elastic Constant Matrix: (Units=GPa)
#
#
# Indices 1 2 3 4 5 6 
#
# 1 53.9129 38.9631 55.7795 0.0000 0.0000 0.0000
# 2 38.9631 122.3668 116.2373 0.0000 0.0000 0.0000
# 3 55.7795 116.2373 199.6046 0.0000 0.0000 0.0000
# 4 0.0000 0.0000 0.0000 -27.6524 0.0000 0.0000
# 5 0.0000 0.0000 0.0000 0.0000 -11.7338 0.0000
# 6 0.0000 0.0000 0.0000 0.0000 0.0000 15.6473
#
#
#
# Elastic Compliance Matrix: (Units=1/GPa)
#
#
# Indices 1 2 3 4 5 6 
#
# 1 0.026626 -0.003156 -0.005603 0.000000 0.000000 0.000000
# 2 -0.003156 0.018663 -0.009986 0.000000 0.000000 0.000000
# 3 -0.005603 -0.009986 0.012391 0.000000 0.000000 0.000000
# 4 0.000000 0.000000 0.000000 -0.036163 0.000000 0.000000
# 5 0.000000 0.000000 0.000000 0.000000 -0.085224 0.000000
# 6 0.000000 0.000000 0.000000 0.000000 0.000000 0.063909
#
#
# Mechanical properties :
#
#
# Convention : Reuss Voigt Hill
#
# Bulk Modulus (GPa) = 49.52922 88.64935 69.08929
# Shear Modulus (GPa) = 112.55651 6.24584 59.40118
#
# Velocity S-wave (km/s) = 7.90366 1.86182 5.74170
# Velocity P-wave (km/s) = 10.52514 7.33631 9.07193
#
# Compressibility (1/GPa) = 0.02019010
#
# Stress axis : x y z
#
# Youngs Moduli (GPa) = 37.55725 53.58154 80.70318
#
# Poissons Ratio (x) = 0.16909 0.45217
# Poissons Ratio (y) = 0.11852 0.80593
# Poissons Ratio (z) = 0.21043 0.53509
#
# Static dielectric constant tensor:
#      x y z
#    x 1.596750 0.000000 0.000000 
#    y 0.000000 1.623990 0.000000 
#    z 0.000000 0.000000 1.587290 
# 
# From -- ./inp_files/3776.got.cif
#   From: 2010.05.17/outbox.cif.g08.bks.cpg/sg28_2_cif.got.tgz:3776.got - 2010.06.04 01:15:21.
