data_PCOD9339200
_publ_section_title
;
Structure prediction by ZEFSAII (Michael W. Deem and Ramdas Pophale) SiO2 
 PCOD9339200
Probable space group: P C C 2
;
_chemical_formula_sum "Si O2"
_cell_formula_units_Z 20
_cell_length_a 5.093909
_cell_length_b 11.429724
_cell_length_c 13.874215
_cell_angle_alpha 90.000000
_cell_angle_beta 90.000000
_cell_angle_gamma 90.000000
_cell_volume 807.784184
_symmetry_space_group_name_H-M "P C C 2"
_symmetry_group_IT_number 27
_symmetry_cell_setting 'orthorhombic'
loop_
_space_group_symop_operation_xyz
x,y,z
-x,-y,z
-x,y,1/2+z
x,-y,1/2+z
loop_
_atom_site_type_symbol
_atom_site_label
_atom_site_fract_x
_atom_site_fract_y
_atom_site_fract_z
Si Si1 0.403571 0.671369 0.676160
Si Si2 0.894907 0.870922 0.437476
Si Si3 0.621972 0.771841 0.839342
Si Si4 0.948588 0.866046 0.661848
Si Si5 0.749667 0.462450 0.049225
O O1 0.494104 0.660043 0.786592
O O2 0.242437 0.560067 0.635569
O O3 0.654980 0.655246 0.602278
O O4 0.206360 0.781919 0.667351
O O5 0.620482 0.839343 0.387727
O O6 0.859912 0.872222 0.551462
O O7 0.125804 0.778951 0.408673
O O8 0.000000 0.000000 0.409935
O O9 0.735271 0.827576 0.740392
O O10 0.000000 0.000000 0.688261
O O11 0.500000 0.500000 0.988005
O O12 0.000000 0.500000 0.991079
#
# Coordination Sequence:
#
# PCOD9339200 Si02
#       5
#     4   4   4   4   4
#     4   9  21  36  68  96 126 174 227 278 349 409
#     4  11  27  41  60  94 140 176 228 280 335 415
#     4  12  23  42  65  94 129 180 224 276 345 410
#     4  11  25  43  66 100 138 188 236 287 350 425
#     4   8  18  35  61  97 123 159 230 275 337 410
#
# _framework density 24.75909
#
# number of rings (size 3 to 8) (size 9 to 14) (size 15 to 20)
#    1.200    0.400    2.000    2.400    5.600    0.000 
#    0.000    0.000    0.000    4.800   20.800    0.000 
#    0.000    0.000    0.000    0.000    0.000    0.000 
#
# Total GULP energy -111345.091548 kJ/mol
# GULP energy per Si atom -5567.254577 kJ/mol
# Density = 2.470274 g / cm^3
# Si number density = 24.759090 Si / 1000 Ang^3
#
#
#
# Elastic Constant Matrix: (Units=GPa)
#
#
# Indices 1 2 3 4 5 6 
#
# 1 185.7571 23.4395 20.6791 0.0000 0.0000 0.0000
# 2 23.4395 104.2509 4.7490 0.0000 0.0000 0.0000
# 3 20.6791 4.7490 116.4497 0.0000 0.0000 0.0000
# 4 0.0000 0.0000 0.0000 11.6182 0.0000 0.0000
# 5 0.0000 0.0000 0.0000 0.0000 15.2427 0.0000
# 6 0.0000 0.0000 0.0000 0.0000 0.0000 22.1918
#
#
#
# Elastic Compliance Matrix: (Units=1/GPa)
#
#
# Indices 1 2 3 4 5 6 
#
# 1 0.005644 -0.001226 -0.000952 0.000000 0.000000 0.000000
# 2 -0.001226 0.009876 -0.000185 0.000000 0.000000 0.000000
# 3 -0.000952 -0.000185 0.008764 0.000000 0.000000 0.000000
# 4 0.000000 0.000000 0.000000 0.086072 0.000000 0.000000
# 5 0.000000 0.000000 0.000000 0.000000 0.065605 0.000000
# 6 0.000000 0.000000 0.000000 0.000000 0.000000 0.045062
#
#
# Mechanical properties :
#
#
# Convention : Reuss Voigt Hill
#
# Bulk Modulus (GPa) = 51.12918 56.02142 53.57530
# Shear Modulus (GPa) = 21.52685 33.64990 27.58838
#
# Velocity S-wave (km/s) = 2.95185 3.69059 3.34169
# Velocity P-wave (km/s) = 5.68448 6.39033 6.04771
#
# Compressibility (1/GPa) = 0.01955830
#
# Stress axis : x y z
#
# Youngs Moduli (GPa) = 177.17808 101.25307 114.10239
#
# Poissons Ratio (x) = 0.12410 0.10866
# Poissons Ratio (y) = 0.21715 0.02112
# Poissons Ratio (z) = 0.16872 0.01874
#
# Static dielectric constant tensor:
#      x y z
#    x 1.375240 0.000000 0.000000 
#    y 0.000000 2.521830 0.000000 
#    z 0.000000 0.000000 1.920950 
# 
# From -- ./inp_files/2990.got.cif
#   From: 2010.05.17/outbox.cif.g08.bks.cpg/sg27_2_cif.got.tgz:2990.got - 2010.06.04 01:11:05.
