data_PCOD9339403
_publ_section_title
;
Structure prediction by ZEFSAII (Michael W. Deem and Ramdas Pophale) SiO2 
 PCOD9339403
Probable space group: P M A 2
;
_chemical_formula_sum "Si O2"
_cell_formula_units_Z 32
_cell_length_a 18.969947
_cell_length_b 19.179146
_cell_length_c 5.179406
_cell_angle_alpha 90.000000
_cell_angle_beta 90.000000
_cell_angle_gamma 90.000000
_cell_volume 1884.409731
_symmetry_space_group_name_H-M "P M A 2"
_symmetry_group_IT_number 28
_symmetry_cell_setting 'orthorhombic'
loop_
_space_group_symop_operation_xyz
x,y,z
-x,-y,z
1/2-x,y,z
1/2+x,-y,z
loop_
_atom_site_type_symbol
_atom_site_label
_atom_site_fract_x
_atom_site_fract_y
_atom_site_fract_z
Si Si1 0.169738 0.523600 0.491990
Si Si2 0.026445 0.580123 0.341057
Si Si3 0.829786 0.569815 0.988976
Si Si4 0.829761 0.908645 0.785856
Si Si5 0.023328 0.888669 0.273544
Si Si6 0.028924 0.184074 0.769746
Si Si7 0.382688 0.016742 0.290563
Si Si8 0.464758 0.348567 0.847713
O O1 0.250000 0.550556 0.479993
O O2 0.158044 0.490383 0.774244
O O3 0.108084 0.576584 0.422601
O O4 0.164365 0.463229 0.273352
O O5 0.984208 0.614658 0.577558
O O6 0.000000 0.500000 0.307596
O O7 0.013981 0.621246 0.075984
O O8 0.750000 0.595016 0.952362
O O9 0.887126 0.627993 0.936323
O O10 0.750000 0.880076 0.792888
O O11 0.892349 0.850686 0.773353
O O12 0.839855 0.957915 0.537880
O O13 0.843938 0.956730 0.034892
O O14 0.010258 0.834518 0.503596
O O15 0.955943 0.939989 0.297224
O O16 0.092673 0.936534 0.293227
O O17 0.014701 0.852194 0.998900
O O18 0.031976 0.266099 0.815519
#
# Coordination Sequence:
#
# PCOD9339403 Si02
#       8
#     4   4   4   4   4   4   4   4
#     4  10  20  34  52  75  97 125 163 213 276 320
#     4  12  21  35  56  76 104 133 174 237 279 303
#     4  10  19  32  49  72 103 133 164 204 254 321
#     4  10  19  32  50  78 112 143 172 202 243 304
#     4   9  17  33  51  73  99 130 172 217 256 278
#     4  10  21  33  49  74 109 141 173 207 251 321
#     4   9  17  30  53  76  98 134 173 216 247 281
#     4  12  22  34  52  79 105 142 181 212 267 326
#
# _framework density 16.981444
#
# number of rings (size 3 to 8) (size 9 to 14) (size 15 to 20)
#    0.000    1.750    2.500    3.000    0.000    3.500 
#    0.000    0.000    0.000    6.000    0.000   17.500 
#    0.000    0.000    0.000    0.000    0.000    0.000 
#
# Total GULP energy -178505.320569 kJ/mol
# GULP energy per Si atom -5578.291268 kJ/mol
# Density = 1.694279 g / cm^3
# Si number density = 16.981444 Si / 1000 Ang^3
#
#
#
# Elastic Constant Matrix: (Units=GPa)
#
#
# Indices 1 2 3 4 5 6 
#
# 1 47.4070 22.1344 -9.0562 0.0000 0.0000 0.0000
# 2 22.1344 53.5062 -11.4972 0.0000 0.0000 0.0000
# 3 -9.0562 -11.4972 59.8618 0.0000 0.0000 0.0000
# 4 0.0000 0.0000 0.0000 6.0275 0.0000 0.0000
# 5 0.0000 0.0000 0.0000 0.0000 22.0195 0.0000
# 6 0.0000 0.0000 0.0000 0.0000 0.0000 12.5844
#
#
#
# Elastic Compliance Matrix: (Units=1/GPa)
#
#
# Indices 1 2 3 4 5 6 
#
# 1 0.026366 -0.010482 0.001975 0.000000 0.000000 0.000000
# 2 -0.010482 0.023662 0.002959 0.000000 0.000000 0.000000
# 3 0.001975 0.002959 0.017572 0.000000 0.000000 0.000000
# 4 0.000000 0.000000 0.000000 0.165907 0.000000 0.000000
# 5 0.000000 0.000000 0.000000 0.000000 0.045414 0.000000
# 6 0.000000 0.000000 0.000000 0.000000 0.000000 0.079463
#
#
# Mechanical properties :
#
#
# Convention : Reuss Voigt Hill
#
# Bulk Modulus (GPa) = 17.69826 18.21521 17.95673
# Shear Modulus (GPa) = 12.87614 18.73922 15.80768
#
# Velocity S-wave (km/s) = 2.75662 3.32552 3.05434
# Velocity P-wave (km/s) = 4.53615 5.04928 4.79958
#
# Compressibility (1/GPa) = 0.05650273
#
# Stress axis : x y z
#
# Youngs Moduli (GPa) = 37.92830 42.26268 56.90792
#
# Poissons Ratio (x) = 0.44301 -0.11242
# Poissons Ratio (y) = 0.39758 -0.16837
# Poissons Ratio (z) = -0.07493 -0.12504
#
# Static dielectric constant tensor:
#      x y z
#    x 1.590490 0.000000 0.000000 
#    y 0.000000 1.546330 0.000000 
#    z 0.000000 0.000000 1.586050 
# 
# From -- ./inp_files/1209.got.cif
#   From: 2010.05.17/outbox.cif.g08.bks.cpg/sg28_1_cif.got.tgz:1209.got - 2010.06.04 01:15:21.
