data_PCOD9339197
_publ_section_title
;
Structure prediction by ZEFSAII (Michael W. Deem and Ramdas Pophale) SiO2 
 PCOD9339197
Probable space group: P C C 2
;
_chemical_formula_sum "Si O2"
_cell_formula_units_Z 20
_cell_length_a 8.852522
_cell_length_b 9.735725
_cell_length_c 9.953331
_cell_angle_alpha 90.000000
_cell_angle_beta 90.000000
_cell_angle_gamma 90.000000
_cell_volume 857.834996
_symmetry_space_group_name_H-M "P C C 2"
_symmetry_group_IT_number 27
_symmetry_cell_setting 'orthorhombic'
loop_
_space_group_symop_operation_xyz
x,y,z
-x,-y,z
-x,y,1/2+z
x,-y,1/2+z
loop_
_atom_site_type_symbol
_atom_site_label
_atom_site_fract_x
_atom_site_fract_y
_atom_site_fract_z
Si Si1 0.281663 0.382824 0.737010
Si Si2 0.334905 0.379732 0.038186
Si Si3 0.885732 0.119613 0.947326
Si Si4 0.422783 0.858298 0.092281
Si Si5 0.963082 0.278423 0.684129
O O1 0.351895 0.485710 0.629738
O O2 0.341814 0.228686 0.710146
O O3 0.102168 0.378962 0.715675
O O4 0.322771 0.427190 0.885440
O O5 0.451380 0.252278 0.044710
O O6 0.174141 0.326584 0.092093
O O7 0.708275 0.102921 0.983693
O O8 0.958567 0.165740 0.088490
O O9 0.898271 0.228650 0.826634
O O10 0.000000 0.000000 0.900858
O O11 0.500000 0.000000 0.135248
#
# Coordination Sequence:
#
# PCOD9339197 Si02
#       5
#     4   4   4   4   4
#     4  11  28  48  79 111 156 206 266 324 393 467
#     4  12  27  50  77 116 156 204 264 326 396 471
#     4  11  24  47  76 115 157 205 259 321 392 470
#     4  11  28  49  79 115 159 211 255 324 396 472
#     4  11  24  46  77 113 150 202 267 325 381 471
#
# _framework density 23.314503999999999
#
# number of rings (size 3 to 8) (size 9 to 14) (size 15 to 20)
#    0.000    0.800    2.000    3.000    8.400    5.600 
#    0.000    0.000    0.000    0.000    0.000    0.000 
#    0.000    0.000    0.000    0.000    0.000    0.000 
#
# Total GULP energy -111743.286110 kJ/mol
# GULP energy per Si atom -5587.164306 kJ/mol
# Density = 2.326144 g / cm^3
# Si number density = 23.314504 Si / 1000 Ang^3
#
#
#
# Elastic Constant Matrix: (Units=GPa)
#
#
# Indices 1 2 3 4 5 6 
#
# 1 144.8599 64.8389 45.3138 0.0000 0.0000 0.0000
# 2 64.8389 126.5928 47.4653 0.0000 0.0000 0.0000
# 3 45.3138 47.4653 154.3217 0.0000 0.0000 0.0000
# 4 0.0000 0.0000 0.0000 15.0979 0.0000 0.0000
# 5 0.0000 0.0000 0.0000 0.0000 -13.6786 0.0000
# 6 0.0000 0.0000 0.0000 0.0000 0.0000 35.0954
#
#
#
# Elastic Compliance Matrix: (Units=1/GPa)
#
#
# Indices 1 2 3 4 5 6 
#
# 1 0.009223 -0.004192 -0.001419 0.000000 0.000000 0.000000
# 2 -0.004192 0.010834 -0.002101 0.000000 0.000000 0.000000
# 3 -0.001419 -0.002101 0.007543 0.000000 0.000000 0.000000
# 4 0.000000 0.000000 0.000000 0.066234 0.000000 0.000000
# 5 0.000000 0.000000 0.000000 0.000000 -0.073107 0.000000
# 6 0.000000 0.000000 0.000000 0.000000 0.000000 0.028494
#
#
# Mechanical properties :
#
#
# Convention : Reuss Voigt Hill
#
# Bulk Modulus (GPa) = 82.12954 82.33449 82.23202
# Shear Modulus (GPa) = 72.77398 25.18003 48.97700
#
# Velocity S-wave (km/s) = 5.59301 3.28992 4.58832
# Velocity P-wave (km/s) = 8.77567 7.05853 7.96352
#
# Compressibility (1/GPa) = 0.01217589
#
# Stress axis : x y z
#
# Youngs Moduli (GPa) = 108.41932 92.29865 132.57397
#
# Poissons Ratio (x) = 0.38692 0.18811
# Poissons Ratio (y) = 0.45450 0.27860
# Poissons Ratio (z) = 0.15384 0.19396
#
# Static dielectric constant tensor:
#      x y z
#    x 1.962220 0.000000 0.000000 
#    y 0.000000 1.839330 0.000000 
#    z 0.000000 0.000000 1.793640 
# 
# From -- ./inp_files/1062.got.cif
#   From: 2010.05.17/outbox.cif.g08.bks.cpg/sg27_1_cif.got.tgz:1062.got - 2010.06.04 01:11:05.
