data_PCOD9339792
_publ_section_title
;
Structure prediction by ZEFSAII (Michael W. Deem and Ramdas Pophale) SiO2 
 PCOD9339792
Probable space group: P M A 2
;
_chemical_formula_sum "Si O2"
_cell_formula_units_Z 32
_cell_length_a 18.423013
_cell_length_b 6.924593
_cell_length_c 14.173469
_cell_angle_alpha 90.000000
_cell_angle_beta 90.000000
_cell_angle_gamma 90.000000
_cell_volume 1808.135900
_symmetry_space_group_name_H-M "P M A 2"
_symmetry_group_IT_number 28
_symmetry_cell_setting 'orthorhombic'
loop_
_space_group_symop_operation_xyz
x,y,z
-x,-y,z
1/2-x,y,z
1/2+x,-y,z
loop_
_atom_site_type_symbol
_atom_site_label
_atom_site_fract_x
_atom_site_fract_y
_atom_site_fract_z
Si Si1 0.082257 0.577221 0.604720
Si Si2 0.919782 0.065508 0.936447
Si Si3 0.836181 0.360214 0.800921
Si Si4 0.917209 0.425686 0.311337
Si Si5 0.577450 0.395165 0.090530
Si Si6 0.336456 0.310208 0.451713
Si Si7 0.666012 0.673256 0.961861
Si Si8 0.580326 0.085810 0.457238
O O1 0.124778 0.601794 0.702120
O O2 0.124442 0.429396 0.535655
O O3 0.081209 0.782152 0.550623
O O4 0.000000 0.500000 0.617500
O O5 0.877461 0.190901 0.858025
O O6 0.877071 0.870990 0.958250
O O7 0.924781 0.198568 0.030207
O O8 0.000000 0.000000 0.905512
O O9 0.750000 0.317904 0.790682
O O10 0.843176 0.551209 0.865628
O O11 0.907836 0.379313 0.201467
O O12 0.865511 0.590021 0.355394
O O13 0.905237 0.233656 0.372197
O O14 0.000000 0.500000 0.326338
O O15 0.500000 0.500000 0.078716
O O16 0.636395 0.533780 0.043038
O O17 0.250000 0.324627 0.458664
O O18 0.363746 0.090419 0.457978
O O19 0.750000 0.714205 0.975683
O O20 0.500000 0.000000 0.445752
#
# Coordination Sequence:
#
# PCOD9339792 Si02
#       8
#     4   4   4   4   4   4   4   4
#     4  11  23  39  65  89 118 156 201 248 295 356
#     4  11  22  37  63  92 119 155 204 249 289 353
#     4  10  24  41  60  87 123 159 195 244 303 358
#     4  10  21  38  63  86 119 158 197 244 293 354
#     4  10  21  38  60  91 118 154 201 243 293 349
#     4  11  23  40  60  87 122 156 196 247 299 354
#     4  10  22  41  60  83 122 159 190 243 305 352
#     4  11  20  39  61  89 117 157 198 239 296 352
#
# _framework density 17.697783999999999
#
# number of rings (size 3 to 8) (size 9 to 14) (size 15 to 20)
#    0.000    1.500    3.750    1.500    1.750    6.500 
#    0.000    0.000    0.000    0.000    0.000    0.000 
#    0.000    0.000    0.000    0.000    0.000    0.000 
#
# Total GULP energy -178712.428328 kJ/mol
# GULP energy per Si atom -5584.763385 kJ/mol
# Density = 1.765750 g / cm^3
# Si number density = 17.697784 Si / 1000 Ang^3
#
#
#
# Elastic Constant Matrix: (Units=GPa)
#
#
# Indices 1 2 3 4 5 6 
#
# 1 147.5056 67.4522 61.2664 0.0000 0.0000 0.0000
# 2 67.4522 119.8699 41.5434 0.0000 0.0000 0.0000
# 3 61.2664 41.5434 106.3513 0.0000 0.0000 0.0000
# 4 0.0000 0.0000 0.0000 8.0404 0.0000 0.0000
# 5 0.0000 0.0000 0.0000 0.0000 -2.9008 0.0000
# 6 0.0000 0.0000 0.0000 0.0000 0.0000 29.4534
#
#
#
# Elastic Compliance Matrix: (Units=1/GPa)
#
#
# Indices 1 2 3 4 5 6 
#
# 1 0.010645 -0.004470 -0.004386 0.000000 0.000000 0.000000
# 2 -0.004470 0.011526 -0.001927 0.000000 0.000000 0.000000
# 3 -0.004386 -0.001927 0.012682 0.000000 0.000000 0.000000
# 4 0.000000 0.000000 0.000000 0.124372 0.000000 0.000000
# 5 0.000000 0.000000 0.000000 0.000000 -0.344729 0.000000
# 6 0.000000 0.000000 0.000000 0.000000 0.000000 0.033952
#
#
# Mechanical properties :
#
#
# Convention : Reuss Voigt Hill
#
# Bulk Modulus (GPa) = 75.26544 79.36119 77.31332
# Shear Modulus (GPa) = -39.82305 20.48291 -9.67007
#
# Velocity S-wave (km/s) = -4.74874 3.40571 -2.34006
# Velocity P-wave (km/s) = 3.54303 7.77206 6.03978
#
# Compressibility (1/GPa) = 0.01328631
#
# Stress axis : x y z
#
# Youngs Moduli (GPa) = 93.93712 86.76325 78.84889
#
# Poissons Ratio (x) = 0.38784 0.34587
# Poissons Ratio (y) = 0.41991 0.15195
# Poissons Ratio (z) = 0.41205 0.16720
#
# Static dielectric constant tensor:
#      x y z
#    x 1.595410 0.000000 0.000000 
#    y 0.000000 1.580500 0.000000 
#    z 0.000000 0.000000 1.593400 
# 
# From -- ./inp_files/6617.got.cif
#   From: 2010.05.17/outbox.cif.g08.bks.cpg/sg28_4_cif.got.tgz:6617.got - 2010.06.04 01:15:21.
