data_PCOD9339838
_publ_section_title
;
Structure prediction by ZEFSAII (Michael W. Deem and Ramdas Pophale) SiO2 
 PCOD9339838
Probable space group: P M A 2
;
_chemical_formula_sum "Si O2"
_cell_formula_units_Z 28
_cell_length_a 8.647026
_cell_length_b 9.292022
_cell_length_c 18.411163
_cell_angle_alpha 90.000000
_cell_angle_beta 90.000000
_cell_angle_gamma 90.000000
_cell_volume 1479.306676
_symmetry_space_group_name_H-M "P M A 2"
_symmetry_group_IT_number 28
_symmetry_cell_setting 'orthorhombic'
loop_
_space_group_symop_operation_xyz
x,y,z
-x,-y,z
1/2-x,y,z
1/2+x,-y,z
loop_
_atom_site_type_symbol
_atom_site_label
_atom_site_fract_x
_atom_site_fract_y
_atom_site_fract_z
Si Si1 0.064236 0.338792 0.769520
Si Si2 0.564438 0.339010 0.050432
Si Si3 0.936603 0.840180 0.627244
Si Si4 0.064468 0.838636 0.905621
Si Si5 0.436852 0.340265 0.488988
Si Si6 0.563493 0.659590 0.324695
Si Si7 0.935853 0.839710 0.185619
O O1 0.250000 0.343218 0.772366
O O2 0.016891 0.260535 0.694662
O O3 0.000000 0.500000 0.772497
O O4 0.002123 0.246340 0.836803
O O5 0.500000 0.500000 0.044770
O O6 0.750000 0.343963 0.055677
O O7 0.496949 0.259980 0.120826
O O8 0.522462 0.247409 0.978892
O O9 0.750000 0.846240 0.626717
O O10 0.988696 0.768662 0.551485
O O11 0.000000 0.000000 0.636159
O O12 0.250000 0.843472 0.900462
O O13 0.000000 0.000000 0.907961
O O14 0.500000 0.500000 0.503682
O O15 0.250000 0.345866 0.490620
O O16 0.484726 0.299860 0.406808
O O17 0.500000 0.500000 0.309492
O O18 0.750000 0.652724 0.323587
O O19 0.514232 0.769727 0.262366
O O20 0.750000 0.843156 0.183333
O O21 0.000000 0.000000 0.177663
#
# Coordination Sequence:
#
# PCOD9339838 Si02
#       7
#     4   4   4   4   4   4   4
#     4  11  23  39  60  86 115 149 190 234 281 334
#     4  11  24  41  62  87 115 149 189 232 279 333
#     4  10  22  37  55  81 113 148 186 230 279 332
#     4  11  24  41  62  88 118 151 187 230 280 333
#     4   9  18  35  56  80 110 144 185 230 277 330
#     4   9  19  35  56  81 110 145 185 230 278 332
#     4  11  23  38  57  83 115 150 189 234 284 336
#
# _framework density 18.927788
#
# number of rings (size 3 to 8) (size 9 to 14) (size 15 to 20)
#    0.000    1.714    0.000    3.857    0.000   10.286 
#    0.000    0.000    0.000    0.000    0.000    0.000 
#    0.000    0.000    0.000    0.000    0.000    0.000 
#
# Total GULP energy -156505.372491 kJ/mol
# GULP energy per Si atom -5589.477589 kJ/mol
# Density = 1.888471 g / cm^3
# Si number density = 18.927788 Si / 1000 Ang^3
#
#
#
# Elastic Constant Matrix: (Units=GPa)
#
#
# Indices 1 2 3 4 5 6 
#
# 1 32.5223 44.9886 47.9196 0.0000 0.0000 0.0000
# 2 44.9886 193.0810 117.3883 0.0000 0.0000 0.0000
# 3 47.9196 117.3883 158.3221 0.0000 0.0000 0.0000
# 4 0.0000 0.0000 0.0000 81.2235 0.0000 0.0000
# 5 0.0000 0.0000 0.0000 0.0000 -10.1731 0.0000
# 6 0.0000 0.0000 0.0000 0.0000 0.0000 39.2529
#
#
#
# Elastic Compliance Matrix: (Units=1/GPa)
#
#
# Indices 1 2 3 4 5 6 
#
# 1 0.058225 -0.005193 -0.013772 0.000000 0.000000 0.000000
# 2 -0.005193 0.009893 -0.005764 0.000000 0.000000 0.000000
# 3 -0.013772 -0.005764 0.014758 0.000000 0.000000 0.000000
# 4 0.000000 0.000000 0.000000 0.012312 0.000000 0.000000
# 5 0.000000 0.000000 0.000000 0.000000 -0.098298 0.000000
# 6 0.000000 0.000000 0.000000 0.000000 0.000000 0.025476
#
#
# Mechanical properties :
#
#
# Convention : Reuss Voigt Hill
#
# Bulk Modulus (GPa) = 29.92410 89.39093 59.65751
# Shear Modulus (GPa) = 60.26703 33.63591 46.95147
#
# Velocity S-wave (km/s) = 5.64886 4.22010 4.98592
# Velocity P-wave (km/s) = 7.64134 8.43063 8.04567
#
# Compressibility (1/GPa) = 0.03341789
#
# Stress axis : x y z
#
# Youngs Moduli (GPa) = 17.17471 101.07803 67.75907
#
# Poissons Ratio (x) = 0.52494 0.93321
# Poissons Ratio (y) = 0.08919 0.39053
# Poissons Ratio (z) = 0.23654 0.58257
#
# Static dielectric constant tensor:
#      x y z
#    x 1.640220 0.000000 0.000000 
#    y 0.000000 1.600350 0.000000 
#    z 0.000000 0.000000 1.657460 
# 
# From -- ./inp_files/6854.got.cif
#   From: 2010.05.17/outbox.cif.g08.bks.cpg/sg28_4_cif.got.tgz:6854.got - 2010.06.04 01:15:21.
