data_PCOD9339061
_publ_section_title
;
Structure prediction by ZEFSAII (Michael W. Deem and Ramdas Pophale) SiO2 
 PCOD9339061
Probable space group: P C C 2
;
_chemical_formula_sum "Si O2"
_cell_formula_units_Z 20
_cell_length_a 5.151632
_cell_length_b 5.185950
_cell_length_c 29.162443
_cell_angle_alpha 90.000000
_cell_angle_beta 90.000000
_cell_angle_gamma 90.000000
_cell_volume 779.106918
_symmetry_space_group_name_H-M "P C C 2"
_symmetry_group_IT_number 27
_symmetry_cell_setting 'orthorhombic'
loop_
_space_group_symop_operation_xyz
x,y,z
-x,-y,z
-x,y,1/2+z
x,-y,1/2+z
loop_
_atom_site_type_symbol
_atom_site_label
_atom_site_fract_x
_atom_site_fract_y
_atom_site_fract_z
Si Si1 0.265146 0.831053 0.958920
Si Si2 0.500000 0.000000 0.184901
Si Si3 0.338902 0.227787 0.096352
Si Si4 0.820263 0.251625 0.858563
Si Si5 0.000000 0.500000 0.028583
Si Si6 0.188851 0.253577 0.256855
O O1 0.329246 0.751805 0.906457
O O2 0.500000 0.000000 0.974711
O O3 0.000000 0.000000 0.958311
O O4 0.215850 0.600688 0.993797
O O5 0.709805 0.905370 0.146032
O O6 0.573984 0.779184 0.221656
O O7 0.500000 0.500000 0.102375
O O8 0.101681 0.288186 0.063810
O O9 0.500000 0.000000 0.073301
O O10 0.694260 0.257276 0.808424
O O11 0.000000 0.500000 0.860901
O O12 0.000000 0.000000 0.858099
O O13 0.000000 0.500000 0.250254
O O14 0.000000 0.000000 0.251541
#
# Coordination Sequence:
#
# PCOD9339061 Si02
#       6
#     4   2   4   4   2   4
#     4  11  27  46  79 111 158 203 268 326 405 481
#     4  10  26  42  74 108 144 198 256 324 396 478
#     4  10  28  47  72 104 150 190 270 323 406 467
#     4   9  19  44  66 109 149 198 248 317 385 485
#     4  12  28  48  78 104 152 210 266 344 406 486
#     4  10  23  39  72 103 151 194 249 307 394 469
#
# _framework density 25.670418000000002
#
# number of rings (size 3 to 8) (size 9 to 14) (size 15 to 20)
#    0.600    1.200    1.000    0.000   11.200    0.000 
#    0.000    0.000    0.000    0.000    0.000    0.000 
#    0.000    0.000    0.000    0.000    0.000    0.000 
#
# Total GULP energy -111607.408549 kJ/mol
# GULP energy per Si atom -5580.370427 kJ/mol
# Density = 2.561199 g / cm^3
# Si number density = 25.670418 Si / 1000 Ang^3
#
#
#
# Elastic Constant Matrix: (Units=GPa)
#
#
# Indices 1 2 3 4 5 6 
#
# 1 89.1300 56.4182 45.2563 0.0000 0.0000 0.0000
# 2 56.4182 180.5367 45.0895 0.0000 0.0000 0.0000
# 3 45.2563 45.0895 258.5378 0.0000 0.0000 0.0000
# 4 0.0000 0.0000 0.0000 459.7338 0.0000 0.0000
# 5 0.0000 0.0000 0.0000 0.0000 -32.0244 0.0000
# 6 0.0000 0.0000 0.0000 0.0000 0.0000 56.8170
#
#
#
# Elastic Compliance Matrix: (Units=1/GPa)
#
#
# Indices 1 2 3 4 5 6 
#
# 1 0.014799 -0.004159 -0.001865 0.000000 0.000000 0.000000
# 2 -0.004159 0.006960 -0.000486 0.000000 0.000000 0.000000
# 3 -0.001865 -0.000486 0.004279 0.000000 0.000000 0.000000
# 4 0.000000 0.000000 0.000000 0.002175 0.000000 0.000000
# 5 0.000000 0.000000 0.000000 0.000000 -0.031226 0.000000
# 6 0.000000 0.000000 0.000000 0.000000 0.000000 0.017600
#
#
# Mechanical properties :
#
#
# Convention : Reuss Voigt Hill
#
# Bulk Modulus (GPa) = 76.81444 91.30360 84.05902
# Shear Modulus (GPa) = 156.50786 122.33464 139.42125
#
# Velocity S-wave (km/s) = 7.81668 6.91081 7.37766
# Velocity P-wave (km/s) = 10.55726 9.96614 10.26595
#
# Compressibility (1/GPa) = 0.01301838
#
# Stress axis : x y z
#
# Youngs Moduli (GPa) = 67.57113 143.67688 233.69176
#
# Poissons Ratio (x) = 0.59755 0.43589
# Poissons Ratio (y) = 0.28103 0.11354
# Poissons Ratio (z) = 0.12604 0.06980
#
# Static dielectric constant tensor:
#      x y z
#    x 2.167170 0.000000 0.000000 
#    y 0.000000 1.657730 0.000000 
#    z 0.000000 0.000000 2.025900 
# 
# From -- ./inp_files/5303.got.cif
#   From: 2010.05.17/outbox.cif.g08.bks.cpg/sg27_3_cif.got.tgz:5303.got - 2010.06.04 01:11:05.
