data_PCOD9339410
_publ_section_title
;
Structure prediction by ZEFSAII (Michael W. Deem and Ramdas Pophale) SiO2 
 PCOD9339410
Probable space group: P M A 2
;
_chemical_formula_sum "Si O2"
_cell_formula_units_Z 32
_cell_length_a 8.429739
_cell_length_b 9.366105
_cell_length_c 21.898175
_cell_angle_alpha 90.000000
_cell_angle_beta 90.000000
_cell_angle_gamma 90.000000
_cell_volume 1728.944580
_symmetry_space_group_name_H-M "P M A 2"
_symmetry_group_IT_number 28
_symmetry_cell_setting 'orthorhombic'
loop_
_space_group_symop_operation_xyz
x,y,z
-x,-y,z
1/2-x,y,z
1/2+x,-y,z
loop_
_atom_site_type_symbol
_atom_site_label
_atom_site_fract_x
_atom_site_fract_y
_atom_site_fract_z
Si Si1 0.441357 0.836464 0.487600
Si Si2 0.559332 0.663445 0.973549
Si Si3 0.439903 0.838536 0.857832
Si Si4 0.559905 0.162556 0.354996
Si Si5 0.559909 0.662564 0.239728
Si Si6 0.557960 0.163236 0.620893
Si Si7 0.058730 0.336597 0.107170
Si Si8 0.058068 0.661664 0.739068
O O1 0.250000 0.834648 0.487618
O O2 0.493356 0.776794 0.421651
O O3 0.493531 0.779222 0.553843
O O4 0.500000 0.000000 0.487478
O O5 0.500000 0.500000 0.967220
O O6 0.750000 0.661724 0.971611
O O7 0.507382 0.720373 0.040862
O O8 0.496278 0.758935 0.918766
O O9 0.250000 0.839805 0.857096
O O10 0.495576 0.750395 0.798380
O O11 0.500000 0.000000 0.855648
O O12 0.750000 0.161778 0.354177
O O13 0.500003 0.250019 0.297366
O O14 0.500000 0.000000 0.350856
O O15 0.500000 0.500000 0.243852
O O16 0.750000 0.661760 0.240542
O O17 0.506768 0.723388 0.173079
O O18 0.750000 0.160477 0.621801
O O19 0.503346 0.259283 0.677298
O O20 0.500000 0.000000 0.627510
O O21 0.250000 0.335138 0.107059
O O22 0.000000 0.500000 0.107478
O O23 0.250000 0.661353 0.738912
O O24 0.000000 0.500000 0.741851
#
# Coordination Sequence:
#
# PCOD9339410 Si02
#       8
#     4   4   4   4   4   4   4   4
#     4   8  15  28  48  71  98 129 165 206 249 297
#     4  10  19  34  56  81 106 134 168 209 253 302
#     4  11  23  38  55  78 105 136 171 210 254 302
#     4  10  19  32  50  74 102 135 172 213 257 304
#     4  10  19  33  52  75 102 134 171 212 255 304
#     4   9  17  32  53  77 101 129 165 207 251 298
#     4   8  16  30  50  74 100 130 167 207 250 299
#     4  10  22  37  54  76 104 135 169 206 248 296
#
# _framework density 18.508400000000002
#
# number of rings (size 3 to 8) (size 9 to 14) (size 15 to 20)
#    0.000    2.500    0.000    2.250    0.000    4.000 
#    0.000    1.250    0.000    1.500    0.000    0.000 
#    0.000    0.000    0.000    0.000    0.000    0.000 
#
# Total GULP energy -178305.513542 kJ/mol
# GULP energy per Si atom -5572.047298 kJ/mol
# Density = 1.846627 g / cm^3
# Si number density = 18.508400 Si / 1000 Ang^3
#
#
#
# Elastic Constant Matrix: (Units=GPa)
#
#
# Indices 1 2 3 4 5 6 
#
# 1 25.7141 16.2797 36.7696 0.0000 0.0000 0.0000
# 2 16.2797 83.8732 92.5949 0.0000 0.0000 0.0000
# 3 36.7696 92.5949 254.8921 0.0000 0.0000 0.0000
# 4 0.0000 0.0000 0.0000 33.3191 0.0000 0.0000
# 5 0.0000 0.0000 0.0000 0.0000 26.4032 0.0000
# 6 0.0000 0.0000 0.0000 0.0000 0.0000 28.5554
#
#
#
# Elastic Compliance Matrix: (Units=1/GPa)
#
#
# Indices 1 2 3 4 5 6 
#
# 1 0.049407 -0.002874 -0.006083 0.000000 0.000000 0.000000
# 2 -0.002874 0.020073 -0.006877 0.000000 0.000000 0.000000
# 3 -0.006083 -0.006877 0.007299 0.000000 0.000000 0.000000
# 4 0.000000 0.000000 0.000000 0.030013 0.000000 0.000000
# 5 0.000000 0.000000 0.000000 0.000000 0.037874 0.000000
# 6 0.000000 0.000000 0.000000 0.000000 0.000000 0.035020
#
#
# Mechanical properties :
#
#
# Convention : Reuss Voigt Hill
#
# Bulk Modulus (GPa) = 22.16797 72.86310 47.51553
# Shear Modulus (GPa) = 22.08554 32.24456 27.16505
#
# Velocity S-wave (km/s) = 3.45812 4.17844 3.83523
# Velocity P-wave (km/s) = 5.28659 7.92037 6.73351
#
# Compressibility (1/GPa) = 0.04511013
#
# Stress axis : x y z
#
# Youngs Moduli (GPa) = 20.23991 49.81773 137.00293
#
# Poissons Ratio (x) = 0.14319 0.83341
# Poissons Ratio (y) = 0.05817 0.94222
# Poissons Ratio (z) = 0.12312 0.34262
#
# Static dielectric constant tensor:
#      x y z
#    x 1.639200 0.000000 0.000000 
#    y 0.000000 1.576260 0.000000 
#    z 0.000000 0.000000 1.710540 
# 
# From -- ./inp_files/7144.got.cif
#   From: 2010.05.17/outbox.cif.g08.bks.cpg/sg28_4_cif.got.tgz:7144.got - 2010.06.04 01:15:21.
