data_PCOD9339483
_publ_section_title
;
Structure prediction by ZEFSAII (Michael W. Deem and Ramdas Pophale) SiO2 
 PCOD9339483
Probable space group: P M A 2
;
_chemical_formula_sum "Si O2"
_cell_formula_units_Z 28
_cell_length_a 8.632205
_cell_length_b 9.361457
_cell_length_c 18.721694
_cell_angle_alpha 90.000000
_cell_angle_beta 90.000000
_cell_angle_gamma 90.000000
_cell_volume 1512.900390
_symmetry_space_group_name_H-M "P M A 2"
_symmetry_group_IT_number 28
_symmetry_cell_setting 'orthorhombic'
loop_
_space_group_symop_operation_xyz
x,y,z
-x,-y,z
1/2-x,y,z
1/2+x,-y,z
loop_
_atom_site_type_symbol
_atom_site_label
_atom_site_fract_x
_atom_site_fract_y
_atom_site_fract_z
Si Si1 0.435384 0.161053 0.857710
Si Si2 0.436536 0.660170 0.725371
Si Si3 0.563220 0.159869 0.585450
Si Si4 0.563801 0.661173 0.141406
Si Si5 0.064235 0.661505 0.446884
Si Si6 0.434981 0.840317 0.010162
Si Si7 0.435357 0.338272 0.298948
O O1 0.250000 0.156307 0.857753
O O2 0.497179 0.260553 0.794754
O O3 0.500000 0.000000 0.847788
O O4 0.495965 0.213089 0.934854
O O5 0.500000 0.500000 0.720696
O O6 0.250000 0.657433 0.728986
O O7 0.483493 0.749993 0.655190
O O8 0.750000 0.153927 0.584858
O O9 0.513571 0.243061 0.513857
O O10 0.500000 0.000000 0.588157
O O11 0.500000 0.500000 0.138672
O O12 0.750000 0.659180 0.134852
O O13 0.490060 0.748379 0.077102
O O14 0.525420 0.722597 0.220636
O O15 0.250000 0.653520 0.445691
O O16 0.000000 0.500000 0.454322
O O17 0.006147 0.724605 0.371263
O O18 0.250000 0.843569 0.005456
O O19 0.500000 0.000000 0.019202
O O20 0.500000 0.500000 0.297385
O O21 0.250000 0.342292 0.305546
#
# Coordination Sequence:
#
# PCOD9339483 Si02
#       7
#     4   4   4   4   4   4   4
#     4  11  22  39  61  85 113 147 185 226 274 329
#     4  11  23  40  60  86 115 145 184 228 276 327
#     4  10  23  39  57  81 111 146 184 225 272 327
#     4  10  20  35  55  82 113 146 187 232 279 330
#     4  10  19  33  54  81 109 141 182 227 274 325
#     4  11  22  38  59  83 112 148 187 228 276 330
#     4   9  17  30  51  78 108 143 181 224 274 326
#
# _framework density 18.507496
#
# number of rings (size 3 to 8) (size 9 to 14) (size 15 to 20)
#    0.000    1.714    0.000    6.857    0.000    5.714 
#    0.000    3.571    0.000    1.714    0.000    0.000 
#    0.000    0.000    0.000    0.000    0.000    0.000 
#
# Total GULP energy -156376.071484 kJ/mol
# GULP energy per Si atom -5584.859696 kJ/mol
# Density = 1.846537 g / cm^3
# Si number density = 18.507496 Si / 1000 Ang^3
#
#
#
# Elastic Constant Matrix: (Units=GPa)
#
#
# Indices 1 2 3 4 5 6 
#
# 1 109.5202 40.2377 73.7991 0.0000 0.0000 0.0000
# 2 40.2377 91.2504 97.6730 0.0000 0.0000 0.0000
# 3 73.7991 97.6730 224.2926 0.0000 0.0000 0.0000
# 4 0.0000 0.0000 0.0000 61.9030 0.0000 0.0000
# 5 0.0000 0.0000 0.0000 0.0000 34.0904 0.0000
# 6 0.0000 0.0000 0.0000 0.0000 0.0000 30.2174
#
#
#
# Elastic Compliance Matrix: (Units=1/GPa)
#
#
# Indices 1 2 3 4 5 6 
#
# 1 0.011920 -0.001982 -0.003059 0.000000 0.000000 0.000000
# 2 -0.001982 0.020856 -0.008430 0.000000 0.000000 0.000000
# 3 -0.003059 -0.008430 0.009136 0.000000 0.000000 0.000000
# 4 0.000000 0.000000 0.000000 0.016154 0.000000 0.000000
# 5 0.000000 0.000000 0.000000 0.000000 0.029334 0.000000
# 6 0.000000 0.000000 0.000000 0.000000 0.000000 0.033094
#
#
# Mechanical properties :
#
#
# Convention : Reuss Voigt Hill
#
# Bulk Modulus (GPa) = 66.79922 94.27586 80.53754
# Shear Modulus (GPa) = 32.80260 39.46572 36.13416
#
# Velocity S-wave (km/s) = 4.21455 4.62282 4.42340
# Velocity P-wave (km/s) = 7.73658 8.91873 8.34861
#
# Compressibility (1/GPa) = 0.01497023
#
# Stress axis : x y z
#
# Youngs Moduli (GPa) = 83.89118 47.94683 109.45594
#
# Poissons Ratio (x) = 0.09503 0.33483
# Poissons Ratio (y) = 0.16627 0.92274
# Poissons Ratio (z) = 0.25662 0.40420
#
# Static dielectric constant tensor:
#      x y z
#    x 1.620530 0.000000 0.000000 
#    y 0.000000 1.603080 0.000000 
#    z 0.000000 0.000000 1.663140 
# 
# From -- ./inp_files/6780.got.cif
#   From: 2010.05.17/outbox.cif.g08.bks.cpg/sg28_4_cif.got.tgz:6780.got - 2010.06.04 01:15:21.
