data_PCOD9339189
_publ_section_title
;
Structure prediction by ZEFSAII (Michael W. Deem and Ramdas Pophale) SiO2 
 PCOD9339189
Probable space group: P C C 2
;
_chemical_formula_sum "Si O2"
_cell_formula_units_Z 32
_cell_length_a 15.440714
_cell_length_b 12.126662
_cell_length_c 8.744543
_cell_angle_alpha 90.000000
_cell_angle_beta 90.000000
_cell_angle_gamma 90.000000
_cell_volume 1637.366005
_symmetry_space_group_name_H-M "P C C 2"
_symmetry_group_IT_number 27
_symmetry_cell_setting 'orthorhombic'
loop_
_space_group_symop_operation_xyz
x,y,z
-x,-y,z
-x,y,1/2+z
x,-y,1/2+z
loop_
_atom_site_type_symbol
_atom_site_label
_atom_site_fract_x
_atom_site_fract_y
_atom_site_fract_z
Si Si1 0.267427 0.410733 0.860720
Si Si2 0.220734 0.627118 0.712708
Si Si3 0.279268 0.127115 0.296210
Si Si4 0.611602 0.785238 0.814136
Si Si5 0.232573 0.910732 0.148198
Si Si6 0.541427 0.879338 0.132255
Si Si7 0.041428 0.379337 0.376660
Si Si8 0.888398 0.285241 0.194781
O O1 0.272553 0.537683 0.813365
O O2 0.352884 0.338268 0.833286
O O3 0.192161 0.357300 0.755981
O O4 0.238463 0.396941 0.035704
O O5 0.250002 0.750001 0.754459
O O6 0.119955 0.613589 0.755988
O O7 0.261540 0.103058 0.473215
O O8 0.380046 0.113584 0.252928
O O9 0.227447 0.037681 0.195556
O O10 0.692162 0.857298 0.752939
O O11 0.533203 0.800222 0.696583
O O12 0.580613 0.834184 0.975293
O O13 0.147116 0.838265 0.175626
O O14 0.500000 0.000000 0.111156
O O15 0.080612 0.334189 0.533627
O O16 0.000000 0.500000 0.397749
O O17 0.966798 0.300219 0.312335
#
# Coordination Sequence:
#
# PCOD9339189 Si02
#       8
#     4   4   4   4   4   4   4   4
#     4  11  25  44  67 104 140 186 231 288 359 426
#     4  12  25  45  74 101 142 185 236 291 359 422
#     4  12  25  45  74 101 142 185 236 291 359 422
#     4  11  24  42  69 101 141 177 234 296 355 412
#     4  11  25  44  67 104 140 186 231 288 359 426
#     4  12  23  41  71 109 135 181 237 302 347 419
#     4  12  23  41  71 109 135 181 237 302 347 419
#     4  11  24  42  69 101 141 177 234 296 355 412
#
# _framework density 19.543583999999999
#
# number of rings (size 3 to 8) (size 9 to 14) (size 15 to 20)
#    0.000    0.500    5.000    3.750    3.500    0.000 
#    0.000    1.250    0.000    0.000    0.000    0.000 
#    0.000    0.000    0.000    0.000    0.000    0.000 
#
# Total GULP energy -179131.021932 kJ/mol
# GULP energy per Si atom -5597.844435 kJ/mol
# Density = 1.949910 g / cm^3
# Si number density = 19.543584 Si / 1000 Ang^3
#
#
#
# Elastic Constant Matrix: (Units=GPa)
#
#
# Indices 1 2 3 4 5 6 
#
# 1 111.8070 73.2560 60.1271 0.0000 0.0000 0.0000
# 2 73.2560 188.6349 70.6570 0.0000 0.0000 0.0000
# 3 60.1271 70.6570 149.5130 0.0000 0.0000 0.0000
# 4 0.0000 0.0000 0.0000 24.6964 0.0000 0.0000
# 5 0.0000 0.0000 0.0000 0.0000 24.8415 0.0000
# 6 0.0000 0.0000 0.0000 0.0000 0.0000 46.5495
#
#
#
# Elastic Compliance Matrix: (Units=1/GPa)
#
#
# Indices 1 2 3 4 5 6 
#
# 1 0.013391 -0.003868 -0.003557 0.000000 0.000000 0.000000
# 2 -0.003868 0.007559 -0.002017 0.000000 0.000000 0.000000
# 3 -0.003557 -0.002017 0.009072 0.000000 0.000000 0.000000
# 4 0.000000 0.000000 0.000000 0.040492 0.000000 0.000000
# 5 0.000000 0.000000 0.000000 0.000000 0.040255 0.000000
# 6 0.000000 0.000000 0.000000 0.000000 0.000000 0.021482
#
#
# Mechanical properties :
#
#
# Convention : Reuss Voigt Hill
#
# Bulk Modulus (GPa) = 89.78210 95.33724 92.55967
# Shear Modulus (GPa) = 32.28964 35.61181 33.95072
#
# Velocity S-wave (km/s) = 4.06912 4.27332 4.17247
# Velocity P-wave (km/s) = 8.25325 8.55781 8.40691
#
# Compressibility (1/GPa) = 0.01113808
#
# Stress axis : x y z
#
# Youngs Moduli (GPa) = 74.67471 132.29735 110.22907
#
# Poissons Ratio (x) = 0.51173 0.39213
# Poissons Ratio (y) = 0.28884 0.22229
# Poissons Ratio (z) = 0.26565 0.26679
#
# Static dielectric constant tensor:
#      x y z
#    x 1.670630 0.000000 0.000000 
#    y 0.000000 1.692760 0.000000 
#    z 0.000000 0.000000 1.683830 
# 
# From -- ./inp_files/1610.got.cif
#   From: 2010.05.17/outbox.cif.g08.bks.cpg/sg27_1_cif.got.tgz:1610.got - 2010.06.04 01:11:05.
