data_PCOD9339828
_publ_section_title
;
Structure prediction by ZEFSAII (Michael W. Deem and Ramdas Pophale) SiO2 
 PCOD9339828
Probable space group: P M A 2
;
_chemical_formula_sum "Si O2"
_cell_formula_units_Z 20
_cell_length_a 19.485276
_cell_length_b 5.732452
_cell_length_c 7.854106
_cell_angle_alpha 90.000000
_cell_angle_beta 90.000000
_cell_angle_gamma 90.000000
_cell_volume 877.291147
_symmetry_space_group_name_H-M "P M A 2"
_symmetry_group_IT_number 28
_symmetry_cell_setting 'orthorhombic'
loop_
_space_group_symop_operation_xyz
x,y,z
-x,-y,z
1/2-x,y,z
1/2+x,-y,z
loop_
_atom_site_type_symbol
_atom_site_label
_atom_site_fract_x
_atom_site_fract_y
_atom_site_fract_z
Si Si1 0.173983 0.703114 0.217970
Si Si2 0.828384 0.956448 0.526873
Si Si3 0.437951 0.358787 0.073879
Si Si4 0.967006 0.753670 0.445567
Si Si5 0.674642 0.935065 0.907728
O O1 0.250000 0.598295 0.235419
O O2 0.116758 0.524103 0.166141
O O3 0.157508 0.843303 0.389216
O O4 0.176064 0.885743 0.062683
O O5 0.750000 0.874300 0.494821
O O6 0.887340 0.765404 0.501972
O O7 0.830766 0.044373 0.720758
O O8 0.500000 0.500000 0.990649
O O9 0.469121 0.230058 0.238694
O O10 0.392663 0.216109 0.942150
O O11 0.000000 0.500000 0.489865
O O12 0.000000 0.000000 0.510603
O O13 0.750000 0.810554 0.910574
#
# Coordination Sequence:
#
# PCOD9339828 Si02
#       5
#     4   4   4   4   4
#     4  10  21  42  67  92 130 178 223 279 342 401
#     4  10  21  42  69  97 130 176 229 281 340 408
#     4  11  23  38  67  93 134 177 226 272 345 406
#     4  11  24  44  69 102 138 179 225 280 340 410
#     4  10  22  41  64  95 130 167 228 284 333 403
#
# _framework density 22.797449
#
# number of rings (size 3 to 8) (size 9 to 14) (size 15 to 20)
#    0.000    1.600    2.000    3.000    0.000    1.600 
#   10.800    1.000    0.000    0.000    0.000    0.000 
#    0.000    0.000    0.000    0.000    0.000    0.000 
#
# Total GULP energy -111690.984837 kJ/mol
# GULP energy per Si atom -5584.549242 kJ/mol
# Density = 2.274556 g / cm^3
# Si number density = 22.797449 Si / 1000 Ang^3
#
#
#
# Elastic Constant Matrix: (Units=GPa)
#
#
# Indices 1 2 3 4 5 6 
#
# 1 70.9018 63.3202 -24.2904 0.0000 0.0000 0.0000
# 2 63.3202 94.0588 26.6681 0.0000 0.0000 0.0000
# 3 -24.2904 26.6681 106.4180 0.0000 0.0000 0.0000
# 4 0.0000 0.0000 0.0000 -30.4527 0.0000 0.0000
# 5 0.0000 0.0000 0.0000 0.0000 39.0165 0.0000
# 6 0.0000 0.0000 0.0000 0.0000 0.0000 43.4440
#
#
#
# Elastic Compliance Matrix: (Units=1/GPa)
#
#
# Indices 1 2 3 4 5 6 
#
# 1 0.097814 -0.077699 0.041798 0.000000 0.000000 0.000000
# 2 -0.077699 0.073165 -0.036070 0.000000 0.000000 0.000000
# 3 0.041798 -0.036070 0.027977 0.000000 0.000000 0.000000
# 4 0.000000 0.000000 0.000000 -0.032838 0.000000 0.000000
# 5 0.000000 0.000000 0.000000 0.000000 0.025630 0.000000
# 6 0.000000 0.000000 0.000000 0.000000 0.000000 0.023018
#
#
# Mechanical properties :
#
#
# Convention : Reuss Voigt Hill
#
# Bulk Modulus (GPa) = 18.17752 44.75270 31.46511
# Shear Modulus (GPa) = 13.26093 24.11361 18.68727
#
# Velocity S-wave (km/s) = 2.41443 3.25581 2.86616
# Velocity P-wave (km/s) = 3.97032 5.81437 4.97847
#
# Compressibility (1/GPa) = 0.05501300
#
# Stress axis : x y z
#
# Youngs Moduli (GPa) = 10.22346 13.66767 35.74420
#
# Poissons Ratio (x) = 1.06197 -1.49403
# Poissons Ratio (y) = 0.79435 1.28930
# Poissons Ratio (z) = -0.42732 0.49300
#
# Static dielectric constant tensor:
#      x y z
#    x 1.925720 0.000000 0.000000 
#    y 0.000000 1.876010 0.000000 
#    z 0.000000 0.000000 1.845650 
# 
# From -- ./inp_files/3676.got.cif
#   From: 2010.05.17/outbox.cif.g08.bks.cpg/sg28_2_cif.got.tgz:3676.got - 2010.06.04 01:15:21.
