data_PCOD9339376
_publ_section_title
;
Structure prediction by ZEFSAII (Michael W. Deem and Ramdas Pophale) SiO2 
 PCOD9339376
Probable space group: P M A 2
;
_chemical_formula_sum "Si O2"
_cell_formula_units_Z 32
_cell_length_a 8.656149
_cell_length_b 14.697383
_cell_length_c 16.099222
_cell_angle_alpha 90.000000
_cell_angle_beta 90.000000
_cell_angle_gamma 90.000000
_cell_volume 2048.187089
_symmetry_space_group_name_H-M "P M A 2"
_symmetry_group_IT_number 28
_symmetry_cell_setting 'orthorhombic'
loop_
_space_group_symop_operation_xyz
x,y,z
-x,-y,z
1/2-x,y,z
1/2+x,-y,z
loop_
_atom_site_type_symbol
_atom_site_label
_atom_site_fract_x
_atom_site_fract_y
_atom_site_fract_z
Si Si1 0.435295 0.897345 0.465350
Si Si2 0.434763 0.402444 0.243223
Si Si3 0.063735 0.783171 0.304088
Si Si4 0.937276 0.789769 0.983544
Si Si5 0.435832 0.402871 0.049730
Si Si6 0.063633 0.102463 0.820745
Si Si7 0.064395 0.898274 0.141517
Si Si8 0.435248 0.102810 0.637472
O O1 0.250000 0.902938 0.467334
O O2 0.483717 0.836147 0.387296
O O3 0.494598 0.857491 0.553109
O O4 0.500000 0.000000 0.455973
O O5 0.500000 0.500000 0.270363
O O6 0.250000 0.404371 0.245423
O O7 0.496334 0.317382 0.294827
O O8 0.483743 0.389497 0.146332
O O9 0.250000 0.777633 0.303894
O O10 0.016648 0.841407 0.223089
O O11 0.750000 0.792383 0.986718
O O12 0.985723 0.685252 0.997852
O O13 0.000915 0.848794 0.059753
O O14 0.987283 0.834177 0.896630
O O15 0.500000 0.500000 0.021480
O O16 0.250000 0.406914 0.048346
O O17 0.250000 0.096452 0.822995
O O18 0.021867 0.139545 0.728820
O O19 0.000000 0.000000 0.830498
O O20 0.250000 0.900910 0.138467
O O21 0.000000 0.000000 0.146306
O O22 0.250000 0.101344 0.630392
O O23 0.500000 0.000000 0.639061
#
# Coordination Sequence:
#
# PCOD9339376 Si02
#       8
#     4   4   4   4   4   4   4   4
#     4  10  19  31  47  68  94 125 157 195 235 276
#     4  10  19  32  51  71  92 121 155 195 238 278
#     4  10  21  34  47  67  94 124 159 194 232 275
#     4  10  19  33  48  67  93 123 158 192 230 275
#     4   9  18  31  48  68  90 118 152 192 233 273
#     4   9  18  30  46  66  93 123 154 191 229 274
#     4  11  22  33  45  63  92 128 160 191 223 267
#     4   9  16  28  45  66  89 118 153 192 235 276
#
# _framework density 15.623573
#
# number of rings (size 3 to 8) (size 9 to 14) (size 15 to 20)
#    0.000    2.250    1.250    3.000    0.000    4.500 
#    0.000    0.000    0.000    0.000    0.000    0.875 
#    0.000    4.000    0.000    0.000    0.000    0.000 
#
# Total GULP energy -178426.447870 kJ/mol
# GULP energy per Si atom -5575.826496 kJ/mol
# Density = 1.558801 g / cm^3
# Si number density = 15.623573 Si / 1000 Ang^3
#
#
#
# Elastic Constant Matrix: (Units=GPa)
#
#
# Indices 1 2 3 4 5 6 
#
# 1 22.5659 25.7623 32.5486 0.0000 0.0000 0.0000
# 2 25.7623 123.5400 75.6476 0.0000 0.0000 0.0000
# 3 32.5486 75.6476 149.7385 0.0000 0.0000 0.0000
# 4 0.0000 0.0000 0.0000 9.4341 0.0000 0.0000
# 5 0.0000 0.0000 0.0000 0.0000 51.9081 0.0000
# 6 0.0000 0.0000 0.0000 0.0000 0.0000 24.2994
#
#
#
# Elastic Compliance Matrix: (Units=1/GPa)
#
#
# Indices 1 2 3 4 5 6 
#
# 1 0.069094 -0.007546 -0.011207 0.000000 0.000000 0.000000
# 2 -0.007546 0.012544 -0.004697 0.000000 0.000000 0.000000
# 3 -0.011207 -0.004697 0.011487 0.000000 0.000000 0.000000
# 4 0.000000 0.000000 0.000000 0.105998 0.000000 0.000000
# 5 0.000000 0.000000 0.000000 0.000000 0.019265 0.000000
# 6 0.000000 0.000000 0.000000 0.000000 0.000000 0.041153
#
#
# Mechanical properties :
#
#
# Convention : Reuss Voigt Hill
#
# Bulk Modulus (GPa) = 21.63295 62.64014 42.13654
# Shear Modulus (GPa) = 15.53518 27.92073 21.72795
#
# Velocity S-wave (km/s) = 3.15674 4.23198 3.73328
# Velocity P-wave (km/s) = 5.21182 8.00375 6.75363
#
# Compressibility (1/GPa) = 0.04622578
#
# Stress axis : x y z
#
# Youngs Moduli (GPa) = 14.47303 79.71705 87.05339
#
# Poissons Ratio (x) = 0.60157 0.97557
# Poissons Ratio (y) = 0.10922 0.40889
# Poissons Ratio (z) = 0.16219 0.37443
#
# Static dielectric constant tensor:
#      x y z
#    x 1.529310 0.000000 0.000000 
#    y 0.000000 1.485980 0.000000 
#    z 0.000000 0.000000 1.541780 
# 
# From -- ./inp_files/6395.got.cif
#   From: 2010.05.17/outbox.cif.g08.bks.cpg/sg28_4_cif.got.tgz:6395.got - 2010.06.04 01:15:21.
