data_PCOD9339930
_publ_section_title
;
Structure prediction by ZEFSAII (Michael W. Deem and Ramdas Pophale) SiO2 
 PCOD9339930
Probable space group: P M A 2
;
_chemical_formula_sum "Si O2"
_cell_formula_units_Z 20
_cell_length_a 8.639090
_cell_length_b 14.690807
_cell_length_c 7.906434
_cell_angle_alpha 90.000000
_cell_angle_beta 90.000000
_cell_angle_gamma 90.000000
_cell_volume 1003.446683
_symmetry_space_group_name_H-M "P M A 2"
_symmetry_group_IT_number 28
_symmetry_cell_setting 'orthorhombic'
loop_
_space_group_symop_operation_xyz
x,y,z
-x,-y,z
1/2-x,y,z
1/2+x,-y,z
loop_
_atom_site_type_symbol
_atom_site_label
_atom_site_fract_x
_atom_site_fract_y
_atom_site_fract_z
Si Si1 0.434537 0.715723 0.833730
Si Si2 0.435340 0.281719 0.186977
Si Si3 0.564326 0.601688 0.519782
Si Si4 0.064633 0.096507 0.706303
Si Si5 0.935210 0.095913 0.323431
O O1 0.250000 0.719019 0.834436
O O2 0.493390 0.655079 0.678427
O O3 0.501895 0.817037 0.806612
O O4 0.498067 0.680299 0.012300
O O5 0.250000 0.273789 0.176834
O O6 0.474745 0.344179 0.347883
O O7 0.507984 0.182504 0.219332
O O8 0.500000 0.500000 0.513054
O O9 0.750000 0.600778 0.536305
O O10 0.250000 0.095669 0.705720
O O11 0.003705 0.106017 0.513257
O O12 0.000000 0.000000 0.770388
O O13 0.750000 0.092864 0.332157
O O14 0.000000 0.000000 0.256301
#
# Coordination Sequence:
#
# PCOD9339930 Si02
#       5
#     4   4   4   4   4
#     4  12  25  42  67  98 133 171 217 267 323 386
#     4  11  24  43  67  96 132 172 217 266 322 383
#     4  11  25  46  72  97 128 167 212 267 329 389
#     4  11  21  37  61  92 130 173 219 264 319 379
#     4  11  21  36  61  93 130 173 219 263 318 378
#
# _framework density 19.931303
#
# number of rings (size 3 to 8) (size 9 to 14) (size 15 to 20)
#    0.000    0.800    2.000    7.800    0.000    4.000 
#    0.000    6.000    0.000    0.000    0.000    0.000 
#    0.000    0.000    0.000    0.000    0.000    0.000 
#
# Total GULP energy -111966.349742 kJ/mol
# GULP energy per Si atom -5598.317487 kJ/mol
# Density = 1.988594 g / cm^3
# Si number density = 19.931303 Si / 1000 Ang^3
#
#
#
# Elastic Constant Matrix: (Units=GPa)
#
#
# Indices 1 2 3 4 5 6 
#
# 1 167.0027 69.7561 80.4686 0.0000 0.0000 0.0000
# 2 69.7561 134.9380 74.0495 0.0000 0.0000 0.0000
# 3 80.4686 74.0495 150.1257 0.0000 0.0000 0.0000
# 4 0.0000 0.0000 0.0000 -7.0862 0.0000 0.0000
# 5 0.0000 0.0000 0.0000 0.0000 33.5484 0.0000
# 6 0.0000 0.0000 0.0000 0.0000 0.0000 65.8613
#
#
#
# Elastic Compliance Matrix: (Units=1/GPa)
#
#
# Indices 1 2 3 4 5 6 
#
# 1 0.008719 -0.002664 -0.003360 0.000000 0.000000 0.000000
# 2 -0.002664 0.010975 -0.003986 0.000000 0.000000 0.000000
# 3 -0.003360 -0.003986 0.010428 0.000000 0.000000 0.000000
# 4 0.000000 0.000000 0.000000 -0.141119 0.000000 0.000000
# 5 0.000000 0.000000 0.000000 0.000000 0.029808 0.000000
# 6 0.000000 0.000000 0.000000 0.000000 0.000000 0.015183
#
#
# Mechanical properties :
#
#
# Convention : Reuss Voigt Hill
#
# Bulk Modulus (GPa) = 98.97104 100.06831 99.51967
# Shear Modulus (GPa) = -117.31878 33.65084 -41.83397
#
# Velocity S-wave (km/s) = -7.68045 4.11340 -4.58635
# Velocity P-wave (km/s) = 5.37481 8.53673 4.68973
#
# Compressibility (1/GPa) = 0.01010397
#
# Stress axis : x y z
#
# Youngs Moduli (GPa) = 114.68603 91.11592 95.89691
#
# Poissons Ratio (x) = 0.24271 0.32219
# Poissons Ratio (y) = 0.30550 0.38221
# Poissons Ratio (z) = 0.38532 0.36315
#
# Static dielectric constant tensor:
#      x y z
#    x 1.658750 0.000000 0.000000 
#    y 0.000000 1.687680 0.000000 
#    z 0.000000 0.000000 1.734090 
# 
# From -- ./inp_files/2375.got.cif
#   From: 2010.05.17/outbox.cif.g08.bks.cpg/sg28_2_cif.got.tgz:2375.got - 2010.06.04 01:15:21.
