data_PCOD9339312
_publ_section_title
;
Structure prediction by ZEFSAII (Michael W. Deem and Ramdas Pophale) SiO2 
 PCOD9339312
Probable space group: P M A 2
;
_chemical_formula_sum "Si O2"
_cell_formula_units_Z 32
_cell_length_a 8.623782
_cell_length_b 14.505544
_cell_length_c 15.954768
_cell_angle_alpha 90.000000
_cell_angle_beta 90.000000
_cell_angle_gamma 90.000000
_cell_volume 1995.824197
_symmetry_space_group_name_H-M "P M A 2"
_symmetry_group_IT_number 28
_symmetry_cell_setting 'orthorhombic'
loop_
_space_group_symop_operation_xyz
x,y,z
-x,-y,z
1/2-x,y,z
1/2+x,-y,z
loop_
_atom_site_type_symbol
_atom_site_label
_atom_site_fract_x
_atom_site_fract_y
_atom_site_fract_z
Si Si1 0.563820 0.896037 0.285160
Si Si2 0.934387 0.401509 0.520931
Si Si3 0.063718 0.103389 0.616309
Si Si4 0.935384 0.895570 0.934806
Si Si5 0.935481 0.600329 0.708527
Si Si6 0.564734 0.213658 0.776171
Si Si7 0.063737 0.219501 0.449787
Si Si8 0.435302 0.895398 0.110238
O O1 0.750000 0.901298 0.278594
O O2 0.522027 0.834115 0.365035
O O3 0.495769 0.856288 0.198299
O O4 0.500000 0.000000 0.296814
O O5 0.750000 0.407113 0.530870
O O6 0.000000 0.500000 0.491824
O O7 0.009441 0.383746 0.612510
O O8 0.981962 0.317312 0.461923
O O9 0.250000 0.102394 0.625262
O O10 0.024767 0.156559 0.530366
O O11 0.991172 0.156831 0.694773
O O12 0.000000 0.000000 0.613458
O O13 0.750000 0.899875 0.936695
O O14 0.994172 0.834895 0.857758
O O15 0.000000 0.000000 0.925047
O O16 0.998227 0.856612 0.023415
O O17 0.750000 0.600925 0.710753
O O18 0.000000 0.500000 0.732914
O O19 0.003304 0.682730 0.763724
O O20 0.750000 0.212605 0.780401
O O21 0.250000 0.233145 0.450320
O O22 0.250000 0.896362 0.108173
O O23 0.500000 0.000000 0.111318
#
# Coordination Sequence:
#
# PCOD9339312 Si02
#       8
#     4   4   4   4   4   4   4   4
#     4  10  19  32  50  74 103 138 173 212 254 301
#     4  11  21  34  54  75  99 131 169 214 261 305
#     4  11  22  35  49  68 100 140 176 212 248 297
#     4  11  21  35  53  75 103 137 173 214 257 306
#     4  11  21  36  55  76 101 131 169 213 260 304
#     4  12  23  36  52  75 102 135 174 212 255 305
#     4  10  21  35  51  72 102 136 174 213 254 302
#     4  10  18  31  50  73 100 132 169 214 257 302
#
# _framework density 16.033476
#
# number of rings (size 3 to 8) (size 9 to 14) (size 15 to 20)
#    0.000    1.250    1.250    9.375    0.000    1.500 
#    0.000    0.000    0.000    0.000    0.000    0.875 
#    0.000    4.000    0.000    0.000    0.000    0.000 
#
# Total GULP energy -178776.625650 kJ/mol
# GULP energy per Si atom -5586.769552 kJ/mol
# Density = 1.599698 g / cm^3
# Si number density = 16.033476 Si / 1000 Ang^3
#
#
#
# Elastic Constant Matrix: (Units=GPa)
#
#
# Indices 1 2 3 4 5 6 
#
# 1 139.6448 53.2583 70.1338 0.0000 0.0000 0.0000
# 2 53.2583 107.7648 67.3821 0.0000 0.0000 0.0000
# 3 70.1338 67.3821 147.1849 0.0000 0.0000 0.0000
# 4 0.0000 0.0000 0.0000 5.8982 0.0000 0.0000
# 5 0.0000 0.0000 0.0000 0.0000 26.6883 0.0000
# 6 0.0000 0.0000 0.0000 0.0000 0.0000 27.0283
#
#
#
# Elastic Compliance Matrix: (Units=1/GPa)
#
#
# Indices 1 2 3 4 5 6 
#
# 1 0.009959 -0.002739 -0.003492 0.000000 0.000000 0.000000
# 2 -0.002739 0.013754 -0.004992 0.000000 0.000000 0.000000
# 3 -0.003492 -0.004992 0.010743 0.000000 0.000000 0.000000
# 4 0.000000 0.000000 0.000000 0.169542 0.000000 0.000000
# 5 0.000000 0.000000 0.000000 0.000000 0.037470 0.000000
# 6 0.000000 0.000000 0.000000 0.000000 0.000000 0.036998
#
#
# Mechanical properties :
#
#
# Convention : Reuss Voigt Hill
#
# Bulk Modulus (GPa) = 83.24850 86.23810 84.74330
# Shear Modulus (GPa) = 16.39800 25.51098 20.95449
#
# Velocity S-wave (km/s) = 3.20149 3.99320 3.61906
# Velocity P-wave (km/s) = 8.10558 8.66971 8.39239
#
# Compressibility (1/GPa) = 0.01201223
#
# Stress axis : x y z
#
# Youngs Moduli (GPa) = 100.40995 72.70563 93.08129
#
# Poissons Ratio (x) = 0.19911 0.32502
# Poissons Ratio (y) = 0.27498 0.46464
# Poissons Ratio (z) = 0.35061 0.36293
#
# Static dielectric constant tensor:
#      x y z
#    x 1.535010 0.000000 0.000000 
#    y 0.000000 1.533520 0.000000 
#    z 0.000000 0.000000 1.545030 
# 
# From -- ./inp_files/6421.got.cif
#   From: 2010.05.17/outbox.cif.g08.bks.cpg/sg28_4_cif.got.tgz:6421.got - 2010.06.04 01:15:21.
