data_PCOD9339297
_publ_section_title
;
Structure prediction by ZEFSAII (Michael W. Deem and Ramdas Pophale) SiO2 
 PCOD9339297
Probable space group: P M A 2
;
_chemical_formula_sum "Si O2"
_cell_formula_units_Z 32
_cell_length_a 22.625039
_cell_length_b 8.047437
_cell_length_c 7.602915
_cell_angle_alpha 90.000000
_cell_angle_beta 90.000000
_cell_angle_gamma 90.000000
_cell_volume 1384.289922
_symmetry_space_group_name_H-M "P M A 2"
_symmetry_group_IT_number 28
_symmetry_cell_setting 'orthorhombic'
loop_
_space_group_symop_operation_xyz
x,y,z
-x,-y,z
1/2-x,y,z
1/2+x,-y,z
loop_
_atom_site_type_symbol
_atom_site_label
_atom_site_fract_x
_atom_site_fract_y
_atom_site_fract_z
Si Si1 0.814632 0.965099 0.232960
Si Si2 0.563535 0.946918 0.679567
Si Si3 0.439282 0.545686 0.248613
Si Si4 0.937541 0.569233 0.633486
Si Si5 0.186985 0.421263 0.714375
Si Si6 0.814256 0.581532 0.132353
Si Si7 0.439349 0.934202 0.274405
Si Si8 0.312946 0.030464 0.642515
O O1 0.750000 0.013923 0.156801
O O2 0.817635 0.765285 0.215644
O O3 0.813244 0.018876 0.437873
O O4 0.878713 0.027807 0.171138
O O5 0.567207 0.751768 0.711291
O O6 0.626389 0.024567 0.734577
O O7 0.500000 0.000000 0.749076
O O8 0.562805 0.979497 0.467613
O O9 0.500000 0.500000 0.146020
O O10 0.441584 0.431068 0.422445
O O11 0.374700 0.514273 0.170550
O O12 0.443208 0.737688 0.301208
O O13 0.873812 0.485929 0.668031
O O14 0.000000 0.500000 0.696969
O O15 0.250000 0.498249 0.658557
O O16 0.185990 0.233087 0.638913
O O17 0.187803 0.399458 0.923065
O O18 0.750000 0.508424 0.188207
O O19 0.500000 0.000000 0.189345
O O20 0.250000 0.980159 0.722230
#
# Coordination Sequence:
#
# PCOD9339297 Si02
#       8
#     4   4   4   4   4   4   4   4
#     4   9  17  31  52  75  99 127 165 210 254 302
#     4   9  15  26  46  70  98 125 154 199 251 298
#     4  11  21  33  53  79 106 134 172 215 257 304
#     4  10  19  32  52  78 103 131 168 211 256 303
#     4   9  18  32  51  74 101 134 170 206 248 300
#     4  10  20  34  53  77 104 136 172 210 254 304
#     4  10  18  30  49  73 101 131 165 208 256 302
#     4   8  14  26  46  70  92 120 160 203 242 287
#
# _framework density 23.116544000000001
#
# number of rings (size 3 to 8) (size 9 to 14) (size 15 to 20)
#    0.000    2.500    0.000    6.000    0.000    2.500 
#    0.000    0.000    0.000   18.750    0.000   14.875 
#    0.000    0.000    0.000    0.000    0.000    0.000 
#
# Total GULP energy -178264.016135 kJ/mol
# GULP energy per Si atom -5570.750504 kJ/mol
# Density = 2.306393 g / cm^3
# Si number density = 23.116544 Si / 1000 Ang^3
#
#
#
# Elastic Constant Matrix: (Units=GPa)
#
#
# Indices 1 2 3 4 5 6 
#
# 1 314.5411 26.4346 12.1111 0.0000 0.0000 0.0000
# 2 26.4346 28.0893 -14.6505 0.0000 0.0000 0.0000
# 3 12.1111 -14.6505 47.2497 0.0000 0.0000 0.0000
# 4 0.0000 0.0000 0.0000 -32.5860 0.0000 0.0000
# 5 0.0000 0.0000 0.0000 0.0000 16.1338 0.0000
# 6 0.0000 0.0000 0.0000 0.0000 0.0000 27.2924
#
#
#
# Elastic Compliance Matrix: (Units=1/GPa)
#
#
# Indices 1 2 3 4 5 6 
#
# 1 0.003667 -0.004701 -0.002397 0.000000 0.000000 0.000000
# 2 -0.004701 0.048496 0.016242 0.000000 0.000000 0.000000
# 3 -0.002397 0.016242 0.026815 0.000000 0.000000 0.000000
# 4 0.000000 0.000000 0.000000 -0.030688 0.000000 0.000000
# 5 0.000000 0.000000 0.000000 0.000000 0.061982 0.000000
# 6 0.000000 0.000000 0.000000 0.000000 0.000000 0.036640
#
#
# Mechanical properties :
#
#
# Convention : Reuss Voigt Hill
#
# Bulk Modulus (GPa) = 10.28126 48.63006 29.45566
# Shear Modulus (GPa) = 31.04698 26.56702 28.80700
#
# Velocity S-wave (km/s) = 3.66876 3.39376 3.53393
# Velocity P-wave (km/s) = 4.73325 6.03650 5.42416
#
# Compressibility (1/GPa) = 0.09726432
#
# Stress axis : x y z
#
# Youngs Moduli (GPa) = 272.72966 20.62020 37.29289
#
# Poissons Ratio (x) = 0.09694 0.08941
# Poissons Ratio (y) = 1.28213 -0.60571
# Poissons Ratio (z) = 0.65386 -0.33491
#
# Static dielectric constant tensor:
#      x y z
#    x 2.029060 0.000000 0.000000 
#    y 0.000000 1.890880 0.000000 
#    z 0.000000 0.000000 1.835540 
# 
# From -- ./inp_files/4234.got.cif
#   From: 2010.05.17/outbox.cif.g08.bks.cpg/sg28_3_cif.got.tgz:4234.got - 2010.06.04 01:15:21.
