data_PCOD9339501
_publ_section_title
;
Structure prediction by ZEFSAII (Michael W. Deem and Ramdas Pophale) SiO2 
 PCOD9339501
Probable space group: P M A 2
;
_chemical_formula_sum "Si O2"
_cell_formula_units_Z 24
_cell_length_a 8.538994
_cell_length_b 9.254388
_cell_length_c 16.189544
_cell_angle_alpha 90.000000
_cell_angle_beta 90.000000
_cell_angle_gamma 90.000000
_cell_volume 1279.348984
_symmetry_space_group_name_H-M "P M A 2"
_symmetry_group_IT_number 28
_symmetry_cell_setting 'orthorhombic'
loop_
_space_group_symop_operation_xyz
x,y,z
-x,-y,z
1/2-x,y,z
1/2+x,-y,z
loop_
_atom_site_type_symbol
_atom_site_label
_atom_site_fract_x
_atom_site_fract_y
_atom_site_fract_z
Si Si1 0.938112 0.837212 0.315780
Si Si2 0.061788 0.662473 0.158435
Si Si3 0.938381 0.164571 0.635844
Si Si4 0.938717 0.164201 0.816567
Si Si5 0.937654 0.662274 0.479204
Si Si6 0.060565 0.835765 0.996657
O O1 0.750000 0.838860 0.313015
O O2 0.988221 0.753343 0.398788
O O3 0.001312 0.753965 0.235924
O O4 0.000000 0.000000 0.317076
O O5 0.250000 0.661186 0.159696
O O6 0.008474 0.738896 0.073360
O O7 0.000000 0.500000 0.163280
O O8 0.750000 0.161347 0.632298
O O9 0.987690 0.223473 0.726949
O O10 0.002270 0.260137 0.561674
O O11 0.000000 0.000000 0.628140
O O12 0.750000 0.163354 0.816449
O O13 0.989086 0.223802 0.906037
O O14 0.000000 0.000000 0.816804
O O15 0.750000 0.659714 0.480550
O O16 0.000000 0.500000 0.473774
O O17 0.250000 0.840949 0.997964
O O18 0.000000 0.000000 0.005328
#
# Coordination Sequence:
#
# PCOD9339501 Si02
#       6
#     4   4   4   4   4   4
#     4  11  24  41  62  86 111 141 179 223 270 323
#     4  11  23  38  57  81 112 148 184 225 273 325
#     4  10  19  33  56  83 112 146 185 229 273 321
#     4   8  15  29  50  77 108 141 179 224 271 317
#     4  11  24  40  58  81 111 146 182 223 273 327
#     4   9  18  33  54  80 109 142 182 226 271 321
#
# _framework density 18.759540999999999
#
# number of rings (size 3 to 8) (size 9 to 14) (size 15 to 20)
#    0.000    2.000    0.000    3.500    0.000    8.667 
#    0.000    0.833    0.000    2.000    0.000    0.000 
#    0.000    0.000    0.000    0.000    0.000    0.000 
#
# Total GULP energy -133942.332186 kJ/mol
# GULP energy per Si atom -5580.930508 kJ/mol
# Density = 1.871684 g / cm^3
# Si number density = 18.759541 Si / 1000 Ang^3
#
#
#
# Elastic Constant Matrix: (Units=GPa)
#
#
# Indices 1 2 3 4 5 6 
#
# 1 35.5622 29.8082 45.7543 0.0000 0.0000 0.0000
# 2 29.8082 134.6931 110.5771 0.0000 0.0000 0.0000
# 3 45.7543 110.5771 240.5301 0.0000 0.0000 0.0000
# 4 0.0000 0.0000 0.0000 -11.9011 0.0000 0.0000
# 5 0.0000 0.0000 0.0000 0.0000 12.7474 0.0000
# 6 0.0000 0.0000 0.0000 0.0000 0.0000 31.5687
#
#
#
# Elastic Compliance Matrix: (Units=1/GPa)
#
#
# Indices 1 2 3 4 5 6 
#
# 1 0.038550 -0.004033 -0.005479 0.000000 0.000000 0.000000
# 2 -0.004033 0.012347 -0.004909 0.000000 0.000000 0.000000
# 3 -0.005479 -0.004909 0.007456 0.000000 0.000000 0.000000
# 4 0.000000 0.000000 0.000000 -0.084026 0.000000 0.000000
# 5 0.000000 0.000000 0.000000 0.000000 0.078448 0.000000
# 6 0.000000 0.000000 0.000000 0.000000 0.000000 0.031677
#
#
# Mechanical properties :
#
#
# Convention : Reuss Voigt Hill
#
# Bulk Modulus (GPa) = 33.88598 87.00716 60.44657
# Shear Modulus (GPa) = 40.60741 21.45938 31.03339
#
# Velocity S-wave (km/s) = 4.65760 3.38585 4.07169
# Velocity P-wave (km/s) = 6.85762 7.85915 7.37540
#
# Compressibility (1/GPa) = 0.02951073
#
# Stress axis : x y z
#
# Youngs Moduli (GPa) = 25.94066 80.99209 134.11297
#
# Poissons Ratio (x) = 0.32667 0.73477
# Poissons Ratio (y) = 0.10463 0.65835
# Poissons Ratio (z) = 0.14212 0.39758
#
# Static dielectric constant tensor:
#      x y z
#    x 1.635930 0.000000 0.000000 
#    y 0.000000 1.590250 0.000000 
#    z 0.000000 0.000000 1.688450 
# 
# From -- ./inp_files/6037.got.cif
#   From: 2010.05.17/outbox.cif.g08.bks.cpg/sg28_4_cif.got.tgz:6037.got - 2010.06.04 01:15:21.
