data_PCOD9339775
_publ_section_title
;
Structure prediction by ZEFSAII (Michael W. Deem and Ramdas Pophale) SiO2 
 PCOD9339775
Probable space group: P M A 2
;
_chemical_formula_sum "Si O2"
_cell_formula_units_Z 24
_cell_length_a 16.843188
_cell_length_b 5.101399
_cell_length_c 14.053846
_cell_angle_alpha 90.000000
_cell_angle_beta 90.000000
_cell_angle_gamma 90.000000
_cell_volume 1207.560168
_symmetry_space_group_name_H-M "P M A 2"
_symmetry_group_IT_number 28
_symmetry_cell_setting 'orthorhombic'
loop_
_space_group_symop_operation_xyz
x,y,z
-x,-y,z
1/2-x,y,z
1/2+x,-y,z
loop_
_atom_site_type_symbol
_atom_site_label
_atom_site_fract_x
_atom_site_fract_y
_atom_site_fract_z
Si Si1 0.654495 0.792743 0.744600
Si Si2 0.590315 0.596319 0.545246
Si Si3 0.655552 0.285109 0.864798
Si Si4 0.342928 0.896171 0.445942
Si Si5 0.556850 0.251800 0.266642
Si Si6 0.943720 0.251429 0.052751
O O1 0.750000 0.799280 0.725499
O O2 0.610574 0.705386 0.649459
O O3 0.639248 0.573630 0.824697
O O4 0.628448 0.071153 0.787018
O O5 0.500000 0.500000 0.536574
O O6 0.642338 0.339746 0.520636
O O7 0.610659 0.840111 0.476151
O O8 0.750000 0.253630 0.872503
O O9 0.617434 0.238885 0.966886
O O10 0.250000 0.957006 0.440700
O O11 0.377649 0.786916 0.347114
O O12 0.500000 0.500000 0.285022
O O13 0.500000 0.000000 0.268588
O O14 0.590986 0.274387 0.159559
O O15 0.000000 0.500000 0.038263
O O16 0.000000 0.000000 0.050423
#
# Coordination Sequence:
#
# PCOD9339775 Si02
#       6
#     4   4   4   4   4   4
#     4  10  21  38  58  84 117 154 193 239 291 344
#     4  12  25  41  62  89 120 158 202 249 301 361
#     4  10  21  37  59  84 116 153 190 237 291 343
#     4  12  24  40  63  90 120 157 198 248 303 362
#     4  10  21  39  61  85 117 154 193 240 294 349
#     4  10  21  37  59  86 116 152 191 237 289 343
#
# _framework density 19.874786
#
# number of rings (size 3 to 8) (size 9 to 14) (size 15 to 20)
#    0.000    1.333    0.000    6.500    0.000    4.000 
#    0.000    0.000    0.000   10.000    0.000    0.000 
#    0.000    0.000    0.000    0.000    0.000    0.000 
#
# Total GULP energy -134221.853561 kJ/mol
# GULP energy per Si atom -5592.577232 kJ/mol
# Density = 1.982955 g / cm^3
# Si number density = 19.874786 Si / 1000 Ang^3
#
#
#
# Elastic Constant Matrix: (Units=GPa)
#
#
# Indices 1 2 3 4 5 6 
#
# 1 46.8207 14.3051 37.8792 0.0000 0.0000 0.0000
# 2 14.3051 108.2262 0.9838 0.0000 0.0000 0.0000
# 3 37.8792 0.9838 98.4004 0.0000 0.0000 0.0000
# 4 0.0000 0.0000 0.0000 27.3742 0.0000 0.0000
# 5 0.0000 0.0000 0.0000 0.0000 -27.6614 0.0000
# 6 0.0000 0.0000 0.0000 0.0000 0.0000 1.8228
#
#
#
# Elastic Compliance Matrix: (Units=1/GPa)
#
#
# Indices 1 2 3 4 5 6 
#
# 1 0.032844 -0.004227 -0.012601 0.000000 0.000000 0.000000
# 2 -0.004227 0.009785 0.001529 0.000000 0.000000 0.000000
# 3 -0.012601 0.001529 0.014998 0.000000 0.000000 0.000000
# 4 0.000000 0.000000 0.000000 0.036531 0.000000 0.000000
# 5 0.000000 0.000000 0.000000 0.000000 -0.036151 0.000000
# 6 0.000000 0.000000 0.000000 0.000000 0.000000 0.548602
#
#
# Mechanical properties :
#
#
# Convention : Reuss Voigt Hill
#
# Bulk Modulus (GPa) = 36.99631 39.97596 38.48614
# Shear Modulus (GPa) = 7.73737 13.65906 10.69821
#
# Velocity S-wave (km/s) = 1.97522 2.62440 2.32260
# Velocity P-wave (km/s) = 4.88437 5.41672 5.15742
#
# Compressibility (1/GPa) = 0.02702972
#
# Stress axis : x y z
#
# Youngs Moduli (GPa) = 30.44692 102.20051 66.67530
#
# Poissons Ratio (x) = 0.43197 0.84018
# Poissons Ratio (y) = 0.12869 -0.10196
# Poissons Ratio (z) = 0.38366 -0.15629
#
# Static dielectric constant tensor:
#      x y z
#    x 1.668120 0.000000 0.000000 
#    y 0.000000 1.684100 0.000000 
#    z 0.000000 0.000000 1.713880 
# 
# From -- ./inp_files/5668.got.cif
#   From: 2010.05.17/outbox.cif.g08.bks.cpg/sg28_3_cif.got.tgz:5668.got - 2010.06.04 01:15:21.
