data_PCOD9339529
_publ_section_title
;
Structure prediction by ZEFSAII (Michael W. Deem and Ramdas Pophale) SiO2 
 PCOD9339529
Probable space group: P M A 2
;
_chemical_formula_sum "Si O2"
_cell_formula_units_Z 32
_cell_length_a 9.445415
_cell_length_b 29.888415
_cell_length_c 5.333970
_cell_angle_alpha 90.000000
_cell_angle_beta 90.000000
_cell_angle_gamma 90.000000
_cell_volume 1505.824981
_symmetry_space_group_name_H-M "P M A 2"
_symmetry_group_IT_number 28
_symmetry_cell_setting 'orthorhombic'
loop_
_space_group_symop_operation_xyz
x,y,z
-x,-y,z
1/2-x,y,z
1/2+x,-y,z
loop_
_atom_site_type_symbol
_atom_site_label
_atom_site_fract_x
_atom_site_fract_y
_atom_site_fract_z
Si Si1 0.401516 0.323588 0.471680
Si Si2 0.920213 0.100274 0.716120
Si Si3 0.097119 0.631784 0.787881
Si Si4 0.917783 0.760545 0.153655
Si Si5 0.094611 0.537017 0.505981
Si Si6 0.076854 0.794659 0.658063
Si Si7 0.096950 0.411370 0.175017
Si Si8 0.077277 0.952480 0.215651
O O1 0.250000 0.310242 0.594462
O O2 0.545706 0.325779 0.628247
O O3 0.416493 0.291690 0.233303
O O4 0.388016 0.375737 0.399995
O O5 0.750000 0.097913 0.716549
O O6 0.953615 0.152595 0.700473
O O7 0.966060 0.073465 0.468910
O O8 0.965928 0.076618 0.972968
O O9 0.250000 0.640261 0.908634
O O10 0.110416 0.584534 0.641685
O O11 0.972303 0.620023 0.971735
O O12 0.750000 0.774208 0.140823
O O13 0.002346 0.781628 0.393251
O O14 0.000324 0.770466 0.895027
O O15 0.250000 0.518601 0.459166
O O16 0.000000 0.500000 0.642851
O O17 0.009514 0.550236 0.256493
O O18 0.250000 0.788201 0.652772
O O19 0.250000 0.428317 0.099482
O O20 0.250000 0.957476 0.214674
O O21 0.000000 0.000000 0.206139
#
# Coordination Sequence:
#
# PCOD9339529 Si02
#       8
#     4   4   4   4   4   4   4   4
#     4   9  21  39  58  79 110 152 190 229 292 364
#     4   9  19  36  58  80 115 160 201 249 309 372
#     4  10  21  36  56  83 112 141 182 236 286 335
#     4  11  24  42  63  92 130 166 206 265 329 384
#     4  10  21  37  55  78 109 142 180 228 278 334
#     4  11  23  42  66  93 122 167 223 264 310 384
#     4  10  20  36  58  81 107 146 187 224 279 353
#     4  10  19  34  56  84 115 154 199 251 309 368
#
# _framework density 21.250809
#
# number of rings (size 3 to 8) (size 9 to 14) (size 15 to 20)
#    0.000    2.000    0.000    3.000    1.750    5.500 
#    0.000    5.000    0.000    0.000    0.000    0.000 
#    0.000    0.000    0.000    0.000    0.000    0.000 
#
# Total GULP energy -178319.007416 kJ/mol
# GULP energy per Si atom -5572.468982 kJ/mol
# Density = 2.120244 g / cm^3
# Si number density = 21.250809 Si / 1000 Ang^3
#
#
#
# Elastic Constant Matrix: (Units=GPa)
#
#
# Indices 1 2 3 4 5 6 
#
# 1 135.2289 33.5772 40.2410 0.0000 0.0000 0.0000
# 2 33.5772 93.5088 23.5480 0.0000 0.0000 0.0000
# 3 40.2410 23.5480 93.0441 0.0000 0.0000 0.0000
# 4 0.0000 0.0000 0.0000 24.7925 0.0000 0.0000
# 5 0.0000 0.0000 0.0000 0.0000 20.9036 0.0000
# 6 0.0000 0.0000 0.0000 0.0000 0.0000 29.3105
#
#
#
# Elastic Compliance Matrix: (Units=1/GPa)
#
#
# Indices 1 2 3 4 5 6 
#
# 1 0.008963 -0.002395 -0.003270 0.000000 0.000000 0.000000
# 2 -0.002395 0.012062 -0.002017 0.000000 0.000000 0.000000
# 3 -0.003270 -0.002017 0.012672 0.000000 0.000000 0.000000
# 4 0.000000 0.000000 0.000000 0.040335 0.000000 0.000000
# 5 0.000000 0.000000 0.000000 0.000000 0.047839 0.000000
# 6 0.000000 0.000000 0.000000 0.000000 0.000000 0.034117
#
#
# Mechanical properties :
#
#
# Convention : Reuss Voigt Hill
#
# Bulk Modulus (GPa) = 54.54603 57.39044 55.96824
# Shear Modulus (GPa) = 28.17492 29.96237 29.06865
#
# Velocity S-wave (km/s) = 3.64514 3.75899 3.70250
# Velocity P-wave (km/s) = 6.59087 6.77531 6.68373
#
# Compressibility (1/GPa) = 0.01833314
#
# Stress axis : x y z
#
# Youngs Moduli (GPa) = 111.57442 82.90475 78.91165
#
# Poissons Ratio (x) = 0.19854 0.25806
# Poissons Ratio (y) = 0.26720 0.15916
# Poissons Ratio (z) = 0.36487 0.16722
#
# Static dielectric constant tensor:
#      x y z
#    x 1.831220 0.000000 0.000000 
#    y 0.000000 1.780500 0.000000 
#    z 0.000000 0.000000 1.846280 
# 
# From -- ./inp_files/253.got.cif
#   From: 2010.05.17/outbox.cif.g08.bks.cpg/sg28_1_cif.got.tgz:253.got - 2010.06.04 01:15:21.
