data_PCOD9339748
_publ_section_title
;
Structure prediction by ZEFSAII (Michael W. Deem and Ramdas Pophale) SiO2 
 PCOD9339748
Probable space group: P M A 2
;
_chemical_formula_sum "Si O2"
_cell_formula_units_Z 20
_cell_length_a 16.904193
_cell_length_b 8.354415
_cell_length_c 6.699593
_cell_angle_alpha 90.000000
_cell_angle_beta 90.000000
_cell_angle_gamma 90.000000
_cell_volume 946.147633
_symmetry_space_group_name_H-M "P M A 2"
_symmetry_group_IT_number 28
_symmetry_cell_setting 'orthorhombic'
loop_
_space_group_symop_operation_xyz
x,y,z
-x,-y,z
1/2-x,y,z
1/2+x,-y,z
loop_
_atom_site_type_symbol
_atom_site_label
_atom_site_fract_x
_atom_site_fract_y
_atom_site_fract_z
Si Si1 0.000000 0.500000 0.546700
Si Si2 0.113245 0.730817 0.781581
Si Si3 0.500000 0.000000 0.676923
Si Si4 0.750000 0.151118 0.500537
Si Si5 0.610708 0.760746 0.438790
Si Si6 0.750000 0.794747 0.690102
Si Si7 0.250000 0.271694 0.145713
Si Si8 0.750000 0.343348 0.094963
O O1 0.059058 0.591995 0.693633
O O2 0.048261 0.378875 0.408545
O O3 0.172624 0.777302 0.603679
O O4 0.052945 0.879667 0.808403
O O5 0.170898 0.687993 0.963788
O O6 0.439484 0.094794 0.532342
O O7 0.750000 0.214382 0.274636
O O8 0.750000 0.965921 0.575416
O O9 0.671907 0.707583 0.612689
O O10 0.669871 0.786765 0.255317
O O11 0.750000 0.798848 0.925094
O O12 0.250000 0.467156 0.152897
#
# Coordination Sequence:
#
# PCOD9339748 Si02
#       8
#     2   4   2   2   4   2   2   2
#     4  10  20  40  66  94 140 182 208 278 354 400
#     4  10  22  41  68  93 136 172 221 274 335 404
#     4  10  20  44  62 102 134 176 204 280 348 388
#     4  11  22  43  69  96 132 175 230 276 334 397
#     4  10  22  41  68  93 136 172 221 274 335 404
#     4  11  22  43  69  96 132 175 230 276 334 397
#     4  11  24  42  70 100 127 177 237 276 328 402
#     4  11  24  42  70 100 127 177 237 276 328 402
#
# _framework density 21.138348000000001
#
# number of rings (size 3 to 8) (size 9 to 14) (size 15 to 20)
#    0.000    1.600    2.000    2.400    0.000    6.400 
#    0.000   21.000    0.000    0.000    0.000    0.000 
#    0.000    0.000    0.000    0.000    0.000    0.000 
#
# Total GULP energy -111636.861571 kJ/mol
# GULP energy per Si atom -5581.843079 kJ/mol
# Density = 2.109024 g / cm^3
# Si number density = 21.138348 Si / 1000 Ang^3
#
#
#
# Elastic Constant Matrix: (Units=GPa)
#
#
# Indices 1 2 3 4 5 6 
#
# 1 119.4703 22.9700 8.5581 0.0000 0.0000 0.0000
# 2 22.9700 65.4368 -11.9694 0.0000 0.0000 0.0000
# 3 8.5581 -11.9694 73.1283 0.0000 0.0000 0.0000
# 4 0.0000 0.0000 0.0000 14.4714 0.0000 0.0000
# 5 0.0000 0.0000 0.0000 0.0000 -92.3476 0.0000
# 6 0.0000 0.0000 0.0000 0.0000 0.0000 32.7386
#
#
#
# Elastic Compliance Matrix: (Units=1/GPa)
#
#
# Indices 1 2 3 4 5 6 
#
# 1 0.009165 -0.003519 -0.001648 0.000000 0.000000 0.000000
# 2 -0.003519 0.017104 0.003211 0.000000 0.000000 0.000000
# 3 -0.001648 0.003211 0.014393 0.000000 0.000000 0.000000
# 4 0.000000 0.000000 0.000000 0.069102 0.000000 0.000000
# 5 0.000000 0.000000 0.000000 0.000000 -0.010829 0.000000
# 6 0.000000 0.000000 0.000000 0.000000 0.000000 0.030545
#
#
# Mechanical properties :
#
#
# Convention : Reuss Voigt Hill
#
# Bulk Modulus (GPa) = 27.21012 33.01697 30.11354
# Shear Modulus (GPa) = 34.33071 6.87094 20.60083
#
# Velocity S-wave (km/s) = 4.03438 1.80486 3.12520
# Velocity P-wave (km/s) = 5.88234 4.47177 5.22488
#
# Compressibility (1/GPa) = 0.03675104
#
# Stress axis : x y z
#
# Youngs Moduli (GPa) = 109.11221 58.46429 69.47756
#
# Poissons Ratio (x) = 0.20571 0.11453
# Poissons Ratio (y) = 0.38393 -0.22312
# Poissons Ratio (z) = 0.17987 -0.18775
#
# Static dielectric constant tensor:
#      x y z
#    x 1.780670 0.000000 0.000000 
#    y 0.000000 1.844950 0.000000 
#    z 0.000000 0.000000 1.725260 
# 
# From -- ./inp_files/1106.got.cif
#   From: 2010.05.17/outbox.cif.g08.bks.cpg/sg28_1_cif.got.tgz:1106.got - 2010.06.04 01:15:21.
