data_PCOD9339928
_publ_section_title
;
Structure prediction by ZEFSAII (Michael W. Deem and Ramdas Pophale) SiO2 
 PCOD9339928
Probable space group: P M A 2
;
_chemical_formula_sum "Si O2"
_cell_formula_units_Z 20
_cell_length_a 15.684814
_cell_length_b 5.077441
_cell_length_c 11.412320
_cell_angle_alpha 90.000000
_cell_angle_beta 90.000000
_cell_angle_gamma 90.000000
_cell_volume 908.862531
_symmetry_space_group_name_H-M "P M A 2"
_symmetry_group_IT_number 28
_symmetry_cell_setting 'orthorhombic'
loop_
_space_group_symop_operation_xyz
x,y,z
-x,-y,z
1/2-x,y,z
1/2+x,-y,z
loop_
_atom_site_type_symbol
_atom_site_label
_atom_site_fract_x
_atom_site_fract_y
_atom_site_fract_z
Si Si1 0.602564 0.043338 0.206380
Si Si2 0.438659 0.252126 0.842494
Si Si3 0.396676 0.455993 0.084169
Si Si4 0.904841 0.119849 0.472253
Si Si5 0.654199 0.633926 0.604834
O O1 0.635894 0.253204 0.111861
O O2 0.615369 0.159078 0.335406
O O3 0.500000 0.000000 0.193920
O O4 0.635463 0.751517 0.180349
O O5 0.500000 0.500000 0.827402
O O6 0.384768 0.249603 0.724363
O O7 0.500000 0.000000 0.859582
O O8 0.384251 0.321739 0.958135
O O9 0.500000 0.500000 0.092540
O O10 0.895076 0.386130 0.547164
O O11 0.847443 0.882077 0.518451
O O12 0.000000 0.000000 0.481749
O O13 0.750000 0.540285 0.626173
#
# Coordination Sequence:
#
# PCOD9339928 Si02
#       5
#     4   4   4   4   4
#     4   9  17  30  53  85 114 138 178 237 291 337
#     4  11  21  36  60  86 114 150 196 242 285 346
#     4   9  16  29  51  84 115 139 176 235 293 337
#     4  11  22  39  63  89 116 153 201 247 292 356
#     4  12  25  40  58  84 122 160 198 247 302 352
#
# _framework density 22.005524999999999
#
# number of rings (size 3 to 8) (size 9 to 14) (size 15 to 20)
#    0.000    1.600    0.000    8.400    0.000    3.200 
#    0.000    0.000    0.000    7.200    0.000    0.000 
#    0.000    0.000    0.000    0.000    0.000    0.000 
#
# Total GULP energy -111635.781090 kJ/mol
# GULP energy per Si atom -5581.789054 kJ/mol
# Density = 2.195544 g / cm^3
# Si number density = 22.005525 Si / 1000 Ang^3
#
#
#
# Elastic Constant Matrix: (Units=GPa)
#
#
# Indices 1 2 3 4 5 6 
#
# 1 39.1117 4.2315 22.2748 0.0000 0.0000 0.0000
# 2 4.2315 142.4690 56.6788 0.0000 0.0000 0.0000
# 3 22.2748 56.6788 128.9970 0.0000 0.0000 0.0000
# 4 0.0000 0.0000 0.0000 36.9337 0.0000 0.0000
# 5 0.0000 0.0000 0.0000 0.0000 -4.5477 0.0000
# 6 0.0000 0.0000 0.0000 0.0000 0.0000 16.9953
#
#
#
# Elastic Compliance Matrix: (Units=1/GPa)
#
#
# Indices 1 2 3 4 5 6 
#
# 1 0.028569 0.001350 -0.005526 0.000000 0.000000 0.000000
# 2 0.001350 0.008570 -0.003998 0.000000 0.000000 0.000000
# 3 -0.005526 -0.003998 0.010463 0.000000 0.000000 0.000000
# 4 0.000000 0.000000 0.000000 0.027076 0.000000 0.000000
# 5 0.000000 0.000000 0.000000 0.000000 -0.219891 0.000000
# 6 0.000000 0.000000 0.000000 0.000000 0.000000 0.058840
#
#
# Mechanical properties :
#
#
# Convention : Reuss Voigt Hill
#
# Bulk Modulus (GPa) = 31.99751 52.99418 42.49584
# Shear Modulus (GPa) = -83.88369 25.03577 -29.42396
#
# Velocity S-wave (km/s) = -6.18079 3.37665 -3.66063
# Velocity P-wave (km/s) = 6.03025 6.27191 1.21920
#
# Compressibility (1/GPa) = 0.03125243
#
# Stress axis : x y z
#
# Youngs Moduli (GPa) = 35.00278 116.69020 95.57251
#
# Poissons Ratio (x) = -0.15754 0.52817
# Poissons Ratio (y) = -0.04726 0.38215
# Poissons Ratio (z) = 0.19344 0.46658
#
# Static dielectric constant tensor:
#      x y z
#    x 1.825580 0.000000 0.000000 
#    y 0.000000 1.759060 0.000000 
#    z 0.000000 0.000000 1.857170 
# 
# From -- ./inp_files/5657.got.cif
#   From: 2010.05.17/outbox.cif.g08.bks.cpg/sg28_3_cif.got.tgz:5657.got - 2010.06.04 01:15:21.
