data_PCOD9339891
_publ_section_title
;
Structure prediction by ZEFSAII (Michael W. Deem and Ramdas Pophale) SiO2 
 PCOD9339891
Probable space group: P M A 2
;
_chemical_formula_sum "Si O2"
_cell_formula_units_Z 32
_cell_length_a 31.646785
_cell_length_b 5.208564
_cell_length_c 8.636248
_cell_angle_alpha 90.000000
_cell_angle_beta 90.000000
_cell_angle_gamma 90.000000
_cell_volume 1423.549937
_symmetry_space_group_name_H-M "P M A 2"
_symmetry_group_IT_number 28
_symmetry_cell_setting 'orthorhombic'
loop_
_space_group_symop_operation_xyz
x,y,z
-x,-y,z
1/2-x,y,z
1/2+x,-y,z
loop_
_atom_site_type_symbol
_atom_site_label
_atom_site_fract_x
_atom_site_fract_y
_atom_site_fract_z
Si Si1 0.950983 0.519505 0.125000
Si Si2 0.701413 0.162249 0.742765
Si Si3 0.950301 0.021085 0.918424
Si Si4 0.333603 0.456224 0.529580
Si Si5 0.203356 0.250691 0.242845
Si Si6 0.110310 0.784515 0.325219
Si Si7 0.388366 0.077934 0.632750
Si Si8 0.324619 0.758607 0.094952
O O1 0.922719 0.431455 0.270729
O O2 0.000000 0.500000 0.171278
O O3 0.943137 0.796816 0.047681
O O4 0.944684 0.301848 0.993294
O O5 0.750000 0.060343 0.733770
O O6 0.699425 0.427324 0.646776
O O7 0.659614 0.014164 0.678656
O O8 0.687718 0.215178 0.917610
O O9 0.920162 0.981462 0.770836
O O10 0.000000 0.000000 0.874063
O O11 0.315913 0.243340 0.413866
O O12 0.348387 0.665284 0.405665
O O13 0.377294 0.377706 0.612113
O O14 0.250000 0.362673 0.255748
O O15 0.178981 0.456289 0.135268
O O16 0.205033 0.966618 0.177220
O O17 0.096126 0.973251 0.463864
O O18 0.130557 0.869148 0.160238
#
# Coordination Sequence:
#
# PCOD9339891 Si02
#       8
#     4   4   4   4   4   4   4   4
#     4  10  23  45  72 104 136 175 224 277 341 407
#     4  11  25  42  63  95 130 176 234 289 342 405
#     4  10  24  45  72 104 139 181 226 280 341 416
#     4  10  24  41  60  91 130 174 223 269 340 404
#     4  11  22  41  62  85 122 166 214 273 330 390
#     4  10  23  42  64  96 131 174 220 276 333 410
#     4  11  24  43  66  96 137 183 223 281 345 415
#     4  11  24  41  63  92 123 166 220 279 329 393
#
# _framework density 22.479013999999999
#
# number of rings (size 3 to 8) (size 9 to 14) (size 15 to 20)
#    0.000    1.500    1.250    2.250    8.750    2.000 
#    2.250    0.000    0.000    0.000    0.000    0.000 
#    0.000    0.000    0.000    0.000    0.000    0.000 
#
# Total GULP energy -178227.195116 kJ/mol
# GULP energy per Si atom -5569.599847 kJ/mol
# Density = 2.242785 g / cm^3
# Si number density = 22.479014 Si / 1000 Ang^3
#
#
#
# Elastic Constant Matrix: (Units=GPa)
#
#
# Indices 1 2 3 4 5 6 
#
# 1 103.3233 18.7106 57.1204 0.0000 0.0000 0.0000
# 2 18.7106 78.0028 18.5934 0.0000 0.0000 0.0000
# 3 57.1204 18.5934 101.4420 0.0000 0.0000 0.0000
# 4 0.0000 0.0000 0.0000 19.1471 0.0000 0.0000
# 5 0.0000 0.0000 0.0000 0.0000 15.1016 0.0000
# 6 0.0000 0.0000 0.0000 0.0000 0.0000 28.9859
#
#
#
# Elastic Compliance Matrix: (Units=1/GPa)
#
#
# Indices 1 2 3 4 5 6 
#
# 1 0.014235 -0.001573 -0.007727 0.000000 0.000000 0.000000
# 2 -0.001573 0.013579 -0.001603 0.000000 0.000000 0.000000
# 3 -0.007727 -0.001603 0.014503 0.000000 0.000000 0.000000
# 4 0.000000 0.000000 0.000000 0.052227 0.000000 0.000000
# 5 0.000000 0.000000 0.000000 0.000000 0.066218 0.000000
# 6 0.000000 0.000000 0.000000 0.000000 0.000000 0.034500
#
#
# Mechanical properties :
#
#
# Convention : Reuss Voigt Hill
#
# Bulk Modulus (GPa) = 48.75521 52.40187 50.57854
# Shear Modulus (GPa) = 22.33082 25.20317 23.76700
#
# Velocity S-wave (km/s) = 3.15526 3.35205 3.25514
# Velocity P-wave (km/s) = 5.91697 6.19223 6.05616
#
# Compressibility (1/GPa) = 0.02051063
#
# Stress axis : x y z
#
# Youngs Moduli (GPa) = 70.24926 73.64045 68.95196
#
# Poissons Ratio (x) = 0.11581 0.53281
# Poissons Ratio (y) = 0.11048 0.11056
# Poissons Ratio (z) = 0.54283 0.11808
#
# Static dielectric constant tensor:
#      x y z
#    x 1.910810 0.000000 0.000000 
#    y 0.000000 2.078940 0.000000 
#    z 0.000000 0.000000 1.916020 
# 
# From -- ./inp_files/4363.got.cif
#   From: 2010.05.17/outbox.cif.g08.bks.cpg/sg28_3_cif.got.tgz:4363.got - 2010.06.04 01:15:21.
