data_PCOD9339049
_publ_section_title
;
Structure prediction by ZEFSAII (Michael W. Deem and Ramdas Pophale) SiO2 
 PCOD9339049
Probable space group: P C C 2
;
_chemical_formula_sum "Si O2"
_cell_formula_units_Z 22
_cell_length_a 8.636669
_cell_length_b 8.364437
_cell_length_c 14.165443
_cell_angle_alpha 90.000000
_cell_angle_beta 90.000000
_cell_angle_gamma 90.000000
_cell_volume 1023.323979
_symmetry_space_group_name_H-M "P C C 2"
_symmetry_group_IT_number 27
_symmetry_cell_setting 'orthorhombic'
loop_
_space_group_symop_operation_xyz
x,y,z
-x,-y,z
-x,y,1/2+z
x,-y,1/2+z
loop_
_atom_site_type_symbol
_atom_site_label
_atom_site_fract_x
_atom_site_fract_y
_atom_site_fract_z
Si Si1 0.000000 0.000000 0.714471
Si Si2 0.678492 0.499836 0.872789
Si Si3 0.000000 0.500000 0.990359
Si Si4 0.500000 0.000000 0.753271
Si Si5 0.848852 0.791424 0.562250
Si Si6 0.226316 0.144669 0.351346
Si Si7 0.592106 0.663429 0.684707
O O1 0.919574 0.126429 0.783083
O O2 0.120009 0.082700 0.644055
O O3 0.500000 0.500000 0.913224
O O4 0.697884 0.317859 0.837229
O O5 0.675746 0.623194 0.785009
O O6 0.838302 0.518769 0.932011
O O7 0.984544 0.337773 0.049853
O O8 0.650318 0.013554 0.819228
O O9 0.492382 0.164867 0.694823
O O10 0.819899 0.869086 0.460594
O O11 0.704884 0.688076 0.597064
O O12 0.500000 0.500000 0.668392
#
# Coordination Sequence:
#
# PCOD9339049 Si02
#       7
#     2   4   2   2   4   4   4
#     4  12  26  48  72 100 158 186 258 312 372 466
#     4  10  22  45  72 105 144 194 247 306 374 450
#     4  10  26  42  72 110 146 192 252 306 386 442
#     4  12  22  46  76 104 146 204 230 320 378 448
#     4  11  27  43  71 113 136 201 248 309 378 451
#     4  11  25  47  70 105 148 194 250 304 389 445
#     4  11  24  44  75 110 147 195 257 301 385 450
#
# _framework density 21.498569
#
# number of rings (size 3 to 8) (size 9 to 14) (size 15 to 20)
#    0.000    1.091    5.455    0.545    7.636    5.091 
#    0.000    0.000    0.000    0.000    0.000    0.000 
#    0.000    0.000    0.000    0.000    0.000    0.000 
#
# Total GULP energy -122707.989572 kJ/mol
# GULP energy per Si atom -5577.635890 kJ/mol
# Density = 2.144964 g / cm^3
# Si number density = 21.498569 Si / 1000 Ang^3
#
#
#
# Elastic Constant Matrix: (Units=GPa)
#
#
# Indices 1 2 3 4 5 6 
#
# 1 83.8871 42.3412 43.6274 0.0000 0.0000 0.0000
# 2 42.3412 117.9360 38.4260 0.0000 0.0000 0.0000
# 3 43.6274 38.4260 113.7752 0.0000 0.0000 0.0000
# 4 0.0000 0.0000 0.0000 15.3359 0.0000 0.0000
# 5 0.0000 0.0000 0.0000 0.0000 25.9858 0.0000
# 6 0.0000 0.0000 0.0000 0.0000 0.0000 19.5761
#
#
#
# Elastic Compliance Matrix: (Units=1/GPa)
#
#
# Indices 1 2 3 4 5 6 
#
# 1 0.016695 -0.004391 -0.004919 0.000000 0.000000 0.000000
# 2 -0.004391 0.010683 -0.001924 0.000000 0.000000 0.000000
# 3 -0.004919 -0.001924 0.011325 0.000000 0.000000 0.000000
# 4 0.000000 0.000000 0.000000 0.065206 0.000000 0.000000
# 5 0.000000 0.000000 0.000000 0.000000 0.038483 0.000000
# 6 0.000000 0.000000 0.000000 0.000000 0.000000 0.051083
#
#
# Mechanical properties :
#
#
# Convention : Reuss Voigt Hill
#
# Bulk Modulus (GPa) = 61.59559 62.70972 62.15265
# Shear Modulus (GPa) = 22.58817 24.92647 23.75732
#
# Velocity S-wave (km/s) = 3.24494 3.40876 3.32786
# Velocity P-wave (km/s) = 6.53856 6.68771 6.61355
#
# Compressibility (1/GPa) = 0.01623493
#
# Stress axis : x y z
#
# Youngs Moduli (GPa) = 59.89679 93.60986 88.29858
#
# Poissons Ratio (x) = 0.41107 0.43432
# Poissons Ratio (y) = 0.26303 0.16989
# Poissons Ratio (z) = 0.29462 0.18011
#
# Static dielectric constant tensor:
#      x y z
#    x 1.928170 0.000000 0.000000 
#    y 0.000000 1.783390 0.000000 
#    z 0.000000 0.000000 1.781800 
# 
# From -- ./inp_files/3290.got.cif
#   From: 2010.05.17/outbox.cif.g08.bks.cpg/sg27_2_cif.got.tgz:3290.got - 2010.06.04 01:11:05.
