data_PCOD9339559
_publ_section_title
;
Structure prediction by ZEFSAII (Michael W. Deem and Ramdas Pophale) SiO2 
 PCOD9339559
Probable space group: P M A 2
;
_chemical_formula_sum "Si O2"
_cell_formula_units_Z 32
_cell_length_a 9.029833
_cell_length_b 14.893418
_cell_length_c 12.414877
_cell_angle_alpha 90.000000
_cell_angle_beta 90.000000
_cell_angle_gamma 90.000000
_cell_volume 1669.615694
_symmetry_space_group_name_H-M "P M A 2"
_symmetry_group_IT_number 28
_symmetry_cell_setting 'orthorhombic'
loop_
_space_group_symop_operation_xyz
x,y,z
-x,-y,z
1/2-x,y,z
1/2+x,-y,z
loop_
_atom_site_type_symbol
_atom_site_label
_atom_site_fract_x
_atom_site_fract_y
_atom_site_fract_z
Si Si1 0.571783 0.792292 0.453310
Si Si2 0.079531 0.632693 0.170798
Si Si3 0.573907 0.590387 0.393151
Si Si4 0.574013 0.098125 0.647954
Si Si5 0.075616 0.785817 0.864159
Si Si6 0.573314 0.409248 0.925778
Si Si7 0.924570 0.912369 0.027158
Si Si8 0.920385 0.158866 0.231629
O O1 0.750000 0.799199 0.453450
O O2 0.532770 0.685494 0.449008
O O3 0.501736 0.845436 0.552483
O O4 0.504430 0.834559 0.344506
O O5 0.250000 0.601172 0.185398
O O6 0.081805 0.740240 0.183211
O O7 0.979908 0.599006 0.269050
O O8 0.028151 0.607067 0.051098
O O9 0.500000 0.500000 0.438485
O O10 0.750000 0.581921 0.396749
O O11 0.750000 0.087676 0.628107
O O12 0.555975 0.157298 0.755996
O O13 0.500000 0.000000 0.658058
O O14 0.250000 0.792549 0.896634
O O15 0.039607 0.680350 0.858267
O O16 0.974383 0.828982 0.955384
O O17 0.500000 0.500000 0.885492
O O18 0.750000 0.419877 0.926637
O O19 0.750000 0.922218 0.031110
O O20 0.992868 0.899398 0.145087
O O21 0.000000 0.000000 0.976592
O O22 0.750000 0.129543 0.244728
#
# Coordination Sequence:
#
# PCOD9339559 Si02
#       8
#     4   4   4   4   4   4   4   4
#     4  10  22  40  61  89 123 155 198 251 300 356
#     4   9  17  31  53  79 115 160 198 240 289 342
#     4  10  20  33  53  83 120 160 201 245 290 346
#     4  11  24  43  69  92 114 151 199 252 307 364
#     4  10  22  43  64  86 120 157 200 251 301 354
#     4  10  20  35  55  84 120 159 199 242 293 348
#     4  12  24  37  58  88 121 158 198 241 300 364
#     4  10  19  36  59  85 121 160 197 242 298 354
#
# _framework density 19.166087999999998
#
# number of rings (size 3 to 8) (size 9 to 14) (size 15 to 20)
#    0.000    1.750    1.250    3.375    0.000    6.500 
#    0.000    3.125    0.000    3.000    0.000    0.000 
#    0.000    0.000    0.000    0.000    0.000    0.000 
#
# Total GULP energy -178734.985020 kJ/mol
# GULP energy per Si atom -5585.468282 kJ/mol
# Density = 1.912246 g / cm^3
# Si number density = 19.166088 Si / 1000 Ang^3
#
#
#
# Elastic Constant Matrix: (Units=GPa)
#
#
# Indices 1 2 3 4 5 6 
#
# 1 108.2669 70.3507 53.6351 0.0000 0.0000 0.0000
# 2 70.3507 146.0552 51.1161 0.0000 0.0000 0.0000
# 3 53.6351 51.1161 68.9551 0.0000 0.0000 0.0000
# 4 0.0000 0.0000 0.0000 15.6854 0.0000 0.0000
# 5 0.0000 0.0000 0.0000 0.0000 7.7781 0.0000
# 6 0.0000 0.0000 0.0000 0.0000 0.0000 32.9114
#
#
#
# Elastic Compliance Matrix: (Units=1/GPa)
#
#
# Indices 1 2 3 4 5 6 
#
# 1 0.017272 -0.004885 -0.009814 0.000000 0.000000 0.000000
# 2 -0.004885 0.010627 -0.004078 0.000000 0.000000 0.000000
# 3 -0.009814 -0.004078 0.025158 0.000000 0.000000 0.000000
# 4 0.000000 0.000000 0.000000 0.063754 0.000000 0.000000
# 5 0.000000 0.000000 0.000000 0.000000 0.128566 0.000000
# 6 0.000000 0.000000 0.000000 0.000000 0.000000 0.030385
#
#
# Mechanical properties :
#
#
# Convention : Reuss Voigt Hill
#
# Bulk Modulus (GPa) = 64.49760 74.83123 69.66441
# Shear Modulus (GPa) = 15.69940 21.15333 18.42637
#
# Velocity S-wave (km/s) = 2.86514 3.32578 3.10402
# Velocity P-wave (km/s) = 6.68359 7.34003 7.01949
#
# Compressibility (1/GPa) = 0.01550445
#
# Stress axis : x y z
#
# Youngs Moduli (GPa) = 57.89611 94.10079 39.74803
#
# Poissons Ratio (x) = 0.45969 0.39007
# Poissons Ratio (y) = 0.28282 0.16209
# Poissons Ratio (z) = 0.56817 0.38374
#
# Static dielectric constant tensor:
#      x y z
#    x 1.646050 0.000000 0.000000 
#    y 0.000000 1.731040 0.000000 
#    z 0.000000 0.000000 1.648780 
# 
# From -- ./inp_files/5109.got.cif
#   From: 2010.05.17/outbox.cif.g08.bks.cpg/sg28_3_cif.got.tgz:5109.got - 2010.06.04 01:15:21.
