data_PCOD9339908
_publ_section_title
;
Structure prediction by ZEFSAII (Michael W. Deem and Ramdas Pophale) SiO2 
 PCOD9339908
Probable space group: P M A 2
;
_chemical_formula_sum "Si O2"
_cell_formula_units_Z 26
_cell_length_a 14.611478
_cell_length_b 10.248673
_cell_length_c 8.020161
_cell_angle_alpha 90.000000
_cell_angle_beta 90.000000
_cell_angle_gamma 90.000000
_cell_volume 1201.005155
_symmetry_space_group_name_H-M "P M A 2"
_symmetry_group_IT_number 28
_symmetry_cell_setting 'orthorhombic'
loop_
_space_group_symop_operation_xyz
x,y,z
-x,-y,z
1/2-x,y,z
1/2+x,-y,z
loop_
_atom_site_type_symbol
_atom_site_label
_atom_site_fract_x
_atom_site_fract_y
_atom_site_fract_z
Si Si1 0.750000 0.965474 0.774750
Si Si2 0.414358 0.597388 0.398366
Si Si3 0.939361 0.113239 0.388818
Si Si4 0.750000 0.767369 0.084566
Si Si5 0.414358 0.597388 0.770765
Si Si6 0.611839 0.534630 0.084566
Si Si7 0.939361 0.113239 0.780313
Si Si8 0.250000 0.034526 0.394381
O O1 0.750000 0.909833 0.584566
O O2 0.837496 0.058577 0.790227
O O3 0.750000 0.857244 0.918754
O O4 0.500000 0.500000 0.418320
O O5 0.446000 0.738645 0.330885
O O6 0.373814 0.614763 0.584566
O O7 0.355210 0.532546 0.254697
O O8 0.967061 0.122851 0.584566
O O9 0.837496 0.058577 0.378904
O O10 0.000000 0.000000 0.308185
O O11 0.657996 0.677375 0.084566
O O12 0.750000 0.857244 0.250377
O O13 0.500000 0.500000 0.750811
O O14 0.446000 0.738645 0.838246
O O15 0.355210 0.532546 0.914434
O O16 0.500000 0.500000 0.084566
O O17 0.000000 0.000000 0.860946
#
# Coordination Sequence:
#
# PCOD9339908 Si02
#       8
#     2   4   4   2   4   4   4   2
#     4  10  24  43  65  95 135 171 215 274 325 378
#     4   9  19  37  64  93 128 169 209 256 324 384
#     4   9  19  37  65  97 129 168 218 266 317 389
#     4  12  28  44  64 100 130 170 230 264 322 410
#     4   9  19  37  64  93 128 169 209 256 324 384
#     4  10  24  41  60  92 131 163 215 273 314 385
#     4   9  19  37  65  97 129 168 218 266 317 389
#     4  10  24  43  65  95 135 171 215 274 325 378
#
# _framework density 21.648534000000001
#
# number of rings (size 3 to 8) (size 9 to 14) (size 15 to 20)
#    0.000    2.462    0.000    0.000    8.615    3.692 
#    0.000    3.077    0.000    0.000    0.000    0.000 
#    0.000    0.000    0.000    0.000    0.000    0.000 
#
# Total GULP energy -144771.533856 kJ/mol
# GULP energy per Si atom -5568.135918 kJ/mol
# Density = 2.159926 g / cm^3
# Si number density = 21.648534 Si / 1000 Ang^3
#
#
#
# Elastic Constant Matrix: (Units=GPa)
#
#
# Indices 1 2 3 4 5 6 
#
# 1 76.9328 26.9870 10.6481 0.0000 0.0000 0.0000
# 2 26.9870 185.9032 58.7352 0.0000 0.0000 0.0000
# 3 10.6481 58.7352 122.9289 0.0000 0.0000 0.0000
# 4 0.0000 0.0000 0.0000 41.8775 0.0000 0.0000
# 5 0.0000 0.0000 0.0000 0.0000 -32.9887 0.0000
# 6 0.0000 0.0000 0.0000 0.0000 0.0000 3.6771
#
#
#
# Elastic Compliance Matrix: (Units=1/GPa)
#
#
# Indices 1 2 3 4 5 6 
#
# 1 0.013704 -0.001901 -0.000279 0.000000 0.000000 0.000000
# 2 -0.001901 0.006599 -0.002988 0.000000 0.000000 0.000000
# 3 -0.000279 -0.002988 0.009587 0.000000 0.000000 0.000000
# 4 0.000000 0.000000 0.000000 0.023879 0.000000 0.000000
# 5 0.000000 0.000000 0.000000 0.000000 -0.030313 0.000000
# 6 0.000000 0.000000 0.000000 0.000000 0.000000 0.271953
#
#
# Mechanical properties :
#
#
# Convention : Reuss Voigt Hill
#
# Bulk Modulus (GPa) = 51.14232 64.27839 57.71036
# Shear Modulus (GPa) = 16.01214 21.80617 18.90915
#
# Velocity S-wave (km/s) = 2.72258 3.17721 2.95864
# Velocity P-wave (km/s) = 5.79297 6.57387 6.19574
#
# Compressibility (1/GPa) = 0.01955328
#
# Stress axis : x y z
#
# Youngs Moduli (GPa) = 72.97205 151.53019 104.31011
#
# Poissons Ratio (x) = 0.28811 0.02906
# Poissons Ratio (y) = 0.13874 0.31173
# Poissons Ratio (z) = 0.02033 0.45284
#
# Static dielectric constant tensor:
#      x y z
#    x 1.744410 0.000000 0.000000 
#    y 0.000000 1.798310 0.000000 
#    z 0.000000 0.000000 1.892070 
# 
# From -- ./inp_files/3884.got.cif
#   From: 2010.05.17/outbox.cif.g08.bks.cpg/sg28_2_cif.got.tgz:3884.got - 2010.06.04 01:15:21.
