data_PCOD9339919
_publ_section_title
;
Structure prediction by ZEFSAII (Michael W. Deem and Ramdas Pophale) SiO2 
 PCOD9339919
Probable space group: P M A 2
;
_chemical_formula_sum "Si O2"
_cell_formula_units_Z 14
_cell_length_a 9.395576
_cell_length_b 4.881136
_cell_length_c 13.128440
_cell_angle_alpha 90.000000
_cell_angle_beta 90.000000
_cell_angle_gamma 90.000000
_cell_volume 602.084493
_symmetry_space_group_name_H-M "P M A 2"
_symmetry_group_IT_number 28
_symmetry_cell_setting 'orthorhombic'
loop_
_space_group_symop_operation_xyz
x,y,z
-x,-y,z
1/2-x,y,z
1/2+x,-y,z
loop_
_atom_site_type_symbol
_atom_site_label
_atom_site_fract_x
_atom_site_fract_y
_atom_site_fract_z
Si Si1 0.000000 0.000000 0.812450
Si Si2 0.750000 0.698191 0.115453
Si Si3 0.000000 0.500000 0.969008
Si Si4 0.750000 0.217109 0.249328
Si Si5 0.250000 0.796672 0.666247
Si Si6 0.500000 0.000000 0.387344
Si Si7 0.250000 0.281548 0.510720
O O1 0.974122 0.751465 0.890692
O O2 0.115934 0.855851 0.739356
O O3 0.750000 0.532756 0.220175
O O4 0.750000 0.016463 0.149242
O O5 0.620744 0.583992 0.049655
O O6 0.611838 0.155610 0.316058
O O7 0.250000 0.541404 0.587608
O O8 0.250000 0.039986 0.589338
O O9 0.602943 0.785076 0.448719
#
# Coordination Sequence:
#
# PCOD9339919 Si02
#       7
#     2   2   2   2   2   2   2
#     4  12  25  45  70 100 140 184 234 293 359 428
#     4  12  24  42  68 100 138 180 232 288 348 424
#     4  12  24  42  68 100 138 182 232 288 352 424
#     4  11  24  43  68 100 138 182 231 288 355 426
#     4  12  26  46  70 101 138 183 238 296 360 428
#     4  10  25  45  70 100 140 184 234 293 359 428
#     4  11  26  45  70 101 138 183 237 296 359 428
#
# _framework density 23.252552000000001
#
# number of rings (size 3 to 8) (size 9 to 14) (size 15 to 20)
#    0.000    0.571    0.000    7.714    0.000   10.286 
#    0.000    1.429    0.000    0.000    0.000    0.000 
#    0.000    0.000    0.000    0.000    0.000    0.000 
#
# Total GULP energy -78005.439793 kJ/mol
# GULP energy per Si atom -5571.817128 kJ/mol
# Density = 2.319963 g / cm^3
# Si number density = 23.252552 Si / 1000 Ang^3
#
#
#
# Elastic Constant Matrix: (Units=GPa)
#
#
# Indices 1 2 3 4 5 6 
#
# 1 136.4870 15.4326 69.9958 0.0000 0.0000 0.0000
# 2 15.4326 154.1827 42.8143 0.0000 0.0000 0.0000
# 3 69.9958 42.8143 129.6388 0.0000 0.0000 0.0000
# 4 0.0000 0.0000 0.0000 57.9027 0.0000 0.0000
# 5 0.0000 0.0000 0.0000 0.0000 48.7622 0.0000
# 6 0.0000 0.0000 0.0000 0.0000 0.0000 14.9845
#
#
#
# Elastic Compliance Matrix: (Units=1/GPa)
#
#
# Indices 1 2 3 4 5 6 
#
# 1 0.010176 0.000558 -0.005679 0.000000 0.000000 0.000000
# 2 0.000558 0.007171 -0.002670 0.000000 0.000000 0.000000
# 3 -0.005679 -0.002670 0.011662 0.000000 0.000000 0.000000
# 4 0.000000 0.000000 0.000000 0.017270 0.000000 0.000000
# 5 0.000000 0.000000 0.000000 0.000000 0.020508 0.000000
# 6 0.000000 0.000000 0.000000 0.000000 0.000000 0.066736
#
#
# Mechanical properties :
#
#
# Convention : Reuss Voigt Hill
#
# Bulk Modulus (GPa) = 74.46906 75.19931 74.83419
# Shear Modulus (GPa) = 32.55662 43.80094 38.17878
#
# Velocity S-wave (km/s) = 3.74589 4.34488 4.05645
# Velocity P-wave (km/s) = 7.12774 7.58822 7.36158
#
# Compressibility (1/GPa) = 0.01342840
#
# Stress axis : x y z
#
# Youngs Moduli (GPa) = 98.27251 139.44467 85.75207
#
# Poissons Ratio (x) = -0.07786 0.48695
# Poissons Ratio (y) = -0.05487 0.22894
# Poissons Ratio (z) = 0.55805 0.37230
#
# Static dielectric constant tensor:
#      x y z
#    x 1.762780 0.000000 0.000000 
#    y 0.000000 1.817830 0.000000 
#    z 0.000000 0.000000 1.823610 
# 
# From -- ./inp_files/4443.got.cif
#   From: 2010.05.17/outbox.cif.g08.bks.cpg/sg28_3_cif.got.tgz:4443.got - 2010.06.04 01:15:21.
