data_PCOD9339903
_publ_section_title
;
Structure prediction by ZEFSAII (Michael W. Deem and Ramdas Pophale) SiO2 
 PCOD9339903
Probable space group: P M A 2
;
_chemical_formula_sum "Si O2"
_cell_formula_units_Z 20
_cell_length_a 20.734687
_cell_length_b 8.090302
_cell_length_c 5.344919
_cell_angle_alpha 90.000000
_cell_angle_beta 90.000000
_cell_angle_gamma 90.000000
_cell_volume 896.609519
_symmetry_space_group_name_H-M "P M A 2"
_symmetry_group_IT_number 28
_symmetry_cell_setting 'orthorhombic'
loop_
_space_group_symop_operation_xyz
x,y,z
-x,-y,z
1/2-x,y,z
1/2+x,-y,z
loop_
_atom_site_type_symbol
_atom_site_label
_atom_site_fract_x
_atom_site_fract_y
_atom_site_fract_z
Si Si1 0.121604 0.688511 0.758480
Si Si2 0.250000 0.199955 0.821731
Si Si3 0.750000 0.434283 0.874200
Si Si4 0.750000 0.105304 0.204169
Si Si5 0.000000 0.000000 0.326121
Si Si6 0.452551 0.652400 0.242552
Si Si7 0.639828 0.978605 0.569938
O O1 0.187987 0.598197 0.705439
O O2 0.075246 0.667037 0.522380
O O3 0.132795 0.884628 0.786928
O O4 0.097457 0.620557 0.021386
O O5 0.250000 0.375992 0.956824
O O6 0.315674 0.173244 0.659431
O O7 0.250000 0.044397 0.006586
O O8 0.750000 0.286284 0.078388
O O9 0.685882 0.073614 0.370550
O O10 0.016167 0.831195 0.181992
O O11 0.066708 0.046698 0.474119
O O12 0.500000 0.500000 0.239919
#
# Coordination Sequence:
#
# PCOD9339903 Si02
#       7
#     4   2   2   2   2   4   4
#     4  11  24  46  71 100 139 187 230 286 363 412
#     4  11  25  41  72 104 134 185 242 298 354 425
#     4  12  23  42  72 101 134 188 234 298 356 428
#     4  11  22  49  66 101 152 183 238 302 358 425
#     4  10  24  42  74  98 136 196 232 290 360 426
#     4  11  26  46  69 102 141 183 233 290 345 424
#     4  10  23  47  69 100 146 186 239 297 359 430
#
# _framework density 22.306256000000001
#
# number of rings (size 3 to 8) (size 9 to 14) (size 15 to 20)
#    0.000    1.200    2.000    3.600    2.800    5.600 
#   10.800    0.000    0.000    0.000    0.000    0.000 
#    0.000    0.000    0.000    0.000    0.000    0.000 
#
# Total GULP energy -111652.270508 kJ/mol
# GULP energy per Si atom -5582.613525 kJ/mol
# Density = 2.225549 g / cm^3
# Si number density = 22.306256 Si / 1000 Ang^3
#
#
#
# Elastic Constant Matrix: (Units=GPa)
#
#
# Indices 1 2 3 4 5 6 
#
# 1 130.9452 37.5784 9.6720 0.0000 0.0000 0.0000
# 2 37.5784 132.2783 20.9520 0.0000 0.0000 0.0000
# 3 9.6720 20.9520 50.0219 0.0000 0.0000 0.0000
# 4 0.0000 0.0000 0.0000 20.8241 0.0000 0.0000
# 5 0.0000 0.0000 0.0000 0.0000 38.4370 0.0000
# 6 0.0000 0.0000 0.0000 0.0000 0.0000 24.1837
#
#
#
# Elastic Compliance Matrix: (Units=1/GPa)
#
#
# Indices 1 2 3 4 5 6 
#
# 1 0.008335 -0.002263 -0.000664 0.000000 0.000000 0.000000
# 2 -0.002263 0.008711 -0.003211 0.000000 0.000000 0.000000
# 3 -0.000664 -0.003211 0.021465 0.000000 0.000000 0.000000
# 4 0.000000 0.000000 0.000000 0.048021 0.000000 0.000000
# 5 0.000000 0.000000 0.000000 0.000000 0.026017 0.000000
# 6 0.000000 0.000000 0.000000 0.000000 0.000000 0.041350
#
#
# Mechanical properties :
#
#
# Convention : Reuss Voigt Hill
#
# Bulk Modulus (GPa) = 38.11656 49.96113 44.03884
# Shear Modulus (GPa) = 28.58448 33.02516 30.80482
#
# Velocity S-wave (km/s) = 3.58363 3.85194 3.72021
# Velocity P-wave (km/s) = 5.85219 6.49844 6.18376
#
# Compressibility (1/GPa) = 0.02623532
#
# Stress axis : x y z
#
# Youngs Moduli (GPa) = 119.97347 114.79374 46.58822
#
# Poissons Ratio (x) = 0.25975 0.03093
# Poissons Ratio (y) = 0.27147 0.14961
# Poissons Ratio (z) = 0.07965 0.36863
#
# Static dielectric constant tensor:
#      x y z
#    x 1.882520 0.000000 0.000000 
#    y 0.000000 1.835660 0.000000 
#    z 0.000000 0.000000 1.856630 
# 
# From -- ./inp_files/1099.got.cif
#   From: 2010.05.17/outbox.cif.g08.bks.cpg/sg28_1_cif.got.tgz:1099.got - 2010.06.04 01:15:21.
