data_PCOD9339014
_publ_section_title
;
Structure prediction by ZEFSAII (Michael W. Deem and Ramdas Pophale) SiO2 
 PCOD9339014
Probable space group: P C C 2
;
_chemical_formula_sum "Si O2"
_cell_formula_units_Z 32
_cell_length_a 11.459038
_cell_length_b 13.981949
_cell_length_c 9.340943
_cell_angle_alpha 90.000000
_cell_angle_beta 90.000000
_cell_angle_gamma 90.000000
_cell_volume 1496.602944
_symmetry_space_group_name_H-M "P C C 2"
_symmetry_group_IT_number 27
_symmetry_cell_setting 'orthorhombic'
loop_
_space_group_symop_operation_xyz
x,y,z
-x,-y,z
-x,y,1/2+z
x,-y,1/2+z
loop_
_atom_site_type_symbol
_atom_site_label
_atom_site_fract_x
_atom_site_fract_y
_atom_site_fract_z
Si Si1 0.302022 0.868136 0.325140
Si Si2 0.862201 0.303009 0.275391
Si Si3 0.435321 0.198487 0.338045
Si Si4 0.284364 0.362433 0.200264
Si Si5 0.638491 0.566911 0.742420
Si Si6 0.630305 0.033729 0.625484
Si Si7 0.502407 0.642338 0.995736
Si Si8 0.033571 0.613600 0.560514
O O1 0.188458 0.801080 0.314553
O O2 0.424978 0.810810 0.304462
O O3 0.314578 0.916117 0.484676
O O4 0.301728 0.944822 0.195536
O O5 0.745640 0.363809 0.258706
O O6 0.938453 0.350754 0.401148
O O7 0.934051 0.320775 0.130794
O O8 0.389296 0.102430 0.263959
O O9 0.334864 0.272766 0.285742
O O10 0.454392 0.248666 0.493595
O O11 0.310837 0.463183 0.274825
O O12 0.531536 0.396634 0.338933
O O13 0.151898 0.366237 0.149945
O O14 0.370067 0.359033 0.064301
O O15 0.586125 0.577443 0.583579
O O16 0.500000 0.000000 0.579505
O O17 0.000000 0.500000 0.564843
#
# Coordination Sequence:
#
# PCOD9339014 Si02
#       8
#     4   4   4   4   4   4   4   4
#     4  11  23  45  73 104 143 178 231 297 368 446
#     4  12  26  49  72 102 139 190 247 308 352 419
#     4  11  22  38  67 105 142 186 224 283 362 437
#     4  12  25  40  65  95 144 192 240 292 348 414
#     4  12  27  41  63 100 148 193 232 284 352 434
#     4  10  22  41  71 106 140 182 225 283 367 449
#     4  12  24  39  61  99 147 187 228 283 356 434
#     4  12  26  47  73  97 141 194 258 303 348 408
#
# _framework density 21.381755999999999
#
# number of rings (size 3 to 8) (size 9 to 14) (size 15 to 20)
#    0.000    0.500    5.000    3.375    3.500    3.000 
#    0.000    1.250    0.000    6.000    0.000    0.000 
#    0.000    0.000    0.000    0.000    0.000    0.000 
#
# Total GULP energy -178441.705646 kJ/mol
# GULP energy per Si atom -5576.303301 kJ/mol
# Density = 2.133309 g / cm^3
# Si number density = 21.381756 Si / 1000 Ang^3
#
#
#
# Elastic Constant Matrix: (Units=GPa)
#
#
# Indices 1 2 3 4 5 6 
#
# 1 44.7383 31.0954 29.3494 0.0000 0.0000 0.0000
# 2 31.0954 109.6634 35.4633 0.0000 0.0000 0.0000
# 3 29.3494 35.4633 80.9660 0.0000 0.0000 0.0000
# 4 0.0000 0.0000 0.0000 29.8159 0.0000 0.0000
# 5 0.0000 0.0000 0.0000 0.0000 17.9496 0.0000
# 6 0.0000 0.0000 0.0000 0.0000 0.0000 27.8511
#
#
#
# Elastic Compliance Matrix: (Units=1/GPa)
#
#
# Indices 1 2 3 4 5 6 
#
# 1 0.032717 -0.006340 -0.009083 0.000000 0.000000 0.000000
# 2 -0.006340 0.011852 -0.002893 0.000000 0.000000 0.000000
# 3 -0.009083 -0.002893 0.016910 0.000000 0.000000 0.000000
# 4 0.000000 0.000000 0.000000 0.033539 0.000000 0.000000
# 5 0.000000 0.000000 0.000000 0.000000 0.055712 0.000000
# 6 0.000000 0.000000 0.000000 0.000000 0.000000 0.035905
#
#
# Mechanical properties :
#
#
# Convention : Reuss Voigt Hill
#
# Bulk Modulus (GPa) = 40.24424 47.46490 43.85457
# Shear Modulus (GPa) = 21.59359 24.42062 23.00711
#
# Velocity S-wave (km/s) = 3.18135 3.38320 3.28383
# Velocity P-wave (km/s) = 5.68835 6.12441 5.91040
#
# Compressibility (1/GPa) = 0.02484827
#
# Stress axis : x y z
#
# Youngs Moduli (GPa) = 30.56485 84.37330 59.13492
#
# Poissons Ratio (x) = 0.53492 0.53711
# Poissons Ratio (y) = 0.19378 0.17108
# Poissons Ratio (z) = 0.27762 0.24410
#
# Static dielectric constant tensor:
#      x y z
#    x 1.725190 0.000000 0.000000 
#    y 0.000000 1.877510 0.000000 
#    z 0.000000 0.000000 1.867420 
# 
# From -- ./inp_files/1487.got.cif
#   From: 2010.05.17/outbox.cif.g08.bks.cpg/sg27_1_cif.got.tgz:1487.got - 2010.06.04 01:11:05.
