data_PCOD9339326
_publ_section_title
;
Structure prediction by ZEFSAII (Michael W. Deem and Ramdas Pophale) SiO2 
 PCOD9339326
Probable space group: P M A 2
;
_chemical_formula_sum "Si O2"
_cell_formula_units_Z 28
_cell_length_a 8.625140
_cell_length_b 9.339396
_cell_length_c 18.737798
_cell_angle_alpha 90.000000
_cell_angle_beta 90.000000
_cell_angle_gamma 90.000000
_cell_volume 1509.397048
_symmetry_space_group_name_H-M "P M A 2"
_symmetry_group_IT_number 28
_symmetry_cell_setting 'orthorhombic'
loop_
_space_group_symop_operation_xyz
x,y,z
-x,-y,z
1/2-x,y,z
1/2+x,-y,z
loop_
_atom_site_type_symbol
_atom_site_label
_atom_site_fract_x
_atom_site_fract_y
_atom_site_fract_z
Si Si1 0.564525 0.837713 0.439020
Si Si2 0.563775 0.338802 0.027167
Si Si3 0.064223 0.339905 0.875909
Si Si4 0.436010 0.160956 0.736014
Si Si5 0.064749 0.837154 0.588336
Si Si6 0.063143 0.839940 0.165397
Si Si7 0.936794 0.339210 0.305600
O O1 0.750000 0.843503 0.440332
O O2 0.502413 0.776820 0.514586
O O3 0.504225 0.743091 0.373887
O O4 0.500000 0.000000 0.431217
O O5 0.500000 0.500000 0.036539
O O6 0.750000 0.345197 0.025739
O O7 0.513180 0.240069 0.092980
O O8 0.503418 0.284007 0.950761
O O9 0.250000 0.344499 0.881322
O O10 0.021403 0.247814 0.806825
O O11 0.000000 0.500000 0.867285
O O12 0.250000 0.156222 0.729377
O O13 0.505578 0.226459 0.663042
O O14 0.500000 0.000000 0.742978
O O15 0.250000 0.839189 0.586188
O O16 0.000000 0.000000 0.589538
O O17 0.250000 0.845772 0.164828
O O18 0.016617 0.747272 0.234318
O O19 0.000000 0.000000 0.169623
O O20 0.750000 0.341160 0.309682
O O21 0.000000 0.500000 0.302514
#
# Coordination Sequence:
#
# PCOD9339326 Si02
#       7
#     4   4   4   4   4   4   4
#     4  11  21  36  58  84 113 146 185 230 277 327
#     4  10  20  36  57  81 108 142 182 223 270 324
#     4  10  21  36  55  79 108 144 183 223 270 324
#     4  10  20  34  53  79 109 142 182 226 274 325
#     4  10  18  31  53  80 109 143 182 225 275 327
#     4  10  23  39  58  84 113 144 181 225 272 323
#     4  11  23  40  59  83 113 147 186 226 275 330
#
# _framework density 18.550453999999998
#
# number of rings (size 3 to 8) (size 9 to 14) (size 15 to 20)
#    0.000    1.714    0.000    7.714    0.000    6.286 
#    0.000    3.571    0.000    1.714    0.000    0.000 
#    0.000    0.000    0.000    0.000    0.000    0.000 
#
# Total GULP energy -156395.526307 kJ/mol
# GULP energy per Si atom -5585.554511 kJ/mol
# Density = 1.850823 g / cm^3
# Si number density = 18.550454 Si / 1000 Ang^3
#
#
#
# Elastic Constant Matrix: (Units=GPa)
#
#
# Indices 1 2 3 4 5 6 
#
# 1 99.8674 38.3354 74.8899 0.0000 0.0000 0.0000
# 2 38.3354 90.4575 96.3377 0.0000 0.0000 0.0000
# 3 74.8899 96.3377 232.4626 0.0000 0.0000 0.0000
# 4 0.0000 0.0000 0.0000 51.6817 0.0000 0.0000
# 5 0.0000 0.0000 0.0000 0.0000 803.2988 0.0000
# 6 0.0000 0.0000 0.0000 0.0000 0.0000 24.4669
#
#
#
# Elastic Compliance Matrix: (Units=1/GPa)
#
#
# Indices 1 2 3 4 5 6 
#
# 1 0.013389 -0.001934 -0.003512 0.000000 0.000000 0.000000
# 2 -0.001934 0.020068 -0.007694 0.000000 0.000000 0.000000
# 3 -0.003512 -0.007694 0.008622 0.000000 0.000000 0.000000
# 4 0.000000 0.000000 0.000000 0.019349 0.000000 0.000000
# 5 0.000000 0.000000 0.000000 0.000000 0.001245 0.000000
# 6 0.000000 0.000000 0.000000 0.000000 0.000000 0.040872
#
#
# Mechanical properties :
#
#
# Convention : Reuss Voigt Hill
#
# Bulk Modulus (GPa) = 63.29176 93.54597 78.41886
# Shear Modulus (GPa) = 37.01208 190.10445 113.55826
#
# Velocity S-wave (km/s) = 4.47162 10.13421 7.83255
# Velocity P-wave (km/s) = 7.80086 13.69210 11.14287
#
# Compressibility (1/GPa) = 0.01579985
#
# Stress axis : x y z
#
# Youngs Moduli (GPa) = 74.68659 49.82957 115.98728
#
# Poissons Ratio (x) = 0.09637 0.40734
# Poissons Ratio (y) = 0.14445 0.89237
# Poissons Ratio (z) = 0.26230 0.38338
#
# Static dielectric constant tensor:
#      x y z
#    x 1.588990 0.000000 0.000000 
#    y 0.000000 1.613390 0.000000 
#    z 0.000000 0.000000 1.668220 
# 
# From -- ./inp_files/6846.got.cif
#   From: 2010.05.17/outbox.cif.g08.bks.cpg/sg28_4_cif.got.tgz:6846.got - 2010.06.04 01:15:21.
