data_PCOD9339022
_publ_section_title
;
Structure prediction by ZEFSAII (Michael W. Deem and Ramdas Pophale) SiO2 
 PCOD9339022
Probable space group: P C C 2
;
_chemical_formula_sum "Si O2"
_cell_formula_units_Z 32
_cell_length_a 8.578082
_cell_length_b 12.030902
_cell_length_c 14.793166
_cell_angle_alpha 90.000000
_cell_angle_beta 90.000000
_cell_angle_gamma 90.000000
_cell_volume 1526.685263
_symmetry_space_group_name_H-M "P C C 2"
_symmetry_group_IT_number 27
_symmetry_cell_setting 'orthorhombic'
loop_
_space_group_symop_operation_xyz
x,y,z
-x,-y,z
-x,y,1/2+z
x,-y,1/2+z
loop_
_atom_site_type_symbol
_atom_site_label
_atom_site_fract_x
_atom_site_fract_y
_atom_site_fract_z
Si Si1 0.341785 0.655999 0.748020
Si Si2 0.151515 0.125061 0.198739
Si Si3 0.842776 0.443898 0.321249
Si Si4 0.538852 0.617681 0.901292
Si Si5 0.639612 0.084474 0.532858
Si Si6 0.549624 0.695910 0.582471
Si Si7 0.323703 0.043415 0.822882
Si Si8 0.180355 0.228237 0.702065
O O1 0.232649 0.756681 0.717717
O O2 0.238636 0.547854 0.769816
O O3 0.442196 0.697059 0.835158
O O4 0.466650 0.640482 0.668173
O O5 0.226790 0.075214 0.107685
O O6 0.970606 0.152385 0.186396
O O7 0.202956 0.046253 0.281664
O O8 0.725448 0.386729 0.394713
O O9 0.868701 0.343173 0.250985
O O10 0.000000 0.500000 0.359208
O O11 0.500000 0.500000 0.855979
O O12 0.452872 0.617516 0.996373
O O13 0.560294 0.204817 0.545260
O O14 0.692873 0.064057 0.430099
O O15 0.500000 0.000000 0.554016
O O16 0.715762 0.741263 0.615026
O O17 0.290316 0.155980 0.768037
O O18 0.500000 0.000000 0.806517
#
# Coordination Sequence:
#
# PCOD9339022 Si02
#       8
#     4   4   4   4   4   4   4   4
#     4  10  22  42  67  96 135 188 230 291 335 427
#     4  11  23  44  67 101 142 174 229 285 369 414
#     4  11  22  43  68  99 144 180 230 286 366 409
#     4  10  23  39  64  99 132 180 238 279 332 412
#     4  10  23  42  67  98 129 178 229 282 338 419
#     4  11  23  40  68  97 135 177 244 280 335 414
#     4  11  24  44  72  96 133 181 235 287 347 426
#     4  12  24  42  70  99 141 183 222 298 356 418
#
# _framework density 20.960445
#
# number of rings (size 3 to 8) (size 9 to 14) (size 15 to 20)
#    0.000    1.250    2.500    3.750    5.250    0.000 
#    2.250    8.125    0.000    0.000    0.000    0.000 
#    0.000    0.000    0.000    0.000    0.000    0.000 
#
# Total GULP energy -178561.742001 kJ/mol
# GULP energy per Si atom -5580.054438 kJ/mol
# Density = 2.091274 g / cm^3
# Si number density = 20.960445 Si / 1000 Ang^3
#
#
#
# Elastic Constant Matrix: (Units=GPa)
#
#
# Indices 1 2 3 4 5 6 
#
# 1 143.6627 30.7919 72.6400 0.0000 0.0000 0.0000
# 2 30.7919 80.8975 19.3344 0.0000 0.0000 0.0000
# 3 72.6400 19.3344 127.8197 0.0000 0.0000 0.0000
# 4 0.0000 0.0000 0.0000 22.7516 0.0000 0.0000
# 5 0.0000 0.0000 0.0000 0.0000 3.8189 0.0000
# 6 0.0000 0.0000 0.0000 0.0000 0.0000 40.0283
#
#
#
# Elastic Compliance Matrix: (Units=1/GPa)
#
#
# Indices 1 2 3 4 5 6 
#
# 1 0.010272 -0.002609 -0.005443 0.000000 0.000000 0.000000
# 2 -0.002609 0.013488 -0.000557 0.000000 0.000000 0.000000
# 3 -0.005443 -0.000557 0.011001 0.000000 0.000000 0.000000
# 4 0.000000 0.000000 0.000000 0.043953 0.000000 0.000000
# 5 0.000000 0.000000 0.000000 0.000000 0.261858 0.000000
# 6 0.000000 0.000000 0.000000 0.000000 0.000000 0.024982
#
#
# Mechanical properties :
#
#
# Convention : Reuss Voigt Hill
#
# Bulk Modulus (GPa) = 57.00646 66.43474 61.72060
# Shear Modulus (GPa) = 12.86603 28.62733 20.74668
#
# Velocity S-wave (km/s) = 2.48024 3.69965 3.14952
# Velocity P-wave (km/s) = 5.95469 7.07206 6.53729
#
# Compressibility (1/GPa) = 0.01754187
#
# Stress axis : x y z
#
# Youngs Moduli (GPa) = 97.35131 74.14213 90.89995
#
# Poissons Ratio (x) = 0.19344 0.49477
# Poissons Ratio (y) = 0.25399 0.05068
# Poissons Ratio (z) = 0.52988 0.04133
#
# Static dielectric constant tensor:
#      x y z
#    x 1.793200 0.000000 0.000000 
#    y 0.000000 1.860270 0.000000 
#    z 0.000000 0.000000 1.765660 
# 
# From -- ./inp_files/3456.got.cif
#   From: 2010.05.17/outbox.cif.g08.bks.cpg/sg27_2_cif.got.tgz:3456.got - 2010.06.04 01:11:05.
