data_PCOD9339185
_publ_section_title
;
Structure prediction by ZEFSAII (Michael W. Deem and Ramdas Pophale) SiO2 
 PCOD9339185
Probable space group: P C C 2
;
_chemical_formula_sum "Si O2"
_cell_formula_units_Z 14
_cell_length_a 5.378004
_cell_length_b 5.357017
_cell_length_c 19.361938
_cell_angle_alpha 90.000000
_cell_angle_beta 90.000000
_cell_angle_gamma 90.000000
_cell_volume 557.818573
_symmetry_space_group_name_H-M "P C C 2"
_symmetry_group_IT_number 27
_symmetry_cell_setting 'orthorhombic'
loop_
_space_group_symop_operation_xyz
x,y,z
-x,-y,z
-x,y,1/2+z
x,-y,1/2+z
loop_
_atom_site_type_symbol
_atom_site_label
_atom_site_fract_x
_atom_site_fract_y
_atom_site_fract_z
Si Si1 0.247112 0.144981 0.613670
Si Si2 0.500000 0.500000 0.020296
Si Si3 0.841255 0.240061 0.418682
Si Si4 0.749615 0.336291 0.266409
O O1 0.285309 0.398400 0.570859
O O2 0.244457 0.182461 0.696045
O O3 0.500000 0.000000 0.598303
O O4 0.000000 0.000000 0.594341
O O5 0.387464 0.293673 0.969078
O O6 0.754896 0.196962 0.339640
O O7 0.000000 0.500000 0.419577
O O8 0.000000 0.000000 0.439131
O O9 0.500000 0.500000 0.265008
O O10 0.000000 0.500000 0.264482
#
# Coordination Sequence:
#
# PCOD9339185 Si02
#       4
#     4   2   4   4
#     4  12  29  49  82 117 162 218 277 343 421 496
#     4  12  30  50  76 120 178 210 288 336 434 510
#     4  11  28  51  82 117 167 219 279 345 420 499
#     4  11  23  51  81 118 156 212 281 347 410 492
#
# _framework density 25.097769
#
# number of rings (size 3 to 8) (size 9 to 14) (size 15 to 20)
#    0.000    0.571    2.857    2.571    8.000    2.286 
#    0.000    0.000    0.000    0.000    0.000    0.000 
#    0.000    0.000    0.000    0.000    0.000    0.000 
#
# Total GULP energy -78561.706108 kJ/mol
# GULP energy per Si atom -5611.550436 kJ/mol
# Density = 2.504065 g / cm^3
# Si number density = 25.097769 Si / 1000 Ang^3
#
#
#
# Elastic Constant Matrix: (Units=GPa)
#
#
# Indices 1 2 3 4 5 6 
#
# 1 194.4367 64.9966 49.8583 0.0000 0.0000 0.0000
# 2 64.9966 109.8172 50.0306 0.0000 0.0000 0.0000
# 3 49.8583 50.0306 226.0849 0.0000 0.0000 0.0000
# 4 0.0000 0.0000 0.0000 -40.0800 0.0000 0.0000
# 5 0.0000 0.0000 0.0000 0.0000 57.6181 0.0000
# 6 0.0000 0.0000 0.0000 0.0000 0.0000 66.9826
#
#
#
# Elastic Compliance Matrix: (Units=1/GPa)
#
#
# Indices 1 2 3 4 5 6 
#
# 1 0.006496 -0.003550 -0.000647 0.000000 0.000000 0.000000
# 2 -0.003550 0.012067 -0.001887 0.000000 0.000000 0.000000
# 3 -0.000647 -0.001887 0.004983 0.000000 0.000000 0.000000
# 4 0.000000 0.000000 0.000000 -0.024950 0.000000 0.000000
# 5 0.000000 0.000000 0.000000 0.000000 0.017356 0.000000
# 6 0.000000 0.000000 0.000000 0.000000 0.000000 0.014929
#
#
# Mechanical properties :
#
#
# Convention : Reuss Voigt Hill
#
# Bulk Modulus (GPa) = 87.89186 95.56776 91.72981
# Shear Modulus (GPa) = 106.74278 41.26771 74.00525
#
# Velocity S-wave (km/s) = 6.52864 4.05937 5.43606
# Velocity P-wave (km/s) = 9.58784 7.75449 8.71948
#
# Compressibility (1/GPa) = 0.01137762
#
# Stress axis : x y z
#
# Youngs Moduli (GPa) = 153.95117 82.87133 200.66355
#
# Poissons Ratio (x) = 0.29417 0.12982
# Poissons Ratio (y) = 0.54649 0.37875
# Poissons Ratio (z) = 0.09960 0.15642
#
# Static dielectric constant tensor:
#      x y z
#    x 1.902940 0.000000 0.000000 
#    y 0.000000 2.211850 0.000000 
#    z 0.000000 0.000000 1.957360 
# 
# From -- ./inp_files/3825.got.cif
#   From: 2010.05.17/outbox.cif.g08.bks.cpg/sg27_2_cif.got.tgz:3825.got - 2010.06.04 01:11:05.
