data_PCOD9339602
_publ_section_title
;
Structure prediction by ZEFSAII (Michael W. Deem and Ramdas Pophale) SiO2 
 PCOD9339602
Probable space group: P M A 2
;
_chemical_formula_sum "Si O2"
_cell_formula_units_Z 32
_cell_length_a 8.593302
_cell_length_b 14.616867
_cell_length_c 16.188756
_cell_angle_alpha 90.000000
_cell_angle_beta 90.000000
_cell_angle_gamma 90.000000
_cell_volume 2033.423542
_symmetry_space_group_name_H-M "P M A 2"
_symmetry_group_IT_number 28
_symmetry_cell_setting 'orthorhombic'
loop_
_space_group_symop_operation_xyz
x,y,z
-x,-y,z
1/2-x,y,z
1/2+x,-y,z
loop_
_atom_site_type_symbol
_atom_site_label
_atom_site_fract_x
_atom_site_fract_y
_atom_site_fract_z
Si Si1 0.063050 0.786797 0.448740
Si Si2 0.563050 0.213203 0.133788
Si Si3 0.436287 0.400777 0.194292
Si Si4 0.063998 0.102915 0.291264
Si Si5 0.561810 0.103585 0.610671
Si Si6 0.561810 0.103585 0.971857
Si Si7 0.562358 0.103548 0.791264
Si Si8 0.936287 0.599223 0.388236
O O1 0.250000 0.789354 0.444465
O O2 0.011843 0.833909 0.534287
O O3 0.995565 0.844145 0.372137
O O4 0.006099 0.683072 0.438963
O O5 0.750000 0.210646 0.138063
O O6 0.506099 0.316928 0.143565
O O7 0.495565 0.155855 0.210391
O O8 0.511843 0.166091 0.048241
O O9 0.500000 0.500000 0.169312
O O10 0.250000 0.399821 0.189062
O O11 0.479512 0.387281 0.291264
O O12 0.250000 0.101966 0.291264
O O13 0.000000 0.000000 0.291264
O O14 0.750000 0.099300 0.609262
O O15 0.513190 0.140837 0.701493
O O16 0.500000 0.000000 0.601202
O O17 0.750000 0.099300 0.973266
O O18 0.500000 0.000000 0.981326
O O19 0.513190 0.140837 0.881035
O O20 0.750000 0.102891 0.791264
O O21 0.500000 0.000000 0.791264
O O22 0.750000 0.600179 0.393465
O O23 0.000000 0.500000 0.413216
#
# Coordination Sequence:
#
# PCOD9339602 Si02
#       8
#     4   4   4   4   4   4   4   4
#     4  11  21  33  49  71  97 127 161 197 237 283
#     4  11  21  33  49  71  97 127 161 197 237 283
#     4  10  20  34  52  72  94 123 158 198 243 284
#     4  12  24  36  47  64  93 132 168 198 234 276
#     4   9  18  30  47  70  96 128 161 196 236 278
#     4   9  18  30  47  70  96 128 161 196 236 278
#     4   8  14  28  46  66  93 122 157 196 235 278
#     4  10  20  34  52  72  94 123 158 198 243 284
#
# _framework density 15.737007
#
# number of rings (size 3 to 8) (size 9 to 14) (size 15 to 20)
#    0.000    2.000    1.250    3.375    0.000    5.000 
#    0.000    0.000    0.000    0.000    0.000    0.875 
#    0.000    0.000    0.000    0.000    0.000    0.000 
#
# Total GULP energy -178471.259406 kJ/mol
# GULP energy per Si atom -5577.226856 kJ/mol
# Density = 1.570119 g / cm^3
# Si number density = 15.737007 Si / 1000 Ang^3
#
#
#
# Elastic Constant Matrix: (Units=GPa)
#
#
# Indices 1 2 3 4 5 6 
#
# 1 41.0989 30.9680 34.2988 0.0000 0.0000 0.0000
# 2 30.9680 120.6402 80.4419 0.0000 0.0000 0.0000
# 3 34.2988 80.4419 160.8928 0.0000 0.0000 0.0000
# 4 0.0000 0.0000 0.0000 3.0933 0.0000 0.0000
# 5 0.0000 0.0000 0.0000 0.0000 7.7176 0.0000
# 6 0.0000 0.0000 0.0000 0.0000 0.0000 27.5634
#
#
#
# Elastic Compliance Matrix: (Units=1/GPa)
#
#
# Indices 1 2 3 4 5 6 
#
# 1 0.031835 -0.005470 -0.004051 0.000000 0.000000 0.000000
# 2 -0.005470 0.013375 -0.005521 0.000000 0.000000 0.000000
# 3 -0.004051 -0.005521 0.009839 0.000000 0.000000 0.000000
# 4 0.000000 0.000000 0.000000 0.323284 0.000000 0.000000
# 5 0.000000 0.000000 0.000000 0.000000 0.129574 0.000000
# 6 0.000000 0.000000 0.000000 0.000000 0.000000 0.036280
#
#
# Mechanical properties :
#
#
# Convention : Reuss Voigt Hill
#
# Bulk Modulus (GPa) = 40.05886 68.22769 54.14327
# Shear Modulus (GPa) = 8.58233 19.46973 14.02603
#
# Velocity S-wave (km/s) = 2.33783 3.52119 2.98866
# Velocity P-wave (km/s) = 5.72693 7.74473 6.81096
#
# Compressibility (1/GPa) = 0.02496327
#
# Stress axis : x y z
#
# Youngs Moduli (GPa) = 31.41239 74.76897 101.63443
#
# Poissons Ratio (x) = 0.40902 0.41176
# Poissons Ratio (y) = 0.17184 0.56110
# Poissons Ratio (z) = 0.12726 0.41278
#
# Static dielectric constant tensor:
#      x y z
#    x 1.527190 0.000000 0.000000 
#    y 0.000000 1.492610 0.000000 
#    z 0.000000 0.000000 1.553040 
# 
# From -- ./inp_files/6391.got.cif
#   From: 2010.05.17/outbox.cif.g08.bks.cpg/sg28_4_cif.got.tgz:6391.got - 2010.06.04 01:15:21.
