data_PCOD9339794
_publ_section_title
;
Structure prediction by ZEFSAII (Michael W. Deem and Ramdas Pophale) SiO2 
 PCOD9339794
Probable space group: P M A 2
;
_chemical_formula_sum "Si O2"
_cell_formula_units_Z 32
_cell_length_a 15.528287
_cell_length_b 8.757972
_cell_length_c 12.415730
_cell_angle_alpha 90.000000
_cell_angle_beta 90.000000
_cell_angle_gamma 90.000000
_cell_volume 1688.493376
_symmetry_space_group_name_H-M "P M A 2"
_symmetry_group_IT_number 28
_symmetry_cell_setting 'orthorhombic'
loop_
_space_group_symop_operation_xyz
x,y,z
-x,-y,z
1/2-x,y,z
1/2+x,-y,z
loop_
_atom_site_type_symbol
_atom_site_label
_atom_site_fract_x
_atom_site_fract_y
_atom_site_fract_z
Si Si1 0.353443 0.663314 0.384620
Si Si2 0.148334 0.174142 0.610885
Si Si3 0.351043 0.811682 0.610644
Si Si4 0.346622 0.297290 0.145881
Si Si5 0.498601 0.318648 0.756832
Si Si6 0.494684 0.181449 0.994614
Si Si7 0.854060 0.690458 0.385379
Si Si8 0.917165 0.387293 0.160313
O O1 0.250000 0.670477 0.369996
O O2 0.374392 0.764378 0.488166
O O3 0.378116 0.486081 0.405489
O O4 0.398339 0.699230 0.271528
O O5 0.250000 0.216648 0.622901
O O6 0.085325 0.263540 0.690497
O O7 0.120682 0.212018 0.488298
O O8 0.141317 0.992977 0.626845
O O9 0.250000 0.768864 0.626371
O O10 0.416722 0.730197 0.690471
O O11 0.250000 0.238485 0.135911
O O12 0.407060 0.233953 0.053332
O O13 0.382180 0.259407 0.266112
O O14 0.345729 0.482505 0.141997
O O15 0.500000 0.500000 0.770543
O O16 0.497899 0.238416 0.872679
O O17 0.567173 0.270129 0.064209
O O18 0.500000 0.000000 0.000045
O O19 0.750000 0.693937 0.379766
O O20 0.000000 0.500000 0.169176
#
# Coordination Sequence:
#
# PCOD9339794 Si02
#       8
#     4   4   4   4   4   4   4   4
#     4   9  17  32  55  84 117 149 187 231 274 329
#     4  10  21  38  61  89 121 152 185 232 289 344
#     4  10  22  39  59  87 121 152 186 234 289 343
#     4   9  18  36  61  85 113 150 191 231 274 330
#     4  12  25  42  63  82 108 151 199 243 284 335
#     4  11  24  41  57  80 115 148 186 237 288 339
#     4   8  15  30  54  85 118 151 186 226 274 333
#     4   9  18  34  56  82 112 149 189 230 276 329
#
# _framework density 18.951805
#
# number of rings (size 3 to 8) (size 9 to 14) (size 15 to 20)
#    0.000    2.250    0.000    4.125    0.000    6.500 
#    0.000    5.625    0.000    0.000    0.000    0.000 
#    0.000    0.000    0.000    0.000    0.000    0.000 
#
# Total GULP energy -178543.252933 kJ/mol
# GULP energy per Si atom -5579.476654 kJ/mol
# Density = 1.890867 g / cm^3
# Si number density = 18.951805 Si / 1000 Ang^3
#
#
#
# Elastic Constant Matrix: (Units=GPa)
#
#
# Indices 1 2 3 4 5 6 
#
# 1 66.7764 31.6277 49.9851 0.0000 0.0000 0.0000
# 2 31.6277 76.1615 57.2588 0.0000 0.0000 0.0000
# 3 49.9851 57.2588 153.1094 0.0000 0.0000 0.0000
# 4 0.0000 0.0000 0.0000 -151.7327 0.0000 0.0000
# 5 0.0000 0.0000 0.0000 0.0000 -17.5796 0.0000
# 6 0.0000 0.0000 0.0000 0.0000 0.0000 21.2073
#
#
#
# Elastic Compliance Matrix: (Units=1/GPa)
#
#
# Indices 1 2 3 4 5 6 
#
# 1 0.021096 -0.004984 -0.005023 0.000000 0.000000 0.000000
# 2 -0.004984 0.019443 -0.005644 0.000000 0.000000 0.000000
# 3 -0.005023 -0.005644 0.010282 0.000000 0.000000 0.000000
# 4 0.000000 0.000000 0.000000 -0.006591 0.000000 0.000000
# 5 0.000000 0.000000 0.000000 0.000000 -0.056884 0.000000
# 6 0.000000 0.000000 0.000000 0.000000 0.000000 0.047154
#
#
# Mechanical properties :
#
#
# Convention : Reuss Voigt Hill
#
# Bulk Modulus (GPa) = 51.23402 63.75450 57.49426
# Shear Modulus (GPa) = 69.14811 -19.14260 25.00275
#
# Velocity S-wave (km/s) = 6.04694 -3.18160 3.63613
# Velocity P-wave (km/s) = 8.70899 4.49628 6.93048
#
# Compressibility (1/GPa) = 0.01951828
#
# Stress axis : x y z
#
# Youngs Moduli (GPa) = 47.40203 51.43252 97.25815
#
# Poissons Ratio (x) = 0.25634 0.48855
# Poissons Ratio (y) = 0.23626 0.54893
# Poissons Ratio (z) = 0.23811 0.29029
#
# Static dielectric constant tensor:
#      x y z
#    x 1.702400 0.000000 0.000000 
#    y 0.000000 1.643180 0.000000 
#    z 0.000000 0.000000 1.645850 
# 
# From -- ./inp_files/5584.got.cif
#   From: 2010.05.17/outbox.cif.g08.bks.cpg/sg28_3_cif.got.tgz:5584.got - 2010.06.04 01:15:21.
