data_PCOD9339225
_publ_section_title
;
Structure prediction by ZEFSAII (Michael W. Deem and Ramdas Pophale) SiO2 
 PCOD9339225
Probable space group: P C C 2
;
_chemical_formula_sum "Si O2"
_cell_formula_units_Z 16
_cell_length_a 12.570292
_cell_length_b 4.918131
_cell_length_c 9.642734
_cell_angle_alpha 90.000000
_cell_angle_beta 90.000000
_cell_angle_gamma 90.000000
_cell_volume 596.136407
_symmetry_space_group_name_H-M "P C C 2"
_symmetry_group_IT_number 27
_symmetry_cell_setting 'orthorhombic'
loop_
_space_group_symop_operation_xyz
x,y,z
-x,-y,z
-x,y,1/2+z
x,-y,1/2+z
loop_
_atom_site_type_symbol
_atom_site_label
_atom_site_fract_x
_atom_site_fract_y
_atom_site_fract_z
Si Si1 0.318343 0.852108 0.316130
Si Si2 0.000000 0.500000 0.915500
Si Si3 0.500000 0.500000 0.454893
Si Si4 0.500000 0.000000 0.149255
Si Si5 0.000000 0.000000 0.721139
Si Si6 0.818343 0.852109 0.554263
O O1 0.397537 0.622565 0.375831
O O2 0.400422 0.065867 0.246308
O O3 0.250000 0.751441 0.185197
O O4 0.250000 0.000000 0.435196
O O5 0.969059 0.749416 0.816403
O O6 0.897537 0.377434 0.994561
O O7 0.530941 0.749416 0.553990
O O8 0.900422 0.065868 0.624087
#
# Coordination Sequence:
#
# PCOD9339225 Si02
#       6
#     4   2   2   2   2   4
#     4  12  28  59  95 137 188 252 307 389 478 548
#     4  12  28  58  90 138 186 240 320 382 460 578
#     4  12  28  58  90 138 186 240 320 382 460 578
#     4  12  28  58  86 138 186 236 318 390 448 580
#     4  12  28  58  86 138 186 236 318 390 448 580
#     4  12  28  59  95 137 188 252 307 389 478 548
#
# _framework density 26.839493999999998
#
# number of rings (size 3 to 8) (size 9 to 14) (size 15 to 20)
#    0.000    0.000    5.000    3.000    0.000    2.000 
#    9.000    0.000    0.000    0.000    0.000    0.000 
#    0.000    0.000    0.000    0.000    0.000    0.000 
#
# Total GULP energy -89781.953646 kJ/mol
# GULP energy per Si atom -5611.372103 kJ/mol
# Density = 2.677841 g / cm^3
# Si number density = 26.839494 Si / 1000 Ang^3
#
#
#
# Elastic Constant Matrix: (Units=GPa)
#
#
# Indices 1 2 3 4 5 6 
#
# 1 238.4889 87.5384 155.1971 0.0000 0.0000 0.0000
# 2 87.5384 175.4052 103.4213 0.0000 0.0000 0.0000
# 3 155.1971 103.4213 247.7993 0.0000 0.0000 0.0000
# 4 0.0000 0.0000 0.0000 23.8257 0.0000 0.0000
# 5 0.0000 0.0000 0.0000 0.0000 79.6413 0.0000
# 6 0.0000 0.0000 0.0000 0.0000 0.0000 55.0255
#
#
#
# Elastic Compliance Matrix: (Units=1/GPa)
#
#
# Indices 1 2 3 4 5 6 
#
# 1 0.007280 -0.001253 -0.004036 0.000000 0.000000 0.000000
# 2 -0.001253 0.007778 -0.002461 0.000000 0.000000 0.000000
# 3 -0.004036 -0.002461 0.007591 0.000000 0.000000 0.000000
# 4 0.000000 0.000000 0.000000 0.041971 0.000000 0.000000
# 5 0.000000 0.000000 0.000000 0.000000 0.012556 0.000000
# 6 0.000000 0.000000 0.000000 0.000000 0.000000 0.018173
#
#
# Mechanical properties :
#
#
# Convention : Reuss Voigt Hill
#
# Bulk Modulus (GPa) = 139.92483 150.44524 145.18503
# Shear Modulus (GPa) = 44.15692 52.73427 48.44559
#
# Velocity S-wave (km/s) = 4.06053 4.43742 4.25315
# Velocity P-wave (km/s) = 8.61574 9.07907 8.85044
#
# Compressibility (1/GPa) = 0.00714669
#
# Stress axis : x y z
#
# Youngs Moduli (GPa) = 137.36953 128.57317 131.74156
#
# Poissons Ratio (x) = 0.16113 0.53174
# Poissons Ratio (y) = 0.17215 0.32424
# Poissons Ratio (z) = 0.55445 0.31644
#
# Static dielectric constant tensor:
#      x y z
#    x 2.154370 0.000000 0.000000 
#    y 0.000000 2.060870 0.000000 
#    z 0.000000 0.000000 2.137850 
# 
# From -- ./inp_files/1537.got.cif
#   From: 2010.05.17/outbox.cif.g08.bks.cpg/sg27_1_cif.got.tgz:1537.got - 2010.06.04 01:11:05.
