data_PCOD9339807
_publ_section_title
;
Structure prediction by ZEFSAII (Michael W. Deem and Ramdas Pophale) SiO2 
 PCOD9339807
Probable space group: P M A 2
;
_chemical_formula_sum "Si O2"
_cell_formula_units_Z 32
_cell_length_a 8.570463
_cell_length_b 14.974740
_cell_length_c 12.599777
_cell_angle_alpha 90.000000
_cell_angle_beta 90.000000
_cell_angle_gamma 90.000000
_cell_volume 1617.061114
_symmetry_space_group_name_H-M "P M A 2"
_symmetry_group_IT_number 28
_symmetry_cell_setting 'orthorhombic'
loop_
_space_group_symop_operation_xyz
x,y,z
-x,-y,z
1/2-x,y,z
1/2+x,-y,z
loop_
_atom_site_type_symbol
_atom_site_label
_atom_site_fract_x
_atom_site_fract_y
_atom_site_fract_z
Si Si1 0.067615 0.633284 0.305700
Si Si2 0.434823 0.405688 0.534265
Si Si3 0.434749 0.911511 0.170810
Si Si4 0.567661 0.819935 0.358743
Si Si5 0.561923 0.101209 0.793855
Si Si6 0.065133 0.407091 0.072674
Si Si7 0.437187 0.788572 0.582555
Si Si8 0.063127 0.772762 0.987598
O O1 0.250000 0.611469 0.315680
O O2 0.976381 0.597161 0.408382
O O3 0.039156 0.739028 0.316333
O O4 0.006096 0.604240 0.191205
O O5 0.500000 0.500000 0.576157
O O6 0.250000 0.401805 0.547321
O O7 0.509625 0.315500 0.583160
O O8 0.250000 0.917783 0.188335
O O9 0.528086 0.899630 0.279989
O O10 0.466095 0.827998 0.094975
O O11 0.500000 0.000000 0.115684
O O12 0.750000 0.795819 0.352044
O O13 0.519184 0.832068 0.480107
O O14 0.750000 0.095922 0.799675
O O15 0.521344 0.154768 0.686412
O O16 0.500000 0.000000 0.796672
O O17 0.509588 0.164137 0.891363
O O18 0.250000 0.410669 0.082600
O O19 0.000000 0.500000 0.028719
O O20 0.015553 0.322909 0.001712
O O21 0.250000 0.789985 0.569014
O O22 0.250000 0.759752 0.977647
#
# Coordination Sequence:
#
# PCOD9339807 Si02
#       8
#     4   4   4   4   4   4   4   4
#     4  11  20  34  55  83 121 163 204 248 296 354
#     4  11  21  35  56  86 122 162 206 250 300 361
#     4  11  22  36  58  86 121 159 198 244 303 367
#     4  11  21  35  56  85 122 161 203 246 302 363
#     4  10  23  43  69  95 120 155 202 255 307 364
#     4  12  24  38  59  88 122 163 206 249 300 359
#     4  10  21  39  61  88 122 159 203 253 306 358
#     4  10  22  42  64  89 122 158 199 252 307 359
#
# _framework density 19.788986000000001
#
# number of rings (size 3 to 8) (size 9 to 14) (size 15 to 20)
#    0.000    1.250    1.250    7.500    0.000    2.500 
#    0.000    1.875    0.000    0.000    0.000    0.000 
#    0.000    0.000    0.000    0.000    0.000    0.000 
#
# Total GULP energy -178817.172205 kJ/mol
# GULP energy per Si atom -5588.036631 kJ/mol
# Density = 1.974395 g / cm^3
# Si number density = 19.788986 Si / 1000 Ang^3
#
#
#
# Elastic Constant Matrix: (Units=GPa)
#
#
# Indices 1 2 3 4 5 6 
#
# 1 78.0053 32.6611 30.6770 0.0000 0.0000 0.0000
# 2 32.6611 129.4687 52.3858 0.0000 0.0000 0.0000
# 3 30.6770 52.3858 96.4827 0.0000 0.0000 0.0000
# 4 0.0000 0.0000 0.0000 10.4374 0.0000 0.0000
# 5 0.0000 0.0000 0.0000 0.0000 17.5018 0.0000
# 6 0.0000 0.0000 0.0000 0.0000 0.0000 35.2782
#
#
#
# Elastic Compliance Matrix: (Units=1/GPa)
#
#
# Indices 1 2 3 4 5 6 
#
# 1 0.015217 -0.002411 -0.003529 0.000000 0.000000 0.000000
# 2 -0.002411 0.010280 -0.004815 0.000000 0.000000 0.000000
# 3 -0.003529 -0.004815 0.014101 0.000000 0.000000 0.000000
# 4 0.000000 0.000000 0.000000 0.095810 0.000000 0.000000
# 5 0.000000 0.000000 0.000000 0.000000 0.057137 0.000000
# 6 0.000000 0.000000 0.000000 0.000000 0.000000 0.028346
#
#
# Mechanical properties :
#
#
# Convention : Reuss Voigt Hill
#
# Bulk Modulus (GPa) = 55.28583 59.48938 57.38761
# Shear Modulus (GPa) = 20.12627 25.19234 22.65930
#
# Velocity S-wave (km/s) = 3.19257 3.57185 3.38752
# Velocity P-wave (km/s) = 6.44890 6.86571 6.66057
#
# Compressibility (1/GPa) = 0.01808782
#
# Stress axis : x y z
#
# Youngs Moduli (GPa) = 65.71589 97.27247 70.91589
#
# Poissons Ratio (x) = 0.23450 0.25029
# Poissons Ratio (y) = 0.15842 0.34148
# Poissons Ratio (z) = 0.23194 0.46840
#
# Static dielectric constant tensor:
#      x y z
#    x 1.664330 0.000000 0.000000 
#    y 0.000000 1.753920 0.000000 
#    z 0.000000 0.000000 1.691330 
# 
# From -- ./inp_files/5081.got.cif
#   From: 2010.05.17/outbox.cif.g08.bks.cpg/sg28_3_cif.got.tgz:5081.got - 2010.06.04 01:15:21.
