data_PCOD9339233
_publ_section_title
;
Structure prediction by ZEFSAII (Michael W. Deem and Ramdas Pophale) SiO2 
 PCOD9339233
Probable space group: P M A 2
;
_chemical_formula_sum "Si O2"
_cell_formula_units_Z 32
_cell_length_a 8.624497
_cell_length_b 22.389241
_cell_length_c 7.487192
_cell_angle_alpha 90.000000
_cell_angle_beta 90.000000
_cell_angle_gamma 90.000000
_cell_volume 1445.746391
_symmetry_space_group_name_H-M "P M A 2"
_symmetry_group_IT_number 28
_symmetry_cell_setting 'orthorhombic'
loop_
_space_group_symop_operation_xyz
x,y,z
-x,-y,z
1/2-x,y,z
1/2+x,-y,z
loop_
_atom_site_type_symbol
_atom_site_label
_atom_site_fract_x
_atom_site_fract_y
_atom_site_fract_z
Si Si1 0.065679 0.684768 0.305820
Si Si2 0.427858 0.188475 0.731514
Si Si3 0.437933 0.315855 0.713102
Si Si4 0.575062 0.938939 0.229471
Si Si5 0.435302 0.438412 0.305275
Si Si6 0.424899 0.060621 0.802134
Si Si7 0.564759 0.438445 0.713867
Si Si8 0.571863 0.808970 0.302629
O O1 0.250000 0.679661 0.301713
O O2 0.991019 0.624682 0.224899
O O3 0.005802 0.684822 0.511709
O O4 0.011960 0.749394 0.234975
O O5 0.250000 0.184325 0.799631
O O6 0.489495 0.252463 0.796763
O O7 0.504563 0.124662 0.769182
O O8 0.422455 0.193722 0.517479
O O9 0.250000 0.316637 0.704804
O O10 0.499748 0.377144 0.795867
O O11 0.750000 0.935105 0.301074
O O12 0.500439 0.873998 0.261839
O O13 0.500000 0.000000 0.298025
O O14 0.583164 0.944878 0.015784
O O15 0.500000 0.500000 0.223570
O O16 0.750000 0.438522 0.713715
O O17 0.502792 0.438116 0.508424
O O18 0.250000 0.063839 0.729989
O O19 0.500000 0.000000 0.732604
O O20 0.500000 0.500000 0.793494
O O21 0.250000 0.440234 0.312298
O O22 0.750000 0.807968 0.236159
#
# Coordination Sequence:
#
# PCOD9339233 Si02
#       8
#     4   4   4   4   4   4   4   4
#     4  10  17  25  37  56  80 108 140 178 216 255
#     4   8  15  27  44  61  83 111 142 172 209 253
#     4   9  15  25  38  53  76 109 141 174 213 256
#     4   9  18  31  48  65  86 111 141 174 212 254
#     4  10  16  23  34  50  75 109 145 179 212 254
#     4   9  17  31  47  65  85 111 140 173 210 253
#     4  10  16  22  32  49  74 106 142 178 211 252
#     4   9  17  30  44  61  84 115 144 174 212 257
#
# _framework density 22.133894999999999
#
# number of rings (size 3 to 8) (size 9 to 14) (size 15 to 20)
#    0.000    2.750    0.000    6.750    0.000    1.000 
#    0.000    3.125    0.000    0.000    0.000    0.000 
#    0.000    1.000    0.000    5.500    0.000    3.625 
#
# Total GULP energy -178349.105046 kJ/mol
# GULP energy per Si atom -5573.409533 kJ/mol
# Density = 2.208352 g / cm^3
# Si number density = 22.133895 Si / 1000 Ang^3
#
#
#
# Elastic Constant Matrix: (Units=GPa)
#
#
# Indices 1 2 3 4 5 6 
#
# 1 117.5375 79.3833 2.6879 0.0000 0.0000 0.0000
# 2 79.3833 304.2284 8.7894 0.0000 0.0000 0.0000
# 3 2.6879 8.7894 58.5473 0.0000 0.0000 0.0000
# 4 0.0000 0.0000 0.0000 54.6576 0.0000 0.0000
# 5 0.0000 0.0000 0.0000 0.0000 -10.7457 0.0000
# 6 0.0000 0.0000 0.0000 0.0000 0.0000 39.5272
#
#
#
# Elastic Compliance Matrix: (Units=1/GPa)
#
#
# Indices 1 2 3 4 5 6 
#
# 1 0.010328 -0.002693 -0.000070 0.000000 0.000000 0.000000
# 2 -0.002693 0.004003 -0.000477 0.000000 0.000000 0.000000
# 3 -0.000070 -0.000477 0.017155 0.000000 0.000000 0.000000
# 4 0.000000 0.000000 0.000000 0.018296 0.000000 0.000000
# 5 0.000000 0.000000 0.000000 0.000000 -0.093061 0.000000
# 6 0.000000 0.000000 0.000000 0.000000 0.000000 0.025299
#
#
# Mechanical properties :
#
#
# Convention : Reuss Voigt Hill
#
# Bulk Modulus (GPa) = 39.98978 73.55937 56.77457
# Shear Modulus (GPa) = -1580.69712 42.65135 -769.02289
#
# Velocity S-wave (km/s) = -26.75262 4.39449 -18.66000
# Velocity P-wave (km/s) = 30.59679 7.68470 20.94169
#
# Compressibility (1/GPa) = 0.02500639
#
# Stress axis : x y z
#
# Youngs Moduli (GPa) = 96.82113 249.78244 58.29171
#
# Poissons Ratio (x) = 0.67266 0.00407
# Poissons Ratio (y) = 0.26074 0.02783
# Poissons Ratio (z) = 0.00677 0.11924
#
# Static dielectric constant tensor:
#      x y z
#    x 1.774090 0.000000 0.000000 
#    y 0.000000 1.934150 0.000000 
#    z 0.000000 0.000000 1.838210 
# 
# From -- ./inp_files/5229.got.cif
#   From: 2010.05.17/outbox.cif.g08.bks.cpg/sg28_3_cif.got.tgz:5229.got - 2010.06.04 01:15:21.
