data_PCOD9339372
_publ_section_title
;
Structure prediction by ZEFSAII (Michael W. Deem and Ramdas Pophale) SiO2 
 PCOD9339372
Probable space group: P M A 2
;
_chemical_formula_sum "Si O2"
_cell_formula_units_Z 32
_cell_length_a 8.629463
_cell_length_b 14.620142
_cell_length_c 13.973666
_cell_angle_alpha 90.000000
_cell_angle_beta 90.000000
_cell_angle_gamma 90.000000
_cell_volume 1762.973240
_symmetry_space_group_name_H-M "P M A 2"
_symmetry_group_IT_number 28
_symmetry_cell_setting 'orthorhombic'
loop_
_space_group_symop_operation_xyz
x,y,z
-x,-y,z
1/2-x,y,z
1/2+x,-y,z
loop_
_atom_site_type_symbol
_atom_site_label
_atom_site_fract_x
_atom_site_fract_y
_atom_site_fract_z
Si Si1 0.063384 0.748227 0.309250
Si Si2 0.935290 0.600760 0.936302
Si Si3 0.564806 0.897154 0.439788
Si Si4 0.569583 0.749039 0.783451
Si Si5 0.927889 0.404110 0.668008
Si Si6 0.924609 0.406937 0.440134
Si Si7 0.935111 0.102826 0.645967
Si Si8 0.435420 0.398366 0.162050
O O1 0.250000 0.759299 0.306440
O O2 0.005123 0.682581 0.395501
O O3 0.991353 0.843245 0.345042
O O4 0.009115 0.687472 0.218792
O O5 0.750000 0.596632 0.922196
O O6 0.989925 0.689135 0.874781
O O7 0.000000 0.500000 0.910087
O O8 0.967527 0.613537 0.048776
O O9 0.750000 0.897072 0.445148
O O10 0.499354 0.861035 0.542954
O O11 0.500000 0.000000 0.434012
O O12 0.750000 0.770940 0.798396
O O13 0.542704 0.673826 0.701576
O O14 0.485329 0.836694 0.737706
O O15 0.750000 0.391348 0.701991
O O16 0.923721 0.403784 0.553716
O O17 0.000000 0.500000 0.698680
O O18 0.750000 0.409168 0.404484
O O19 0.000000 0.500000 0.408472
O O20 0.750000 0.101863 0.639374
O O21 0.000000 0.000000 0.656553
O O22 0.500000 0.500000 0.187863
O O23 0.250000 0.398490 0.177035
#
# Coordination Sequence:
#
# PCOD9339372 Si02
#       8
#     4   4   4   4   4   4   4   4
#     4  11  21  34  53  79 107 139 179 224 269 321
#     4   9  20  36  55  78 109 144 183 228 274 323
#     4  11  22  38  59  83 111 145 181 223 269 320
#     4  11  21  34  53  78 104 137 179 224 271 323
#     4  10  19  31  45  67 100 138 173 211 256 310
#     4   9  19  31  44  64  97 134 168 204 248 301
#     4  11  22  38  58  82 111 144 180 223 269 321
#     4  10  20  36  55  79 109 145 185 229 276 325
#
# _framework density 18.151154999999999
#
# number of rings (size 3 to 8) (size 9 to 14) (size 15 to 20)
#    0.000    1.750    0.000    6.000    0.000    6.000 
#    0.000    0.000    0.000    0.750    0.000    3.500 
#    0.000    0.000    0.000    0.000    0.000    0.000 
#
# Total GULP energy -178335.111618 kJ/mol
# GULP energy per Si atom -5572.972238 kJ/mol
# Density = 1.810984 g / cm^3
# Si number density = 18.151155 Si / 1000 Ang^3
#
#
#
# Elastic Constant Matrix: (Units=GPa)
#
#
# Indices 1 2 3 4 5 6 
#
# 1 82.1862 26.5514 49.2213 0.0000 0.0000 0.0000
# 2 26.5514 88.4149 52.5036 0.0000 0.0000 0.0000
# 3 49.2213 52.5036 96.8469 0.0000 0.0000 0.0000
# 4 0.0000 0.0000 0.0000 34.8504 0.0000 0.0000
# 5 0.0000 0.0000 0.0000 0.0000 34.4889 0.0000
# 6 0.0000 0.0000 0.0000 0.0000 0.0000 30.7927
#
#
#
# Elastic Compliance Matrix: (Units=1/GPa)
#
#
# Indices 1 2 3 4 5 6 
#
# 1 0.017492 0.000039 -0.008911 0.000000 0.000000 0.000000
# 2 0.000039 0.016680 -0.009063 0.000000 0.000000 0.000000
# 3 -0.008911 -0.009063 0.019768 0.000000 0.000000 0.000000
# 4 0.000000 0.000000 0.000000 0.028694 0.000000 0.000000
# 5 0.000000 0.000000 0.000000 0.000000 0.028995 0.000000
# 6 0.000000 0.000000 0.000000 0.000000 0.000000 0.032475
#
#
# Mechanical properties :
#
#
# Convention : Reuss Voigt Hill
#
# Bulk Modulus (GPa) = 55.34028 58.22229 56.78129
# Shear Modulus (GPa) = 26.88218 29.30452 28.09335
#
# Velocity S-wave (km/s) = 3.85257 4.02241 3.93841
# Velocity P-wave (km/s) = 7.09539 7.32933 7.21330
#
# Compressibility (1/GPa) = 0.01807002
#
# Stress axis : x y z
#
# Youngs Moduli (GPa) = 57.16976 59.95080 50.58780
#
# Poissons Ratio (x) = -0.00233 0.45079
# Poissons Ratio (y) = -0.00222 0.45846
# Poissons Ratio (z) = 0.50944 0.54331
#
# Static dielectric constant tensor:
#      x y z
#    x 1.627150 0.000000 0.000000 
#    y 0.000000 1.663400 0.000000 
#    z 0.000000 0.000000 1.656040 
# 
# From -- ./inp_files/6427.got.cif
#   From: 2010.05.17/outbox.cif.g08.bks.cpg/sg28_4_cif.got.tgz:6427.got - 2010.06.04 01:15:21.
