data_PCOD9339374
_publ_section_title
;
Structure prediction by ZEFSAII (Michael W. Deem and Ramdas Pophale) SiO2 
 PCOD9339374
Probable space group: P M A 2
;
_chemical_formula_sum "Si O2"
_cell_formula_units_Z 28
_cell_length_a 8.990051
_cell_length_b 15.534323
_cell_length_c 12.981175
_cell_angle_alpha 90.000000
_cell_angle_beta 90.000000
_cell_angle_gamma 90.000000
_cell_volume 1812.877635
_symmetry_space_group_name_H-M "P M A 2"
_symmetry_group_IT_number 28
_symmetry_cell_setting 'orthorhombic'
loop_
_space_group_symop_operation_xyz
x,y,z
-x,-y,z
1/2-x,y,z
1/2+x,-y,z
loop_
_atom_site_type_symbol
_atom_site_label
_atom_site_fract_x
_atom_site_fract_y
_atom_site_fract_z
Si Si1 0.920247 0.587129 0.786410
Si Si2 0.072148 0.094926 0.386568
Si Si3 0.071475 0.768198 0.538886
Si Si4 0.571985 0.234783 0.779082
Si Si5 0.428851 0.905203 0.948988
Si Si6 0.927641 0.905109 0.155453
Si Si7 0.921780 0.587948 0.535795
O O1 0.750000 0.587699 0.819838
O O2 0.922768 0.585228 0.661054
O O3 0.000000 0.500000 0.821984
O O4 0.999968 0.675815 0.815132
O O5 0.250000 0.087704 0.399957
O O6 0.045207 0.130322 0.270132
O O7 0.001431 0.158557 0.469318
O O8 0.000000 0.000000 0.394671
O O9 0.250000 0.770163 0.530501
O O10 0.030644 0.781088 0.659628
O O11 0.009720 0.674373 0.507314
O O12 0.750000 0.245065 0.781479
O O13 0.532556 0.156061 0.853396
O O14 0.250000 0.912773 0.956641
O O15 0.500000 0.000000 0.935849
O O16 0.494799 0.865684 0.054988
O O17 0.750000 0.910638 0.139833
O O18 0.000000 0.000000 0.159522
O O19 0.750000 0.592111 0.502918
O O20 0.000000 0.500000 0.500195
#
# Coordination Sequence:
#
# PCOD9339374 Si02
#       7
#     4   4   4   4   4   4   4
#     4   9  16  26  43  64  87 117 150 186 224 263
#     4  10  20  33  48  67  91 119 152 190 229 269
#     4  10  19  31  46  66  94 125 155 186 223 269
#     4   9  19  32  44  64  94 124 153 185 221 265
#     4  10  19  31  47  66  90 119 151 188 226 265
#     4   9  17  30  48  67  86 110 146 191 231 266
#     4   9  16  27  43  64  89 118 152 188 226 265
#
# _framework density 15.445055999999999
#
# number of rings (size 3 to 8) (size 9 to 14) (size 15 to 20)
#    0.000    2.571    0.000    3.429    0.000    7.429 
#    0.000    1.429    0.000    0.000    0.000    1.000 
#    0.000    2.286    0.000    0.000    0.000    0.000 
#
# Total GULP energy -155963.340717 kJ/mol
# GULP energy per Si atom -5570.119311 kJ/mol
# Density = 1.540990 g / cm^3
# Si number density = 15.445056 Si / 1000 Ang^3
#
#
#
# Elastic Constant Matrix: (Units=GPa)
#
#
# Indices 1 2 3 4 5 6 
#
# 1 80.0450 56.0417 49.7090 0.0000 0.0000 0.0000
# 2 56.0417 112.6647 64.4203 0.0000 0.0000 0.0000
# 3 49.7090 64.4203 82.1783 0.0000 0.0000 0.0000
# 4 0.0000 0.0000 0.0000 -1.4609 0.0000 0.0000
# 5 0.0000 0.0000 0.0000 0.0000 25.5726 0.0000
# 6 0.0000 0.0000 0.0000 0.0000 0.0000 29.2729
#
#
#
# Elastic Compliance Matrix: (Units=1/GPa)
#
#
# Indices 1 2 3 4 5 6 
#
# 1 0.022082 -0.006065 -0.008603 0.000000 0.000000 0.000000
# 2 -0.006065 0.017752 -0.010247 0.000000 0.000000 0.000000
# 3 -0.008603 -0.010247 0.025405 0.000000 0.000000 0.000000
# 4 0.000000 0.000000 0.000000 -0.684508 0.000000 0.000000
# 5 0.000000 0.000000 0.000000 0.000000 0.039104 0.000000
# 6 0.000000 0.000000 0.000000 0.000000 0.000000 0.034161
#
#
# Mechanical properties :
#
#
# Convention : Reuss Voigt Hill
#
# Bulk Modulus (GPa) = 64.89670 68.35892 66.62781
# Shear Modulus (GPa) = -10.18253 17.65803 3.73775
#
# Velocity S-wave (km/s) = -2.57042 3.38491 1.55733
# Velocity P-wave (km/s) = 5.77058 7.72220 6.81659
#
# Compressibility (1/GPa) = 0.01540910
#
# Stress axis : x y z
#
# Youngs Moduli (GPa) = 45.28672 56.33159 39.36191
#
# Poissons Ratio (x) = 0.34165 0.33861
# Poissons Ratio (y) = 0.27466 0.40335
# Poissons Ratio (z) = 0.38958 0.57725
#
# Static dielectric constant tensor:
#      x y z
#    x 1.517630 0.000000 0.000000 
#    y 0.000000 1.493580 0.000000 
#    z 0.000000 0.000000 1.523950 
# 
# From -- ./inp_files/4843.got.cif
#   From: 2010.05.17/outbox.cif.g08.bks.cpg/sg28_3_cif.got.tgz:4843.got - 2010.06.04 01:15:21.
