data_PCOD9339254
_publ_section_title
;
Structure prediction by ZEFSAII (Michael W. Deem and Ramdas Pophale) SiO2 
 PCOD9339254
Probable space group: P M A 2
;
_chemical_formula_sum "Si O2"
_cell_formula_units_Z 28
_cell_length_a 8.797834
_cell_length_b 15.743517
_cell_length_c 13.023176
_cell_angle_alpha 90.000000
_cell_angle_beta 90.000000
_cell_angle_gamma 90.000000
_cell_volume 1803.825120
_symmetry_space_group_name_H-M "P M A 2"
_symmetry_group_IT_number 28
_symmetry_cell_setting 'orthorhombic'
loop_
_space_group_symop_operation_xyz
x,y,z
-x,-y,z
1/2-x,y,z
1/2+x,-y,z
loop_
_atom_site_type_symbol
_atom_site_label
_atom_site_fract_x
_atom_site_fract_y
_atom_site_fract_z
Si Si1 0.568689 0.913598 0.655840
Si Si2 0.432057 0.726253 0.418428
Si Si3 0.432831 0.737053 0.657971
Si Si4 0.568655 0.594378 0.260540
Si Si5 0.932014 0.084578 0.425304
Si Si6 0.932119 0.595055 0.033003
Si Si7 0.931792 0.405567 0.822828
O O1 0.750000 0.918047 0.655472
O O2 0.510634 0.823446 0.697851
O O3 0.504761 0.912475 0.539039
O O4 0.500000 0.000000 0.703397
O O5 0.250000 0.715118 0.414299
O O6 0.476879 0.721040 0.538873
O O7 0.509400 0.656289 0.348345
O O8 0.466326 0.822419 0.380557
O O9 0.250000 0.749918 0.658771
O O10 0.469582 0.657016 0.729286
O O11 0.500000 0.500000 0.271068
O O12 0.750000 0.587031 0.265483
O O13 0.529607 0.629759 0.146193
O O14 0.750000 0.076583 0.434828
O O15 0.000000 0.000000 0.374100
O O16 0.750000 0.592158 0.022569
O O17 0.000000 0.500000 0.035203
O O18 0.003898 0.632409 0.929701
O O19 0.750000 0.413056 0.830445
O O20 0.000000 0.500000 0.808321
#
# Coordination Sequence:
#
# PCOD9339254 Si02
#       7
#     4   4   4   4   4   4   4
#     4  10  17  26  43  64  87 117 150 185 222 261
#     4   9  18  31  45  64  93 123 150 182 219 264
#     4   9  19  33  45  64  94 123 151 183 221 265
#     4  10  20  32  47  66  89 118 151 188 225 263
#     4   9  16  27  43  63  88 117 148 184 222 260
#     4   9  17  30  47  66  86 109 145 190 229 263
#     4  10  19  31  48  67  90 119 150 186 224 264
#
# _framework density 15.522569000000001
#
# number of rings (size 3 to 8) (size 9 to 14) (size 15 to 20)
#    0.000    2.571    0.000    5.571    0.000    6.286 
#    0.000    1.429    0.000    0.000    0.000    1.000 
#    0.000    4.571    0.000    0.000    0.000    0.000 
#
# Total GULP energy -155878.709095 kJ/mol
# GULP energy per Si atom -5567.096753 kJ/mol
# Density = 1.548724 g / cm^3
# Si number density = 15.522569 Si / 1000 Ang^3
#
#
#
# Elastic Constant Matrix: (Units=GPa)
#
#
# Indices 1 2 3 4 5 6 
#
# 1 62.0568 50.8746 35.2143 0.0000 0.0000 0.0000
# 2 50.8746 115.4551 61.1405 0.0000 0.0000 0.0000
# 3 35.2143 61.1405 83.2594 0.0000 0.0000 0.0000
# 4 0.0000 0.0000 0.0000 -9.0961 0.0000 0.0000
# 5 0.0000 0.0000 0.0000 0.0000 19.2325 0.0000
# 6 0.0000 0.0000 0.0000 0.0000 0.0000 21.3269
#
#
#
# Elastic Compliance Matrix: (Units=1/GPa)
#
#
# Indices 1 2 3 4 5 6 
#
# 1 0.026114 -0.009258 -0.004246 0.000000 0.000000 0.000000
# 2 -0.009258 0.017455 -0.008902 0.000000 0.000000 0.000000
# 3 -0.004246 -0.008902 0.020344 0.000000 0.000000 0.000000
# 4 0.000000 0.000000 0.000000 -0.109937 0.000000 0.000000
# 5 0.000000 0.000000 0.000000 0.000000 0.051995 0.000000
# 6 0.000000 0.000000 0.000000 0.000000 0.000000 0.046889
#
#
# Mechanical properties :
#
#
# Convention : Reuss Voigt Hill
#
# Bulk Modulus (GPa) = 52.35722 61.69226 57.02474
# Shear Modulus (GPa) = 48.05858 13.86213 30.96035
#
# Velocity S-wave (km/s) = 5.57025 2.99160 4.47087
# Velocity P-wave (km/s) = 8.67025 7.19464 7.96668
#
# Compressibility (1/GPa) = 0.01909956
#
# Stress axis : x y z
#
# Youngs Moduli (GPa) = 38.29405 57.28908 49.15509
#
# Poissons Ratio (x) = 0.53040 0.20871
# Poissons Ratio (y) = 0.35454 0.43759
# Poissons Ratio (z) = 0.16259 0.51001
#
# Static dielectric constant tensor:
#      x y z
#    x 1.513160 0.000000 0.000000 
#    y 0.000000 1.683810 0.000000 
#    z 0.000000 0.000000 1.523230 
# 
# From -- ./inp_files/6368.got.cif
#   From: 2010.05.17/outbox.cif.g08.bks.cpg/sg28_4_cif.got.tgz:6368.got - 2010.06.04 01:15:21.
