data_PCOD9339606
_publ_section_title
;
Structure prediction by ZEFSAII (Michael W. Deem and Ramdas Pophale) SiO2 
 PCOD9339606
Probable space group: P M A 2
;
_chemical_formula_sum "Si O2"
_cell_formula_units_Z 24
_cell_length_a 8.678851
_cell_length_b 9.591291
_cell_length_c 16.215671
_cell_angle_alpha 90.000000
_cell_angle_beta 90.000000
_cell_angle_gamma 90.000000
_cell_volume 1349.814921
_symmetry_space_group_name_H-M "P M A 2"
_symmetry_group_IT_number 28
_symmetry_cell_setting 'orthorhombic'
loop_
_space_group_symop_operation_xyz
x,y,z
-x,-y,z
1/2-x,y,z
1/2+x,-y,z
loop_
_atom_site_type_symbol
_atom_site_label
_atom_site_fract_x
_atom_site_fract_y
_atom_site_fract_z
Si Si1 0.564691 0.842782 0.273150
Si Si2 0.565706 0.344052 0.419399
Si Si3 0.433802 0.157468 0.090423
Si Si4 0.934294 0.655947 0.594953
Si Si5 0.935309 0.157218 0.741201
Si Si6 0.066198 0.842533 0.923928
O O1 0.750000 0.846187 0.281001
O O2 0.491616 0.751028 0.344786
O O3 0.527293 0.784733 0.181112
O O4 0.500000 0.000000 0.278276
O O5 0.500000 0.500000 0.408384
O O6 0.750000 0.348542 0.422842
O O7 0.500000 0.292105 0.507176
O O8 0.250000 0.150658 0.083280
O O9 0.500000 0.000000 0.092105
O O10 0.500001 0.225515 0.007176
O O11 0.750000 0.651456 0.591509
O O12 0.000000 0.500000 0.605968
O O13 0.991616 0.751028 0.669565
O O14 0.750000 0.153813 0.733350
O O15 0.972707 0.215266 0.833239
O O16 0.000000 0.000000 0.736075
O O17 0.250000 0.849343 0.931071
O O18 0.000000 0.000000 0.922247
#
# Coordination Sequence:
#
# PCOD9339606 Si02
#       6
#     4   4   4   4   4   4
#     4  10  20  34  52  79 109 138 173 215 259 303
#     4  11  22  38  58  78 102 135 172 212 256 310
#     4   9  16  26  44  69 101 135 169 207 249 298
#     4  11  22  38  58  78 102 135 172 212 256 310
#     4  10  20  34  52  79 109 138 173 215 259 303
#     4   9  16  26  44  69 101 135 169 207 249 298
#
# _framework density 17.780215999999999
#
# number of rings (size 3 to 8) (size 9 to 14) (size 15 to 20)
#    0.000    2.000    0.000    7.000    0.000    4.667 
#    0.000    3.333    0.000    1.000    0.000    7.000 
#    0.000    0.000    0.000    0.000    0.000    0.000 
#
# Total GULP energy -133845.926963 kJ/mol
# GULP energy per Si atom -5576.913623 kJ/mol
# Density = 1.773975 g / cm^3
# Si number density = 17.780216 Si / 1000 Ang^3
#
#
#
# Elastic Constant Matrix: (Units=GPa)
#
#
# Indices 1 2 3 4 5 6 
#
# 1 133.8333 29.2949 91.3921 0.0000 0.0000 0.0000
# 2 29.2949 33.1088 64.6258 0.0000 0.0000 0.0000
# 3 91.3921 64.6258 226.1825 0.0000 0.0000 0.0000
# 4 0.0000 0.0000 0.0000 -24.0944 0.0000 0.0000
# 5 0.0000 0.0000 0.0000 0.0000 34.5754 0.0000
# 6 0.0000 0.0000 0.0000 0.0000 0.0000 22.4098
#
#
#
# Elastic Compliance Matrix: (Units=1/GPa)
#
#
# Indices 1 2 3 4 5 6 
#
# 1 0.010394 -0.002258 -0.003554 0.000000 0.000000 0.000000
# 2 -0.002258 0.068780 -0.018740 0.000000 0.000000 0.000000
# 3 -0.003554 -0.018740 0.011212 0.000000 0.000000 0.000000
# 4 0.000000 0.000000 0.000000 -0.041503 0.000000 0.000000
# 5 0.000000 0.000000 0.000000 0.000000 0.028922 0.000000
# 6 0.000000 0.000000 0.000000 0.000000 0.000000 0.044623
#
#
# Mechanical properties :
#
#
# Convention : Reuss Voigt Hill
#
# Bulk Modulus (GPa) = 24.22451 84.86115 54.54283
# Shear Modulus (GPa) = 26.98443 20.43229 23.70836
#
# Velocity S-wave (km/s) = 3.89995 3.39360 3.65555
# Velocity P-wave (km/s) = 5.82524 7.94902 6.96851
#
# Compressibility (1/GPa) = 0.04128050
#
# Stress axis : x y z
#
# Youngs Moduli (GPa) = 96.21372 14.53914 89.19225
#
# Poissons Ratio (x) = 0.03284 0.31702
# Poissons Ratio (y) = 0.21729 1.67142
# Poissons Ratio (z) = 0.34198 0.27246
#
# Static dielectric constant tensor:
#      x y z
#    x 1.591580 0.000000 0.000000 
#    y 0.000000 1.567950 0.000000 
#    z 0.000000 0.000000 1.663230 
# 
# From -- ./inp_files/6675.got.cif
#   From: 2010.05.17/outbox.cif.g08.bks.cpg/sg28_4_cif.got.tgz:6675.got - 2010.06.04 01:15:21.
