data_PCOD9339769
_publ_section_title
;
Structure prediction by ZEFSAII (Michael W. Deem and Ramdas Pophale) SiO2 
 PCOD9339769
Probable space group: P M A 2
;
_chemical_formula_sum "Si O2"
_cell_formula_units_Z 32
_cell_length_a 8.526243
_cell_length_b 14.494216
_cell_length_c 13.320776
_cell_angle_alpha 90.000000
_cell_angle_beta 90.000000
_cell_angle_gamma 90.000000
_cell_volume 1646.197586
_symmetry_space_group_name_H-M "P M A 2"
_symmetry_group_IT_number 28
_symmetry_cell_setting 'orthorhombic'
loop_
_space_group_symop_operation_xyz
x,y,z
-x,-y,z
1/2-x,y,z
1/2+x,-y,z
loop_
_atom_site_type_symbol
_atom_site_label
_atom_site_fract_x
_atom_site_fract_y
_atom_site_fract_z
Si Si1 0.939409 0.103626 0.188080
Si Si2 0.438663 0.394976 0.079457
Si Si3 0.938663 0.605024 0.854882
Si Si4 0.064218 0.396208 0.467170
Si Si5 0.437883 0.710389 0.660275
Si Si6 0.560591 0.103626 0.746262
Si Si7 0.060936 0.895207 0.967171
Si Si8 0.562117 0.289612 0.274064
O O1 0.750000 0.099225 0.187610
O O2 0.988250 0.182376 0.265908
O O3 0.991385 0.138786 0.076601
O O4 0.000000 0.000000 0.204744
O O5 0.500000 0.500000 0.086208
O O6 0.250000 0.394520 0.086954
O O7 0.482421 0.360315 0.967169
O O8 0.510917 0.338775 0.171035
O O9 0.750000 0.605480 0.847385
O O10 0.000000 0.500000 0.848131
O O11 0.010917 0.661225 0.763304
O O12 0.250000 0.400615 0.467170
O O13 0.000000 0.500000 0.467171
O O14 0.007404 0.342618 0.565878
O O15 0.007404 0.342619 0.368461
O O16 0.250000 0.707562 0.653504
O O17 0.488250 0.817624 0.668433
O O18 0.750000 0.099225 0.746732
O O19 0.508616 0.138787 0.857741
O O20 0.500000 0.000000 0.729598
O O21 0.250000 0.891868 0.967171
O O22 0.000000 0.000000 0.967171
O O23 0.750000 0.292439 0.280835
#
# Coordination Sequence:
#
# PCOD9339769 Si02
#       8
#     4   4   4   4   4   4   4   4
#     4   9  19  34  56  84 120 159 199 244 291 347
#     4  10  21  37  57  85 120 157 196 241 297 360
#     4  10  21  37  57  85 120 157 196 241 297 360
#     4  12  26  46  69  90 117 152 197 252 304 362
#     4  11  23  39  62  90 120 156 200 248 301 359
#     4   9  19  34  56  84 120 159 199 244 291 347
#     4   8  14  28  48  76 111 152 193 230 279 332
#     4  11  23  39  62  90 120 156 200 248 301 359
#
# _framework density 19.438735999999999
#
# number of rings (size 3 to 8) (size 9 to 14) (size 15 to 20)
#    0.000    2.000    0.000    3.375    1.750    3.500 
#    0.000    0.625    0.000    0.000    0.000    0.000 
#    0.000    0.000    0.000    0.000    0.000    0.000 
#
# Total GULP energy -178604.846320 kJ/mol
# GULP energy per Si atom -5581.401448 kJ/mol
# Density = 1.939449 g / cm^3
# Si number density = 19.438736 Si / 1000 Ang^3
#
#
#
# Elastic Constant Matrix: (Units=GPa)
#
#
# Indices 1 2 3 4 5 6 
#
# 1 67.9741 40.3314 50.3163 0.0000 0.0000 0.0000
# 2 40.3314 149.8060 102.8612 0.0000 0.0000 0.0000
# 3 50.3163 102.8612 146.6474 0.0000 0.0000 0.0000
# 4 0.0000 0.0000 0.0000 36.9703 0.0000 0.0000
# 5 0.0000 0.0000 0.0000 0.0000 26.9026 0.0000
# 6 0.0000 0.0000 0.0000 0.0000 0.0000 25.4713
#
#
#
# Elastic Compliance Matrix: (Units=1/GPa)
#
#
# Indices 1 2 3 4 5 6 
#
# 1 0.019848 -0.001288 -0.005907 0.000000 0.000000 0.000000
# 2 -0.001288 0.012961 -0.008649 0.000000 0.000000 0.000000
# 3 -0.005907 -0.008649 0.014912 0.000000 0.000000 0.000000
# 4 0.000000 0.000000 0.000000 0.027049 0.000000 0.000000
# 5 0.000000 0.000000 0.000000 0.000000 0.037171 0.000000
# 6 0.000000 0.000000 0.000000 0.000000 0.000000 0.039260
#
#
# Mechanical properties :
#
#
# Convention : Reuss Voigt Hill
#
# Bulk Modulus (GPa) = 62.36820 83.49393 72.93107
# Shear Modulus (GPa) = 26.56292 29.26341 27.91317
#
# Velocity S-wave (km/s) = 3.70062 3.88418 3.79351
# Velocity P-wave (km/s) = 7.10025 7.94741 7.53575
#
# Compressibility (1/GPa) = 0.01603381
#
# Stress axis : x y z
#
# Youngs Moduli (GPa) = 50.38313 77.15663 67.05865
#
# Poissons Ratio (x) = 0.09936 0.39610
# Poissons Ratio (y) = 0.06488 0.57999
# Poissons Ratio (z) = 0.29760 0.66733
#
# Static dielectric constant tensor:
#      x y z
#    x 1.660610 0.000000 0.000000 
#    y 0.000000 1.654090 0.000000 
#    z 0.000000 0.000000 1.684980 
# 
# From -- ./inp_files/5000.got.cif
#   From: 2010.05.17/outbox.cif.g08.bks.cpg/sg28_3_cif.got.tgz:5000.got - 2010.06.04 01:15:21.
