data_PCOD9339547
_publ_section_title
;
Structure prediction by ZEFSAII (Michael W. Deem and Ramdas Pophale) SiO2 
 PCOD9339547
Probable space group: P M A 2
;
_chemical_formula_sum "Si O2"
_cell_formula_units_Z 24
_cell_length_a 8.417206
_cell_length_b 15.770517
_cell_length_c 9.709899
_cell_angle_alpha 90.000000
_cell_angle_beta 90.000000
_cell_angle_gamma 90.000000
_cell_volume 1288.927826
_symmetry_space_group_name_H-M "P M A 2"
_symmetry_group_IT_number 28
_symmetry_cell_setting 'orthorhombic'
loop_
_space_group_symop_operation_xyz
x,y,z
-x,-y,z
1/2-x,y,z
1/2+x,-y,z
loop_
_atom_site_type_symbol
_atom_site_label
_atom_site_fract_x
_atom_site_fract_y
_atom_site_fract_z
Si Si1 0.444175 0.250928 0.692110
Si Si2 0.441730 0.093250 0.190946
Si Si3 0.057539 0.252272 0.008694
Si Si4 0.939044 0.405707 0.193488
Si Si5 0.441773 0.093135 0.507880
Si Si6 0.940581 0.594028 0.501614
O O1 0.250000 0.250484 0.691966
O O2 0.495959 0.250841 0.850321
O O3 0.496382 0.167654 0.608554
O O4 0.494324 0.334683 0.609068
O O5 0.250000 0.092784 0.190122
O O6 0.493690 0.108323 0.349447
O O7 0.500000 0.000000 0.149324
O O8 0.496085 0.168642 0.091737
O O9 0.250000 0.252477 0.009765
O O10 0.000147 0.335461 0.088130
O O11 0.750000 0.406918 0.195654
O O12 0.000000 0.500000 0.158563
O O13 0.000609 0.385711 0.347514
O O14 0.250000 0.093104 0.508237
O O15 0.500000 0.000000 0.549298
O O16 0.750000 0.593219 0.498673
O O17 0.000000 0.500000 0.537277
#
# Coordination Sequence:
#
# PCOD9339547 Si02
#       6
#     4   4   4   4   4   4
#     4   9  19  34  54  77 106 141 176 211 260 318
#     4   9  18  32  53  76 104 139 178 220 262 307
#     4  10  20  36  55  78 108 144 178 216 264 315
#     4  11  22  37  57  81 106 137 176 220 263 313
#     4   9  17  32  51  74 100 134 176 217 258 305
#     4  10  19  35  57  80 104 135 174 218 262 312
#
# _framework density 18.620127
#
# number of rings (size 3 to 8) (size 9 to 14) (size 15 to 20)
#    0.000    2.333    0.000    4.000    0.000    4.667 
#    0.000    9.167    0.000    0.000    0.000    0.000 
#    0.000    0.000    0.000    0.000    0.000    0.000 
#
# Total GULP energy -133987.229007 kJ/mol
# GULP energy per Si atom -5582.801209 kJ/mol
# Density = 1.857775 g / cm^3
# Si number density = 18.620127 Si / 1000 Ang^3
#
#
#
# Elastic Constant Matrix: (Units=GPa)
#
#
# Indices 1 2 3 4 5 6 
#
# 1 29.0148 25.9965 27.2036 0.0000 0.0000 0.0000
# 2 25.9965 182.7740 150.0086 0.0000 0.0000 0.0000
# 3 27.2036 150.0086 158.6232 0.0000 0.0000 0.0000
# 4 0.0000 0.0000 0.0000 4.3472 0.0000 0.0000
# 5 0.0000 0.0000 0.0000 0.0000 17.3497 0.0000
# 6 0.0000 0.0000 0.0000 0.0000 0.0000 32.5472
#
#
#
# Elastic Compliance Matrix: (Units=1/GPa)
#
#
# Indices 1 2 3 4 5 6 
#
# 1 0.041072 -0.000271 -0.006787 0.000000 0.000000 0.000000
# 2 -0.000271 0.024444 -0.023070 0.000000 0.000000 0.000000
# 3 -0.006787 -0.023070 0.029286 0.000000 0.000000 0.000000
# 4 0.000000 0.000000 0.000000 0.230031 0.000000 0.000000
# 5 0.000000 0.000000 0.000000 0.000000 0.057638 0.000000
# 6 0.000000 0.000000 0.000000 0.000000 0.000000 0.030725
#
#
# Mechanical properties :
#
#
# Convention : Reuss Voigt Hill
#
# Bulk Modulus (GPa) = 28.94843 86.31437 57.63140
# Shear Modulus (GPa) = 10.30998 21.99571 16.15284
#
# Velocity S-wave (km/s) = 2.35564 3.44071 2.94852
# Velocity P-wave (km/s) = 4.79367 7.88928 6.52763
#
# Compressibility (1/GPa) = 0.03454419
#
# Stress axis : x y z
#
# Youngs Moduli (GPa) = 24.34765 40.90928 34.14654
#
# Poissons Ratio (x) = 0.01110 0.23176
# Poissons Ratio (y) = 0.00661 0.78777
# Poissons Ratio (z) = 0.16525 0.94379
#
# Static dielectric constant tensor:
#      x y z
#    x 1.640360 0.000000 0.000000 
#    y 0.000000 1.620590 0.000000 
#    z 0.000000 0.000000 1.627670 
# 
# From -- ./inp_files/2466.got.cif
#   From: 2010.05.17/outbox.cif.g08.bks.cpg/sg28_2_cif.got.tgz:2466.got - 2010.06.04 01:15:21.
