data_PCOD9339069
_publ_section_title
;
Structure prediction by ZEFSAII (Michael W. Deem and Ramdas Pophale) SiO2 
 PCOD9339069
Probable space group: P C C 2
;
_chemical_formula_sum "Si O2"
_cell_formula_units_Z 32
_cell_length_a 11.787397
_cell_length_b 11.709356
_cell_length_c 10.815828
_cell_angle_alpha 90.000000
_cell_angle_beta 90.000000
_cell_angle_gamma 90.000000
_cell_volume 1492.831165
_symmetry_space_group_name_H-M "P C C 2"
_symmetry_group_IT_number 27
_symmetry_cell_setting 'orthorhombic'
loop_
_space_group_symop_operation_xyz
x,y,z
-x,-y,z
-x,y,1/2+z
x,-y,1/2+z
loop_
_atom_site_type_symbol
_atom_site_label
_atom_site_fract_x
_atom_site_fract_y
_atom_site_fract_z
Si Si1 0.721733 0.254115 0.418100
Si Si2 0.226355 0.331051 0.370679
Si Si3 0.519572 0.255159 0.855364
Si Si4 0.890390 0.443895 0.320559
Si Si5 0.220856 0.091276 0.705397
Si Si6 0.937877 0.720860 0.602106
Si Si7 0.826128 0.827587 0.148542
Si Si8 0.537672 0.872269 0.605805
O O1 0.603556 0.312229 0.376636
O O2 0.820220 0.344910 0.387893
O O3 0.740779 0.135637 0.341156
O O4 0.726466 0.216278 0.559453
O O5 0.362601 0.319949 0.382306
O O6 0.194664 0.450695 0.306691
O O7 0.148179 0.314046 0.492267
O O8 0.185093 0.232152 0.279716
O O9 0.513208 0.205558 0.716397
O O10 0.513507 0.160874 0.964700
O O11 0.939053 0.385178 0.196866
O O12 0.000000 0.500000 0.387114
O O13 0.119198 0.173814 0.672775
O O14 0.326798 0.127040 0.621166
O O15 0.185501 0.961992 0.676164
O O16 0.061878 0.775952 0.581002
O O17 0.500000 0.000000 0.632602
#
# Coordination Sequence:
#
# PCOD9339069 Si02
#       8
#     4   4   4   4   4   4   4   4
#     4  10  25  44  72 102 142 183 232 294 347 422
#     4  12  26  43  76 101 136 186 236 290 355 420
#     4  11  23  43  67 104 144 181 241 292 348 427
#     4  11  24  48  72  97 131 182 235 293 353 418
#     4  10  23  43  65 101 142 184 225 286 353 407
#     4  11  25  46  66 101 140 179 232 295 349 413
#     4  12  25  43  71 106 137 186 238 279 356 428
#     4  11  21  39  68  98 145 193 233 281 346 426
#
# _framework density 21.435780000000001
#
# number of rings (size 3 to 8) (size 9 to 14) (size 15 to 20)
#    0.000    1.000    2.500    3.750    5.250    3.000 
#    0.000    0.000    0.000    0.000    0.000    0.000 
#    0.000    0.000    0.000    0.000    0.000    0.000 
#
# Total GULP energy -178470.812893 kJ/mol
# GULP energy per Si atom -5577.212903 kJ/mol
# Density = 2.138699 g / cm^3
# Si number density = 21.435780 Si / 1000 Ang^3
#
#
#
# Elastic Constant Matrix: (Units=GPa)
#
#
# Indices 1 2 3 4 5 6 
#
# 1 155.6668 45.5189 29.4602 0.0000 0.0000 0.0000
# 2 45.5189 114.7072 28.4878 0.0000 0.0000 0.0000
# 3 29.4602 28.4878 60.4106 0.0000 0.0000 0.0000
# 4 0.0000 0.0000 0.0000 30.5549 0.0000 0.0000
# 5 0.0000 0.0000 0.0000 0.0000 23.7186 0.0000
# 6 0.0000 0.0000 0.0000 0.0000 0.0000 21.6470
#
#
#
# Elastic Compliance Matrix: (Units=1/GPa)
#
#
# Indices 1 2 3 4 5 6 
#
# 1 0.007609 -0.002376 -0.002590 0.000000 0.000000 0.000000
# 2 -0.002376 0.010616 -0.003848 0.000000 0.000000 0.000000
# 3 -0.002590 -0.003848 0.019631 0.000000 0.000000 0.000000
# 4 0.000000 0.000000 0.000000 0.032728 0.000000 0.000000
# 5 0.000000 0.000000 0.000000 0.000000 0.042161 0.000000
# 6 0.000000 0.000000 0.000000 0.000000 0.000000 0.046196
#
#
# Mechanical properties :
#
#
# Convention : Reuss Voigt Hill
#
# Bulk Modulus (GPa) = 49.43521 59.74650 54.59085
# Shear Modulus (GPa) = 27.27597 30.33860 28.80729
#
# Velocity S-wave (km/s) = 3.57101 3.76616 3.66988
# Velocity P-wave (km/s) = 6.33363 6.84433 6.59393
#
# Compressibility (1/GPa) = 0.02022850
#
# Stress axis : x y z
#
# Youngs Moduli (GPa) = 131.42356 94.19439 50.94018
#
# Poissons Ratio (x) = 0.22382 0.13194
# Poissons Ratio (y) = 0.31229 0.19600
# Poissons Ratio (z) = 0.34040 0.36242
#
# Static dielectric constant tensor:
#      x y z
#    x 1.974990 0.000000 0.000000 
#    y 0.000000 1.576020 0.000000 
#    z 0.000000 0.000000 1.776100 
# 
# From -- ./inp_files/2638.got.cif
#   From: 2010.05.17/outbox.cif.g08.bks.cpg/sg27_2_cif.got.tgz:2638.got - 2010.06.04 01:11:05.
