data_PCOD9339703
_publ_section_title
;
Structure prediction by ZEFSAII (Michael W. Deem and Ramdas Pophale) SiO2 
 PCOD9339703
Probable space group: P M A 2
;
_chemical_formula_sum "Si O2"
_cell_formula_units_Z 32
_cell_length_a 8.614302
_cell_length_b 9.314140
_cell_length_c 21.170947
_cell_angle_alpha 90.000000
_cell_angle_beta 90.000000
_cell_angle_gamma 90.000000
_cell_volume 1698.647012
_symmetry_space_group_name_H-M "P M A 2"
_symmetry_group_IT_number 28
_symmetry_cell_setting 'orthorhombic'
loop_
_space_group_symop_operation_xyz
x,y,z
-x,-y,z
1/2-x,y,z
1/2+x,-y,z
loop_
_atom_site_type_symbol
_atom_site_label
_atom_site_fract_x
_atom_site_fract_y
_atom_site_fract_z
Si Si1 0.935897 0.838255 0.159250
Si Si2 0.062876 0.661087 0.277985
Si Si3 0.562919 0.338170 0.039952
Si Si4 0.562968 0.160737 0.915336
Si Si5 0.436799 0.839185 0.400120
Si Si6 0.436698 0.662018 0.792163
Si Si7 0.064985 0.339108 0.658592
Si Si8 0.563422 0.161023 0.541884
O O1 0.750000 0.841056 0.159545
O O2 0.997682 0.758210 0.221533
O O3 0.996268 0.749620 0.099015
O O4 0.000000 0.000000 0.157008
O O5 0.250000 0.659444 0.274750
O O6 0.014016 0.733060 0.344435
O O7 0.000000 0.500000 0.272555
O O8 0.500000 0.500000 0.040092
O O9 0.750000 0.340845 0.043755
O O10 0.516450 0.256139 0.975656
O O11 0.750000 0.154552 0.915091
O O12 0.513811 0.239593 0.850812
O O13 0.500000 0.000000 0.919836
O O14 0.250000 0.847698 0.398719
O O15 0.481540 0.790017 0.470844
O O16 0.500000 0.000000 0.389917
O O17 0.500000 0.500000 0.800518
O O18 0.250000 0.655880 0.789982
O O19 0.499303 0.718760 0.725146
O O20 0.250000 0.341585 0.661346
O O21 0.000000 0.500000 0.653517
O O22 0.007565 0.252984 0.598009
O O23 0.750000 0.162254 0.546463
O O24 0.500000 0.000000 0.547732
#
# Coordination Sequence:
#
# PCOD9339703 Si02
#       8
#     4   4   4   4   4   4   4   4
#     4  12  25  42  63  89 119 155 194 238 286 340
#     4  11  23  40  60  87 119 154 193 238 287 340
#     4  11  23  41  63  90 120 155 194 237 286 340
#     4  10  23  39  59  86 117 150 190 235 285 340
#     4   9  20  37  59  84 113 148 190 235 286 342
#     4  10  20  37  58  83 112 147 189 236 285 342
#     4  11  22  37  57  83 113 151 192 237 288 343
#     4  10  20  37  58  84 115 150 190 236 286 343
#
# _framework density 18.838522000000001
#
# number of rings (size 3 to 8) (size 9 to 14) (size 15 to 20)
#    0.000    1.500    0.000    6.000    0.000    6.500 
#    0.000    2.500    0.000    0.000    0.000    0.000 
#    0.000    0.000    0.000    0.000    0.000    0.000 
#
# Total GULP energy -178883.421371 kJ/mol
# GULP energy per Si atom -5590.106918 kJ/mol
# Density = 1.879564 g / cm^3
# Si number density = 18.838522 Si / 1000 Ang^3
#
#
#
# Elastic Constant Matrix: (Units=GPa)
#
#
# Indices 1 2 3 4 5 6 
#
# 1 95.2198 49.4178 67.0010 0.0000 0.0000 0.0000
# 2 49.4178 147.9442 118.3620 0.0000 0.0000 0.0000
# 3 67.0010 118.3620 211.5923 0.0000 0.0000 0.0000
# 4 0.0000 0.0000 0.0000 43.8804 0.0000 0.0000
# 5 0.0000 0.0000 0.0000 0.0000 -157.6584 0.0000
# 6 0.0000 0.0000 0.0000 0.0000 0.0000 37.0585
#
#
#
# Elastic Compliance Matrix: (Units=1/GPa)
#
#
# Indices 1 2 3 4 5 6 
#
# 1 0.013839 -0.002021 -0.003251 0.000000 0.000000 0.000000
# 2 -0.002021 0.012530 -0.006369 0.000000 0.000000 0.000000
# 3 -0.003251 -0.006369 0.009318 0.000000 0.000000 0.000000
# 4 0.000000 0.000000 0.000000 0.022789 0.000000 0.000000
# 5 0.000000 0.000000 0.000000 0.000000 -0.006343 0.000000
# 6 0.000000 0.000000 0.000000 0.000000 0.000000 0.026984
#
#
# Mechanical properties :
#
#
# Convention : Reuss Voigt Hill
#
# Bulk Modulus (GPa) = 80.62104 102.70200 91.66152
# Shear Modulus (GPa) = 46.93233 -0.67887 23.12673
#
# Velocity S-wave (km/s) = 4.99670 -0.60096 3.50756
# Velocity P-wave (km/s) = 8.72801 7.35893 8.07255
#
# Compressibility (1/GPa) = 0.01240371
#
# Stress axis : x y z
#
# Youngs Moduli (GPa) = 72.26007 79.80812 107.31438
#
# Poissons Ratio (x) = 0.16132 0.34892
# Poissons Ratio (y) = 0.14606 0.68349
# Poissons Ratio (z) = 0.23495 0.50831
#
# Static dielectric constant tensor:
#      x y z
#    x 1.633380 0.000000 0.000000 
#    y 0.000000 1.602990 0.000000 
#    z 0.000000 0.000000 1.657030 
# 
# From -- ./inp_files/7076.got.cif
#   From: 2010.05.17/outbox.cif.g08.bks.cpg/sg28_4_cif.got.tgz:7076.got - 2010.06.04 01:15:21.
