data_PCOD9339467
_publ_section_title
;
Structure prediction by ZEFSAII (Michael W. Deem and Ramdas Pophale) SiO2 
 PCOD9339467
Probable space group: P M A 2
;
_chemical_formula_sum "Si O2"
_cell_formula_units_Z 32
_cell_length_a 8.494194
_cell_length_b 9.754200
_cell_length_c 21.462881
_cell_angle_alpha 90.000000
_cell_angle_beta 90.000000
_cell_angle_gamma 90.000000
_cell_volume 1778.286983
_symmetry_space_group_name_H-M "P M A 2"
_symmetry_group_IT_number 28
_symmetry_cell_setting 'orthorhombic'
loop_
_space_group_symop_operation_xyz
x,y,z
-x,-y,z
1/2-x,y,z
1/2+x,-y,z
loop_
_atom_site_type_symbol
_atom_site_label
_atom_site_fract_x
_atom_site_fract_y
_atom_site_fract_z
Si Si1 0.059867 0.653759 0.903290
Si Si2 0.561084 0.155121 0.016567
Si Si3 0.939561 0.655844 0.265483
Si Si4 0.059765 0.652896 0.762329
Si Si5 0.438565 0.845450 0.511442
Si Si6 0.561099 0.655874 0.401318
Si Si7 0.939580 0.656830 0.128324
Si Si8 0.440140 0.846076 0.651002
O O1 0.250000 0.649503 0.904467
O O2 0.009772 0.691065 0.832762
O O3 0.000000 0.500000 0.917093
O O4 0.006876 0.762899 0.954667
O O5 0.750000 0.152209 0.016419
O O6 0.504168 0.244077 0.075308
O O7 0.500000 0.000000 0.018248
O O8 0.750000 0.656213 0.265340
O O9 0.990049 0.713101 0.332846
O O10 0.989225 0.709552 0.197585
O O11 0.000000 0.500000 0.266008
O O12 0.250000 0.653066 0.761604
O O13 0.003139 0.751868 0.707518
O O14 0.000000 0.500000 0.750819
O O15 0.250000 0.847183 0.509665
O O16 0.500286 0.747249 0.457640
O O17 0.488583 0.800186 0.581338
O O18 0.500000 0.000000 0.502516
O O19 0.500000 0.500000 0.406798
O O20 0.750000 0.653072 0.402736
O O21 0.750000 0.653712 0.125386
O O22 0.000000 0.500000 0.120618
O O23 0.250000 0.846778 0.652197
O O24 0.500000 0.000000 0.659317
#
# Coordination Sequence:
#
# PCOD9339467 Si02
#       8
#     4   4   4   4   4   4   4   4
#     4   9  19  35  55  76 101 132 168 206 248 298
#     4  11  23  37  52  75 105 137 171 212 257 302
#     4   8  16  30  50  75 102 130 165 206 250 298
#     4   9  18  34  53  76 103 131 164 206 250 296
#     4  10  20  35  52  73 101 136 174 213 255 304
#     4  10  19  33  53  78 105 134 168 210 255 302
#     4  10  19  34  56  80 104 134 170 209 251 302
#     4   9  19  34  52  73 100 132 169 208 249 298
#
# _framework density 17.994845000000002
#
# number of rings (size 3 to 8) (size 9 to 14) (size 15 to 20)
#    0.000    2.500    0.000    1.875    0.000    5.000 
#    0.000    1.875    0.000    0.000    0.000    0.000 
#    0.000    0.000    0.000    0.000    0.000    0.000 
#
# Total GULP energy -178380.517028 kJ/mol
# GULP energy per Si atom -5574.391157 kJ/mol
# Density = 1.795389 g / cm^3
# Si number density = 17.994845 Si / 1000 Ang^3
#
#
#
# Elastic Constant Matrix: (Units=GPa)
#
#
# Indices 1 2 3 4 5 6 
#
# 1 27.3005 23.8572 38.5577 0.0000 0.0000 0.0000
# 2 23.8572 97.1176 116.6495 0.0000 0.0000 0.0000
# 3 38.5577 116.6495 216.0953 0.0000 0.0000 0.0000
# 4 0.0000 0.0000 0.0000 -19.3962 0.0000 0.0000
# 5 0.0000 0.0000 0.0000 0.0000 24.9455 0.0000
# 6 0.0000 0.0000 0.0000 0.0000 0.0000 30.5015
#
#
#
# Elastic Compliance Matrix: (Units=1/GPa)
#
#
# Indices 1 2 3 4 5 6 
#
# 1 0.049629 -0.004423 -0.006468 0.000000 0.000000 0.000000
# 2 -0.004423 0.029677 -0.015231 0.000000 0.000000 0.000000
# 3 -0.006468 -0.015231 0.014003 0.000000 0.000000 0.000000
# 4 0.000000 0.000000 0.000000 -0.051556 0.000000 0.000000
# 5 0.000000 0.000000 0.000000 0.000000 0.040087 0.000000
# 6 0.000000 0.000000 0.000000 0.000000 0.000000 0.032785
#
#
# Mechanical properties :
#
#
# Convention : Reuss Voigt Hill
#
# Bulk Modulus (GPa) = 24.35065 77.62689 50.98877
# Shear Modulus (GPa) = 27.69198 17.97343 22.83270
#
# Velocity S-wave (km/s) = 3.92712 3.16382 3.56595
# Velocity P-wave (km/s) = 5.84161 7.52186 6.73435
#
# Compressibility (1/GPa) = 0.04106667
#
# Stress axis : x y z
#
# Youngs Moduli (GPa) = 20.14939 33.69596 71.41217
#
# Poissons Ratio (x) = 0.14904 0.46187
# Poissons Ratio (y) = 0.08912 1.08766
# Poissons Ratio (z) = 0.13032 0.51321
#
# Static dielectric constant tensor:
#      x y z
#    x 1.615270 0.000000 0.000000 
#    y 0.000000 1.559840 0.000000 
#    z 0.000000 0.000000 1.664600 
# 
# From -- ./inp_files/7038.got.cif
#   From: 2010.05.17/outbox.cif.g08.bks.cpg/sg28_4_cif.got.tgz:7038.got - 2010.06.04 01:15:21.
