data_PCOD9339400
_publ_section_title
;
Structure prediction by ZEFSAII (Michael W. Deem and Ramdas Pophale) SiO2 
 PCOD9339400
Probable space group: P M A 2
;
_chemical_formula_sum "Si O2"
_cell_formula_units_Z 32
_cell_length_a 8.526715
_cell_length_b 14.705668
_cell_length_c 16.182542
_cell_angle_alpha 90.000000
_cell_angle_beta 90.000000
_cell_angle_gamma 90.000000
_cell_volume 2029.145770
_symmetry_space_group_name_H-M "P M A 2"
_symmetry_group_IT_number 28
_symmetry_cell_setting 'orthorhombic'
loop_
_space_group_symop_operation_xyz
x,y,z
-x,-y,z
1/2-x,y,z
1/2+x,-y,z
loop_
_atom_site_type_symbol
_atom_site_label
_atom_site_fract_x
_atom_site_fract_y
_atom_site_fract_z
Si Si1 0.438869 0.598050 0.455120
Si Si2 0.941359 0.211333 0.523354
Si Si3 0.938371 0.102435 0.359068
Si Si4 0.440087 0.896484 0.684495
Si Si5 0.438000 0.598679 0.262297
Si Si6 0.438726 0.896314 0.046589
Si Si7 0.938876 0.103175 0.865171
Si Si8 0.436496 0.214309 0.202151
O O1 0.500000 0.500000 0.482844
O O2 0.250000 0.596215 0.456518
O O3 0.492766 0.685139 0.507234
O O4 0.486172 0.611119 0.358888
O O5 0.750000 0.211988 0.524384
O O6 0.988474 0.151012 0.444286
O O7 0.994548 0.165233 0.608327
O O8 0.750000 0.102077 0.356791
O O9 0.998645 0.159271 0.281100
O O10 0.000000 0.000000 0.355697
O O11 0.250000 0.899419 0.682429
O O12 0.488692 0.859672 0.775440
O O13 0.500000 0.000000 0.675314
O O14 0.500000 0.500000 0.236022
O O15 0.250000 0.600131 0.259218
O O16 0.504613 0.682485 0.210900
O O17 0.250000 0.898598 0.050694
O O18 0.502901 0.834617 0.119775
O O19 0.500000 0.000000 0.055418
O O20 0.487657 0.860322 0.955106
O O21 0.750000 0.102907 0.865293
O O22 0.000000 0.000000 0.864758
O O23 0.250000 0.211854 0.203848
#
# Coordination Sequence:
#
# PCOD9339400 Si02
#       8
#     4   4   4   4   4   4   4   4
#     4   9  17  31  48  67  89 119 153 191 233 272
#     4   9  17  30  47  66  93 125 155 188 231 277
#     4  11  21  34  46  63  93 130 163 194 230 275
#     4   9  16  28  46  68  94 123 155 190 228 276
#     4  10  19  34  53  72  95 122 156 197 240 282
#     4  10  19  32  48  68  95 125 158 198 240 286
#     4   8  15  27  45  67  90 118 153 192 235 278
#     4  12  23  34  48  69  93 125 163 197 237 281
#
# _framework density 15.770184
#
# number of rings (size 3 to 8) (size 9 to 14) (size 15 to 20)
#    0.000    2.250    1.250    3.000    0.000    1.000 
#    0.000    1.250    0.000    0.000    0.000    0.875 
#    0.000    2.000    0.000    0.000    0.000    0.000 
#
# Total GULP energy -178388.541687 kJ/mol
# GULP energy per Si atom -5574.641928 kJ/mol
# Density = 1.573429 g / cm^3
# Si number density = 15.770184 Si / 1000 Ang^3
#
#
#
# Elastic Constant Matrix: (Units=GPa)
#
#
# Indices 1 2 3 4 5 6 
#
# 1 39.2752 27.9358 31.3649 0.0000 0.0000 0.0000
# 2 27.9358 124.2294 79.5652 0.0000 0.0000 0.0000
# 3 31.3649 79.5652 155.6558 0.0000 0.0000 0.0000
# 4 0.0000 0.0000 0.0000 7.4440 0.0000 0.0000
# 5 0.0000 0.0000 0.0000 0.0000 25.5297 0.0000
# 6 0.0000 0.0000 0.0000 0.0000 0.0000 24.7351
#
#
#
# Elastic Compliance Matrix: (Units=1/GPa)
#
#
# Indices 1 2 3 4 5 6 
#
# 1 0.031990 -0.004557 -0.004117 0.000000 0.000000 0.000000
# 2 -0.004557 0.012617 -0.005531 0.000000 0.000000 0.000000
# 3 -0.004117 -0.005531 0.010081 0.000000 0.000000 0.000000
# 4 0.000000 0.000000 0.000000 0.134337 0.000000 0.000000
# 5 0.000000 0.000000 0.000000 0.000000 0.039170 0.000000
# 6 0.000000 0.000000 0.000000 0.000000 0.000000 0.040428
#
#
# Mechanical properties :
#
#
# Convention : Reuss Voigt Hill
#
# Bulk Modulus (GPa) = 38.05353 66.32135 52.18744
# Shear Modulus (GPa) = 16.35094 23.56138 19.95616
#
# Velocity S-wave (km/s) = 3.22347 3.86948 3.56116
# Velocity P-wave (km/s) = 6.16740 7.88099 7.07626
#
# Compressibility (1/GPa) = 0.02627877
#
# Stress axis : x y z
#
# Youngs Moduli (GPa) = 31.25944 79.25941 99.19504
#
# Poissons Ratio (x) = 0.36120 0.40835
# Poissons Ratio (y) = 0.14245 0.54864
# Poissons Ratio (z) = 0.12869 0.43838
#
# Static dielectric constant tensor:
#      x y z
#    x 1.531340 0.000000 0.000000 
#    y 0.000000 1.499120 0.000000 
#    z 0.000000 0.000000 1.550750 
# 
# From -- ./inp_files/6385.got.cif
#   From: 2010.05.17/outbox.cif.g08.bks.cpg/sg28_4_cif.got.tgz:6385.got - 2010.06.04 01:15:21.
