data_PCOD9339994
_publ_section_title
;
Structure prediction by ZEFSAII (Michael W. Deem and Ramdas Pophale) SiO2 
 PCOD9339994
Probable space group: P C A 21
;
_chemical_formula_sum "Si O2"
_cell_formula_units_Z 28
_cell_length_a 29.101387
_cell_length_b 10.348648
_cell_length_c 5.352931
_cell_angle_alpha 90.000000
_cell_angle_beta 90.000000
_cell_angle_gamma 90.000000
_cell_volume 1612.088755
_symmetry_space_group_name_H-M "P C A 21"
_symmetry_group_IT_number 29
_symmetry_cell_setting 'orthorhombic'
loop_
_space_group_symop_operation_xyz
x,y,z
-x,-y,1/2+z
1/2-x,y,1/2+z
1/2+x,-y,z
loop_
_atom_site_type_symbol
_atom_site_label
_atom_site_fract_x
_atom_site_fract_y
_atom_site_fract_z
Si Si1 0.763285 0.849685 0.333100
Si Si2 0.630106 0.776793 0.833160
Si Si3 0.061507 0.989548 0.833846
Si Si4 0.473855 0.546893 0.833227
Si Si5 0.224576 0.438477 0.333183
Si Si6 0.620014 0.609419 0.333181
Si Si7 0.465369 0.854504 0.833848
O O1 0.750002 0.922533 0.583105
O O2 0.815605 0.804476 0.333103
O O3 0.732342 0.718183 0.333141
O O4 0.603384 0.911383 0.833397
O O5 0.618055 0.696792 0.583342
O O6 0.618074 0.696677 0.082871
O O7 0.015455 0.077753 0.833814
O O8 0.059551 0.903653 0.584474
O O9 0.059609 0.903939 0.083594
O O10 0.499990 0.500073 0.583149
O O11 0.422943 0.486294 0.833222
O O12 0.471332 0.701508 0.833453
O O13 0.250012 0.485457 0.583145
O O14 0.170096 0.458723 0.333286
#
# Coordination Sequence:
#
# PCOD9339994 Si02
#       7
#     4   4   4   4   4   4   4
#     4  10  16  29  46  75 118 136 158 227 276 323
#     4  12  20  32  54  87 113 136 188 215 278 341
#     4  10  21  35  58  75  98 150 177 226 255 318
#     4  12  25  40  57  82 113 149 182 239 283 331
#     4  10  16  30  47  75 113 139 167 217 277 333
#     4  12  21  32  55  82 116 145 174 222 289 338
#     4  10  21  40  53  74 109 137 188 218 268 310
#
# _framework density 17.368770000000001
#
# number of rings (size 3 to 8) (size 9 to 14) (size 15 to 20)
#    0.000    1.143    5.714    4.286    0.000    2.286 
#    0.000    0.000    0.000    0.000    0.000    6.000 
#    0.000    0.000    0.000    0.000    0.000    0.000 
#
# Total GULP energy -156296.041573 kJ/mol
# GULP energy per Si atom -5582.001485 kJ/mol
# Density = 1.732924 g / cm^3
# Si number density = 17.368770 Si / 1000 Ang^3
#
#
#
# Elastic Constant Matrix: (Units=GPa)
#
#
# Indices 1 2 3 4 5 6 
#
# 1 108.5856 42.6432 54.0368 0.0000 0.0000 0.0000
# 2 42.6432 97.8053 68.7408 0.0000 0.0000 0.0000
# 3 54.0368 68.7408 204.8921 0.0000 0.0000 0.0000
# 4 0.0000 0.0000 0.0000 17.6819 0.0000 0.0000
# 5 0.0000 0.0000 0.0000 0.0000 20.9079 0.0000
# 6 0.0000 0.0000 0.0000 0.0000 0.0000 11.9968
#
#
#
# Elastic Compliance Matrix: (Units=1/GPa)
#
#
# Indices 1 2 3 4 5 6 
#
# 1 0.011588 -0.003801 -0.001781 0.000000 0.000000 0.000000
# 2 -0.003801 0.014626 -0.003905 0.000000 0.000000 0.000000
# 3 -0.001781 -0.003905 0.006660 0.000000 0.000000 0.000000
# 4 0.000000 0.000000 0.000000 0.056555 0.000000 0.000000
# 5 0.000000 0.000000 0.000000 0.000000 0.047829 0.000000
# 6 0.000000 0.000000 0.000000 0.000000 0.000000 0.083356
#
#
# Mechanical properties :
#
#
# Convention : Reuss Voigt Hill
#
# Bulk Modulus (GPa) = 71.93367 82.45829 77.19598
# Shear Modulus (GPa) = 20.47332 26.50814 23.49073
#
# Velocity S-wave (km/s) = 3.43701 3.91089 3.68158
# Velocity P-wave (km/s) = 7.56678 8.24449 7.91289
#
# Compressibility (1/GPa) = 0.01390170
#
# Stress axis : x y z
#
# Youngs Moduli (GPa) = 86.29435 68.37268 150.14315
#
# Poissons Ratio (x) = 0.25986 0.26742
# Poissons Ratio (y) = 0.32798 0.58624
# Poissons Ratio (z) = 0.15370 0.26696
#
# Static dielectric constant tensor:
#      x y z
#    x 1.592700 0.000000 0.000000 
#    y 0.000000 1.536580 0.000000 
#    z 0.000000 0.000000 1.662150 
# 
# From -- ./inp_files/671.got.cif
#   From: 2010.05.17/outbox.cif.g08.bks.cpg/sg29_1_cif.got.tgz:671.got - 2010.06.04 01:19:37.
