data_PCOD9339627
_publ_section_title
;
Structure prediction by ZEFSAII (Michael W. Deem and Ramdas Pophale) SiO2 
 PCOD9339627
Probable space group: P M A 2
;
_chemical_formula_sum "Si O2"
_cell_formula_units_Z 32
_cell_length_a 16.012136
_cell_length_b 15.723202
_cell_length_c 7.013667
_cell_angle_alpha 90.000000
_cell_angle_beta 90.000000
_cell_angle_gamma 90.000000
_cell_volume 1765.775173
_symmetry_space_group_name_H-M "P M A 2"
_symmetry_group_IT_number 28
_symmetry_cell_setting 'orthorhombic'
loop_
_space_group_symop_operation_xyz
x,y,z
-x,-y,z
1/2-x,y,z
1/2+x,-y,z
loop_
_atom_site_type_symbol
_atom_site_label
_atom_site_fract_x
_atom_site_fract_y
_atom_site_fract_z
Si Si1 0.156800 0.141087 0.052980
Si Si2 0.984241 0.400119 0.358820
Si Si3 0.346939 0.289375 0.362294
Si Si4 0.912027 0.982229 0.351466
Si Si5 0.648439 0.308238 0.094190
Si Si6 0.591236 0.282287 0.668083
Si Si7 0.573099 0.833283 0.659505
Si Si8 0.342763 0.836688 0.363757
O O1 0.250000 0.141697 0.975360
O O2 0.144961 0.223884 0.185667
O O3 0.145655 0.062423 0.196143
O O4 0.098111 0.141691 0.871540
O O5 0.915201 0.373469 0.198709
O O6 0.943160 0.363765 0.553294
O O7 0.000000 0.500000 0.360481
O O8 0.075292 0.354294 0.340121
O O9 0.250000 0.320944 0.365241
O O10 0.364944 0.233547 0.552850
O O11 0.926235 0.915946 0.523333
O O12 0.883073 0.074462 0.417836
O O13 0.000000 0.000000 0.252033
O O14 0.750000 0.320386 0.126814
O O15 0.621113 0.217370 0.187530
O O16 0.628982 0.305336 0.870951
O O17 0.514031 0.216404 0.673922
O O18 0.655106 0.231149 0.534190
O O19 0.250000 0.858873 0.306385
#
# Coordination Sequence:
#
# PCOD9339627 Si02
#       8
#     4   4   4   4   4   4   4   4
#     4  10  21  35  55  79 107 145 187 232 280 332
#     4  10  22  39  62  90 119 148 184 234 293 354
#     4   9  19  37  58  83 114 149 187 233 287 350
#     4  11  22  35  52  79 114 149 191 237 284 327
#     4  10  22  39  62  87 116 156 199 240 286 345
#     4  10  20  37  59  83 111 151 194 233 284 342
#     4  10  20  34  56  81 110 150 192 238 286 338
#     4  10  21  37  54  77 112 151 194 240 283 331
#
# _framework density 18.122353
#
# number of rings (size 3 to 8) (size 9 to 14) (size 15 to 20)
#    0.000    2.000    1.250    1.875    3.500    4.500 
#    0.000    0.000    0.000    0.000    0.000    0.000 
#    0.000    0.000    0.000    0.000    0.000    0.000 
#
# Total GULP energy -178218.537477 kJ/mol
# GULP energy per Si atom -5569.329296 kJ/mol
# Density = 1.808111 g / cm^3
# Si number density = 18.122353 Si / 1000 Ang^3
#
#
#
# Elastic Constant Matrix: (Units=GPa)
#
#
# Indices 1 2 3 4 5 6 
#
# 1 86.4441 51.7898 28.3850 0.0000 0.0000 0.0000
# 2 51.7898 125.3010 31.2092 0.0000 0.0000 0.0000
# 3 28.3850 31.2092 101.1690 0.0000 0.0000 0.0000
# 4 0.0000 0.0000 0.0000 6.4508 0.0000 0.0000
# 5 0.0000 0.0000 0.0000 0.0000 26.4239 0.0000
# 6 0.0000 0.0000 0.0000 0.0000 0.0000 16.6514
#
#
#
# Elastic Compliance Matrix: (Units=1/GPa)
#
#
# Indices 1 2 3 4 5 6 
#
# 1 0.016008 -0.005955 -0.002654 0.000000 0.000000 0.000000
# 2 -0.005955 0.010861 -0.001679 0.000000 0.000000 0.000000
# 3 -0.002654 -0.001679 0.011147 0.000000 0.000000 0.000000
# 4 0.000000 0.000000 0.000000 0.155020 0.000000 0.000000
# 5 0.000000 0.000000 0.000000 0.000000 0.037844 0.000000
# 6 0.000000 0.000000 0.000000 0.000000 0.000000 0.060055
#
#
# Mechanical properties :
#
#
# Convention : Reuss Voigt Hill
#
# Bulk Modulus (GPa) = 57.34719 59.52025 58.43372
# Shear Modulus (GPa) = 15.75673 23.34056 19.54864
#
# Velocity S-wave (km/s) = 2.95187 3.59269 3.28793
# Velocity P-wave (km/s) = 6.58264 7.07988 6.83578
#
# Compressibility (1/GPa) = 0.01743765
#
# Stress axis : x y z
#
# Youngs Moduli (GPa) = 62.47057 92.07659 89.70855
#
# Poissons Ratio (x) = 0.54834 0.23810
# Poissons Ratio (y) = 0.37203 0.15066
# Poissons Ratio (z) = 0.16581 0.15464
#
# Static dielectric constant tensor:
#      x y z
#    x 1.676820 0.000000 0.000000 
#    y 0.000000 1.616320 0.000000 
#    z 0.000000 0.000000 1.597920 
# 
# From -- ./inp_files/1200.got.cif
#   From: 2010.05.17/outbox.cif.g08.bks.cpg/sg28_1_cif.got.tgz:1200.got - 2010.06.04 01:15:21.
