data_PCOD9339118
_publ_section_title
;
Structure prediction by ZEFSAII (Michael W. Deem and Ramdas Pophale) SiO2 
 PCOD9339118
Probable space group: P C C 2
;
_chemical_formula_sum "Si O2"
_cell_formula_units_Z 18
_cell_length_a 14.728019
_cell_length_b 5.622110
_cell_length_c 9.464586
_cell_angle_alpha 90.000000
_cell_angle_beta 90.000000
_cell_angle_gamma 90.000000
_cell_volume 783.691788
_symmetry_space_group_name_H-M "P C C 2"
_symmetry_group_IT_number 27
_symmetry_cell_setting 'orthorhombic'
loop_
_space_group_symop_operation_xyz
x,y,z
-x,-y,z
-x,y,1/2+z
x,-y,1/2+z
loop_
_atom_site_type_symbol
_atom_site_label
_atom_site_fract_x
_atom_site_fract_y
_atom_site_fract_z
Si Si1 0.602659 0.422875 0.872200
Si Si2 0.925293 0.800936 0.373472
Si Si3 0.293480 0.354176 0.647593
Si Si4 0.000000 0.500000 0.614865
Si Si5 0.254000 0.852754 0.720304
O O1 0.500000 0.500000 0.850700
O O2 0.666045 0.629433 0.806227
O O3 0.645318 0.199385 0.785517
O O4 0.626418 0.380049 0.034332
O O5 0.958634 0.688105 0.224816
O O6 0.822909 0.874289 0.339567
O O7 0.930780 0.621432 0.504769
O O8 0.000000 0.000000 0.407482
O O9 0.238173 0.602060 0.638795
O O10 0.250354 0.096336 0.635409
#
# Coordination Sequence:
#
# PCOD9339118 Si02
#       5
#     4   4   4   2   4
#     4  10  24  46  70 102 139 186 238 293 358 423
#     4  11  25  45  70 101 143 185 240 299 364 440
#     4  10  25  45  67 103 138 185 231 299 347 434
#     4  10  26  44  68 102 134 186 236 294 360 438
#     4  10  27  43  72 101 143 182 238 291 362 428
#
# _framework density 22.968216000000002
#
# number of rings (size 3 to 8) (size 9 to 14) (size 15 to 20)
#    1.333    0.444    0.000    1.333   12.444    2.667 
#    0.000    0.000    0.000    0.000    0.000    0.000 
#    0.000    0.000    0.000    0.000    0.000    0.000 
#
# Total GULP energy -100273.889209 kJ/mol
# GULP energy per Si atom -5570.771623 kJ/mol
# Density = 2.291594 g / cm^3
# Si number density = 22.968216 Si / 1000 Ang^3
#
#
#
# Elastic Constant Matrix: (Units=GPa)
#
#
# Indices 1 2 3 4 5 6 
#
# 1 76.3589 45.1311 34.8686 0.0000 0.0000 0.0000
# 2 45.1311 160.0277 34.6054 0.0000 0.0000 0.0000
# 3 34.8686 34.6054 116.0770 0.0000 0.0000 0.0000
# 4 0.0000 0.0000 0.0000 19.8852 0.0000 0.0000
# 5 0.0000 0.0000 0.0000 0.0000 25.4065 0.0000
# 6 0.0000 0.0000 0.0000 0.0000 0.0000 24.1601
#
#
#
# Elastic Compliance Matrix: (Units=1/GPa)
#
#
# Indices 1 2 3 4 5 6 
#
# 1 0.017294 -0.004012 -0.003999 0.000000 0.000000 0.000000
# 2 -0.004012 0.007611 -0.001064 0.000000 0.000000 0.000000
# 3 -0.003999 -0.001064 0.010133 0.000000 0.000000 0.000000
# 4 0.000000 0.000000 0.000000 0.050289 0.000000 0.000000
# 5 0.000000 0.000000 0.000000 0.000000 0.039360 0.000000
# 6 0.000000 0.000000 0.000000 0.000000 0.000000 0.041391
#
#
# Mechanical properties :
#
#
# Convention : Reuss Voigt Hill
#
# Bulk Modulus (GPa) = 59.21387 64.63044 61.92215
# Shear Modulus (GPa) = 26.33586 29.74758 28.04172
#
# Velocity S-wave (km/s) = 3.38985 3.60274 3.49792
# Velocity P-wave (km/s) = 6.41547 6.74585 6.58273
#
# Compressibility (1/GPa) = 0.01688793
#
# Stress axis : x y z
#
# Youngs Moduli (GPa) = 57.82516 131.39741 98.68547
#
# Poissons Ratio (x) = 0.52722 0.39461
# Poissons Ratio (y) = 0.23202 0.10496
# Poissons Ratio (z) = 0.23122 0.13975
#
# Static dielectric constant tensor:
#      x y z
#    x 1.873390 0.000000 0.000000 
#    y 0.000000 1.901160 0.000000 
#    z 0.000000 0.000000 1.817550 
# 
# From -- ./inp_files/1643.got.cif
#   From: 2010.05.17/outbox.cif.g08.bks.cpg/sg27_1_cif.got.tgz:1643.got - 2010.06.04 01:11:05.
