data_PCOD9339348
_publ_section_title
;
Structure prediction by ZEFSAII (Michael W. Deem and Ramdas Pophale) SiO2 
 PCOD9339348
Probable space group: P M A 2
;
_chemical_formula_sum "Si O2"
_cell_formula_units_Z 24
_cell_length_a 8.557796
_cell_length_b 14.540386
_cell_length_c 10.536964
_cell_angle_alpha 90.000000
_cell_angle_beta 90.000000
_cell_angle_gamma 90.000000
_cell_volume 1311.152966
_symmetry_space_group_name_H-M "P M A 2"
_symmetry_group_IT_number 28
_symmetry_cell_setting 'orthorhombic'
loop_
_space_group_symop_operation_xyz
x,y,z
-x,-y,z
1/2-x,y,z
1/2+x,-y,z
loop_
_atom_site_type_symbol
_atom_site_label
_atom_site_fract_x
_atom_site_fract_y
_atom_site_fract_z
Si Si1 0.938070 0.396655 0.574470
Si Si2 0.937629 0.099366 0.724892
Si Si3 0.062515 0.604012 0.083272
Si Si4 0.437382 0.098978 0.438665
Si Si5 0.937193 0.709074 0.328450
Si Si6 0.439972 0.709140 0.830750
O O1 0.750000 0.395821 0.566798
O O2 0.986003 0.346196 0.704478
O O3 0.000000 0.500000 0.575351
O O4 0.006813 0.344017 0.453868
O O5 0.750000 0.096882 0.721706
O O6 0.989342 0.185129 0.811146
O O7 0.996425 0.115010 0.580657
O O8 0.000000 0.000000 0.766260
O O9 0.250000 0.600015 0.080466
O O10 0.000000 0.500000 0.087040
O O11 0.009601 0.660641 0.206253
O O12 0.005973 0.657409 0.956980
O O13 0.250000 0.095522 0.447585
O O14 0.482409 0.184261 0.349594
O O15 0.500000 0.000000 0.395534
O O16 0.750000 0.703898 0.319941
O O17 0.250000 0.709394 0.834268
#
# Coordination Sequence:
#
# PCOD9339348 Si02
#       6
#     4   4   4   4   4   4
#     4  11  21  36  57  83 112 145 185 238 288 336
#     4  10  18  33  56  85 117 148 185 228 282 340
#     4  11  23  41  61  82 112 154 194 236 288 341
#     4  10  20  34  56  85 116 147 186 232 283 336
#     4  11  23  39  57  84 115 149 192 235 280 340
#     4   9  20  37  58  83 113 148 189 232 282 340
#
# _framework density 18.304500999999998
#
# number of rings (size 3 to 8) (size 9 to 14) (size 15 to 20)
#    0.000    1.667    1.667    4.500    0.000    2.000 
#    0.000    6.667    0.000    4.000    0.000    0.000 
#    0.000    0.000    0.000    0.000    0.000    0.000 
#
# Total GULP energy -134058.792080 kJ/mol
# GULP energy per Si atom -5585.783003 kJ/mol
# Density = 1.826284 g / cm^3
# Si number density = 18.304501 Si / 1000 Ang^3
#
#
#
# Elastic Constant Matrix: (Units=GPa)
#
#
# Indices 1 2 3 4 5 6 
#
# 1 52.6208 45.7769 29.5788 0.0000 0.0000 0.0000
# 2 45.7769 208.6429 100.8134 0.0000 0.0000 0.0000
# 3 29.5788 100.8134 145.9371 0.0000 0.0000 0.0000
# 4 0.0000 0.0000 0.0000 32.7213 0.0000 0.0000
# 5 0.0000 0.0000 0.0000 0.0000 -8.2373 0.0000
# 6 0.0000 0.0000 0.0000 0.0000 0.0000 16.0652
#
#
#
# Elastic Compliance Matrix: (Units=1/GPa)
#
#
# Indices 1 2 3 4 5 6 
#
# 1 0.023807 -0.004341 -0.001827 0.000000 0.000000 0.000000
# 2 -0.004341 0.007986 -0.004637 0.000000 0.000000 0.000000
# 3 -0.001827 -0.004637 0.010426 0.000000 0.000000 0.000000
# 4 0.000000 0.000000 0.000000 0.030561 0.000000 0.000000
# 5 0.000000 0.000000 0.000000 0.000000 -0.121400 0.000000
# 6 0.000000 0.000000 0.000000 0.000000 0.000000 0.062246
#
#
# Mechanical properties :
#
#
# Convention : Reuss Voigt Hill
#
# Bulk Modulus (GPa) = 48.52042 84.39323 66.45682
# Shear Modulus (GPa) = 118.75429 23.51196 71.13313
#
# Velocity S-wave (km/s) = 8.06337 3.58787 6.24062
# Velocity P-wave (km/s) = 10.64216 7.96046 9.39746
#
# Compressibility (1/GPa) = 0.02060988
#
# Stress axis : x y z
#
# Youngs Moduli (GPa) = 42.00481 125.22512 95.91836
#
# Poissons Ratio (x) = 0.54356 0.17521
# Poissons Ratio (y) = 0.18233 0.44474
# Poissons Ratio (z) = 0.07673 0.58063
#
# Static dielectric constant tensor:
#      x y z
#    x 1.620900 0.000000 0.000000 
#    y 0.000000 1.630390 0.000000 
#    z 0.000000 0.000000 1.599040 
# 
# From -- ./inp_files/2450.got.cif
#   From: 2010.05.17/outbox.cif.g08.bks.cpg/sg28_2_cif.got.tgz:2450.got - 2010.06.04 01:15:21.
