data_PCOD9339210
_publ_section_title
;
Structure prediction by ZEFSAII (Michael W. Deem and Ramdas Pophale) SiO2 
 PCOD9339210
Probable space group: P C C 2
;
_chemical_formula_sum "Si O2"
_cell_formula_units_Z 12
_cell_length_a 4.971210
_cell_length_b 5.404316
_cell_length_c 18.678100
_cell_angle_alpha 90.000000
_cell_angle_beta 90.000000
_cell_angle_gamma 90.000000
_cell_volume 501.805643
_symmetry_space_group_name_H-M "P C C 2"
_symmetry_group_IT_number 27
_symmetry_cell_setting 'orthorhombic'
loop_
_space_group_symop_operation_xyz
x,y,z
-x,-y,z
-x,y,1/2+z
x,-y,1/2+z
loop_
_atom_site_type_symbol
_atom_site_label
_atom_site_fract_x
_atom_site_fract_y
_atom_site_fract_z
Si Si1 0.181415 0.248418 0.392340
Si Si2 0.000000 0.000000 0.110132
Si Si3 0.500000 0.000000 0.002959
Si Si4 0.748731 0.665913 0.233713
O O1 0.430108 0.222381 0.447458
O O2 0.302206 0.220439 0.311793
O O3 0.000000 0.500000 0.402036
O O4 0.000000 0.000000 0.403498
O O5 0.855052 0.820579 0.167322
O O6 0.752717 0.036326 0.055917
O O7 0.500000 0.500000 0.210886
O O8 0.000000 0.500000 0.251956
#
# Coordination Sequence:
#
# PCOD9339210 Si02
#       4
#     4   2   2   4
#     4  11  27  52  81 116 156 212 277 334 398 480
#     4  12  26  50  72 114 158 208 260 326 410 484
#     4  12  28  46  76 116 160 210 258 336 404 486
#     4  11  26  47  78 112 153 210 271 333 392 478
#
# _framework density 23.913640999999998
#
# number of rings (size 3 to 8) (size 9 to 14) (size 15 to 20)
#    0.000    0.667    3.333    2.000    9.333    5.333 
#    6.000    0.000    0.000    0.000    0.000    0.000 
#    0.000    0.000    0.000    0.000    0.000    0.000 
#
# Total GULP energy -66818.768160 kJ/mol
# GULP energy per Si atom -5568.230680 kJ/mol
# Density = 2.385921 g / cm^3
# Si number density = 23.913641 Si / 1000 Ang^3
#
#
#
# Elastic Constant Matrix: (Units=GPa)
#
#
# Indices 1 2 3 4 5 6 
#
# 1 180.6143 68.4335 68.8793 0.0000 0.0000 0.0000
# 2 68.4335 135.8322 53.5129 0.0000 0.0000 0.0000
# 3 68.8793 53.5129 230.6092 0.0000 0.0000 0.0000
# 4 0.0000 0.0000 0.0000 145.3450 0.0000 0.0000
# 5 0.0000 0.0000 0.0000 0.0000 103.7414 0.0000
# 6 0.0000 0.0000 0.0000 0.0000 0.0000 56.1544
#
#
#
# Elastic Compliance Matrix: (Units=1/GPa)
#
#
# Indices 1 2 3 4 5 6 
#
# 1 0.007260 -0.003085 -0.001452 0.000000 0.000000 0.000000
# 2 -0.003085 0.009414 -0.001263 0.000000 0.000000 0.000000
# 3 -0.001452 -0.001263 0.005063 0.000000 0.000000 0.000000
# 4 0.000000 0.000000 0.000000 0.006880 0.000000 0.000000
# 5 0.000000 0.000000 0.000000 0.000000 0.009639 0.000000
# 6 0.000000 0.000000 0.000000 0.000000 0.000000 0.017808
#
#
# Mechanical properties :
#
#
# Convention : Reuss Voigt Hill
#
# Bulk Modulus (GPa) = 98.66319 103.18968 100.92644
# Shear Modulus (GPa) = 70.37897 84.79684 77.58790
#
# Velocity S-wave (km/s) = 5.43087 5.96126 5.70223
# Velocity P-wave (km/s) = 8.98184 9.51981 9.25474
#
# Compressibility (1/GPa) = 0.01013549
#
# Stress axis : x y z
#
# Youngs Moduli (GPa) = 137.75040 106.22519 197.50273
#
# Poissons Ratio (x) = 0.32773 0.28685
# Poissons Ratio (y) = 0.42499 0.24945
# Poissons Ratio (z) = 0.20007 0.13416
#
# Static dielectric constant tensor:
#      x y z
#    x 1.914550 0.000000 0.000000 
#    y 0.000000 2.030180 0.000000 
#    z 0.000000 0.000000 2.085040 
# 
# From -- ./inp_files/3810.got.cif
#   From: 2010.05.17/outbox.cif.g08.bks.cpg/sg27_2_cif.got.tgz:3810.got - 2010.06.04 01:11:05.
