data_PCOD9339466
_publ_section_title
;
Structure prediction by ZEFSAII (Michael W. Deem and Ramdas Pophale) SiO2 
 PCOD9339466
Probable space group: P M A 2
;
_chemical_formula_sum "Si O2"
_cell_formula_units_Z 28
_cell_length_a 8.589814
_cell_length_b 9.458699
_cell_length_c 18.813508
_cell_angle_alpha 90.000000
_cell_angle_beta 90.000000
_cell_angle_gamma 90.000000
_cell_volume 1528.568648
_symmetry_space_group_name_H-M "P M A 2"
_symmetry_group_IT_number 28
_symmetry_cell_setting 'orthorhombic'
loop_
_space_group_symop_operation_xyz
x,y,z
-x,-y,z
1/2-x,y,z
1/2+x,-y,z
loop_
_atom_site_type_symbol
_atom_site_label
_atom_site_fract_x
_atom_site_fract_y
_atom_site_fract_z
Si Si1 0.063314 0.839229 0.484510
Si Si2 0.937998 0.159030 0.639888
Si Si3 0.437997 0.341017 0.199566
Si Si4 0.436851 0.158681 0.062511
Si Si5 0.563440 0.839760 0.336271
Si Si6 0.437068 0.659262 0.933075
Si Si7 0.062207 0.657542 0.772695
O O1 0.250000 0.841136 0.478995
O O2 0.018736 0.778915 0.562022
O O3 0.994146 0.778525 0.411871
O O4 0.000000 0.000000 0.486014
O O5 0.750000 0.154487 0.641614
O O6 0.993943 0.246052 0.707913
O O7 0.000000 0.000000 0.644025
O O8 0.500000 0.500000 0.197623
O O9 0.250000 0.345954 0.199494
O O10 0.487668 0.251950 0.130407
O O11 0.487391 0.256984 0.270431
O O12 0.250000 0.154506 0.061808
O O13 0.500000 0.000000 0.067688
O O14 0.496359 0.235970 0.991767
O O15 0.750000 0.847615 0.337193
O O16 0.500000 0.000000 0.328311
O O17 0.500000 0.500000 0.944559
O O18 0.250000 0.656336 0.937555
O O19 0.482697 0.703483 0.852594
O O20 0.250000 0.655123 0.770696
O O21 0.000000 0.500000 0.763018
#
# Coordination Sequence:
#
# PCOD9339466 Si02
#       7
#     4   4   4   4   4   4   4
#     4   9  16  28  48  73 101 134 170 210 257 305
#     4   9  18  32  50  74 103 134 172 215 257 304
#     4  10  23  39  56  78 105 138 174 211 254 307
#     4  11  23  39  58  82 109 138 174 215 261 310
#     4  10  19  33  53  78 104 132 170 213 257 305
#     4  10  20  36  57  80 107 140 177 217 262 313
#     4   9  19  35  53  75 104 138 175 213 255 306
#
# _framework density 18.317791
#
# number of rings (size 3 to 8) (size 9 to 14) (size 15 to 20)
#    0.000    2.286    0.000    3.429    0.000    5.714 
#    0.000    2.143    0.000    3.429    0.000    0.000 
#    0.000    0.000    0.000    0.000    0.000    0.000 
#
# Total GULP energy -156193.295333 kJ/mol
# GULP energy per Si atom -5578.331976 kJ/mol
# Density = 1.827610 g / cm^3
# Si number density = 18.317791 Si / 1000 Ang^3
#
#
#
# Elastic Constant Matrix: (Units=GPa)
#
#
# Indices 1 2 3 4 5 6 
#
# 1 35.8208 25.7783 43.6483 0.0000 0.0000 0.0000
# 2 25.7783 103.1798 107.6286 0.0000 0.0000 0.0000
# 3 43.6483 107.6286 218.6229 0.0000 0.0000 0.0000
# 4 0.0000 0.0000 0.0000 11.2853 0.0000 0.0000
# 5 0.0000 0.0000 0.0000 0.0000 28.5823 0.0000
# 6 0.0000 0.0000 0.0000 0.0000 0.0000 26.9336
#
#
#
# Elastic Compliance Matrix: (Units=1/GPa)
#
#
# Indices 1 2 3 4 5 6 
#
# 1 0.037398 -0.003196 -0.005893 0.000000 0.000000 0.000000
# 2 -0.003196 0.020196 -0.009304 0.000000 0.000000 0.000000
# 3 -0.005893 -0.009304 0.010331 0.000000 0.000000 0.000000
# 4 0.000000 0.000000 0.000000 0.088611 0.000000 0.000000
# 5 0.000000 0.000000 0.000000 0.000000 0.034987 0.000000
# 6 0.000000 0.000000 0.000000 0.000000 0.000000 0.037128
#
#
# Mechanical properties :
#
#
# Convention : Reuss Voigt Hill
#
# Bulk Modulus (GPa) = 32.11568 79.08153 55.59861
# Shear Modulus (GPa) = 18.12798 25.39814 21.76306
#
# Velocity S-wave (km/s) = 3.14926 3.72765 3.45060
# Velocity P-wave (km/s) = 5.54927 7.86085 6.80394
#
# Compressibility (1/GPa) = 0.03113744
#
# Stress axis : x y z
#
# Youngs Moduli (GPa) = 26.73969 49.51502 96.79473
#
# Poissons Ratio (x) = 0.15827 0.57040
# Poissons Ratio (y) = 0.08547 0.90061
# Poissons Ratio (z) = 0.15757 0.46070
#
# Static dielectric constant tensor:
#      x y z
#    x 1.621160 0.000000 0.000000 
#    y 0.000000 1.578770 0.000000 
#    z 0.000000 0.000000 1.673050 
# 
# From -- ./inp_files/6767.got.cif
#   From: 2010.05.17/outbox.cif.g08.bks.cpg/sg28_4_cif.got.tgz:6767.got - 2010.06.04 01:15:21.
