data_PCOD9339962
_publ_section_title
;
Structure prediction by ZEFSAII (Michael W. Deem and Ramdas Pophale) SiO2 
 PCOD9339962
Probable space group: P M A 2
;
_chemical_formula_sum "Si O2"
_cell_formula_units_Z 14
_cell_length_a 20.090986
_cell_length_b 5.638887
_cell_length_c 5.068742
_cell_angle_alpha 90.000000
_cell_angle_beta 90.000000
_cell_angle_gamma 90.000000
_cell_volume 574.241835
_symmetry_space_group_name_H-M "P M A 2"
_symmetry_group_IT_number 28
_symmetry_cell_setting 'orthorhombic'
loop_
_space_group_symop_operation_xyz
x,y,z
-x,-y,z
1/2-x,y,z
1/2+x,-y,z
loop_
_atom_site_type_symbol
_atom_site_label
_atom_site_fract_x
_atom_site_fract_y
_atom_site_fract_z
Si Si1 0.568105 0.624995 0.305100
Si Si2 0.128915 0.999512 0.944450
Si Si3 0.176739 0.742819 0.455746
Si Si4 0.000000 0.000000 0.694613
O O1 0.500000 0.500000 0.218297
O O2 0.617633 0.448825 0.458649
O O3 0.540981 0.825002 0.506354
O O4 0.609321 0.745382 0.066222
O O5 0.167747 0.946610 0.676144
O O6 0.055984 0.889508 0.882487
O O7 0.167511 0.865133 0.173449
O O8 0.250000 0.635007 0.483340
#
# Coordination Sequence:
#
# PCOD9339962 Si02
#       4
#     4   4   4   2
#     4  12  25  50  81 120 153 209 271 328 400 469
#     4  12  26  51  74 114 154 199 261 334 387 469
#     4  12  29  51  76 111 160 214 264 319 401 483
#     4  12  24  48  78 120 150 196 266 344 384 466
#
# _framework density 24.379974000000001
#
# number of rings (size 3 to 8) (size 9 to 14) (size 15 to 20)
#    0.000    0.000    5.714    3.429    4.000    3.429 
#    5.143    0.000    0.000    0.000    0.000    0.000 
#    0.000    0.000    0.000    0.000    0.000    0.000 
#
# Total GULP energy -78311.632265 kJ/mol
# GULP energy per Si atom -5593.688019 kJ/mol
# Density = 2.432448 g / cm^3
# Si number density = 24.379974 Si / 1000 Ang^3
#
#
#
# Elastic Constant Matrix: (Units=GPa)
#
#
# Indices 1 2 3 4 5 6 
#
# 1 146.7098 36.7926 13.2888 0.0000 0.0000 0.0000
# 2 36.7926 86.5039 25.3647 0.0000 0.0000 0.0000
# 3 13.2888 25.3647 127.6853 0.0000 0.0000 0.0000
# 4 0.0000 0.0000 0.0000 32.4906 0.0000 0.0000
# 5 0.0000 0.0000 0.0000 0.0000 21.0790 0.0000
# 6 0.0000 0.0000 0.0000 0.0000 0.0000 30.1306
#
#
#
# Elastic Compliance Matrix: (Units=1/GPa)
#
#
# Indices 1 2 3 4 5 6 
#
# 1 0.007633 -0.003200 -0.000159 0.000000 0.000000 0.000000
# 2 -0.003200 0.013617 -0.002372 0.000000 0.000000 0.000000
# 3 -0.000159 -0.002372 0.008319 0.000000 0.000000 0.000000
# 4 0.000000 0.000000 0.000000 0.030778 0.000000 0.000000
# 5 0.000000 0.000000 0.000000 0.000000 0.047441 0.000000
# 6 0.000000 0.000000 0.000000 0.000000 0.000000 0.033189
#
#
# Mechanical properties :
#
#
# Convention : Reuss Voigt Hill
#
# Bulk Modulus (GPa) = 55.22446 56.86569 56.04508
# Shear Modulus (GPa) = 31.55088 35.77023 33.66055
#
# Velocity S-wave (km/s) = 3.60131 3.83456 3.71976
# Velocity P-wave (km/s) = 6.32402 6.55595 6.44103
#
# Compressibility (1/GPa) = 0.01810792
#
# Stress axis : x y z
#
# Youngs Moduli (GPa) = 131.00884 73.43903 120.20021
#
# Poissons Ratio (x) = 0.23501 0.01908
# Poissons Ratio (y) = 0.41923 0.28511
# Poissons Ratio (z) = 0.02079 0.17419
#
# Static dielectric constant tensor:
#      x y z
#    x 1.928910 0.000000 0.000000 
#    y 0.000000 1.997860 0.000000 
#    z 0.000000 0.000000 1.958970 
# 
# From -- ./inp_files/1307.got.cif
#   From: 2010.05.17/outbox.cif.g08.bks.cpg/sg28_1_cif.got.tgz:1307.got - 2010.06.04 01:15:21.
