data_PCOD9339226
_publ_section_title
;
Structure prediction by ZEFSAII (Michael W. Deem and Ramdas Pophale) SiO2 
 PCOD9339226
Probable space group: P C C 2
;
_chemical_formula_sum "Si O2"
_cell_formula_units_Z 16
_cell_length_a 12.809365
_cell_length_b 4.831361
_cell_length_c 9.531473
_cell_angle_alpha 90.000000
_cell_angle_beta 90.000000
_cell_angle_gamma 90.000000
_cell_volume 589.871091
_symmetry_space_group_name_H-M "P C C 2"
_symmetry_group_IT_number 27
_symmetry_cell_setting 'orthorhombic'
loop_
_space_group_symop_operation_xyz
x,y,z
-x,-y,z
-x,y,1/2+z
x,-y,1/2+z
loop_
_atom_site_type_symbol
_atom_site_label
_atom_site_fract_x
_atom_site_fract_y
_atom_site_fract_z
Si Si1 0.500000 0.000000 0.671250
Si Si2 0.674802 0.567448 0.783229
Si Si3 0.000000 0.500000 0.221660
Si Si4 0.500000 0.500000 0.972547
Si Si5 0.820947 0.644952 0.045829
Si Si6 0.000000 0.000000 0.431652
O O1 0.601727 0.833842 0.739269
O O2 0.464138 0.752826 0.567618
O O3 0.729115 0.400853 0.658303
O O4 0.591005 0.391042 0.871890
O O5 0.765625 0.624312 0.895521
O O6 0.095134 0.561364 0.117221
O O7 0.027369 0.250263 0.325474
O O8 0.899941 0.899801 0.020396
#
# Coordination Sequence:
#
# PCOD9339226 Si02
#       6
#     2   4   2   2   4   2
#     4  12  28  58  90 140 196 248 334 402 480 608
#     4  12  28  59  96 141 193 262 320 405 502 581
#     4  12  28  58  86 142 190 246 336 404 476 608
#     4  12  28  58  86 140 194 248 326 408 482 600
#     4  12  28  59  95 139 190 259 318 405 499 576
#     4  12  28  58  92 138 194 248 334 404 480 602
#
# _framework density 27.124569999999999
#
# number of rings (size 3 to 8) (size 9 to 14) (size 15 to 20)
#    0.000    0.000    5.000    3.000    0.000    2.000 
#   13.500    0.000    0.000    0.000    0.000    0.000 
#    0.000    0.000    0.000    0.000    0.000    0.000 
#
# Total GULP energy -89344.022524 kJ/mol
# GULP energy per Si atom -5584.001408 kJ/mol
# Density = 2.706283 g / cm^3
# Si number density = 27.124570 Si / 1000 Ang^3
#
#
#
# Elastic Constant Matrix: (Units=GPa)
#
#
# Indices 1 2 3 4 5 6 
#
# 1 247.5487 89.8526 121.0818 0.0000 0.0000 0.0000
# 2 89.8526 150.0538 102.6706 0.0000 0.0000 0.0000
# 3 121.0818 102.6706 235.2352 0.0000 0.0000 0.0000
# 4 0.0000 0.0000 0.0000 32.1101 0.0000 0.0000
# 5 0.0000 0.0000 0.0000 0.0000 60.8212 0.0000
# 6 0.0000 0.0000 0.0000 0.0000 0.0000 53.6384
#
#
#
# Elastic Compliance Matrix: (Units=1/GPa)
#
#
# Indices 1 2 3 4 5 6 
#
# 1 0.005807 -0.002042 -0.002098 0.000000 0.000000 0.000000
# 2 -0.002042 0.010220 -0.003410 0.000000 0.000000 0.000000
# 3 -0.002098 -0.003410 0.006819 0.000000 0.000000 0.000000
# 4 0.000000 0.000000 0.000000 0.031143 0.000000 0.000000
# 5 0.000000 0.000000 0.000000 0.000000 0.016442 0.000000
# 6 0.000000 0.000000 0.000000 0.000000 0.000000 0.018643
#
#
# Mechanical properties :
#
#
# Convention : Reuss Voigt Hill
#
# Bulk Modulus (GPa) = 129.07628 140.00530 134.54079
# Shear Modulus (GPa) = 46.83665 50.59614 48.71639
#
# Velocity S-wave (km/s) = 4.15990 4.32363 4.24255
# Velocity P-wave (km/s) = 8.41206 8.75515 8.58532
#
# Compressibility (1/GPa) = 0.00774736
#
# Stress axis : x y z
#
# Youngs Moduli (GPa) = 172.21280 97.84911 146.64970
#
# Poissons Ratio (x) = 0.19979 0.30763
# Poissons Ratio (y) = 0.35162 0.50001
# Poissons Ratio (z) = 0.36126 0.33362
#
# Static dielectric constant tensor:
#      x y z
#    x 2.221170 0.000000 0.000000 
#    y 0.000000 2.114420 0.000000 
#    z 0.000000 0.000000 2.176380 
# 
# From -- ./inp_files/1534.got.cif
#   From: 2010.05.17/outbox.cif.g08.bks.cpg/sg27_1_cif.got.tgz:1534.got - 2010.06.04 01:11:05.
