data_PCOD9339292
_publ_section_title
;
Structure prediction by ZEFSAII (Michael W. Deem and Ramdas Pophale) SiO2 
 PCOD9339292
Probable space group: P M A 2
;
_chemical_formula_sum "Si O2"
_cell_formula_units_Z 32
_cell_length_a 8.420090
_cell_length_b 14.427032
_cell_length_c 14.201330
_cell_angle_alpha 90.000000
_cell_angle_beta 90.000000
_cell_angle_gamma 90.000000
_cell_volume 1725.133656
_symmetry_space_group_name_H-M "P M A 2"
_symmetry_group_IT_number 28
_symmetry_cell_setting 'orthorhombic'
loop_
_space_group_symop_operation_xyz
x,y,z
-x,-y,z
1/2-x,y,z
1/2+x,-y,z
loop_
_atom_site_type_symbol
_atom_site_label
_atom_site_fract_x
_atom_site_fract_y
_atom_site_fract_z
Si Si1 0.440535 0.897989 0.836830
Si Si2 0.932861 0.244351 0.198521
Si Si3 0.929693 0.094803 0.534569
Si Si4 0.938905 0.899791 0.050005
Si Si5 0.938966 0.605129 0.336545
Si Si6 0.941619 0.394352 0.541946
Si Si7 0.431000 0.749460 0.692306
Si Si8 0.065696 0.102717 0.339023
O O1 0.250000 0.898330 0.826701
O O2 0.503120 0.808210 0.778984
O O3 0.500000 0.000000 0.805010
O O4 0.487637 0.890063 0.946055
O O5 0.750000 0.261622 0.175657
O O6 0.013785 0.188885 0.112610
O O7 0.008369 0.335478 0.245878
O O8 0.954436 0.171086 0.282428
O O9 0.250000 0.921664 0.498046
O O10 0.042868 0.122070 0.449069
O O11 0.921799 0.172333 0.612171
O O12 0.000000 0.000000 0.574565
O O13 0.750000 0.906036 0.043259
O O14 0.000000 0.000000 0.088652
O O15 0.750000 0.606280 0.342978
O O16 0.000000 0.500000 0.327191
O O17 0.004668 0.640718 0.438102
O O18 0.750000 0.390234 0.542745
O O19 0.001688 0.336379 0.632934
O O20 0.000000 0.500000 0.548402
O O21 0.250000 0.722401 0.720063
O O22 0.250000 0.112340 0.310607
O O23 0.000000 0.000000 0.324275
#
# Coordination Sequence:
#
# PCOD9339292 Si02
#       8
#     4   4   4   4   4   4   4   4
#     4  10  19  35  55  79 107 141 179 221 270 324
#     4  12  23  37  56  79 105 139 178 223 271 321
#     4  10  18  30  45  67  99 137 172 209 254 309
#     4  11  22  38  57  82 111 143 180 224 272 327
#     4  11  22  38  58  84 113 146 183 225 271 324
#     4  10  19  35  55  79 109 145 183 226 271 319
#     4   9  19  32  51  74 102 137 176 217 266 319
#     4  11  21  33  47  70 103 140 176 215 259 315
#
# _framework density 18.549287
#
# number of rings (size 3 to 8) (size 9 to 14) (size 15 to 20)
#    0.000    1.500    0.000    9.375    0.000    1.000 
#    0.000    6.250    0.000    0.750    0.000    3.500 
#    0.000    0.000    0.000    0.000    0.000    0.000 
#
# Total GULP energy -178505.119761 kJ/mol
# GULP energy per Si atom -5578.284993 kJ/mol
# Density = 1.850707 g / cm^3
# Si number density = 18.549287 Si / 1000 Ang^3
#
#
#
# Elastic Constant Matrix: (Units=GPa)
#
#
# Indices 1 2 3 4 5 6 
#
# 1 88.0605 14.6809 10.7682 0.0000 0.0000 0.0000
# 2 14.6809 81.8051 46.4531 0.0000 0.0000 0.0000
# 3 10.7682 46.4531 84.1042 0.0000 0.0000 0.0000
# 4 0.0000 0.0000 0.0000 33.3023 0.0000 0.0000
# 5 0.0000 0.0000 0.0000 0.0000 30.6990 0.0000
# 6 0.0000 0.0000 0.0000 0.0000 0.0000 15.5125
#
#
#
# Elastic Compliance Matrix: (Units=1/GPa)
#
#
# Indices 1 2 3 4 5 6 
#
# 1 0.011720 -0.001823 -0.000494 0.000000 0.000000 0.000000
# 2 -0.001823 0.018094 -0.009760 0.000000 0.000000 0.000000
# 3 -0.000494 -0.009760 0.017344 0.000000 0.000000 0.000000
# 4 0.000000 0.000000 0.000000 0.030028 0.000000 0.000000
# 5 0.000000 0.000000 0.000000 0.000000 0.032574 0.000000
# 6 0.000000 0.000000 0.000000 0.000000 0.000000 0.064464
#
#
# Mechanical properties :
#
#
# Convention : Reuss Voigt Hill
#
# Bulk Modulus (GPa) = 43.47059 44.19713 43.83386
# Shear Modulus (GPa) = 24.26641 28.04060 26.15350
#
# Velocity S-wave (km/s) = 3.62085 3.89225 3.75900
# Velocity P-wave (km/s) = 6.40053 6.63913 6.52092
#
# Compressibility (1/GPa) = 0.02300406
#
# Stress axis : x y z
#
# Youngs Moduli (GPa) = 85.32343 55.26786 57.65654
#
# Poissons Ratio (x) = 0.10075 0.02846
# Poissons Ratio (y) = 0.15554 0.56274
# Poissons Ratio (z) = 0.04212 0.53943
#
# Static dielectric constant tensor:
#      x y z
#    x 1.654030 0.000000 0.000000 
#    y 0.000000 1.664270 0.000000 
#    z 0.000000 0.000000 1.658430 
# 
# From -- ./inp_files/6436.got.cif
#   From: 2010.05.17/outbox.cif.g08.bks.cpg/sg28_4_cif.got.tgz:6436.got - 2010.06.04 01:15:21.
