data_PCOD9339419
_publ_section_title
;
Structure prediction by ZEFSAII (Michael W. Deem and Ramdas Pophale) SiO2 
 PCOD9339419
Probable space group: P M A 2
;
_chemical_formula_sum "Si O2"
_cell_formula_units_Z 32
_cell_length_a 8.885620
_cell_length_b 14.978987
_cell_length_c 12.718006
_cell_angle_alpha 90.000000
_cell_angle_beta 90.000000
_cell_angle_gamma 90.000000
_cell_volume 1692.735903
_symmetry_space_group_name_H-M "P M A 2"
_symmetry_group_IT_number 28
_symmetry_cell_setting 'orthorhombic'
loop_
_space_group_symop_operation_xyz
x,y,z
-x,-y,z
1/2-x,y,z
1/2+x,-y,z
loop_
_atom_site_type_symbol
_atom_site_label
_atom_site_fract_x
_atom_site_fract_y
_atom_site_fract_z
Si Si1 0.567746 0.900507 0.496540
Si Si2 0.069155 0.209216 0.706297
Si Si3 0.928368 0.910943 0.123126
Si Si4 0.078680 0.841357 0.922585
Si Si5 0.076413 0.634269 0.986134
Si Si6 0.431287 0.406812 0.212199
Si Si7 0.569865 0.590863 0.763295
Si Si8 0.067512 0.222385 0.301993
O O1 0.750000 0.908236 0.491732
O O2 0.528944 0.846291 0.602673
O O3 0.516561 0.837682 0.399631
O O4 0.500000 0.000000 0.493610
O O5 0.250000 0.206025 0.718539
O O6 0.028152 0.315077 0.706992
O O7 0.993023 0.165335 0.807927
O O8 0.750000 0.917480 0.125480
O O9 0.975827 0.828317 0.195185
O O10 0.000000 0.000000 0.169076
O O11 0.984502 0.897736 0.005176
O O12 0.250000 0.873618 0.917556
O O13 0.078793 0.740732 0.968608
O O14 0.250000 0.602235 0.989014
O O15 0.991857 0.598867 0.882665
O O16 0.993342 0.610802 0.094211
O O17 0.500000 0.500000 0.248505
O O18 0.250000 0.410350 0.208225
O O19 0.479108 0.324733 0.287274
O O20 0.500000 0.500000 0.717303
O O21 0.750000 0.584048 0.764485
O O22 0.250000 0.223345 0.307410
#
# Coordination Sequence:
#
# PCOD9339419 Si02
#       8
#     4   4   4   4   4   4   4   4
#     4  10  21  41  65  88 109 141 188 236 286 339
#     4   9  20  37  58  81 112 150 188 230 282 341
#     4  11  21  35  55  82 113 148 186 226 282 343
#     4  10  20  34  54  81 115 150 186 231 280 332
#     4  10  19  32  51  78 111 150 191 232 273 326
#     4  11  21  35  54  80 113 152 190 229 276 332
#     4  10  19  32  51  78 111 151 191 229 275 330
#     4   9  20  38  60  82 112 148 185 231 283 337
#
# _framework density 18.904308
#
# number of rings (size 3 to 8) (size 9 to 14) (size 15 to 20)
#    0.000    2.000    1.250    2.625    0.000    2.500 
#    0.000    3.750    0.000    0.000    0.000    0.000 
#    0.000    0.000    0.000    0.000    0.000    0.000 
#
# Total GULP energy -178598.754404 kJ/mol
# GULP energy per Si atom -5581.211075 kJ/mol
# Density = 1.886128 g / cm^3
# Si number density = 18.904308 Si / 1000 Ang^3
#
#
#
# Elastic Constant Matrix: (Units=GPa)
#
#
# Indices 1 2 3 4 5 6 
#
# 1 56.5027 44.2168 37.3049 0.0000 0.0000 0.0000
# 2 44.2168 152.6773 73.6860 0.0000 0.0000 0.0000
# 3 37.3049 73.6860 111.5417 0.0000 0.0000 0.0000
# 4 0.0000 0.0000 0.0000 18.8731 0.0000 0.0000
# 5 0.0000 0.0000 0.0000 0.0000 10.7087 0.0000
# 6 0.0000 0.0000 0.0000 0.0000 0.0000 32.8645
#
#
#
# Elastic Compliance Matrix: (Units=1/GPa)
#
#
# Indices 1 2 3 4 5 6 
#
# 1 0.024788 -0.004665 -0.005208 0.000000 0.000000 0.000000
# 2 -0.004665 0.010493 -0.005372 0.000000 0.000000 0.000000
# 3 -0.005208 -0.005372 0.014256 0.000000 0.000000 0.000000
# 4 0.000000 0.000000 0.000000 0.052985 0.000000 0.000000
# 5 0.000000 0.000000 0.000000 0.000000 0.093382 0.000000
# 6 0.000000 0.000000 0.000000 0.000000 0.000000 0.030428
#
#
# Mechanical properties :
#
#
# Convention : Reuss Voigt Hill
#
# Bulk Modulus (GPa) = 52.50336 70.12634 61.31485
# Shear Modulus (GPa) = 18.99897 23.52352 21.26125
#
# Velocity S-wave (km/s) = 3.17362 3.53136 3.35726
# Velocity P-wave (km/s) = 6.42361 7.33507 6.89442
#
# Compressibility (1/GPa) = 0.01904640
#
# Stress axis : x y z
#
# Youngs Moduli (GPa) = 40.34256 95.29787 70.14627
#
# Poissons Ratio (x) = 0.44457 0.36535
# Poissons Ratio (y) = 0.18820 0.37682
# Poissons Ratio (z) = 0.21012 0.51193
#
# Static dielectric constant tensor:
#      x y z
#    x 1.640610 0.000000 0.000000 
#    y 0.000000 1.687420 0.000000 
#    z 0.000000 0.000000 1.627230 
# 
# From -- ./inp_files/5004.got.cif
#   From: 2010.05.17/outbox.cif.g08.bks.cpg/sg28_3_cif.got.tgz:5004.got - 2010.06.04 01:15:21.
