data_PCOD9339212
_publ_section_title
;
Structure prediction by ZEFSAII (Michael W. Deem and Ramdas Pophale) SiO2 
 PCOD9339212
Probable space group: P C C 2
;
_chemical_formula_sum "Si O2"
_cell_formula_units_Z 22
_cell_length_a 5.195160
_cell_length_b 15.634521
_cell_length_c 9.637655
_cell_angle_alpha 90.000000
_cell_angle_beta 90.000000
_cell_angle_gamma 90.000000
_cell_volume 782.807330
_symmetry_space_group_name_H-M "P C C 2"
_symmetry_group_IT_number 27
_symmetry_cell_setting 'orthorhombic'
loop_
_space_group_symop_operation_xyz
x,y,z
-x,-y,z
-x,y,1/2+z
x,-y,1/2+z
loop_
_atom_site_type_symbol
_atom_site_label
_atom_site_fract_x
_atom_site_fract_y
_atom_site_fract_z
Si Si1 0.500000 0.500000 0.154050
Si Si2 0.965464 0.315640 0.468180
Si Si3 0.929640 0.126543 0.454441
Si Si4 0.701883 0.149222 0.740670
Si Si5 0.468836 0.680941 0.161380
Si Si6 0.500000 0.000000 0.331468
Si Si7 0.000000 0.500000 0.458485
O O1 0.481599 0.588868 0.235471
O O2 0.750959 0.499355 0.057359
O O3 0.202709 0.308573 0.577488
O O4 0.004604 0.405996 0.387807
O O5 0.936159 0.225017 0.390356
O O6 0.696049 0.322975 0.547856
O O7 0.906626 0.145343 0.616965
O O8 0.714187 0.057599 0.419435
O O9 0.195578 0.102644 0.380075
O O10 0.563405 0.239716 0.752616
O O11 0.498290 0.076775 0.709402
#
# Coordination Sequence:
#
# PCOD9339212 Si02
#       7
#     2   4   4   4   4   2   2
#     4   8  14  30  60 102 142 188 234 288 358 446
#     4   9  19  37  69 103 147 191 242 302 369 451
#     4  11  27  48  75 106 149 196 253 316 389 452
#     4  11  27  47  76 105 150 194 256 318 387 455
#     4   9  19  37  69 104 148 191 242 299 372 444
#     4  12  28  46  74 106 146 198 262 318 386 454
#     4   8  14  30  60 102 140 188 234 292 360 442
#
# _framework density 28.103974999999998
#
# number of rings (size 3 to 8) (size 9 to 14) (size 15 to 20)
#    0.000    2.182    0.000    1.091   10.182    2.909 
#    0.000    0.000    4.000    1.091    0.000    0.000 
#    0.000    0.000    0.000    0.000    0.000    0.000 
#
# Total GULP energy -122509.909387 kJ/mol
# GULP energy per Si atom -5568.632245 kJ/mol
# Density = 2.804001 g / cm^3
# Si number density = 28.103975 Si / 1000 Ang^3
#
#
#
# Elastic Constant Matrix: (Units=GPa)
#
#
# Indices 1 2 3 4 5 6 
#
# 1 168.2356 18.8685 58.9458 0.0000 0.0000 0.0000
# 2 18.8685 323.3559 33.7885 0.0000 0.0000 0.0000
# 3 58.9458 33.7885 82.1030 0.0000 0.0000 0.0000
# 4 0.0000 0.0000 0.0000 106.5723 0.0000 0.0000
# 5 0.0000 0.0000 0.0000 0.0000 86.9141 0.0000
# 6 0.0000 0.0000 0.0000 0.0000 0.0000 -34.5768
#
#
#
# Elastic Compliance Matrix: (Units=1/GPa)
#
#
# Indices 1 2 3 4 5 6 
#
# 1 0.007948 0.000138 -0.005763 0.000000 0.000000 0.000000
# 2 0.000138 0.003234 -0.001430 0.000000 0.000000 0.000000
# 3 -0.005763 -0.001430 0.016906 0.000000 0.000000 0.000000
# 4 0.000000 0.000000 0.000000 0.009383 0.000000 0.000000
# 5 0.000000 0.000000 0.000000 0.000000 0.011506 0.000000
# 6 0.000000 0.000000 0.000000 0.000000 0.000000 -0.028921
#
#
# Mechanical properties :
#
#
# Convention : Reuss Voigt Hill
#
# Bulk Modulus (GPa) = 71.54145 88.54448 80.04296
# Shear Modulus (GPa) = 128.78410 62.58803 95.68606
#
# Velocity S-wave (km/s) = 6.77670 4.72425 5.84132
# Velocity P-wave (km/s) = 9.31358 7.83150 8.60451
#
# Compressibility (1/GPa) = 0.01397791
#
# Stress axis : x y z
#
# Youngs Moduli (GPa) = 125.82160 309.21985 59.15049
#
# Poissons Ratio (x) = -0.04281 0.34089
# Poissons Ratio (y) = -0.01742 0.08460
# Poissons Ratio (z) = 0.72512 0.44227
#
# Static dielectric constant tensor:
#      x y z
#    x 1.826170 0.000000 0.000000 
#    y 0.000000 1.769720 0.000000 
#    z 0.000000 0.000000 2.272300 
# 
# From -- ./inp_files/2028.got.cif
#   From: 2010.05.17/outbox.cif.g08.bks.cpg/sg27_2_cif.got.tgz:2028.got - 2010.06.04 01:11:05.
