data_PCOD9339048
_publ_section_title
;
Structure prediction by ZEFSAII (Michael W. Deem and Ramdas Pophale) SiO2 
 PCOD9339048
Probable space group: P C C 2
;
_chemical_formula_sum "Si O2"
_cell_formula_units_Z 14
_cell_length_a 7.530808
_cell_length_b 8.632959
_cell_length_c 8.157968
_cell_angle_alpha 90.000000
_cell_angle_beta 90.000000
_cell_angle_gamma 90.000000
_cell_volume 530.375252
_symmetry_space_group_name_H-M "P C C 2"
_symmetry_group_IT_number 27
_symmetry_cell_setting 'orthorhombic'
loop_
_space_group_symop_operation_xyz
x,y,z
-x,-y,z
-x,y,1/2+z
x,-y,1/2+z
loop_
_atom_site_type_symbol
_atom_site_label
_atom_site_fract_x
_atom_site_fract_y
_atom_site_fract_z
Si Si1 0.397697 0.164310 0.254910
Si Si2 0.060696 0.840380 0.990989
Si Si3 0.269020 0.292032 0.905917
Si Si4 0.000000 0.500000 0.004537
O O1 0.248573 0.151802 0.397293
O O2 0.556253 0.278886 0.302875
O O3 0.500000 0.000000 0.233667
O O4 0.319038 0.229578 0.087059
O O5 0.043154 0.669514 0.075822
O O6 0.895212 0.820515 0.862575
O O7 0.000000 0.000000 0.074568
O O8 0.179491 0.460267 0.906622
#
# Coordination Sequence:
#
# PCOD9339048 Si02
#       4
#     4   4   4   2
#     4  12  23  43  76 113 143 195 248 300 370 438
#     4  10  22  45  71 104 147 191 236 306 361 437
#     4  10  25  45  74 107 149 189 246 303 366 438
#     4   8  22  50  66 108 140 196 238 298 368 430
#
# _framework density 26.396407
#
# number of rings (size 3 to 8) (size 9 to 14) (size 15 to 20)
#    1.714    0.000    2.857    0.857    0.000    5.714 
#    0.000    2.857    0.000    1.714    0.000    0.000 
#    0.000    0.000    0.000    0.000    0.000    0.000 
#
# Total GULP energy -78067.097096 kJ/mol
# GULP energy per Si atom -5576.221221 kJ/mol
# Density = 2.633633 g / cm^3
# Si number density = 26.396407 Si / 1000 Ang^3
#
#
#
# Elastic Constant Matrix: (Units=GPa)
#
#
# Indices 1 2 3 4 5 6 
#
# 1 211.4751 68.4657 53.3214 0.0000 0.0000 0.0000
# 2 68.4657 210.4527 66.6008 0.0000 0.0000 0.0000
# 3 53.3214 66.6008 86.9747 0.0000 0.0000 0.0000
# 4 0.0000 0.0000 0.0000 15.6337 0.0000 0.0000
# 5 0.0000 0.0000 0.0000 0.0000 -26.5764 0.0000
# 6 0.0000 0.0000 0.0000 0.0000 0.0000 76.6255
#
#
#
# Elastic Compliance Matrix: (Units=1/GPa)
#
#
# Indices 1 2 3 4 5 6 
#
# 1 0.005747 -0.000996 -0.002761 0.000000 0.000000 0.000000
# 2 -0.000996 0.006444 -0.004324 0.000000 0.000000 0.000000
# 3 -0.002761 -0.004324 0.016501 0.000000 0.000000 0.000000
# 4 0.000000 0.000000 0.000000 0.063964 0.000000 0.000000
# 5 0.000000 0.000000 0.000000 0.000000 -0.037627 0.000000
# 6 0.000000 0.000000 0.000000 0.000000 0.000000 0.013050
#
#
# Mechanical properties :
#
#
# Convention : Reuss Voigt Hill
#
# Bulk Modulus (GPa) = 79.80146 98.40869 89.10508
# Shear Modulus (GPa) = 56.54928 34.50419 45.52673
#
# Velocity S-wave (km/s) = 4.63353 3.61938 4.15750
# Velocity P-wave (km/s) = 7.67618 7.40463 7.54163
#
# Compressibility (1/GPa) = 0.01253110
#
# Stress axis : x y z
#
# Youngs Moduli (GPa) = 173.99608 155.18176 60.60197
#
# Poissons Ratio (x) = 0.15457 0.16731
# Poissons Ratio (y) = 0.17331 0.26204
# Poissons Ratio (z) = 0.48036 0.67099
#
# Static dielectric constant tensor:
#      x y z
#    x 2.088440 0.000000 0.000000 
#    y 0.000000 2.092530 0.000000 
#    z 0.000000 0.000000 2.078520 
# 
# From -- ./inp_files/927.got.cif
#   From: 2010.05.17/outbox.cif.g08.bks.cpg/sg27_1_cif.got.tgz:927.got - 2010.06.04 01:11:05.
