data_PCOD9339406
_publ_section_title
;
Structure prediction by ZEFSAII (Michael W. Deem and Ramdas Pophale) SiO2 
 PCOD9339406
Probable space group: P M A 2
;
_chemical_formula_sum "Si O2"
_cell_formula_units_Z 24
_cell_length_a 8.180782
_cell_length_b 13.692341
_cell_length_c 11.957866
_cell_angle_alpha 90.000000
_cell_angle_beta 90.000000
_cell_angle_gamma 90.000000
_cell_volume 1339.449081
_symmetry_space_group_name_H-M "P M A 2"
_symmetry_group_IT_number 28
_symmetry_cell_setting 'orthorhombic'
loop_
_space_group_symop_operation_xyz
x,y,z
-x,-y,z
1/2-x,y,z
1/2+x,-y,z
loop_
_atom_site_type_symbol
_atom_site_label
_atom_site_fract_x
_atom_site_fract_y
_atom_site_fract_z
Si Si1 0.054649 0.109415 0.366810
Si Si2 0.555423 0.108824 0.110602
Si Si3 0.061427 0.893259 0.701836
Si Si4 0.554927 0.784826 0.901551
Si Si5 0.436479 0.262992 0.542194
Si Si6 0.947013 0.610043 0.738107
O O1 0.250000 0.110741 0.378480
O O2 0.988962 0.202030 0.438521
O O3 0.007135 0.120166 0.237465
O O4 0.000000 0.000000 0.403319
O O5 0.750000 0.111069 0.111020
O O6 0.500000 0.000000 0.073256
O O7 0.488924 0.193267 0.029332
O O8 0.250000 0.878737 0.669080
O O9 0.038201 0.867884 0.831355
O O10 0.942800 0.820166 0.637200
O O11 0.000000 0.000000 0.677922
O O12 0.750000 0.794930 0.888908
O O13 0.504692 0.683917 0.838996
O O14 0.250000 0.289580 0.512154
O O15 0.510417 0.351513 0.616127
O O16 0.750000 0.614229 0.732057
O O17 0.000000 0.500000 0.759102
#
# Coordination Sequence:
#
# PCOD9339406 Si02
#       6
#     4   4   4   4   4   4
#     4  10  19  32  50  72 102 138 173 205 242 289
#     4  11  21  33  50  74 104 137 173 207 244 291
#     4  11  20  29  44  68  98 130 162 199 244 293
#     4  10  20  35  51  70  98 130 165 204 249 297
#     4   9  19  34  50  71  99 131 166 204 247 295
#     4   9  19  35  55  77 100 126 159 205 258 307
#
# _framework density 17.917815000000001
#
# number of rings (size 3 to 8) (size 9 to 14) (size 15 to 20)
#    0.000    2.000    0.000    7.000    0.000    6.000 
#    0.000    0.000    0.000    1.000    0.000    2.333 
#    0.000    0.000    0.000    0.000    0.000    0.000 
#
# Total GULP energy -133678.303691 kJ/mol
# GULP energy per Si atom -5569.929320 kJ/mol
# Density = 1.787703 g / cm^3
# Si number density = 17.917815 Si / 1000 Ang^3
#
#
#
# Elastic Constant Matrix: (Units=GPa)
#
#
# Indices 1 2 3 4 5 6 
#
# 1 59.3765 8.5995 8.0493 0.0000 0.0000 0.0000
# 2 8.5995 86.0968 46.9049 0.0000 0.0000 0.0000
# 3 8.0493 46.9049 97.1668 0.0000 0.0000 0.0000
# 4 0.0000 0.0000 0.0000 25.3469 0.0000 0.0000
# 5 0.0000 0.0000 0.0000 0.0000 25.7790 0.0000
# 6 0.0000 0.0000 0.0000 0.0000 0.0000 22.9625
#
#
#
# Elastic Compliance Matrix: (Units=1/GPa)
#
#
# Indices 1 2 3 4 5 6 
#
# 1 0.017135 -0.001273 -0.000805 0.000000 0.000000 0.000000
# 2 -0.001273 0.015854 -0.007548 0.000000 0.000000 0.000000
# 3 -0.000805 -0.007548 0.014002 0.000000 0.000000 0.000000
# 4 0.000000 0.000000 0.000000 0.039453 0.000000 0.000000
# 5 0.000000 0.000000 0.000000 0.000000 0.038791 0.000000
# 6 0.000000 0.000000 0.000000 0.000000 0.000000 0.043549
#
#
# Mechanical properties :
#
#
# Convention : Reuss Voigt Hill
#
# Bulk Modulus (GPa) = 36.04954 41.08308 38.56631
# Shear Modulus (GPa) = 25.34451 26.75678 26.05064
#
# Velocity S-wave (km/s) = 3.76505 3.86852 3.81714
# Velocity P-wave (km/s) = 6.25011 6.55228 6.40298
#
# Compressibility (1/GPa) = 0.02773961
#
# Stress axis : x y z
#
# Youngs Moduli (GPa) = 58.35953 63.07610 71.41989
#
# Poissons Ratio (x) = 0.08029 0.05749
# Poissons Ratio (y) = 0.07429 0.53905
# Poissons Ratio (z) = 0.04698 0.47607
#
# Static dielectric constant tensor:
#      x y z
#    x 1.635090 0.000000 0.000000 
#    y 0.000000 1.646710 0.000000 
#    z 0.000000 0.000000 1.659890 
# 
# From -- ./inp_files/4682.got.cif
#   From: 2010.05.17/outbox.cif.g08.bks.cpg/sg28_3_cif.got.tgz:4682.got - 2010.06.04 01:15:21.
