data_PCOD9339064
_publ_section_title
;
Structure prediction by ZEFSAII (Michael W. Deem and Ramdas Pophale) SiO2 
 PCOD9339064
Probable space group: P C C 2
;
_chemical_formula_sum "Si O2"
_cell_formula_units_Z 18
_cell_length_a 8.159241
_cell_length_b 10.918648
_cell_length_c 7.841335
_cell_angle_alpha 90.000000
_cell_angle_beta 90.000000
_cell_angle_gamma 90.000000
_cell_volume 698.567915
_symmetry_space_group_name_H-M "P C C 2"
_symmetry_group_IT_number 27
_symmetry_cell_setting 'orthorhombic'
loop_
_space_group_symop_operation_xyz
x,y,z
-x,-y,z
-x,y,1/2+z
x,-y,1/2+z
loop_
_atom_site_type_symbol
_atom_site_label
_atom_site_fract_x
_atom_site_fract_y
_atom_site_fract_z
Si Si1 0.250629 0.833965 0.067230
Si Si2 0.500000 0.500000 0.082605
Si Si3 0.671873 0.073301 0.443377
Si Si4 0.660582 0.722565 0.229921
Si Si5 0.849185 0.411503 0.962238
O O1 0.310558 0.871377 0.254688
O O2 0.139560 0.712157 0.076892
O O3 0.370178 0.782143 0.915697
O O4 0.198333 0.963360 0.982790
O O5 0.520893 0.625551 0.186603
O O6 0.676098 0.482719 0.992550
O O7 0.313685 0.175937 0.088159
O O8 0.500000 0.000000 0.464998
O O9 0.822287 0.644219 0.273075
O O10 0.000000 0.500000 0.971804
#
# Coordination Sequence:
#
# PCOD9339064 Si02
#       5
#     4   2   4   4   4
#     4  10  23  40  72 118 170 223 286 361 444 528
#     4  12  24  46  78 118 164 228 298 362 436 538
#     4  12  22  39  73 126 174 225 291 371 448 533
#     4  10  26  44  73 118 173 231 291 366 446 541
#     4  10  25  49  76 117 172 230 288 363 442 532
#
# _framework density 25.766999999999999
#
# number of rings (size 3 to 8) (size 9 to 14) (size 15 to 20)
#    1.333    0.000    2.222    2.667    3.111    3.556 
#    0.000    2.222    0.000    1.333    5.778    0.000 
#    0.000    0.000    0.000    0.000    0.000    0.000 
#
# Total GULP energy -100440.850667 kJ/mol
# GULP energy per Si atom -5580.047259 kJ/mol
# Density = 2.570835 g / cm^3
# Si number density = 25.767000 Si / 1000 Ang^3
#
#
#
# Elastic Constant Matrix: (Units=GPa)
#
#
# Indices 1 2 3 4 5 6 
#
# 1 143.3728 100.3384 65.6711 0.0000 0.0000 0.0000
# 2 100.3384 250.9888 113.1708 0.0000 0.0000 0.0000
# 3 65.6711 113.1708 207.7965 0.0000 0.0000 0.0000
# 4 0.0000 0.0000 0.0000 73.8739 0.0000 0.0000
# 5 0.0000 0.0000 0.0000 0.0000 18.1578 0.0000
# 6 0.0000 0.0000 0.0000 0.0000 0.0000 40.5932
#
#
#
# Elastic Compliance Matrix: (Units=1/GPa)
#
#
# Indices 1 2 3 4 5 6 
#
# 1 0.009941 -0.003390 -0.001295 0.000000 0.000000 0.000000
# 2 -0.003390 0.006437 -0.002434 0.000000 0.000000 0.000000
# 3 -0.001295 -0.002434 0.006548 0.000000 0.000000 0.000000
# 4 0.000000 0.000000 0.000000 0.013537 0.000000 0.000000
# 5 0.000000 0.000000 0.000000 0.000000 0.055073 0.000000
# 6 0.000000 0.000000 0.000000 0.000000 0.000000 0.024635
#
#
# Mechanical properties :
#
#
# Convention : Reuss Voigt Hill
#
# Bulk Modulus (GPa) = 115.12939 128.94652 122.03795
# Shear Modulus (GPa) = 37.50821 48.05684 42.78253
#
# Velocity S-wave (km/s) = 3.81946 4.32331 4.07917
# Velocity P-wave (km/s) = 8.01430 8.66448 8.34573
#
# Compressibility (1/GPa) = 0.00868588
#
# Stress axis : x y z
#
# Youngs Moduli (GPa) = 100.59818 155.34881 152.72636
#
# Poissons Ratio (x) = 0.52661 0.19784
# Poissons Ratio (y) = 0.34102 0.37181
# Poissons Ratio (z) = 0.13031 0.37819
#
# Static dielectric constant tensor:
#      x y z
#    x 2.203340 0.000000 0.000000 
#    y 0.000000 2.170080 0.000000 
#    z 0.000000 0.000000 2.063730 
# 
# From -- ./inp_files/2290.got.cif
#   From: 2010.05.17/outbox.cif.g08.bks.cpg/sg27_2_cif.got.tgz:2290.got - 2010.06.04 01:11:05.
