data_PCOD9339159
_publ_section_title
;
Structure prediction by ZEFSAII (Michael W. Deem and Ramdas Pophale) SiO2 
 PCOD9339159
Probable space group: P C C 2
;
_chemical_formula_sum "Si O2"
_cell_formula_units_Z 32
_cell_length_a 7.984346
_cell_length_b 14.782748
_cell_length_c 12.328953
_cell_angle_alpha 90.000000
_cell_angle_beta 90.000000
_cell_angle_gamma 90.000000
_cell_volume 1455.193410
_symmetry_space_group_name_H-M "P C C 2"
_symmetry_group_IT_number 27
_symmetry_cell_setting 'orthorhombic'
loop_
_space_group_symop_operation_xyz
x,y,z
-x,-y,z
-x,y,1/2+z
x,-y,1/2+z
loop_
_atom_site_type_symbol
_atom_site_label
_atom_site_fract_x
_atom_site_fract_y
_atom_site_fract_z
Si Si1 0.805817 0.170766 0.138990
Si Si2 0.626995 0.231568 0.460840
Si Si3 0.164716 0.359170 0.249882
Si Si4 0.319995 0.526432 0.132689
Si Si5 0.499707 0.101775 0.770126
Si Si6 0.286373 0.686514 0.984029
Si Si7 0.826242 0.839209 0.149388
Si Si8 0.793674 0.655002 0.796446
O O1 0.641341 0.113913 0.174033
O O2 0.810327 0.222753 0.022647
O O3 0.796093 0.255216 0.222144
O O4 0.985340 0.122761 0.152736
O O5 0.544894 0.173299 0.363871
O O6 0.474171 0.283333 0.518773
O O7 0.739176 0.165638 0.532405
O O8 0.741921 0.310439 0.412785
O O9 0.227331 0.436880 0.170457
O O10 0.272325 0.338309 0.358096
O O11 0.157772 0.265445 0.185266
O O12 0.979240 0.383953 0.291167
O O13 0.500000 0.500000 0.087502
O O14 0.233825 0.597253 0.050937
O O15 0.335399 0.585435 0.243273
O O16 0.685756 0.118849 0.726060
O O17 0.500000 0.000000 0.812658
#
# Coordination Sequence:
#
# PCOD9339159 Si02
#       8
#     4   4   4   4   4   4   4   4
#     4   9  21  41  67  96 131 173 221 266 333 405
#     4  11  21  40  68  95 131 174 222 272 335 406
#     4  11  22  39  62  89 126 174 221 271 329 386
#     4  11  23  36  55  87 126 165 221 274 319 377
#     4  11  24  43  69  99 134 169 221 277 339 409
#     4  11  21  39  64  93 129 173 221 272 325 396
#     4  11  22  41  68  95 131 179 218 271 337 401
#     4   9  21  39  60  88 126 170 219 269 327 389
#
# _framework density 21.990203999999999
#
# number of rings (size 3 to 8) (size 9 to 14) (size 15 to 20)
#    0.000    1.500    2.500    2.625    1.750    3.500 
#    0.000    5.000    0.000    0.000    0.000    0.000 
#    0.000    0.000    0.000    0.000    0.000    0.000 
#
# Total GULP energy -178598.810807 kJ/mol
# GULP energy per Si atom -5581.212838 kJ/mol
# Density = 2.194015 g / cm^3
# Si number density = 21.990204 Si / 1000 Ang^3
#
#
#
# Elastic Constant Matrix: (Units=GPa)
#
#
# Indices 1 2 3 4 5 6 
#
# 1 101.0318 18.6013 1.6015 0.0000 0.0000 0.0000
# 2 18.6013 63.4121 3.6271 0.0000 0.0000 0.0000
# 3 1.6015 3.6271 35.7293 0.0000 0.0000 0.0000
# 4 0.0000 0.0000 0.0000 10.6932 0.0000 0.0000
# 5 0.0000 0.0000 0.0000 0.0000 21.7491 0.0000
# 6 0.0000 0.0000 0.0000 0.0000 0.0000 4.1111
#
#
#
# Elastic Compliance Matrix: (Units=1/GPa)
#
#
# Indices 1 2 3 4 5 6 
#
# 1 0.010464 -0.003060 -0.000158 0.000000 0.000000 0.000000
# 2 -0.003060 0.016757 -0.001564 0.000000 0.000000 0.000000
# 3 -0.000158 -0.001564 0.028154 0.000000 0.000000 0.000000
# 4 0.000000 0.000000 0.000000 0.093517 0.000000 0.000000
# 5 0.000000 0.000000 0.000000 0.000000 0.045979 0.000000
# 6 0.000000 0.000000 0.000000 0.000000 0.000000 0.243242
#
#
# Mechanical properties :
#
#
# Convention : Reuss Voigt Hill
#
# Bulk Modulus (GPa) = 21.82946 27.53700 24.68323
# Shear Modulus (GPa) = 10.80033 19.06691 14.93362
#
# Velocity S-wave (km/s) = 2.21858 2.94779 2.60879
# Velocity P-wave (km/s) = 4.06340 4.91279 4.50815
#
# Compressibility (1/GPa) = 0.04580965
#
# Stress axis : x y z
#
# Youngs Moduli (GPa) = 95.56719 59.67637 35.51878
#
# Poissons Ratio (x) = 0.18263 0.00562
# Poissons Ratio (y) = 0.29247 0.05555
# Poissons Ratio (z) = 0.01513 0.09333
#
# Static dielectric constant tensor:
#      x y z
#    x 1.868210 0.000000 0.000000 
#    y 0.000000 1.775060 0.000000 
#    z 0.000000 0.000000 1.849240 
# 
# From -- ./inp_files/2453.got.cif
#   From: 2010.05.17/outbox.cif.g08.bks.cpg/sg27_2_cif.got.tgz:2453.got - 2010.06.04 01:11:05.
