data_PCOD9339361
_publ_section_title
;
Structure prediction by ZEFSAII (Michael W. Deem and Ramdas Pophale) SiO2 
 PCOD9339361
Probable space group: P M A 2
;
_chemical_formula_sum "Si O2"
_cell_formula_units_Z 32
_cell_length_a 7.893203
_cell_length_b 14.540523
_cell_length_c 14.491986
_cell_angle_alpha 90.000000
_cell_angle_beta 90.000000
_cell_angle_gamma 90.000000
_cell_volume 1663.264069
_symmetry_space_group_name_H-M "P M A 2"
_symmetry_group_IT_number 28
_symmetry_cell_setting 'orthorhombic'
loop_
_space_group_symop_operation_xyz
x,y,z
-x,-y,z
1/2-x,y,z
1/2+x,-y,z
loop_
_atom_site_type_symbol
_atom_site_label
_atom_site_fract_x
_atom_site_fract_y
_atom_site_fract_z
Si Si1 0.453101 0.396174 0.856210
Si Si2 0.557695 0.246586 0.208471
Si Si3 0.454859 0.892475 0.358815
Si Si4 0.451112 0.893292 0.564212
Si Si5 0.546588 0.601260 0.342448
Si Si6 0.953761 0.741725 0.699677
Si Si7 0.449087 0.604926 0.069525
Si Si8 0.047266 0.400558 0.553212
O O1 0.500000 0.500000 0.823453
O O2 0.250000 0.393839 0.858717
O O3 0.513808 0.311220 0.792027
O O4 0.517383 0.386424 0.960647
O O5 0.750000 0.219398 0.181739
O O6 0.480112 0.162197 0.268057
O O7 0.555391 0.324808 0.286120
O O8 0.476434 0.306313 0.124468
O O9 0.250000 0.882680 0.358091
O O10 0.515986 0.859732 0.461782
O O11 0.500000 0.000000 0.352485
O O12 0.250000 0.885346 0.560260
O O13 0.508040 0.841439 0.657334
O O14 0.500000 0.000000 0.569476
O O15 0.500000 0.500000 0.309082
O O16 0.750000 0.615712 0.335464
O O17 0.489989 0.606343 0.448452
O O18 0.750000 0.736351 0.704372
O O19 0.022359 0.677657 0.617627
O O20 0.500000 0.500000 0.095361
O O21 0.250000 0.609233 0.087471
O O22 0.250000 0.393533 0.551915
O O23 0.000000 0.500000 0.590387
#
# Coordination Sequence:
#
# PCOD9339361 Si02
#       8
#     4   4   4   4   4   4   4   4
#     4  10  20  34  53  76 103 134 169 211 254 299
#     4  10  20  33  50  72  98 128 165 208 250 295
#     4   9  19  35  53  76 104 133 167 206 250 299
#     4  10  20  34  54  77 103 135 168 206 250 298
#     4  10  19  29  43  65  95 130 163 195 236 288
#     4  10  20  33  50  73 100 129 165 208 250 295
#     4  10  20  34  52  73 100 133 168 209 254 301
#     4   9  18  30  43  64  96 130 161 195 236 287
#
# _framework density 19.239279
#
# number of rings (size 3 to 8) (size 9 to 14) (size 15 to 20)
#    0.000    2.250    0.000    3.750    0.000    5.000 
#    0.000    0.000    0.000    0.750    0.000    3.500 
#    0.000    0.000    0.000    0.000    0.000    0.000 
#
# Total GULP energy -178199.542071 kJ/mol
# GULP energy per Si atom -5568.735690 kJ/mol
# Density = 1.919549 g / cm^3
# Si number density = 19.239279 Si / 1000 Ang^3
#
#
#
# Elastic Constant Matrix: (Units=GPa)
#
#
# Indices 1 2 3 4 5 6 
#
# 1 30.2144 -4.8100 5.2291 0.0000 0.0000 0.0000
# 2 -4.8100 83.0589 54.4466 0.0000 0.0000 0.0000
# 3 5.2291 54.4466 115.5763 0.0000 0.0000 0.0000
# 4 0.0000 0.0000 0.0000 -15.3908 0.0000 0.0000
# 5 0.0000 0.0000 0.0000 0.0000 18.9250 0.0000
# 6 0.0000 0.0000 0.0000 0.0000 0.0000 22.3196
#
#
#
# Elastic Compliance Matrix: (Units=1/GPa)
#
#
# Indices 1 2 3 4 5 6 
#
# 1 0.034416 0.004360 -0.003611 0.000000 0.000000 0.000000
# 2 0.004360 0.017971 -0.008663 0.000000 0.000000 0.000000
# 3 -0.003611 -0.008663 0.012897 0.000000 0.000000 0.000000
# 4 0.000000 0.000000 0.000000 -0.064974 0.000000 0.000000
# 5 0.000000 0.000000 0.000000 0.000000 0.052840 0.000000
# 6 0.000000 0.000000 0.000000 0.000000 0.000000 0.044804
#
#
# Mechanical properties :
#
#
# Convention : Reuss Voigt Hill
#
# Bulk Modulus (GPa) = 20.22022 37.62012 28.92017
# Shear Modulus (GPa) = 38.38272 16.76970 27.57621
#
# Velocity S-wave (km/s) = 4.47141 2.95556 3.79004
# Velocity P-wave (km/s) = 6.09842 5.58957 5.84953
#
# Compressibility (1/GPa) = 0.04945543
#
# Stress axis : x y z
#
# Youngs Moduli (GPa) = 29.05638 55.64504 77.53855
#
# Poissons Ratio (x) = -0.24262 0.28000
# Poissons Ratio (y) = -0.12669 0.67173
# Poissons Ratio (z) = 0.10493 0.48207
#
# Static dielectric constant tensor:
#      x y z
#    x 1.701480 0.000000 0.000000 
#    y 0.000000 1.720860 0.000000 
#    z 0.000000 0.000000 1.718880 
# 
# From -- ./inp_files/6447.got.cif
#   From: 2010.05.17/outbox.cif.g08.bks.cpg/sg28_4_cif.got.tgz:6447.got - 2010.06.04 01:15:21.
