data_PCOD9339848
_publ_section_title
;
Structure prediction by ZEFSAII (Michael W. Deem and Ramdas Pophale) SiO2 
 PCOD9339848
Probable space group: P M A 2
;
_chemical_formula_sum "Si O2"
_cell_formula_units_Z 32
_cell_length_a 19.747641
_cell_length_b 5.236131
_cell_length_c 13.702696
_cell_angle_alpha 90.000000
_cell_angle_beta 90.000000
_cell_angle_gamma 90.000000
_cell_volume 1416.875692
_symmetry_space_group_name_H-M "P M A 2"
_symmetry_group_IT_number 28
_symmetry_cell_setting 'orthorhombic'
loop_
_space_group_symop_operation_xyz
x,y,z
-x,-y,z
1/2-x,y,z
1/2+x,-y,z
loop_
_atom_site_type_symbol
_atom_site_label
_atom_site_fract_x
_atom_site_fract_y
_atom_site_fract_z
Si Si1 0.429384 0.123144 0.826310
Si Si2 0.174605 0.399982 0.719786
Si Si3 0.673750 0.268593 0.917752
Si Si4 0.325796 0.742992 0.299422
Si Si5 0.925728 0.452918 0.571448
Si Si6 0.327046 0.241236 0.172031
Si Si7 0.572292 0.967542 0.443797
Si Si8 0.071703 0.413201 0.024656
O O1 0.389053 0.214200 0.732238
O O2 0.445338 0.313132 0.915880
O O3 0.500000 0.000000 0.799746
O O4 0.372453 0.950435 0.875610
O O5 0.250000 0.300619 0.699296
O O6 0.177971 0.534765 0.825969
O O7 0.143288 0.566936 0.634074
O O8 0.750000 0.192762 0.943429
O O9 0.630347 0.379851 0.005761
O O10 0.250000 0.700945 0.339825
O O11 0.345267 0.469536 0.249938
O O12 0.322456 0.961450 0.217447
O O13 0.371341 0.891614 0.378339
O O14 0.917305 0.680984 0.488666
O O15 0.000000 0.500000 0.620696
O O16 0.934897 0.170213 0.530246
O O17 0.250000 0.304718 0.135414
O O18 0.387149 0.225332 0.093645
O O19 0.500000 0.000000 0.389052
O O20 0.000000 0.500000 0.067326
#
# Coordination Sequence:
#
# PCOD9339848 Si02
#       8
#     4   4   4   4   4   4   4   4
#     4  11  23  38  64  88 122 167 213 264 314 376
#     4  10  24  40  59  91 124 162 215 262 317 379
#     4  10  22  40  60  85 122 163 205 259 314 369
#     4  10  22  41  64  91 122 162 206 254 317 381
#     4  10  23  39  63  93 126 165 206 259 316 381
#     4  10  23  40  62  92 126 163 207 257 315 379
#     4  10  22  41  63  92 125 160 207 254 319 382
#     4  11  23  39  58  91 123 160 212 259 313 377
#
# _framework density 22.584904000000002
#
# number of rings (size 3 to 8) (size 9 to 14) (size 15 to 20)
#    0.000    1.750    1.250    1.500    5.250    4.000 
#    0.000    0.000    0.000    0.000    0.000    0.000 
#    0.000    0.000    0.000    0.000    0.000    0.000 
#
# Total GULP energy -178228.942306 kJ/mol
# GULP energy per Si atom -5569.654447 kJ/mol
# Density = 2.253350 g / cm^3
# Si number density = 22.584904 Si / 1000 Ang^3
#
#
#
# Elastic Constant Matrix: (Units=GPa)
#
#
# Indices 1 2 3 4 5 6 
#
# 1 171.0554 10.2092 29.1631 0.0000 0.0000 0.0000
# 2 10.2092 77.3231 -5.4662 0.0000 0.0000 0.0000
# 3 29.1631 -5.4662 22.7899 0.0000 0.0000 0.0000
# 4 0.0000 0.0000 0.0000 21.0215 0.0000 0.0000
# 5 0.0000 0.0000 0.0000 0.0000 37.8449 0.0000
# 6 0.0000 0.0000 0.0000 0.0000 0.0000 35.7521
#
#
#
# Elastic Compliance Matrix: (Units=1/GPa)
#
#
# Indices 1 2 3 4 5 6 
#
# 1 0.007702 -0.001743 -0.010273 0.000000 0.000000 0.000000
# 2 -0.001743 0.013550 0.005481 0.000000 0.000000 0.000000
# 3 -0.010273 0.005481 0.058340 0.000000 0.000000 0.000000
# 4 0.000000 0.000000 0.000000 0.047570 0.000000 0.000000
# 5 0.000000 0.000000 0.000000 0.000000 0.026424 0.000000
# 6 0.000000 0.000000 0.000000 0.000000 0.000000 0.027970
#
#
# Mechanical properties :
#
#
# Convention : Reuss Voigt Hill
#
# Bulk Modulus (GPa) = 15.03304 37.66451 26.34877
# Shear Modulus (GPa) = 23.06256 34.74119 28.90188
#
# Velocity S-wave (km/s) = 3.19901 3.92631 3.58117
# Velocity P-wave (km/s) = 4.50728 6.10472 5.36578
#
# Compressibility (1/GPa) = 0.06652017
#
# Stress axis : x y z
#
# Youngs Moduli (GPa) = 129.84296 73.79882 17.14090
#
# Poissons Ratio (x) = 0.12864 0.17610
# Poissons Ratio (y) = 0.22633 -0.09394
# Poissons Ratio (z) = 1.33394 -0.40447
#
# Static dielectric constant tensor:
#      x y z
#    x 1.789310 0.000000 0.000000 
#    y 0.000000 1.891300 0.000000 
#    z 0.000000 0.000000 2.192290 
# 
# From -- ./inp_files/6610.got.cif
#   From: 2010.05.17/outbox.cif.g08.bks.cpg/sg28_4_cif.got.tgz:6610.got - 2010.06.04 01:15:21.
