data_PCOD9339479
_publ_section_title
;
Structure prediction by ZEFSAII (Michael W. Deem and Ramdas Pophale) SiO2 
 PCOD9339479
Probable space group: P M A 2
;
_chemical_formula_sum "Si O2"
_cell_formula_units_Z 24
_cell_length_a 15.526630
_cell_length_b 9.538879
_cell_length_c 9.485498
_cell_angle_alpha 90.000000
_cell_angle_beta 90.000000
_cell_angle_gamma 90.000000
_cell_volume 1404.865283
_symmetry_space_group_name_H-M "P M A 2"
_symmetry_group_IT_number 28
_symmetry_cell_setting 'orthorhombic'
loop_
_space_group_symop_operation_xyz
x,y,z
-x,-y,z
1/2-x,y,z
1/2+x,-y,z
loop_
_atom_site_type_symbol
_atom_site_label
_atom_site_fract_x
_atom_site_fract_y
_atom_site_fract_z
Si Si1 0.351845 0.651420 0.194840
Si Si2 0.988783 0.162734 0.031209
Si Si3 0.151683 0.362834 0.030866
Si Si4 0.091218 0.421082 0.722536
Si Si5 0.485200 0.838673 0.695845
Si Si6 0.150778 0.661602 0.525530
O O1 0.250000 0.684487 0.176004
O O2 0.413634 0.760494 0.116598
O O3 0.371311 0.649781 0.361048
O O4 0.365762 0.497770 0.128061
O O5 0.967432 0.169912 0.863898
O O6 0.000000 0.000000 0.069298
O O7 0.078362 0.246373 0.052863
O O8 0.250000 0.314733 0.055212
O O9 0.142125 0.412593 0.868485
O O10 0.136475 0.513519 0.604123
O O11 0.000000 0.500000 0.752086
O O12 0.066632 0.264605 0.673889
O O13 0.408947 0.772201 0.605512
O O14 0.500000 0.000000 0.659800
O O15 0.250000 0.702367 0.537614
#
# Coordination Sequence:
#
# PCOD9339479 Si02
#       6
#     4   4   4   4   4   4
#     4  10  21  35  53  77 105 137 175 214 257 306
#     4  10  21  36  54  77 106 139 173 212 259 309
#     4  10  19  33  54  78 102 132 172 218 260 306
#     4   9  17  31  53  76 100 134 171 210 257 306
#     4   9  19  35  52  75 104 135 172 208 254 310
#     4  10  20  34  52  77 104 133 171 214 256 303
#
# _framework density 17.083489
#
# number of rings (size 3 to 8) (size 9 to 14) (size 15 to 20)
#    0.000    2.333    0.000    4.000    0.000    7.333 
#    0.000    7.500    0.000    4.000    0.000    0.000 
#    0.000    0.000    0.000    0.000    0.000    0.000 
#
# Total GULP energy -133877.360440 kJ/mol
# GULP energy per Si atom -5578.223352 kJ/mol
# Density = 1.704461 g / cm^3
# Si number density = 17.083489 Si / 1000 Ang^3
#
#
#
# Elastic Constant Matrix: (Units=GPa)
#
#
# Indices 1 2 3 4 5 6 
#
# 1 94.4248 72.1355 71.4908 0.0000 0.0000 0.0000
# 2 72.1355 153.1199 79.2996 0.0000 0.0000 0.0000
# 3 71.4908 79.2996 98.3182 0.0000 0.0000 0.0000
# 4 0.0000 0.0000 0.0000 2.2943 0.0000 0.0000
# 5 0.0000 0.0000 0.0000 0.0000 29.1116 0.0000
# 6 0.0000 0.0000 0.0000 0.0000 0.0000 9.5432
#
#
#
# Elastic Compliance Matrix: (Units=1/GPa)
#
#
# Indices 1 2 3 4 5 6 
#
# 1 0.024943 -0.004049 -0.014871 0.000000 0.000000 0.000000
# 2 -0.004049 0.011873 -0.006632 0.000000 0.000000 0.000000
# 3 -0.014871 -0.006632 0.026334 0.000000 0.000000 0.000000
# 4 0.000000 0.000000 0.000000 0.435862 0.000000 0.000000
# 5 0.000000 0.000000 0.000000 0.000000 0.034351 0.000000
# 6 0.000000 0.000000 0.000000 0.000000 0.000000 0.104787
#
#
# Mechanical properties :
#
#
# Convention : Reuss Voigt Hill
#
# Bulk Modulus (GPa) = 83.02206 87.96830 85.49518
# Shear Modulus (GPa) = 7.21221 16.38562 11.79891
#
# Velocity S-wave (km/s) = 2.05692 3.10037 2.63090
# Velocity P-wave (km/s) = 7.37188 8.02629 7.70603
#
# Compressibility (1/GPa) = 0.01204499
#
# Stress axis : x y z
#
# Youngs Moduli (GPa) = 40.09151 84.22393 37.97436
#
# Poissons Ratio (x) = 0.34103 0.56472
# Poissons Ratio (y) = 0.16234 0.25185
# Poissons Ratio (z) = 0.59620 0.55858
#
# Static dielectric constant tensor:
#      x y z
#    x 1.578950 0.000000 0.000000 
#    y 0.000000 1.568090 0.000000 
#    z 0.000000 0.000000 1.564590 
# 
# From -- ./inp_files/3378.got.cif
#   From: 2010.05.17/outbox.cif.g08.bks.cpg/sg28_2_cif.got.tgz:3378.got - 2010.06.04 01:15:21.
