data_PCOD9339249
_publ_section_title
;
Structure prediction by ZEFSAII (Michael W. Deem and Ramdas Pophale) SiO2 
 PCOD9339249
Probable space group: P M A 2
;
_chemical_formula_sum "Si O2"
_cell_formula_units_Z 32
_cell_length_a 8.646586
_cell_length_b 9.106305
_cell_length_c 21.955670
_cell_angle_alpha 90.000000
_cell_angle_beta 90.000000
_cell_angle_gamma 90.000000
_cell_volume 1728.755410
_symmetry_space_group_name_H-M "P M A 2"
_symmetry_group_IT_number 28
_symmetry_cell_setting 'orthorhombic'
loop_
_space_group_symop_operation_xyz
x,y,z
-x,-y,z
1/2-x,y,z
1/2+x,-y,z
loop_
_atom_site_type_symbol
_atom_site_label
_atom_site_fract_x
_atom_site_fract_y
_atom_site_fract_z
Si Si1 0.435230 0.833543 0.340480
Si Si2 0.064503 0.333166 0.973684
Si Si3 0.065649 0.335085 0.590290
Si Si4 0.065402 0.165602 0.215237
Si Si5 0.065548 0.667377 0.715899
Si Si6 0.064276 0.834646 0.474829
Si Si7 0.935371 0.666996 0.840432
Si Si8 0.434625 0.665572 0.099109
O O1 0.250000 0.838144 0.333758
O O2 0.508582 0.766495 0.279639
O O3 0.472330 0.770299 0.407370
O O4 0.500000 0.000000 0.342525
O O5 0.250000 0.338222 0.979620
O O6 0.000000 0.500000 0.971998
O O7 0.992389 0.266635 0.034816
O O8 0.026716 0.267124 0.907057
O O9 0.250000 0.339274 0.594236
O O10 0.000000 0.500000 0.586228
O O11 0.998454 0.266975 0.652986
O O12 0.010357 0.251431 0.530424
O O13 0.250000 0.162473 0.214026
O O14 0.999552 0.249908 0.157227
O O15 0.000000 0.000000 0.212975
O O16 0.250000 0.662645 0.714926
O O17 0.000000 0.500000 0.716117
O O18 0.006677 0.735848 0.779375
O O19 0.250000 0.836742 0.480907
O O20 0.000000 0.000000 0.476343
O O21 0.750000 0.660998 0.834415
O O22 0.000000 0.500000 0.842409
O O23 0.500000 0.500000 0.101644
O O24 0.250000 0.662337 0.099854
#
# Coordination Sequence:
#
# PCOD9339249 Si02
#       8
#     4   4   4   4   4   4   4   4
#     4   9  17  31  52  76 101 128 162 204 247 291
#     4   9  16  26  41  63  92 126 162 201 245 292
#     4  11  21  34  51  72 102 136 169 207 253 301
#     4  11  21  35  55  78 103 131 167 207 248 295
#     4  10  17  26  41  62  91 125 162 202 246 294
#     4  10  20  35  55  79 104 131 166 205 246 294
#     4   9  15  23  37  59  88 121 159 200 242 288
#     4  11  21  34  51  73 103 136 169 206 252 301
#
# _framework density 18.510428000000001
#
# number of rings (size 3 to 8) (size 9 to 14) (size 15 to 20)
#    0.000    2.000    0.000    9.000    0.000    3.000 
#    0.000    0.625    0.000    3.000    0.000    0.875 
#    0.000    6.000    0.000    0.000    0.000    0.000 
#
# Total GULP energy -178401.444951 kJ/mol
# GULP energy per Si atom -5575.045155 kJ/mol
# Density = 1.846830 g / cm^3
# Si number density = 18.510428 Si / 1000 Ang^3
#
#
#
# Elastic Constant Matrix: (Units=GPa)
#
#
# Indices 1 2 3 4 5 6 
#
# 1 162.0599 16.6151 96.3977 0.0000 0.0000 0.0000
# 2 16.6151 15.5666 37.9804 0.0000 0.0000 0.0000
# 3 96.3977 37.9804 241.5610 0.0000 0.0000 0.0000
# 4 0.0000 0.0000 0.0000 61.7297 0.0000 0.0000
# 5 0.0000 0.0000 0.0000 0.0000 37.1719 0.0000
# 6 0.0000 0.0000 0.0000 0.0000 0.0000 17.6426
#
#
#
# Elastic Compliance Matrix: (Units=1/GPa)
#
#
# Indices 1 2 3 4 5 6 
#
# 1 0.008106 -0.001232 -0.003041 0.000000 0.000000 0.000000
# 2 -0.001232 0.104409 -0.015924 0.000000 0.000000 0.000000
# 3 -0.003041 -0.015924 0.007857 0.000000 0.000000 0.000000
# 4 0.000000 0.000000 0.000000 0.016200 0.000000 0.000000
# 5 0.000000 0.000000 0.000000 0.000000 0.026902 0.000000
# 6 0.000000 0.000000 0.000000 0.000000 0.000000 0.056681
#
#
# Mechanical properties :
#
#
# Convention : Reuss Voigt Hill
#
# Bulk Modulus (GPa) = 12.50369 80.13044 46.31706
# Shear Modulus (GPa) = 17.40900 41.18847 29.29873
#
# Velocity S-wave (km/s) = 3.07008 4.72227 3.98279
# Velocity P-wave (km/s) = 4.39736 8.55081 6.79901
#
# Compressibility (1/GPa) = 0.07997642
#
# Stress axis : x y z
#
# Youngs Moduli (GPa) = 123.36959 9.57775 127.27465
#
# Poissons Ratio (x) = 0.01180 0.38703
# Poissons Ratio (y) = 0.15202 2.02676
# Poissons Ratio (z) = 0.37516 0.15252
#
# Static dielectric constant tensor:
#      x y z
#    x 1.612640 0.000000 0.000000 
#    y 0.000000 1.614410 0.000000 
#    z 0.000000 0.000000 1.731540 
# 
# From -- ./inp_files/6933.got.cif
#   From: 2010.05.17/outbox.cif.g08.bks.cpg/sg28_4_cif.got.tgz:6933.got - 2010.06.04 01:15:21.
