data_PCOD9339752
_publ_section_title
;
Structure prediction by ZEFSAII (Michael W. Deem and Ramdas Pophale) SiO2 
 PCOD9339752
Probable space group: P M A 2
;
_chemical_formula_sum "Si O2"
_cell_formula_units_Z 28
_cell_length_a 7.576553
_cell_length_b 9.813250
_cell_length_c 18.720905
_cell_angle_alpha 90.000000
_cell_angle_beta 90.000000
_cell_angle_gamma 90.000000
_cell_volume 1391.910683
_symmetry_space_group_name_H-M "P M A 2"
_symmetry_group_IT_number 28
_symmetry_cell_setting 'orthorhombic'
loop_
_space_group_symop_operation_xyz
x,y,z
-x,-y,z
1/2-x,y,z
1/2+x,-y,z
loop_
_atom_site_type_symbol
_atom_site_label
_atom_site_fract_x
_atom_site_fract_y
_atom_site_fract_z
Si Si1 0.038121 0.342264 0.084200
Si Si2 0.962207 0.839850 0.792810
Si Si3 0.038014 0.159338 0.372112
Si Si4 0.038014 0.159338 0.213507
Si Si5 0.037982 0.341793 0.923671
Si Si6 0.537982 0.658207 0.661948
Si Si7 0.961879 0.657736 0.501419
O O1 0.250000 0.325228 0.081754
O O2 0.968699 0.247678 0.147628
O O3 0.000000 0.500000 0.099610
O O4 0.970396 0.313403 0.003962
O O5 0.750000 0.825375 0.792810
O O6 0.028868 0.760801 0.863202
O O7 0.028868 0.760801 0.722417
O O8 0.000000 0.000000 0.792810
O O9 0.250000 0.175889 0.370633
O O10 0.971271 0.197813 0.292810
O O11 0.968699 0.247678 0.437991
O O12 0.000000 0.000000 0.382780
O O13 0.250000 0.175889 0.214987
O O14 0.000000 0.000000 0.202840
O O15 0.250000 0.328794 0.926004
O O16 0.000000 0.500000 0.906151
O O17 0.500000 0.500000 0.679468
O O18 0.750000 0.671206 0.659615
O O19 0.470396 0.686597 0.581657
O O20 0.750000 0.674772 0.503865
O O21 0.000000 0.500000 0.486009
#
# Coordination Sequence:
#
# PCOD9339752 Si02
#       7
#     4   4   4   4   4   4   4
#     4   9  18  32  49  70  95 121 152 191 232 273
#     4  10  21  34  48  70  98 124 153 190 230 272
#     4   9  18  32  48  67  93 124 156 190 229 273
#     4   9  18  32  48  67  93 124 156 190 229 273
#     4   9  18  33  51  70  93 122 155 190 229 274
#     4   9  18  33  51  70  93 122 155 190 229 274
#     4   9  18  32  49  70  95 121 152 191 232 273
#
# _framework density 20.116233999999999
#
# number of rings (size 3 to 8) (size 9 to 14) (size 15 to 20)
#    0.000    2.857    0.000    0.429    0.000    4.000 
#    0.000    0.000    0.000    0.000    0.000    0.000 
#    0.000    0.000    0.000    0.000    0.000    0.000 
#
# Total GULP energy -156194.687165 kJ/mol
# GULP energy per Si atom -5578.381684 kJ/mol
# Density = 2.007045 g / cm^3
# Si number density = 20.116234 Si / 1000 Ang^3
#
#
#
# Elastic Constant Matrix: (Units=GPa)
#
#
# Indices 1 2 3 4 5 6 
#
# 1 46.2204 -3.2586 9.9340 0.0000 0.0000 0.0000
# 2 -3.2586 133.3299 154.1869 0.0000 0.0000 0.0000
# 3 9.9340 154.1869 223.1200 0.0000 0.0000 0.0000
# 4 0.0000 0.0000 0.0000 -34.0548 0.0000 0.0000
# 5 0.0000 0.0000 0.0000 0.0000 -30.3810 0.0000
# 6 0.0000 0.0000 0.0000 0.0000 0.0000 25.9738
#
#
#
# Elastic Compliance Matrix: (Units=1/GPa)
#
#
# Indices 1 2 3 4 5 6 
#
# 1 0.023837 0.009011 -0.007289 0.000000 0.000000 0.000000
# 2 0.009011 0.040749 -0.028561 0.000000 0.000000 0.000000
# 3 -0.007289 -0.028561 0.024543 0.000000 0.000000 0.000000
# 4 0.000000 0.000000 0.000000 -0.029364 0.000000 0.000000
# 5 0.000000 0.000000 0.000000 0.000000 -0.032915 0.000000
# 6 0.000000 0.000000 0.000000 0.000000 0.000000 0.038500
#
#
# Mechanical properties :
#
#
# Convention : Reuss Voigt Hill
#
# Bulk Modulus (GPa) = 28.20596 80.48831 54.34714
# Shear Modulus (GPa) = 38.21349 8.42816 23.32082
#
# Velocity S-wave (km/s) = 4.36321 2.04910 3.40855
# Velocity P-wave (km/s) = 6.27976 6.75995 6.52427
#
# Compressibility (1/GPa) = 0.03545349
#
# Stress axis : x y z
#
# Youngs Moduli (GPa) = 41.95115 24.54049 40.74436
#
# Poissons Ratio (x) = -0.22114 0.29697
# Poissons Ratio (y) = -0.37803 1.16369
# Poissons Ratio (z) = 0.30576 0.70089
#
# Static dielectric constant tensor:
#      x y z
#    x 1.732190 0.000000 0.000000 
#    y 0.000000 1.647030 0.000000 
#    z 0.000000 0.000000 1.749810 
# 
# From -- ./inp_files/6718.got.cif
#   From: 2010.05.17/outbox.cif.g08.bks.cpg/sg28_4_cif.got.tgz:6718.got - 2010.06.04 01:15:21.
