data_PCOD9339883
_publ_section_title
;
Structure prediction by ZEFSAII (Michael W. Deem and Ramdas Pophale) SiO2 
 PCOD9339883
Probable space group: P M A 2
;
_chemical_formula_sum "Si O2"
_cell_formula_units_Z 14
_cell_length_a 20.229100
_cell_length_b 5.083538
_cell_length_c 5.537272
_cell_angle_alpha 90.000000
_cell_angle_beta 90.000000
_cell_angle_gamma 90.000000
_cell_volume 569.427573
_symmetry_space_group_name_H-M "P M A 2"
_symmetry_group_IT_number 28
_symmetry_cell_setting 'orthorhombic'
loop_
_space_group_symop_operation_xyz
x,y,z
-x,-y,z
1/2-x,y,z
1/2+x,-y,z
loop_
_atom_site_type_symbol
_atom_site_label
_atom_site_fract_x
_atom_site_fract_y
_atom_site_fract_z
Si Si1 0.371296 0.264458 0.387490
Si Si2 0.930980 0.102817 0.006642
Si Si3 0.822704 0.248793 0.639000
Si Si4 0.000000 0.500000 0.378294
O O1 0.331610 0.531152 0.432272
O O2 0.443530 0.328566 0.503603
O O3 0.390948 0.139839 0.128864
O O4 0.332203 0.035932 0.521328
O O5 0.957250 0.298243 0.216143
O O6 0.882043 0.256253 0.831086
O O7 0.000000 0.000000 0.898593
O O8 0.750000 0.276425 0.749187
#
# Coordination Sequence:
#
# PCOD9339883 Si02
#       4
#     4   4   4   2
#     4  11  25  47  71 103 143 187 241 299 361 432
#     4  10  25  46  74 108 143 188 249 307 363 427
#     4  12  28  45  71 108 146 196 238 292 375 445
#     4  10  22  48  72 108 132 188 240 308 366 406
#
# _framework density 24.586095
#
# number of rings (size 3 to 8) (size 9 to 14) (size 15 to 20)
#    0.000    1.143    2.857    0.857   12.000    2.286 
#    0.000    0.000    0.000    0.000    0.000    0.000 
#    0.000    0.000    0.000    0.000    0.000    0.000 
#
# Total GULP energy -78232.999511 kJ/mol
# GULP energy per Si atom -5588.071394 kJ/mol
# Density = 2.453014 g / cm^3
# Si number density = 24.586095 Si / 1000 Ang^3
#
#
#
# Elastic Constant Matrix: (Units=GPa)
#
#
# Indices 1 2 3 4 5 6 
#
# 1 157.4322 39.6751 48.8253 0.0000 0.0000 0.0000
# 2 39.6751 148.3210 25.1800 0.0000 0.0000 0.0000
# 3 48.8253 25.1800 51.3564 0.0000 0.0000 0.0000
# 4 0.0000 0.0000 0.0000 17.2831 0.0000 0.0000
# 5 0.0000 0.0000 0.0000 0.0000 299.7371 0.0000
# 6 0.0000 0.0000 0.0000 0.0000 0.0000 24.9290
#
#
#
# Elastic Compliance Matrix: (Units=1/GPa)
#
#
# Indices 1 2 3 4 5 6 
#
# 1 0.009158 -0.001060 -0.008187 0.000000 0.000000 0.000000
# 2 -0.001060 0.007477 -0.002658 0.000000 0.000000 0.000000
# 3 -0.008187 -0.002658 0.028559 0.000000 0.000000 0.000000
# 4 0.000000 0.000000 0.000000 0.057860 0.000000 0.000000
# 5 0.000000 0.000000 0.000000 0.000000 0.003336 0.000000
# 6 0.000000 0.000000 0.000000 0.000000 0.000000 0.040114
#
#
# Mechanical properties :
#
#
# Convention : Reuss Voigt Hill
#
# Bulk Modulus (GPa) = 46.76560 64.94116 55.85338
# Shear Modulus (GPa) = 28.17813 84.61844 56.39829
#
# Velocity S-wave (km/s) = 3.38908 5.87298 4.79467
# Velocity P-wave (km/s) = 5.86319 8.51236 7.30881
#
# Compressibility (1/GPa) = 0.02138324
#
# Stress axis : x y z
#
# Youngs Moduli (GPa) = 109.19207 133.74467 35.01542
#
# Poissons Ratio (x) = 0.14175 0.28668
# Poissons Ratio (y) = 0.11573 0.09308
# Poissons Ratio (z) = 0.89398 0.35554
#
# Static dielectric constant tensor:
#      x y z
#    x 1.961540 0.000000 0.000000 
#    y 0.000000 1.987890 0.000000 
#    z 0.000000 0.000000 1.994730 
# 
# From -- ./inp_files/1302.got.cif
#   From: 2010.05.17/outbox.cif.g08.bks.cpg/sg28_1_cif.got.tgz:1302.got - 2010.06.04 01:15:21.
