data_PCOD9339506
_publ_section_title
;
Structure prediction by ZEFSAII (Michael W. Deem and Ramdas Pophale) SiO2 
 PCOD9339506
Probable space group: P M A 2
;
_chemical_formula_sum "Si O2"
_cell_formula_units_Z 32
_cell_length_a 8.605316
_cell_length_b 14.725492
_cell_length_c 16.047847
_cell_angle_alpha 90.000000
_cell_angle_beta 90.000000
_cell_angle_gamma 90.000000
_cell_volume 2033.543243
_symmetry_space_group_name_H-M "P M A 2"
_symmetry_group_IT_number 28
_symmetry_cell_setting 'orthorhombic'
loop_
_space_group_symop_operation_xyz
x,y,z
-x,-y,z
1/2-x,y,z
1/2+x,-y,z
loop_
_atom_site_type_symbol
_atom_site_label
_atom_site_fract_x
_atom_site_fract_y
_atom_site_fract_z
Si Si1 0.064073 0.102135 0.373380
Si Si2 0.563046 0.403119 0.275919
Si Si3 0.062642 0.897485 0.696992
Si Si4 0.563079 0.403251 0.469636
Si Si5 0.061301 0.790302 0.533123
Si Si6 0.936516 0.102924 0.880647
Si Si7 0.437161 0.790894 0.212932
Si Si8 0.935145 0.896959 0.054382
O O1 0.250000 0.101077 0.370233
O O2 0.006580 0.152687 0.456483
O O3 0.997754 0.154700 0.293311
O O4 0.000000 0.000000 0.373334
O O5 0.500000 0.500000 0.246354
O O6 0.750000 0.406435 0.275644
O O7 0.513029 0.391216 0.372798
O O8 0.514948 0.314289 0.224778
O O9 0.250000 0.902937 0.695237
O O10 0.012178 0.834877 0.620354
O O11 0.019898 0.860350 0.789075
O O12 0.000000 0.000000 0.687270
O O13 0.500000 0.500000 0.499264
O O14 0.750000 0.406759 0.470066
O O15 0.514505 0.314598 0.520922
O O16 0.250000 0.794386 0.528098
O O17 0.750000 0.102372 0.888170
O O18 0.000000 0.000000 0.878576
O O19 0.007915 0.141962 0.965247
O O20 0.250000 0.795225 0.211928
O O21 0.503073 0.837106 0.130317
O O22 0.750000 0.901686 0.055531
O O23 0.000000 0.000000 0.062765
#
# Coordination Sequence:
#
# PCOD9339506 Si02
#       8
#     4   4   4   4   4   4   4   4
#     4  12  24  35  47  66  95 132 167 199 232 279
#     4   9  18  32  51  71  93 123 156 197 242 283
#     4   9  18  30  48  70  96 127 161 198 237 283
#     4   9  17  31  49  69  93 123 158 199 243 284
#     4  10  19  34  50  69  97 129 163 200 240 284
#     4   9  16  29  47  69  93 123 159 198 241 284
#     4  11  21  36  52  70  96 128 162 198 239 284
#     4  11  21  33  49  72  98 129 162 199 241 285
#
# _framework density 15.736079999999999
#
# number of rings (size 3 to 8) (size 9 to 14) (size 15 to 20)
#    0.000    2.000    1.250    4.500    0.000    3.500 
#    0.000    0.000    0.000    0.000    0.000    0.875 
#    0.000    2.000    0.000    0.000    0.000    0.000 
#
# Total GULP energy -178486.216177 kJ/mol
# GULP energy per Si atom -5577.694256 kJ/mol
# Density = 1.570026 g / cm^3
# Si number density = 15.736080 Si / 1000 Ang^3
#
#
#
# Elastic Constant Matrix: (Units=GPa)
#
#
# Indices 1 2 3 4 5 6 
#
# 1 57.8382 35.0647 42.8120 0.0000 0.0000 0.0000
# 2 35.0647 129.0765 78.6598 0.0000 0.0000 0.0000
# 3 42.8120 78.6598 153.6342 0.0000 0.0000 0.0000
# 4 0.0000 0.0000 0.0000 4.1604 0.0000 0.0000
# 5 0.0000 0.0000 0.0000 0.0000 18.4224 0.0000
# 6 0.0000 0.0000 0.0000 0.0000 0.0000 23.1976
#
#
#
# Elastic Compliance Matrix: (Units=1/GPa)
#
#
# Indices 1 2 3 4 5 6 
#
# 1 0.022747 -0.003367 -0.004615 0.000000 0.000000 0.000000
# 2 -0.003367 0.011759 -0.005082 0.000000 0.000000 0.000000
# 3 -0.004615 -0.005082 0.010397 0.000000 0.000000 0.000000
# 4 0.000000 0.000000 0.000000 0.240361 0.000000 0.000000
# 5 0.000000 0.000000 0.000000 0.000000 0.054282 0.000000
# 6 0.000000 0.000000 0.000000 0.000000 0.000000 0.043108
#
#
# Mechanical properties :
#
#
# Convention : Reuss Voigt Hill
#
# Bulk Modulus (GPa) = 53.26326 72.62464 62.94395
# Shear Modulus (GPa) = 12.04702 21.42359 16.73530
#
# Velocity S-wave (km/s) = 2.76989 3.69376 3.26467
# Velocity P-wave (km/s) = 6.64463 8.02768 7.36867
#
# Compressibility (1/GPa) = 0.01877467
#
# Stress axis : x y z
#
# Youngs Moduli (GPa) = 43.96228 85.03920 96.18101
#
# Poissons Ratio (x) = 0.28634 0.44385
# Poissons Ratio (y) = 0.14803 0.48883
# Poissons Ratio (z) = 0.20287 0.43220
#
# Static dielectric constant tensor:
#      x y z
#    x 1.532160 0.000000 0.000000 
#    y 0.000000 1.508660 0.000000 
#    z 0.000000 0.000000 1.537070 
# 
# From -- ./inp_files/6420.got.cif
#   From: 2010.05.17/outbox.cif.g08.bks.cpg/sg28_4_cif.got.tgz:6420.got - 2010.06.04 01:15:21.
