data_PCOD9339205
_publ_section_title
;
Structure prediction by ZEFSAII (Michael W. Deem and Ramdas Pophale) SiO2 
 PCOD9339205
Probable space group: P C C 2
;
_chemical_formula_sum "Si O2"
_cell_formula_units_Z 30
_cell_length_a 5.631894
_cell_length_b 18.880588
_cell_length_c 12.168991
_cell_angle_alpha 90.000000
_cell_angle_beta 90.000000
_cell_angle_gamma 90.000000
_cell_volume 1293.971043
_symmetry_space_group_name_H-M "P C C 2"
_symmetry_group_IT_number 27
_symmetry_cell_setting 'orthorhombic'
loop_
_space_group_symop_operation_xyz
x,y,z
-x,-y,z
-x,y,1/2+z
x,-y,1/2+z
loop_
_atom_site_type_symbol
_atom_site_label
_atom_site_fract_x
_atom_site_fract_y
_atom_site_fract_z
Si Si1 0.184439 0.119598 0.890940
Si Si2 0.939692 0.366896 0.927250
Si Si3 0.627369 0.075487 0.171137
Si Si4 0.720864 0.318445 0.133345
Si Si5 0.000000 0.000000 0.041900
Si Si6 0.941856 0.229935 0.774391
Si Si7 0.443336 0.419352 0.825859
Si Si8 0.605296 0.790148 0.070631
O O1 0.368273 0.101946 0.795288
O O2 0.958564 0.151903 0.826536
O O3 0.244769 0.186468 0.966575
O O4 0.152507 0.048929 0.960758
O O5 0.686527 0.401660 0.892448
O O6 0.924809 0.292286 0.862525
O O7 0.188134 0.405520 0.889968
O O8 0.923415 0.354740 0.058797
O O9 0.529912 0.136983 0.095110
O O10 0.500000 0.000000 0.162664
O O11 0.883279 0.056918 0.122323
O O12 0.824476 0.253604 0.205765
O O13 0.592543 0.371644 0.216433
O O14 0.549051 0.278804 0.048203
O O15 0.743739 0.228603 0.681383
O O16 0.500000 0.500000 0.793272
#
# Coordination Sequence:
#
# PCOD9339205 Si02
#       8
#     4   4   4   4   2   4   4   4
#     4  12  27  43  74  94 143 191 245 314 390 451
#     4  11  26  45  81 113 159 199 252 308 383 452
#     4  12  28  47  65  98 137 185 247 314 377 462
#     4  11  26  46  75 111 154 195 251 312 378 451
#     4  12  28  50  62 100 136 186 250 310 386 474
#     4  11  25  47  68 111 142 191 244 319 373 457
#     4  11  26  52  78 115 157 205 253 312 369 460
#     4  12  26  45  72 104 142 193 254 311 387 461
#
# _framework density 23.184446000000001
#
# number of rings (size 3 to 8) (size 9 to 14) (size 15 to 20)
#    0.000    0.533    4.000    2.400   13.067    0.533 
#    0.000    2.667    0.000    0.000    0.000    0.000 
#    0.000    0.000    0.000    0.000    0.000    0.000 
#
# Total GULP energy -167513.720152 kJ/mol
# GULP energy per Si atom -5583.790672 kJ/mol
# Density = 2.313168 g / cm^3
# Si number density = 23.184446 Si / 1000 Ang^3
#
#
#
# Elastic Constant Matrix: (Units=GPa)
#
#
# Indices 1 2 3 4 5 6 
#
# 1 93.1478 37.0530 27.1769 0.0000 0.0000 0.0000
# 2 37.0530 101.7177 16.9531 0.0000 0.0000 0.0000
# 3 27.1769 16.9531 77.7013 0.0000 0.0000 0.0000
# 4 0.0000 0.0000 0.0000 8.5630 0.0000 0.0000
# 5 0.0000 0.0000 0.0000 0.0000 36.7402 0.0000
# 6 0.0000 0.0000 0.0000 0.0000 0.0000 37.1715
#
#
#
# Elastic Compliance Matrix: (Units=1/GPa)
#
#
# Indices 1 2 3 4 5 6 
#
# 1 0.013558 -0.004305 -0.003803 0.000000 0.000000 0.000000
# 2 -0.004305 0.011569 -0.001019 0.000000 0.000000 0.000000
# 3 -0.003803 -0.001019 0.014422 0.000000 0.000000 0.000000
# 4 0.000000 0.000000 0.000000 0.116781 0.000000 0.000000
# 5 0.000000 0.000000 0.000000 0.000000 0.027218 0.000000
# 6 0.000000 0.000000 0.000000 0.000000 0.000000 0.026902
#
#
# Mechanical properties :
#
#
# Convention : Reuss Voigt Hill
#
# Bulk Modulus (GPa) = 46.95590 48.32587 47.64088
# Shear Modulus (GPa) = 21.20431 29.25386 25.22908
#
# Velocity S-wave (km/s) = 3.02750 3.55602 3.30235
# Velocity P-wave (km/s) = 5.70247 6.14408 5.92739
#
# Compressibility (1/GPa) = 0.02129658
#
# Stress axis : x y z
#
# Youngs Moduli (GPa) = 73.75988 86.43778 69.33832
#
# Poissons Ratio (x) = 0.37210 0.26367
# Poissons Ratio (y) = 0.31752 0.07062
# Poissons Ratio (z) = 0.28048 0.08804
#
# Static dielectric constant tensor:
#      x y z
#    x 1.965270 0.000000 0.000000 
#    y 0.000000 2.035340 0.000000 
#    z 0.000000 0.000000 1.837210 
# 
# From -- ./inp_files/2109.got.cif
#   From: 2010.05.17/outbox.cif.g08.bks.cpg/sg27_2_cif.got.tgz:2109.got - 2010.06.04 01:11:05.
