data_PCOD9339149
_publ_section_title
;
Structure prediction by ZEFSAII (Michael W. Deem and Ramdas Pophale) SiO2 
 PCOD9339149
Probable space group: P C C 2
;
_chemical_formula_sum "Si O2"
_cell_formula_units_Z 16
_cell_length_a 5.333279
_cell_length_b 5.260630
_cell_length_c 22.640821
_cell_angle_alpha 90.000000
_cell_angle_beta 90.000000
_cell_angle_gamma 90.000000
_cell_volume 635.220100
_symmetry_space_group_name_H-M "P C C 2"
_symmetry_group_IT_number 27
_symmetry_cell_setting 'orthorhombic'
loop_
_space_group_symop_operation_xyz
x,y,z
-x,-y,z
-x,y,1/2+z
x,-y,1/2+z
loop_
_atom_site_type_symbol
_atom_site_label
_atom_site_fract_x
_atom_site_fract_y
_atom_site_fract_z
Si Si1 0.741355 0.633850 0.821420
Si Si2 0.500000 0.500000 0.701463
Si Si3 0.671728 0.749544 0.486943
Si Si4 0.000000 0.000000 0.894477
Si Si5 0.838849 0.245991 0.122017
O O1 0.500000 0.500000 0.848612
O O2 0.701355 0.592079 0.751465
O O3 0.000000 0.500000 0.834817
O O4 0.782695 0.907554 0.849787
O O5 0.429564 0.280168 0.654255
O O6 0.500000 0.500000 0.481674
O O7 0.791649 0.754089 0.552112
O O8 0.500000 0.000000 0.481380
O O9 0.888750 0.789453 0.438727
O O10 0.000000 0.500000 0.136681
O O11 0.000000 0.000000 0.139532
#
# Coordination Sequence:
#
# PCOD9339149 Si02
#       5
#     4   2   4   2   4
#     4  10  27  52  76 121 158 229 285 351 428 506
#     4  10  26  48  84 114 170 216 292 352 428 518
#     4  12  29  49  80 124 165 222 283 355 440 517
#     4  12  30  48  80 112 174 224 296 356 436 526
#     4  12  26  49  80 123 166 213 281 355 442 516
#
# _framework density 25.188117999999999
#
# number of rings (size 3 to 8) (size 9 to 14) (size 15 to 20)
#    0.750    0.000    2.500    2.250    8.750    0.000 
#    4.500    0.000    0.000    0.000    0.000    0.000 
#    0.000    0.000    0.000    0.000    0.000    0.000 
#
# Total GULP energy -89307.340796 kJ/mol
# GULP energy per Si atom -5581.708800 kJ/mol
# Density = 2.513079 g / cm^3
# Si number density = 25.188118 Si / 1000 Ang^3
#
#
#
# Elastic Constant Matrix: (Units=GPa)
#
#
# Indices 1 2 3 4 5 6 
#
# 1 98.3925 63.9063 57.2059 0.0000 0.0000 0.0000
# 2 63.9063 182.2672 44.3301 0.0000 0.0000 0.0000
# 3 57.2059 44.3301 176.0445 0.0000 0.0000 0.0000
# 4 0.0000 0.0000 0.0000 6.0218 0.0000 0.0000
# 5 0.0000 0.0000 0.0000 0.0000 -52.5557 0.0000
# 6 0.0000 0.0000 0.0000 0.0000 0.0000 66.4595
#
#
#
# Elastic Compliance Matrix: (Units=1/GPa)
#
#
# Indices 1 2 3 4 5 6 
#
# 1 0.015271 -0.004418 -0.003850 0.000000 0.000000 0.000000
# 2 -0.004418 0.007123 -0.000358 0.000000 0.000000 0.000000
# 3 -0.003850 -0.000358 0.007022 0.000000 0.000000 0.000000
# 4 0.000000 0.000000 0.000000 0.166064 0.000000 0.000000
# 5 0.000000 0.000000 0.000000 0.000000 -0.019027 0.000000
# 6 0.000000 0.000000 0.000000 0.000000 0.000000 0.015047
#
#
# Mechanical properties :
#
#
# Convention : Reuss Voigt Hill
#
# Bulk Modulus (GPa) = 82.21201 87.50986 84.86093
# Shear Modulus (GPa) = 23.49568 23.40258 23.44913
#
# Velocity S-wave (km/s) = 3.05750 3.05144 3.05447
# Velocity P-wave (km/s) = 6.72120 6.87263 6.79733
#
# Compressibility (1/GPa) = 0.01216367
#
# Stress axis : x y z
#
# Youngs Moduli (GPa) = 65.48249 140.39934 142.41897
#
# Poissons Ratio (x) = 0.62029 0.54830
# Poissons Ratio (y) = 0.28930 0.05097
# Poissons Ratio (z) = 0.25210 0.05025
#
# Static dielectric constant tensor:
#      x y z
#    x 2.117420 0.000000 0.000000 
#    y 0.000000 2.756790 0.000000 
#    z 0.000000 0.000000 1.951110 
# 
# From -- ./inp_files/4920.got.cif
#   From: 2010.05.17/outbox.cif.g08.bks.cpg/sg27_3_cif.got.tgz:4920.got - 2010.06.04 01:11:05.
