data_PCOD9339119
_publ_section_title
;
Structure prediction by ZEFSAII (Michael W. Deem and Ramdas Pophale) SiO2 
 PCOD9339119
Probable space group: P C C 2
;
_chemical_formula_sum "Si O2"
_cell_formula_units_Z 26
_cell_length_a 11.643458
_cell_length_b 11.554894
_cell_length_c 9.296851
_cell_angle_alpha 90.000000
_cell_angle_beta 90.000000
_cell_angle_gamma 90.000000
_cell_volume 1250.788321
_symmetry_space_group_name_H-M "P C C 2"
_symmetry_group_IT_number 27
_symmetry_cell_setting 'orthorhombic'
loop_
_space_group_symop_operation_xyz
x,y,z
-x,-y,z
-x,y,1/2+z
x,-y,1/2+z
loop_
_atom_site_type_symbol
_atom_site_label
_atom_site_fract_x
_atom_site_fract_y
_atom_site_fract_z
Si Si1 0.138155 0.750533 0.178290
Si Si2 0.885059 0.739460 0.120643
Si Si3 0.234258 0.814140 0.892818
Si Si4 0.133364 0.455005 0.907282
Si Si5 0.126868 0.055361 0.913493
Si Si6 0.356089 0.389573 0.347863
Si Si7 0.500000 0.500000 0.594840
O O1 0.148939 0.641105 0.282118
O O2 0.126185 0.867088 0.270677
O O3 0.020111 0.735381 0.092852
O O4 0.230812 0.768098 0.055569
O O5 0.865868 0.764765 0.287813
O O6 0.842984 0.618630 0.053743
O O7 0.841198 0.852925 0.037304
O O8 0.341145 0.747717 0.824563
O O9 0.215046 0.950143 0.899052
O O10 0.232851 0.549580 0.883808
O O11 0.000000 0.500000 0.904702
O O12 0.000000 0.000000 0.938800
O O13 0.437128 0.414049 0.484125
O O14 0.409176 0.443281 0.203928
#
# Coordination Sequence:
#
# PCOD9339119 Si02
#       7
#     4   4   4   4   4   4   2
#     4  11  21  34  52  82 127 180 207 238 300 382
#     4  11  21  34  52  82 127 180 207 238 300 382
#     4  12  22  33  58  89 117 156 213 268 307 370
#     4  11  24  39  58  93 138 167 200 256 336 405
#     4  11  21  35  52  80 127 178 216 238 288 387
#     4  11  23  43  66  96 120 166 218 269 335 378
#     4  10  24  46  70  86 122 166 228 284 308 388
#
# _framework density 20.78689
#
# number of rings (size 3 to 8) (size 9 to 14) (size 15 to 20)
#    0.000    0.923    3.077    5.538    0.000    3.077 
#    0.000    0.769    0.000    0.000    0.000   73.231 
#    0.000    0.000    0.000    0.000    0.000    0.000 
#
# Total GULP energy -145163.476403 kJ/mol
# GULP energy per Si atom -5583.210631 kJ/mol
# Density = 2.073958 g / cm^3
# Si number density = 20.786890 Si / 1000 Ang^3
#
#
#
# Elastic Constant Matrix: (Units=GPa)
#
#
# Indices 1 2 3 4 5 6 
#
# 1 58.0356 31.1549 9.8937 0.0000 0.0000 0.0000
# 2 31.1549 131.0190 28.4274 0.0000 0.0000 0.0000
# 3 9.8937 28.4274 96.6953 0.0000 0.0000 0.0000
# 4 0.0000 0.0000 0.0000 12.9127 0.0000 0.0000
# 5 0.0000 0.0000 0.0000 0.0000 16.8025 0.0000
# 6 0.0000 0.0000 0.0000 0.0000 0.0000 25.2117
#
#
#
# Elastic Compliance Matrix: (Units=1/GPa)
#
#
# Indices 1 2 3 4 5 6 
#
# 1 0.019795 -0.004558 -0.000685 0.000000 0.000000 0.000000
# 2 -0.004558 0.009202 -0.002239 0.000000 0.000000 0.000000
# 3 -0.000685 -0.002239 0.011070 0.000000 0.000000 0.000000
# 4 0.000000 0.000000 0.000000 0.077443 0.000000 0.000000
# 5 0.000000 0.000000 0.000000 0.000000 0.059515 0.000000
# 6 0.000000 0.000000 0.000000 0.000000 0.000000 0.039664
#
#
# Mechanical properties :
#
#
# Convention : Reuss Voigt Hill
#
# Bulk Modulus (GPa) = 39.83758 47.18910 43.51334
# Shear Modulus (GPa) = 20.83148 25.40364 23.11756
#
# Velocity S-wave (km/s) = 3.16910 3.49965 3.33847
# Velocity P-wave (km/s) = 5.70941 6.25145 5.98657
#
# Compressibility (1/GPa) = 0.02510193
#
# Stress axis : x y z
#
# Youngs Moduli (GPa) = 50.51880 108.67001 90.33340
#
# Poissons Ratio (x) = 0.49535 0.06190
# Poissons Ratio (y) = 0.23028 0.20225
# Poissons Ratio (z) = 0.03462 0.24331
#
# Static dielectric constant tensor:
#      x y z
#    x 1.780260 0.000000 0.000000 
#    y 0.000000 1.777550 0.000000 
#    z 0.000000 0.000000 1.769250 
# 
# From -- ./inp_files/1416.got.cif
#   From: 2010.05.17/outbox.cif.g08.bks.cpg/sg27_1_cif.got.tgz:1416.got - 2010.06.04 01:11:05.
