data_PCOD9339642
_publ_section_title
;
Structure prediction by ZEFSAII (Michael W. Deem and Ramdas Pophale) SiO2 
 PCOD9339642
Probable space group: P M A 2
;
_chemical_formula_sum "Si O2"
_cell_formula_units_Z 24
_cell_length_a 8.605336
_cell_length_b 9.523157
_cell_length_c 15.884794
_cell_angle_alpha 90.000000
_cell_angle_beta 90.000000
_cell_angle_gamma 90.000000
_cell_volume 1301.758324
_symmetry_space_group_name_H-M "P M A 2"
_symmetry_group_IT_number 28
_symmetry_cell_setting 'orthorhombic'
loop_
_space_group_symop_operation_xyz
x,y,z
-x,-y,z
1/2-x,y,z
1/2+x,-y,z
loop_
_atom_site_type_symbol
_atom_site_label
_atom_site_fract_x
_atom_site_fract_y
_atom_site_fract_z
Si Si1 0.936630 0.842329 0.903920
Si Si2 0.562874 0.344223 0.561919
Si Si3 0.936909 0.157203 0.405113
Si Si4 0.563209 0.841676 0.225594
Si Si5 0.062507 0.342219 0.065056
Si Si6 0.436877 0.657820 0.752428
O O1 0.750000 0.846917 0.902924
O O2 0.996511 0.764461 0.820548
O O3 0.986967 0.748959 0.984165
O O4 0.000000 0.000000 0.909966
O O5 0.500000 0.500000 0.548555
O O6 0.750000 0.347493 0.560475
O O7 0.510715 0.245738 0.485859
O O8 0.517014 0.300778 0.656778
O O9 0.750000 0.155460 0.401945
O O10 0.000564 0.210672 0.315619
O O11 0.000000 0.000000 0.413745
O O12 0.750000 0.848476 0.228307
O O13 0.514695 0.740507 0.149499
O O14 0.500000 0.000000 0.212598
O O15 0.250000 0.348061 0.064448
O O16 0.000000 0.500000 0.061886
O O17 0.500000 0.500000 0.767500
O O18 0.250000 0.654996 0.757761
#
# Coordination Sequence:
#
# PCOD9339642 Si02
#       6
#     4   4   4   4   4   4
#     4  11  23  39  58  83 111 144 182 224 272 324
#     4   9  20  36  55  79 109 143 181 221 268 319
#     4  10  20  35  54  79 108 142 180 221 267 318
#     4  10  20  36  56  80 107 140 179 221 267 318
#     4  10  23  39  57  81 110 142 179 219 267 321
#     4  10  20  37  58  82 111 145 183 226 272 324
#
# _framework density 18.436602000000001
#
# number of rings (size 3 to 8) (size 9 to 14) (size 15 to 20)
#    0.000    2.000    0.000    4.000    0.000    7.333 
#    0.000    5.000    0.000    0.000    0.000    0.000 
#    0.000    0.000    0.000    0.000    0.000    0.000 
#
# Total GULP energy -134028.823731 kJ/mol
# GULP energy per Si atom -5584.534322 kJ/mol
# Density = 1.839464 g / cm^3
# Si number density = 18.436602 Si / 1000 Ang^3
#
#
#
# Elastic Constant Matrix: (Units=GPa)
#
#
# Indices 1 2 3 4 5 6 
#
# 1 45.8047 34.6983 46.6850 0.0000 0.0000 0.0000
# 2 34.6983 130.3691 125.3895 0.0000 0.0000 0.0000
# 3 46.6850 125.3895 205.2517 0.0000 0.0000 0.0000
# 4 0.0000 0.0000 0.0000 43.0879 0.0000 0.0000
# 5 0.0000 0.0000 0.0000 0.0000 31.7351 0.0000
# 6 0.0000 0.0000 0.0000 0.0000 0.0000 32.3085
#
#
#
# Elastic Compliance Matrix: (Units=1/GPa)
#
#
# Indices 1 2 3 4 5 6 
#
# 1 0.029006 -0.003333 -0.004561 0.000000 0.000000 0.000000
# 2 -0.003333 0.018981 -0.010838 0.000000 0.000000 0.000000
# 3 -0.004561 -0.010838 0.012530 0.000000 0.000000 0.000000
# 4 0.000000 0.000000 0.000000 0.023208 0.000000 0.000000
# 5 0.000000 0.000000 0.000000 0.000000 0.031511 0.000000
# 6 0.000000 0.000000 0.000000 0.000000 0.000000 0.030952
#
#
# Mechanical properties :
#
#
# Convention : Reuss Voigt Hill
#
# Bulk Modulus (GPa) = 43.37750 88.33014 65.85382
# Shear Modulus (GPa) = 26.13195 33.06980 29.60087
#
# Velocity S-wave (km/s) = 3.76891 4.23981 4.01128
# Velocity P-wave (km/s) = 6.52063 8.48423 7.56640
#
# Compressibility (1/GPa) = 0.02305343
#
# Stress axis : x y z
#
# Youngs Moduli (GPa) = 34.47619 52.68305 79.80573
#
# Poissons Ratio (x) = 0.17559 0.36402
# Poissons Ratio (y) = 0.11490 0.86492
# Poissons Ratio (z) = 0.15726 0.57097
#
# Static dielectric constant tensor:
#      x y z
#    x 1.626100 0.000000 0.000000 
#    y 0.000000 1.589340 0.000000 
#    z 0.000000 0.000000 1.648100 
# 
# From -- ./inp_files/6025.got.cif
#   From: 2010.05.17/outbox.cif.g08.bks.cpg/sg28_4_cif.got.tgz:6025.got - 2010.06.04 01:15:21.
