data_PCOD9339015
_publ_section_title
;
Structure prediction by ZEFSAII (Michael W. Deem and Ramdas Pophale) SiO2 
 PCOD9339015
Probable space group: P C C 2
;
_chemical_formula_sum "Si O2"
_cell_formula_units_Z 26
_cell_length_a 5.054598
_cell_length_b 16.266149
_cell_length_c 12.071036
_cell_angle_alpha 90.000000
_cell_angle_beta 90.000000
_cell_angle_gamma 90.000000
_cell_volume 992.466628
_symmetry_space_group_name_H-M "P C C 2"
_symmetry_group_IT_number 27
_symmetry_cell_setting 'orthorhombic'
loop_
_space_group_symop_operation_xyz
x,y,z
-x,-y,z
-x,y,1/2+z
x,-y,1/2+z
loop_
_atom_site_type_symbol
_atom_site_label
_atom_site_fract_x
_atom_site_fract_y
_atom_site_fract_z
Si Si1 0.955937 0.909646 0.181770
Si Si2 0.500000 0.500000 0.891420
Si Si3 0.828703 0.569283 0.705020
Si Si4 0.548687 0.646541 0.042537
Si Si5 0.267761 0.812073 0.002049
Si Si6 0.900196 0.292621 0.358611
Si Si7 0.439760 0.861002 0.316079
O O1 0.063104 0.846187 0.090321
O O2 0.172364 0.906799 0.281121
O O3 0.667028 0.886502 0.228365
O O4 0.000000 0.000000 0.133250
O O5 0.738693 0.523501 0.814260
O O6 0.419652 0.581184 0.957582
O O7 0.552310 0.600147 0.651919
O O8 0.972791 0.650055 0.754321
O O9 0.000000 0.500000 0.640343
O O10 0.433017 0.737413 0.053234
O O11 0.822564 0.661542 0.975320
O O12 0.456961 0.877246 0.940875
O O13 0.120213 0.770308 0.897911
O O14 0.653993 0.235126 0.321086
#
# Coordination Sequence:
#
# PCOD9339015 Si02
#       7
#     4   2   4   4   4   4   4
#     4  12  28  49  78 118 157 197 258 322 401 480
#     4  10  22  42  58  94 146 184 248 310 384 444
#     4  11  23  39  66  98 141 194 249 316 385 449
#     4  10  23  39  67 103 142 197 257 320 379 462
#     4  11  25  46  79 107 156 201 264 314 397 471
#     4  10  23  45  71 106 143 204 255 318 384 475
#     4  11  25  50  76 112 154 201 253 320 387 475
#
# _framework density 26.197355000000002
#
# number of rings (size 3 to 8) (size 9 to 14) (size 15 to 20)
#    0.000    1.231    1.538    2.769    6.462    4.923 
#    2.769    1.538    0.000    0.000    0.000    0.000 
#    0.000    0.000    0.000    0.000    0.000    0.000 
#
# Total GULP energy -145162.559038 kJ/mol
# GULP energy per Si atom -5583.175348 kJ/mol
# Density = 2.613773 g / cm^3
# Si number density = 26.197355 Si / 1000 Ang^3
#
#
#
# Elastic Constant Matrix: (Units=GPa)
#
#
# Indices 1 2 3 4 5 6 
#
# 1 111.2255 14.3815 4.3713 0.0000 0.0000 0.0000
# 2 14.3815 81.0466 4.4030 0.0000 0.0000 0.0000
# 3 4.3713 4.4030 34.1895 0.0000 0.0000 0.0000
# 4 0.0000 0.0000 0.0000 27.9231 0.0000 0.0000
# 5 0.0000 0.0000 0.0000 0.0000 28.8708 0.0000
# 6 0.0000 0.0000 0.0000 0.0000 0.0000 24.7548
#
#
#
# Elastic Compliance Matrix: (Units=1/GPa)
#
#
# Indices 1 2 3 4 5 6 
#
# 1 0.009234 -0.001586 -0.000976 0.000000 0.000000 0.000000
# 2 -0.001586 0.012698 -0.001433 0.000000 0.000000 0.000000
# 3 -0.000976 -0.001433 0.029558 0.000000 0.000000 0.000000
# 4 0.000000 0.000000 0.000000 0.035813 0.000000 0.000000
# 5 0.000000 0.000000 0.000000 0.000000 0.034637 0.000000
# 6 0.000000 0.000000 0.000000 0.000000 0.000000 0.040396
#
#
# Mechanical properties :
#
#
# Convention : Reuss Voigt Hill
#
# Bulk Modulus (GPa) = 22.98798 30.30813 26.64805
# Shear Modulus (GPa) = 27.05258 29.86346 28.45802
#
# Velocity S-wave (km/s) = 3.21697 3.37997 3.29947
# Velocity P-wave (km/s) = 4.75315 5.17943 4.97086
#
# Compressibility (1/GPa) = 0.04350100
#
# Stress axis : x y z
#
# Youngs Moduli (GPa) = 108.29397 78.75405 33.83166
#
# Poissons Ratio (x) = 0.12487 0.03303
# Poissons Ratio (y) = 0.17170 0.04847
# Poissons Ratio (z) = 0.10574 0.11282
#
# Static dielectric constant tensor:
#      x y z
#    x 2.241970 0.000000 0.000000 
#    y 0.000000 -0.051720 0.000000 
#    z 0.000000 0.000000 2.112000 
# 
# From -- ./inp_files/2061.got.cif
#   From: 2010.05.17/outbox.cif.g08.bks.cpg/sg27_2_cif.got.tgz:2061.got - 2010.06.04 01:11:05.
