data_PCOD9339267
_publ_section_title
;
Structure prediction by ZEFSAII (Michael W. Deem and Ramdas Pophale) SiO2 
 PCOD9339267
Probable space group: P M A 2
;
_chemical_formula_sum "Si O2"
_cell_formula_units_Z 24
_cell_length_a 8.692270
_cell_length_b 9.809767
_cell_length_c 16.048697
_cell_angle_alpha 90.000000
_cell_angle_beta 90.000000
_cell_angle_gamma 90.000000
_cell_volume 1368.458646
_symmetry_space_group_name_H-M "P M A 2"
_symmetry_group_IT_number 28
_symmetry_cell_setting 'orthorhombic'
loop_
_space_group_symop_operation_xyz
x,y,z
-x,-y,z
1/2-x,y,z
1/2+x,-y,z
loop_
_atom_site_type_symbol
_atom_site_label
_atom_site_fract_x
_atom_site_fract_y
_atom_site_fract_z
Si Si1 0.566058 0.653293 0.837600
Si Si2 0.934003 0.652787 0.310326
Si Si3 0.433740 0.849293 0.170438
Si Si4 0.566141 0.345225 0.664366
Si Si5 0.934306 0.654080 0.494848
Si Si6 0.565187 0.151779 0.978709
O O1 0.500000 0.500000 0.846771
O O2 0.750000 0.646972 0.833391
O O3 0.500247 0.712780 0.750429
O O4 0.509597 0.744591 0.913959
O O5 0.750000 0.645425 0.304893
O O6 0.971943 0.710644 0.403040
O O7 0.000000 0.500000 0.303996
O O8 0.999171 0.745475 0.237278
O O9 0.250000 0.853337 0.177431
O O10 0.500000 0.000000 0.184922
O O11 0.472078 0.810768 0.074742
O O12 0.500000 0.500000 0.663530
O O13 0.750000 0.349021 0.666405
O O14 0.507763 0.281035 0.577597
O O15 0.750000 0.649327 0.504642
O O16 0.000000 0.500000 0.491589
O O17 0.750000 0.151391 0.969463
O O18 0.500000 0.000000 0.964715
#
# Coordination Sequence:
#
# PCOD9339267 Si02
#       6
#     4   4   4   4   4   4
#     4  11  21  34  53  78 107 138 172 215 259 303
#     4  10  20  33  52  78 108 138 173 215 259 303
#     4  10  21  37  57  77 102 135 173 213 256 309
#     4  10  17  27  45  70 101 135 169 208 252 303
#     4   9  16  27  44  69 100 134 169 207 250 300
#     4  10  21  38  57  78 102 134 173 212 256 310
#
# _framework density 17.537980000000001
#
# number of rings (size 3 to 8) (size 9 to 14) (size 15 to 20)
#    0.000    2.000    0.000    7.000    0.000    4.667 
#    0.000    0.000    0.000    1.000    0.000    2.333 
#    0.000    0.000    0.000    0.000    0.000    0.000 
#
# Total GULP energy -133865.731823 kJ/mol
# GULP energy per Si atom -5577.738826 kJ/mol
# Density = 1.749806 g / cm^3
# Si number density = 17.537980 Si / 1000 Ang^3
#
#
#
# Elastic Constant Matrix: (Units=GPa)
#
#
# Indices 1 2 3 4 5 6 
#
# 1 128.2307 39.2382 88.9313 0.0000 0.0000 0.0000
# 2 39.2382 50.0903 81.9639 0.0000 0.0000 0.0000
# 3 88.9313 81.9639 197.3254 0.0000 0.0000 0.0000
# 4 0.0000 0.0000 0.0000 -14.3718 0.0000 0.0000
# 5 0.0000 0.0000 0.0000 0.0000 -14.8077 0.0000
# 6 0.0000 0.0000 0.0000 0.0000 0.0000 25.9343
#
#
#
# Elastic Compliance Matrix: (Units=1/GPa)
#
#
# Indices 1 2 3 4 5 6 
#
# 1 0.011387 -0.001631 -0.004454 0.000000 0.000000 0.000000
# 2 -0.001631 0.062560 -0.025251 0.000000 0.000000 0.000000
# 3 -0.004454 -0.025251 0.017564 0.000000 0.000000 0.000000
# 4 0.000000 0.000000 0.000000 -0.069581 0.000000 0.000000
# 5 0.000000 0.000000 0.000000 0.000000 -0.067533 0.000000
# 6 0.000000 0.000000 0.000000 0.000000 0.000000 0.038559
#
#
# Mechanical properties :
#
#
# Convention : Reuss Voigt Hill
#
# Bulk Modulus (GPa) = 34.67626 88.43481 61.55554
# Shear Modulus (GPa) = 76.63903 10.38516 43.51209
#
# Velocity S-wave (km/s) = 6.61769 2.43606 4.98639
# Velocity P-wave (km/s) = 8.84345 7.64505 8.26600
#
# Compressibility (1/GPa) = 0.02883817
#
# Stress axis : x y z
#
# Youngs Moduli (GPa) = 87.82155 15.98470 56.93558
#
# Poissons Ratio (x) = 0.02607 0.25361
# Poissons Ratio (y) = 0.14325 1.43766
# Poissons Ratio (z) = 0.39118 0.40362
#
# Static dielectric constant tensor:
#      x y z
#    x 1.592700 0.000000 0.000000 
#    y 0.000000 1.555970 0.000000 
#    z 0.000000 0.000000 1.652110 
# 
# From -- ./inp_files/6680.got.cif
#   From: 2010.05.17/outbox.cif.g08.bks.cpg/sg28_4_cif.got.tgz:6680.got - 2010.06.04 01:15:21.
