data_PCOD9339923
_publ_section_title
;
Structure prediction by ZEFSAII (Michael W. Deem and Ramdas Pophale) SiO2 
 PCOD9339923
Probable space group: P M A 2
;
_chemical_formula_sum "Si O2"
_cell_formula_units_Z 20
_cell_length_a 28.843077
_cell_length_b 5.343051
_cell_length_c 4.989208
_cell_angle_alpha 90.000000
_cell_angle_beta 90.000000
_cell_angle_gamma 90.000000
_cell_volume 768.887002
_symmetry_space_group_name_H-M "P M A 2"
_symmetry_group_IT_number 28
_symmetry_cell_setting 'orthorhombic'
loop_
_space_group_symop_operation_xyz
x,y,z
-x,-y,z
1/2-x,y,z
1/2+x,-y,z
loop_
_atom_site_type_symbol
_atom_site_label
_atom_site_fract_x
_atom_site_fract_y
_atom_site_fract_z
Si Si1 0.000000 0.000000 0.225060
Si Si2 0.250000 0.501547 0.250010
Si Si3 0.827698 0.745200 0.927596
Si Si4 0.398724 0.907306 0.088610
Si Si5 0.750000 0.999300 0.612732
Si Si6 0.500000 0.500000 0.572524
Si Si7 0.896653 0.421788 0.607636
O O1 0.000404 0.751621 0.400791
O O2 0.048432 0.000088 0.073147
O O3 0.250000 0.748587 0.435545
O O4 0.250000 0.248180 0.426459
O O5 0.204807 0.466036 0.063097
O O6 0.859186 0.622915 0.697109
O O7 0.793799 0.954850 0.805381
O O8 0.862334 0.873086 0.140747
O O9 0.396263 0.683965 0.306067
O O10 0.386483 0.812841 0.795724
O O11 0.551155 0.502073 0.700743
#
# Coordination Sequence:
#
# PCOD9339923 Si02
#       7
#     2   2   4   4   2   2   4
#     4  10  26  50  76 118 168 218 268 334 400 486
#     4  11  30  55  85 116 164 214 280 354 434 502
#     4  11  30  50  84 120 164 212 284 347 422 500
#     4  11  29  48  82 119 168 217 278 334 412 494
#     4  11  30  55  85 116 164 214 280 354 434 502
#     4  10  26  50  76 118 168 218 268 334 400 486
#     4  11  29  48  82 119 168 217 278 334 412 494
#
# _framework density 26.011628000000002
#
# number of rings (size 3 to 8) (size 9 to 14) (size 15 to 20)
#    0.000    1.200    0.000    0.000   25.200    3.200 
#    0.000    3.000    0.000    0.000    0.000    0.000 
#    0.000    0.000    0.000    0.000    0.000    0.000 
#
# Total GULP energy -112094.498916 kJ/mol
# GULP energy per Si atom -5604.724946 kJ/mol
# Density = 2.595242 g / cm^3
# Si number density = 26.011628 Si / 1000 Ang^3
#
#
#
# Elastic Constant Matrix: (Units=GPa)
#
#
# Indices 1 2 3 4 5 6 
#
# 1 240.0855 65.3322 32.8326 0.0000 0.0000 0.0000
# 2 65.3322 174.6426 41.4256 0.0000 0.0000 0.0000
# 3 32.8326 41.4256 60.9746 0.0000 0.0000 0.0000
# 4 0.0000 0.0000 0.0000 59.2144 0.0000 0.0000
# 5 0.0000 0.0000 0.0000 0.0000 56.2900 0.0000
# 6 0.0000 0.0000 0.0000 0.0000 0.0000 34.5257
#
#
#
# Elastic Compliance Matrix: (Units=1/GPa)
#
#
# Indices 1 2 3 4 5 6 
#
# 1 0.004767 -0.001400 -0.001616 0.000000 0.000000 0.000000
# 2 -0.001400 0.007237 -0.004163 0.000000 0.000000 0.000000
# 3 -0.001616 -0.004163 0.020099 0.000000 0.000000 0.000000
# 4 0.000000 0.000000 0.000000 0.016888 0.000000 0.000000
# 5 0.000000 0.000000 0.000000 0.000000 0.017765 0.000000
# 6 0.000000 0.000000 0.000000 0.000000 0.000000 0.028964
#
#
# Mechanical properties :
#
#
# Convention : Reuss Voigt Hill
#
# Bulk Modulus (GPa) = 56.35288 83.87593 70.11441
# Shear Modulus (GPa) = 43.10622 52.41350 47.75986
#
# Velocity S-wave (km/s) = 4.07528 4.49375 4.28962
# Velocity P-wave (km/s) = 6.62234 7.69679 7.17969
#
# Compressibility (1/GPa) = 0.01774532
#
# Stress axis : x y z
#
# Youngs Moduli (GPa) = 209.76978 138.17475 49.75473
#
# Poissons Ratio (x) = 0.19346 0.08039
# Poissons Ratio (y) = 0.29370 0.20713
# Poissons Ratio (z) = 0.33893 0.57522
#
# Static dielectric constant tensor:
#      x y z
#    x 2.087210 0.000000 0.000000 
#    y 0.000000 2.022980 0.000000 
#    z 0.000000 0.000000 2.065280 
# 
# From -- ./inp_files/1713.got.cif
#   From: 2010.05.17/outbox.cif.g08.bks.cpg/sg28_1_cif.got.tgz:1713.got - 2010.06.04 01:15:21.
