data_PCOD9339608
_publ_section_title
;
Structure prediction by ZEFSAII (Michael W. Deem and Ramdas Pophale) SiO2 
 PCOD9339608
Probable space group: P M A 2
;
_chemical_formula_sum "Si O2"
_cell_formula_units_Z 20
_cell_length_a 8.715869
_cell_length_b 9.339539
_cell_length_c 13.633240
_cell_angle_alpha 90.000000
_cell_angle_beta 90.000000
_cell_angle_gamma 90.000000
_cell_volume 1109.775708
_symmetry_space_group_name_H-M "P M A 2"
_symmetry_group_IT_number 28
_symmetry_cell_setting 'orthorhombic'
loop_
_space_group_symop_operation_xyz
x,y,z
-x,-y,z
1/2-x,y,z
1/2+x,-y,z
loop_
_atom_site_type_symbol
_atom_site_label
_atom_site_fract_x
_atom_site_fract_y
_atom_site_fract_z
Si Si1 0.066865 0.338584 0.662170
Si Si2 0.065504 0.840973 0.059451
Si Si3 0.565195 0.339760 0.248667
Si Si4 0.434244 0.338908 0.879637
Si Si5 0.066367 0.661838 0.464435
O O1 0.250000 0.345853 0.652993
O O2 0.028804 0.279516 0.770200
O O3 0.000000 0.500000 0.664472
O O4 0.999492 0.268674 0.563583
O O5 0.250000 0.844280 0.057306
O O6 0.015562 0.757684 0.158147
O O7 0.000000 0.000000 0.059672
O O8 0.004504 0.755937 0.965216
O O9 0.500000 0.500000 0.238519
O O10 0.750000 0.350220 0.246354
O O11 0.523598 0.279385 0.356834
O O12 0.500000 0.500000 0.886993
O O13 0.250000 0.345015 0.888466
O O14 0.250000 0.656094 0.472235
O O15 0.000000 0.500000 0.462387
#
# Coordination Sequence:
#
# PCOD9339608 Si02
#       5
#     4   4   4   4   4
#     4   9  16  26  43  70 102 131 161 199 244 292
#     4  11  23  38  54  73 100 134 172 213 259 307
#     4   9  19  33  51  76 103 131 165 206 249 296
#     4  10  20  34  53  78 106 135 170 211 253 299
#     4   9  15  25  43  69 100 129 159 197 244 294
#
# _framework density 18.021660000000001
#
# number of rings (size 3 to 8) (size 9 to 14) (size 15 to 20)
#    0.000    2.400    0.000    4.200    0.000    6.400 
#    0.000    0.000    0.000    1.200    0.000    5.600 
#    0.000    0.000    0.000    0.000    0.000    0.000 
#
# Total GULP energy -111455.439937 kJ/mol
# GULP energy per Si atom -5572.771997 kJ/mol
# Density = 1.798064 g / cm^3
# Si number density = 18.021660 Si / 1000 Ang^3
#
#
#
# Elastic Constant Matrix: (Units=GPa)
#
#
# Indices 1 2 3 4 5 6 
#
# 1 58.3757 21.7703 64.5692 0.0000 0.0000 0.0000
# 2 21.7703 59.6840 71.7524 0.0000 0.0000 0.0000
# 3 64.5692 71.7524 236.3122 0.0000 0.0000 0.0000
# 4 0.0000 0.0000 0.0000 -13.0777 0.0000 0.0000
# 5 0.0000 0.0000 0.0000 0.0000 32.8810 0.0000
# 6 0.0000 0.0000 0.0000 0.0000 0.0000 17.1761
#
#
#
# Elastic Compliance Matrix: (Units=1/GPa)
#
#
# Indices 1 2 3 4 5 6 
#
# 1 0.024625 -0.001407 -0.006301 0.000000 0.000000 0.000000
# 2 -0.001407 0.026467 -0.007652 0.000000 0.000000 0.000000
# 3 -0.006301 -0.007652 0.008277 0.000000 0.000000 0.000000
# 4 0.000000 0.000000 0.000000 -0.076466 0.000000 0.000000
# 5 0.000000 0.000000 0.000000 0.000000 0.030413 0.000000
# 6 0.000000 0.000000 0.000000 0.000000 0.000000 0.058220
#
#
# Mechanical properties :
#
#
# Convention : Reuss Voigt Hill
#
# Bulk Modulus (GPa) = 34.90527 74.50619 54.70573
# Shear Modulus (GPa) = 44.72045 20.48122 32.60083
#
# Velocity S-wave (km/s) = 4.98685 3.37483 4.25783
# Velocity P-wave (km/s) = 7.25044 7.52451 7.38874
#
# Compressibility (1/GPa) = 0.02864897
#
# Stress axis : x y z
#
# Youngs Moduli (GPa) = 40.60941 37.78248 120.81905
#
# Poissons Ratio (x) = 0.05315 0.76131
# Poissons Ratio (y) = 0.05713 0.92451
# Poissons Ratio (z) = 0.25589 0.28911
#
# Static dielectric constant tensor:
#      x y z
#    x 1.605540 0.000000 0.000000 
#    y 0.000000 1.655300 0.000000 
#    z 0.000000 0.000000 1.696170 
# 
# From -- ./inp_files/5966.got.cif
#   From: 2010.05.17/outbox.cif.g08.bks.cpg/sg28_3_cif.got.tgz:5966.got - 2010.06.04 01:15:21.
