data_PCOD9339759
_publ_section_title
;
Structure prediction by ZEFSAII (Michael W. Deem and Ramdas Pophale) SiO2 
 PCOD9339759
Probable space group: P M A 2
;
_chemical_formula_sum "Si O2"
_cell_formula_units_Z 24
_cell_length_a 8.561353
_cell_length_b 27.414711
_cell_length_c 5.289528
_cell_angle_alpha 90.000000
_cell_angle_beta 90.000000
_cell_angle_gamma 90.000000
_cell_volume 1241.489345
_symmetry_space_group_name_H-M "P M A 2"
_symmetry_group_IT_number 28
_symmetry_cell_setting 'orthorhombic'
loop_
_space_group_symop_operation_xyz
x,y,z
-x,-y,z
1/2-x,y,z
1/2+x,-y,z
loop_
_atom_site_type_symbol
_atom_site_label
_atom_site_fract_x
_atom_site_fract_y
_atom_site_fract_z
Si Si1 0.936840 0.055016 0.979790
Si Si2 0.061773 0.722577 0.961193
Si Si3 0.438585 0.387134 0.971292
Si Si4 0.438926 0.445057 0.471208
Si Si5 0.063659 0.108202 0.480202
Si Si6 0.060704 0.782102 0.461080
O O1 0.750000 0.054657 0.983890
O O2 0.994902 0.083780 0.732639
O O3 0.000000 0.000000 0.969894
O O4 0.998999 0.080954 0.232623
O O5 0.250000 0.719819 0.961980
O O6 0.014570 0.751068 0.707507
O O7 0.996820 0.668107 0.967899
O O8 0.014232 0.753114 0.208411
O O9 0.250000 0.386456 0.971385
O O10 0.490511 0.416391 0.722271
O O11 0.490623 0.415616 0.222567
O O12 0.500000 0.500000 0.469024
O O13 0.250000 0.446400 0.471029
O O14 0.250000 0.104231 0.485063
O O15 0.012328 0.164475 0.468794
O O16 0.250000 0.786996 0.461340
#
# Coordination Sequence:
#
# PCOD9339759 Si02
#       6
#     4   4   4   4   4   4
#     4  12  25  44  67  93 127 167 207 254 309 365
#     4  10  21  36  57  83 112 148 193 236 283 344
#     4  10  21  36  54  78 109 141 179 226 281 335
#     4  10  21  36  54  78 106 140 179 224 275 334
#     4  12  25  42  65  96 127 162 209 256 305 366
#     4  10  21  38  58  84 117 154 194 240 292 348
#
# _framework density 19.331620999999998
#
# number of rings (size 3 to 8) (size 9 to 14) (size 15 to 20)
#    0.000    1.333    0.000    6.000    0.000    4.000 
#    0.000    0.000    0.000    0.000    0.000    0.000 
#    0.000    0.000    0.000    0.000    0.000    0.000 
#
# Total GULP energy -134269.832732 kJ/mol
# GULP energy per Si atom -5594.576364 kJ/mol
# Density = 1.928762 g / cm^3
# Si number density = 19.331621 Si / 1000 Ang^3
#
#
#
# Elastic Constant Matrix: (Units=GPa)
#
#
# Indices 1 2 3 4 5 6 
#
# 1 52.2341 -0.4681 -1.6153 0.0000 0.0000 0.0000
# 2 -0.4681 62.3837 -32.0663 0.0000 0.0000 0.0000
# 3 -1.6153 -32.0663 61.7961 0.0000 0.0000 0.0000
# 4 0.0000 0.0000 0.0000 45.8089 0.0000 0.0000
# 5 0.0000 0.0000 0.0000 0.0000 15.2317 0.0000
# 6 0.0000 0.0000 0.0000 0.0000 0.0000 45.0834
#
#
#
# Elastic Compliance Matrix: (Units=1/GPa)
#
#
# Indices 1 2 3 4 5 6 
#
# 1 0.019174 0.000548 0.000785 0.000000 0.000000 0.000000
# 2 0.000548 0.021876 0.011366 0.000000 0.000000 0.000000
# 3 0.000785 0.011366 0.022101 0.000000 0.000000 0.000000
# 4 0.000000 0.000000 0.000000 0.021830 0.000000 0.000000
# 5 0.000000 0.000000 0.000000 0.000000 0.065653 0.000000
# 6 0.000000 0.000000 0.000000 0.000000 0.000000 0.022181
#
#
# Mechanical properties :
#
#
# Convention : Reuss Voigt Hill
#
# Bulk Modulus (GPa) = 11.29326 12.01272 11.65299
# Shear Modulus (GPa) = 28.25932 35.26238 31.76085
#
# Velocity S-wave (km/s) = 3.82752 4.27556 4.05773
# Velocity P-wave (km/s) = 5.03863 5.53185 5.29099
#
# Compressibility (1/GPa) = 0.08854842
#
# Stress axis : x y z
#
# Youngs Moduli (GPa) = 52.15460 45.71163 45.24751
#
# Poissons Ratio (x) = -0.02503 -0.03553
# Poissons Ratio (y) = -0.02856 -0.51428
# Poissons Ratio (z) = -0.04096 -0.51956
#
# Static dielectric constant tensor:
#      x y z
#    x 1.655790 0.000000 0.000000 
#    y 0.000000 1.614480 0.000000 
#    z 0.000000 0.000000 1.660420 
# 
# From -- ./inp_files/212.got.cif
#   From: 2010.05.17/outbox.cif.g08.bks.cpg/sg28_1_cif.got.tgz:212.got - 2010.06.04 01:15:21.
