data_PCOD9339972
_publ_section_title
;
Structure prediction by ZEFSAII (Michael W. Deem and Ramdas Pophale) SiO2 
 PCOD9339972
Probable space group: P M A 2
;
_chemical_formula_sum "Si O2"
_cell_formula_units_Z 28
_cell_length_a 9.000000
_cell_length_b 9.000000
_cell_length_c 18.000000
_cell_angle_alpha 90.000000
_cell_angle_beta 90.000000
_cell_angle_gamma 90.000000
_cell_volume 1458.000000
_symmetry_space_group_name_H-M "P M A 2"
_symmetry_group_IT_number 28
_symmetry_cell_setting 'orthorhombic'
loop_
_space_group_symop_operation_xyz
x,y,z
-x,-y,z
1/2-x,y,z
1/2+x,-y,z
loop_
_atom_site_type_symbol
_atom_site_label
_atom_site_fract_x
_atom_site_fract_y
_atom_site_fract_z
Si Si1 0.573605 0.334927 0.038620
Si Si2 0.426928 0.155724 0.749544
Si Si3 0.580428 0.655528 0.177033
Si Si4 0.570053 0.654690 0.444329
Si Si5 0.572432 0.652322 0.614513
Si Si6 0.427174 0.660624 0.878307
Si Si7 0.418421 0.142501 0.318762
O O1 0.500000 0.500000 0.037927
O O2 0.750000 0.348926 0.046061
O O3 0.503859 0.260105 0.110787
O O4 0.543271 0.264463 0.958483
O O5 0.250000 0.150315 0.754902
O O6 0.469212 0.215957 0.668584
O O7 0.493947 0.262014 0.810816
O O8 0.500000 0.000000 0.762481
O O9 0.500000 0.500000 0.188508
O O10 0.750000 0.632436 0.153904
O O11 0.579085 0.737793 0.254449
O O12 0.500000 0.500000 0.419040
O O13 0.750000 0.645524 0.438913
O O14 0.527375 0.677295 0.529714
O O15 0.514898 0.786566 0.392694
O O16 0.500000 0.500000 0.641535
O O17 0.750000 0.634767 0.616145
O O18 0.500000 0.500000 0.883044
O O19 0.250000 0.651193 0.868016
O O20 0.250000 0.101325 0.335950
O O21 0.500000 0.000000 0.291082
#
# Coordination Sequence:
#
# PCOD9339972 Si02
#       7
#     4   4   4   4   4   4   4
#     4   9  17  30  51  78 104 132 168 211 258 306
#     4  11  23  37  53  76 107 142 178 217 262 312
#     4  10  19  32  52  78 104 133 171 214 258 304
#     4   9  18  35  56  79 105 133 170 213 256 304
#     4   9  19  35  56  80 105 134 170 213 258 306
#     4  10  20  35  56  81 107 137 175 217 262 312
#     4  10  22  36  51  74 105 139 174 211 253 304
#
# _framework density 19.20439
#
# number of rings (size 3 to 8) (size 9 to 14) (size 15 to 20)
#    0.000    2.286    0.000    3.429    0.000    6.286 
#    0.000    0.714    0.000    1.714    0.000    0.000 
#    0.000    0.000    0.000    0.000    0.000    0.000 
#
# Total GULP energy -155931.001342 kJ/mol
# GULP energy per Si atom -5568.964334 kJ/mol
# Density = 1.916068 g / cm^3
# Si number density = 19.204390 Si / 1000 Ang^3
#
#
#
# Elastic Constant Matrix: (Units=GPa)
#
#
# Indices 1 2 3 4 5 6 
#
# 1 44.1034 17.2108 29.3300 0.0000 0.0000 0.0000
# 2 17.2108 28.9029 22.7365 0.0000 0.0000 0.0000
# 3 29.3300 22.7365 37.1366 0.0000 0.0000 0.0000
# 4 0.0000 0.0000 0.0000 93.4701 0.0000 0.0000
# 5 0.0000 0.0000 0.0000 0.0000 23.8845 0.0000
# 6 0.0000 0.0000 0.0000 0.0000 0.0000 16.9078
#
#
#
# Elastic Compliance Matrix: (Units=1/GPa)
#
#
# Indices 1 2 3 4 5 6 
#
# 1 0.047843 0.002383 -0.039245 0.000000 0.000000 0.000000
# 2 0.002383 0.066863 -0.042818 0.000000 0.000000 0.000000
# 3 -0.039245 -0.042818 0.084137 0.000000 0.000000 0.000000
# 4 0.000000 0.000000 0.000000 0.010699 0.000000 0.000000
# 5 0.000000 0.000000 0.000000 0.000000 0.041868 0.000000
# 6 0.000000 0.000000 0.000000 0.000000 0.000000 0.059144
#
#
# Mechanical properties :
#
#
# Convention : Reuss Voigt Hill
#
# Bulk Modulus (GPa) = 25.32703 27.63306 26.48004
# Shear Modulus (GPa) = 10.35037 29.57684 19.96360
#
# Velocity S-wave (km/s) = 2.32407 3.92868 3.22768
# Velocity P-wave (km/s) = 4.51868 5.91604 5.26393
#
# Compressibility (1/GPa) = 0.03948351
#
# Stress axis : x y z
#
# Youngs Moduli (GPa) = 20.90175 14.95606 11.88531
#
# Poissons Ratio (x) = -0.03564 0.46644
# Poissons Ratio (y) = -0.04981 0.50890
# Poissons Ratio (z) = 0.82028 0.64039
#
# Static dielectric constant tensor:
#      x y z
#    x 1.648510 0.000000 0.000000 
#    y 0.000000 1.651950 0.000000 
#    z 0.000000 0.000000 1.701200 
# 
# From -- ./inp_files/6746.got.cif
#   From: 2010.05.17/outbox.ucp.g08.bks.cvg/sg28_4_cif.got.tgz:6746.got - 2010.06.11 15:23:59.
