data_PCOD9339942
_publ_section_title
;
Structure prediction by ZEFSAII (Michael W. Deem and Ramdas Pophale) SiO2 
 PCOD9339942
Probable space group: P M A 2
;
_chemical_formula_sum "Si O2"
_cell_formula_units_Z 20
_cell_length_a 16.498049
_cell_length_b 4.991502
_cell_length_c 11.378192
_cell_angle_alpha 90.000000
_cell_angle_beta 90.000000
_cell_angle_gamma 90.000000
_cell_volume 936.994618
_symmetry_space_group_name_H-M "P M A 2"
_symmetry_group_IT_number 28
_symmetry_cell_setting 'orthorhombic'
loop_
_space_group_symop_operation_xyz
x,y,z
-x,-y,z
1/2-x,y,z
1/2+x,-y,z
loop_
_atom_site_type_symbol
_atom_site_label
_atom_site_fract_x
_atom_site_fract_y
_atom_site_fract_z
Si Si1 0.655481 0.384433 0.630110
Si Si2 0.843413 0.869805 0.010040
Si Si3 0.409940 0.619956 0.882198
Si Si4 0.907664 0.896736 0.497942
Si Si5 0.559734 0.752418 0.239280
O O1 0.750000 0.437953 0.651818
O O2 0.611763 0.295532 0.750001
O O3 0.611834 0.649588 0.582428
O O4 0.646234 0.148513 0.535146
O O5 0.750000 0.950334 0.021289
O O6 0.878558 0.753744 0.131515
O O7 0.852785 0.627829 0.917943
O O8 0.894163 0.126394 0.965780
O O9 0.500000 0.500000 0.892173
O O10 0.897212 0.796280 0.364543
O O11 0.000000 0.000000 0.508838
O O12 0.500000 0.500000 0.243947
O O13 0.500000 0.000000 0.221121
#
# Coordination Sequence:
#
# PCOD9339942 Si02
#       5
#     4   4   4   4   4
#     4  12  25  42  65  96 133 169 215 274 334 389
#     4  12  25  42  66  98 133 167 215 276 334 386
#     4  12  25  44  67  93 129 176 222 266 325 398
#     4  11  23  43  67  94 127 172 221 267 321 392
#     4  11  23  43  68  93 127 170 216 261 313 385
#
# _framework density 21.344840999999999
#
# number of rings (size 3 to 8) (size 9 to 14) (size 15 to 20)
#    0.000    0.400    0.000   11.400    0.000    1.600 
#    0.000    0.000    0.000    0.000    0.000    0.000 
#    0.000    0.000    0.000    0.000    0.000    0.000 
#
# Total GULP energy -111999.137925 kJ/mol
# GULP energy per Si atom -5599.956896 kJ/mol
# Density = 2.129626 g / cm^3
# Si number density = 21.344841 Si / 1000 Ang^3
#
#
#
# Elastic Constant Matrix: (Units=GPa)
#
#
# Indices 1 2 3 4 5 6 
#
# 1 88.9388 21.3230 53.7811 0.0000 0.0000 0.0000
# 2 21.3230 131.1444 34.9502 0.0000 0.0000 0.0000
# 3 53.7811 34.9502 100.4438 0.0000 0.0000 0.0000
# 4 0.0000 0.0000 0.0000 35.1738 0.0000 0.0000
# 5 0.0000 0.0000 0.0000 0.0000 12.2559 0.0000
# 6 0.0000 0.0000 0.0000 0.0000 0.0000 11.2372
#
#
#
# Elastic Compliance Matrix: (Units=1/GPa)
#
#
# Indices 1 2 3 4 5 6 
#
# 1 0.016643 -0.000365 -0.008784 0.000000 0.000000 0.000000
# 2 -0.000365 0.008413 -0.002732 0.000000 0.000000 0.000000
# 3 -0.008784 -0.002732 0.015610 0.000000 0.000000 0.000000
# 4 0.000000 0.000000 0.000000 0.028430 0.000000 0.000000
# 5 0.000000 0.000000 0.000000 0.000000 0.081594 0.000000
# 6 0.000000 0.000000 0.000000 0.000000 0.000000 0.088990
#
#
# Mechanical properties :
#
#
# Convention : Reuss Voigt Hill
#
# Bulk Modulus (GPa) = 59.16015 60.07062 59.61539
# Shear Modulus (GPa) = 18.58214 25.76489 22.17351
#
# Velocity S-wave (km/s) = 2.95374 3.47807 3.22657
# Velocity P-wave (km/s) = 6.27768 6.65833 6.47081
#
# Compressibility (1/GPa) = 0.01690327
#
# Stress axis : x y z
#
# Youngs Moduli (GPa) = 60.08532 118.87001 64.06257
#
# Poissons Ratio (x) = 0.04339 0.56274
# Poissons Ratio (y) = 0.02193 0.17500
# Poissons Ratio (z) = 0.52780 0.32473
#
# Static dielectric constant tensor:
#      x y z
#    x 1.745630 0.000000 0.000000 
#    y 0.000000 1.726600 0.000000 
#    z 0.000000 0.000000 1.805040 
# 
# From -- ./inp_files/5438.got.cif
#   From: 2010.05.17/outbox.cif.g08.bks.cpg/sg28_3_cif.got.tgz:5438.got - 2010.06.04 01:15:21.
