data_PCOD9339941
_publ_section_title
;
Structure prediction by ZEFSAII (Michael W. Deem and Ramdas Pophale) SiO2 
 PCOD9339941
Probable space group: P M A 2
;
_chemical_formula_sum "Si O2"
_cell_formula_units_Z 12
_cell_length_a 16.638589
_cell_length_b 4.721558
_cell_length_c 6.636581
_cell_angle_alpha 90.000000
_cell_angle_beta 90.000000
_cell_angle_gamma 90.000000
_cell_volume 521.370221
_symmetry_space_group_name_H-M "P M A 2"
_symmetry_group_IT_number 28
_symmetry_cell_setting 'orthorhombic'
loop_
_space_group_symop_operation_xyz
x,y,z
-x,-y,z
1/2-x,y,z
1/2+x,-y,z
loop_
_atom_site_type_symbol
_atom_site_label
_atom_site_fract_x
_atom_site_fract_y
_atom_site_fract_z
Si Si1 0.943530 0.250759 0.581910
Si Si2 0.341736 0.934877 0.210160
Si Si3 0.405658 0.443652 0.975628
O O1 0.890742 0.088797 0.417547
O O2 0.000000 0.500000 0.489938
O O3 0.895334 0.427681 0.751309
O O4 0.000000 0.000000 0.671710
O O5 0.250000 0.018793 0.242285
O O6 0.348966 0.622025 0.121246
O O7 0.383994 0.127381 0.039958
O O8 0.500000 0.500000 0.015499
#
# Coordination Sequence:
#
# PCOD9339941 Si02
#       3
#     4   4   4
#     4  11  23  43  70  96 128 178 232 278 328 396
#     4  12  25  40  64  99 137 173 214 276 344 400
#     4  11  23  43  67  93 128 175 228 274 324 396
#
# _framework density 23.016272000000001
#
# number of rings (size 3 to 8) (size 9 to 14) (size 15 to 20)
#    0.000    0.667    0.000   11.000    0.000    2.667 
#    0.000    0.000    0.000    0.000    0.000    0.000 
#    0.000    0.000    0.000    0.000    0.000    0.000 
#
# Total GULP energy -67032.147988 kJ/mol
# GULP energy per Si atom -5586.012332 kJ/mol
# Density = 2.296389 g / cm^3
# Si number density = 23.016272 Si / 1000 Ang^3
#
#
#
# Elastic Constant Matrix: (Units=GPa)
#
#
# Indices 1 2 3 4 5 6 
#
# 1 113.6506 29.7605 39.8737 0.0000 0.0000 0.0000
# 2 29.7605 95.1864 12.3309 0.0000 0.0000 0.0000
# 3 39.8737 12.3309 131.2501 0.0000 0.0000 0.0000
# 4 0.0000 0.0000 0.0000 31.3745 0.0000 0.0000
# 5 0.0000 0.0000 0.0000 0.0000 -71.0458 0.0000
# 6 0.0000 0.0000 0.0000 0.0000 0.0000 31.3913
#
#
#
# Elastic Compliance Matrix: (Units=1/GPa)
#
#
# Indices 1 2 3 4 5 6 
#
# 1 0.010600 -0.002933 -0.002945 0.000000 0.000000 0.000000
# 2 -0.002933 0.011447 -0.000184 0.000000 0.000000 0.000000
# 3 -0.002945 -0.000184 0.008531 0.000000 0.000000 0.000000
# 4 0.000000 0.000000 0.000000 0.031873 0.000000 0.000000
# 5 0.000000 0.000000 0.000000 0.000000 -0.014075 0.000000
# 6 0.000000 0.000000 0.000000 0.000000 0.000000 0.031856
#
#
# Mechanical properties :
#
#
# Convention : Reuss Voigt Hill
#
# Bulk Modulus (GPa) = 54.18952 56.00193 55.09572
# Shear Modulus (GPa) = 50.75832 15.55213 33.15523
#
# Velocity S-wave (km/s) = 4.70118 2.60225 3.79953
# Velocity P-wave (km/s) = 7.28445 5.78041 6.57558
#
# Compressibility (1/GPa) = 0.01845375
#
# Stress axis : x y z
#
# Youngs Moduli (GPa) = 94.33966 87.36287 117.21977
#
# Poissons Ratio (x) = 0.25621 0.34518
# Poissons Ratio (y) = 0.27667 0.02162
# Poissons Ratio (z) = 0.27781 0.01611
#
# Static dielectric constant tensor:
#      x y z
#    x 1.956970 0.000000 0.000000 
#    y 0.000000 1.839830 0.000000 
#    z 0.000000 0.000000 1.907680 
# 
# From -- ./inp_files/911.got.cif
#   From: 2010.05.17/outbox.cif.g08.bks.cpg/sg28_1_cif.got.tgz:911.got - 2010.06.04 01:15:21.
