data_PCOD9339271
_publ_section_title
;
Structure prediction by ZEFSAII (Michael W. Deem and Ramdas Pophale) SiO2 
 PCOD9339271
Probable space group: P M A 2
;
_chemical_formula_sum "Si O2"
_cell_formula_units_Z 20
_cell_length_a 10.352033
_cell_length_b 16.674895
_cell_length_c 5.530201
_cell_angle_alpha 90.000000
_cell_angle_beta 90.000000
_cell_angle_gamma 90.000000
_cell_volume 954.618117
_symmetry_space_group_name_H-M "P M A 2"
_symmetry_group_IT_number 28
_symmetry_cell_setting 'orthorhombic'
loop_
_space_group_symop_operation_xyz
x,y,z
-x,-y,z
1/2-x,y,z
1/2+x,-y,z
loop_
_atom_site_type_symbol
_atom_site_label
_atom_site_fract_x
_atom_site_fract_y
_atom_site_fract_z
Si Si1 0.401398 0.172679 0.538020
Si Si2 0.598323 0.926071 0.038020
Si Si3 0.971833 0.404016 0.038020
Si Si4 0.978620 0.343695 0.538020
Si Si5 0.250000 0.425678 0.038020
Si Si6 0.250000 0.439930 0.538020
O O1 0.250000 0.198003 0.538020
O O2 0.421673 0.123626 0.288051
O O3 0.492133 0.250181 0.538020
O O4 0.421673 0.123626 0.787989
O O5 0.750000 0.950928 0.038020
O O6 0.500000 0.000000 0.038020
O O7 0.915169 0.372598 0.288298
O O8 0.122022 0.371896 0.038020
O O9 0.000000 0.500000 0.038020
O O10 0.915169 0.372598 0.787742
O O11 0.117835 0.389667 0.538020
O O12 0.250000 0.479026 0.277429
O O13 0.250000 0.479026 0.798612
#
# Coordination Sequence:
#
# PCOD9339271 Si02
#       6
#     4   4   4   4   2   2
#     4  10  19  32  54  83 112 136 172 227 279 328
#     4  10  21  36  56  86 117 146 180 222 274 333
#     4  10  19  29  44  69  95 129 167 207 263 316
#     4  10  17  29  46  70 100 124 164 212 265 311
#     4   8  16  26  40  58  84 118 148 192 246 300
#     4   8  14  24  40  62  90 112 140 190 256 304
#
# _framework density 20.950785
#
# number of rings (size 3 to 8) (size 9 to 14) (size 15 to 20)
#    0.000    2.400    1.000    2.400    0.000    0.000 
#    0.000    0.000    0.000    0.000   15.600    0.000 
#    0.000    0.000    0.000    0.000    0.000    0.000 
#
# Total GULP energy -111403.514693 kJ/mol
# GULP energy per Si atom -5570.175735 kJ/mol
# Density = 2.090310 g / cm^3
# Si number density = 20.950785 Si / 1000 Ang^3
#
#
#
# Elastic Constant Matrix: (Units=GPa)
#
#
# Indices 1 2 3 4 5 6 
#
# 1 52.2115 35.1912 22.2279 0.0000 0.0000 0.0000
# 2 35.1912 123.1800 82.0609 0.0000 0.0000 0.0000
# 3 22.2279 82.0609 292.0808 0.0000 0.0000 0.0000
# 4 0.0000 0.0000 0.0000 28.2433 0.0000 0.0000
# 5 0.0000 0.0000 0.0000 0.0000 -5.3341 0.0000
# 6 0.0000 0.0000 0.0000 0.0000 0.0000 36.7890
#
#
#
# Elastic Compliance Matrix: (Units=1/GPa)
#
#
# Indices 1 2 3 4 5 6 
#
# 1 0.023724 -0.006859 0.000122 0.000000 0.000000 0.000000
# 2 -0.006859 0.011970 -0.002841 0.000000 0.000000 0.000000
# 3 0.000122 -0.002841 0.004213 0.000000 0.000000 0.000000
# 4 0.000000 0.000000 0.000000 0.035407 0.000000 0.000000
# 5 0.000000 0.000000 0.000000 0.000000 -0.187472 0.000000
# 6 0.000000 0.000000 0.000000 0.000000 0.000000 0.027182
#
#
# Mechanical properties :
#
#
# Convention : Reuss Voigt Hill
#
# Bulk Modulus (GPa) = 48.19170 82.93693 65.56431
# Shear Modulus (GPa) = -84.88528 33.80579 -25.53974
#
# Velocity S-wave (km/s) = -6.37216 4.02130 -3.49526
# Velocity P-wave (km/s) = 5.57557 7.82519 3.88243
#
# Compressibility (1/GPa) = 0.02075046
#
# Stress axis : x y z
#
# Youngs Moduli (GPa) = 42.15159 83.53961 237.37784
#
# Poissons Ratio (x) = 0.57296 -0.02884
# Poissons Ratio (y) = 0.28910 0.67443
# Poissons Ratio (z) = -0.00512 0.23735
#
# Static dielectric constant tensor:
#      x y z
#    x 1.854190 0.000000 0.000000 
#    y 0.000000 1.696110 0.000000 
#    z 0.000000 0.000000 1.902680 
# 
# From -- ./inp_files/462.got.cif
#   From: 2010.05.17/outbox.cif.g08.bks.cpg/sg28_1_cif.got.tgz:462.got - 2010.06.04 01:15:21.
