data_PCOD9339434
_publ_section_title
;
Structure prediction by ZEFSAII (Michael W. Deem and Ramdas Pophale) SiO2 
 PCOD9339434
Probable space group: P M A 2
;
_chemical_formula_sum "Si O2"
_cell_formula_units_Z 24
_cell_length_a 15.911796
_cell_length_b 9.365598
_cell_length_c 9.390729
_cell_angle_alpha 90.000000
_cell_angle_beta 90.000000
_cell_angle_gamma 90.000000
_cell_volume 1399.439160
_symmetry_space_group_name_H-M "P M A 2"
_symmetry_group_IT_number 28
_symmetry_cell_setting 'orthorhombic'
loop_
_space_group_symop_operation_xyz
x,y,z
-x,-y,z
1/2-x,y,z
1/2+x,-y,z
loop_
_atom_site_type_symbol
_atom_site_label
_atom_site_fract_x
_atom_site_fract_y
_atom_site_fract_z
Si Si1 0.915850 0.905163 0.288120
Si Si2 0.654201 0.142156 0.818540
Si Si3 0.652424 0.841793 0.978287
Si Si4 0.503009 0.666169 0.477362
Si Si5 0.156829 0.855588 0.485330
Si Si6 0.509583 0.667232 0.815703
O O1 0.939112 0.765739 0.379963
O O2 0.860605 0.009891 0.385531
O O3 0.871850 0.859749 0.143001
O O4 0.000000 0.000000 0.257918
O O5 0.750000 0.197670 0.842218
O O6 0.648152 0.102599 0.651234
O O7 0.578291 0.251212 0.848012
O O8 0.643685 0.998677 0.908404
O O9 0.750000 0.797274 0.961659
O O10 0.585945 0.738754 0.900944
O O11 0.500000 0.500000 0.439821
O O12 0.411087 0.734100 0.458713
O O13 0.525302 0.680111 0.645135
O O14 0.250000 0.800361 0.461795
O O15 0.500000 0.500000 0.848659
#
# Coordination Sequence:
#
# PCOD9339434 Si02
#       6
#     4   4   4   4   4   4
#     4  10  19  32  53  75 102 137 172 213 257 305
#     4   9  18  33  55  78 102 133 173 216 260 308
#     4  11  22  35  52  77 105 137 176 216 256 304
#     4   9  19  35  54  77 104 136 171 207 258 311
#     4   9  17  32  53  77 101 130 170 216 259 305
#     4  10  20  35  55  78 107 139 170 212 259 309
#
# _framework density 17.149729000000001
#
# number of rings (size 3 to 8) (size 9 to 14) (size 15 to 20)
#    0.000    2.333    0.000    3.000    0.000    4.000 
#    0.000    5.000    0.000    0.000    0.000    0.000 
#    0.000    0.000    0.000    0.000    0.000    0.000 
#
# Total GULP energy -133848.323563 kJ/mol
# GULP energy per Si atom -5577.013482 kJ/mol
# Density = 1.711070 g / cm^3
# Si number density = 17.149729 Si / 1000 Ang^3
#
#
#
# Elastic Constant Matrix: (Units=GPa)
#
#
# Indices 1 2 3 4 5 6 
#
# 1 129.1279 77.1781 74.3250 0.0000 0.0000 0.0000
# 2 77.1781 130.0235 75.3093 0.0000 0.0000 0.0000
# 3 74.3250 75.3093 76.7140 0.0000 0.0000 0.0000
# 4 0.0000 0.0000 0.0000 -2.4215 0.0000 0.0000
# 5 0.0000 0.0000 0.0000 0.0000 22.6671 0.0000
# 6 0.0000 0.0000 0.0000 0.0000 0.0000 11.2007
#
#
#
# Elastic Compliance Matrix: (Units=1/GPa)
#
#
# Indices 1 2 3 4 5 6 
#
# 1 0.017605 -0.001323 -0.015759 0.000000 0.000000 0.000000
# 2 -0.001323 0.017927 -0.016317 0.000000 0.000000 0.000000
# 3 -0.015759 -0.016317 0.044322 0.000000 0.000000 0.000000
# 4 0.000000 0.000000 0.000000 -0.412963 0.000000 0.000000
# 5 0.000000 0.000000 0.000000 0.000000 0.044117 0.000000
# 6 0.000000 0.000000 0.000000 0.000000 0.000000 0.089280
#
#
# Mechanical properties :
#
#
# Convention : Reuss Voigt Hill
#
# Bulk Modulus (GPa) = 76.58725 87.72114 82.15419
# Shear Modulus (GPa) = -38.89129 13.55945 -12.66592
#
# Velocity S-wave (km/s) = -4.76726 2.81490 -2.72057
# Velocity P-wave (km/s) = 3.80166 7.86296 6.17571
#
# Compressibility (1/GPa) = 0.01305700
#
# Stress axis : x y z
#
# Youngs Moduli (GPa) = 56.80091 55.78222 22.56231
#
# Poissons Ratio (x) = 0.07378 0.35555
# Poissons Ratio (y) = 0.07513 0.36815
# Poissons Ratio (z) = 0.89511 0.91021
#
# Static dielectric constant tensor:
#      x y z
#    x 1.596470 0.000000 0.000000 
#    y 0.000000 1.539050 0.000000 
#    z 0.000000 0.000000 1.578780 
# 
# From -- ./inp_files/3360.got.cif
#   From: 2010.05.17/outbox.cif.g08.bks.cpg/sg28_2_cif.got.tgz:3360.got - 2010.06.04 01:15:21.
