data_PCOD9339760
_publ_section_title
;
Structure prediction by ZEFSAII (Michael W. Deem and Ramdas Pophale) SiO2 
 PCOD9339760
Probable space group: P M A 2
;
_chemical_formula_sum "Si O2"
_cell_formula_units_Z 28
_cell_length_a 8.529148
_cell_length_b 9.300363
_cell_length_c 18.466202
_cell_angle_alpha 90.000000
_cell_angle_beta 90.000000
_cell_angle_gamma 90.000000
_cell_volume 1464.816193
_symmetry_space_group_name_H-M "P M A 2"
_symmetry_group_IT_number 28
_symmetry_cell_setting 'orthorhombic'
loop_
_space_group_symop_operation_xyz
x,y,z
-x,-y,z
1/2-x,y,z
1/2+x,-y,z
loop_
_atom_site_type_symbol
_atom_site_label
_atom_site_fract_x
_atom_site_fract_y
_atom_site_fract_z
Si Si1 0.439605 0.661082 0.001510
Si Si2 0.062789 0.162277 0.579528
Si Si3 0.060807 0.839269 0.303471
Si Si4 0.560561 0.160753 0.140060
Si Si5 0.560828 0.161913 0.860406
Si Si6 0.938558 0.338568 0.442582
Si Si7 0.561385 0.337449 0.717441
O O1 0.500000 0.500000 0.993662
O O2 0.250000 0.658702 0.001301
O O3 0.492520 0.732233 0.077082
O O4 0.491362 0.759099 0.933943
O O5 0.250000 0.160365 0.579171
O O6 0.001360 0.240045 0.507362
O O7 0.002788 0.251974 0.648377
O O8 0.000000 0.000000 0.583108
O O9 0.250000 0.843486 0.304086
O O10 0.010078 0.799154 0.221780
O O11 0.009878 0.730525 0.366032
O O12 0.000000 0.000000 0.318513
O O13 0.750000 0.157620 0.139117
O O14 0.500000 0.000000 0.125490
O O15 0.750000 0.157847 0.860883
O O16 0.511962 0.254279 0.790484
O O17 0.500000 0.000000 0.856392
O O18 0.750000 0.339344 0.445100
O O19 0.000000 0.500000 0.450443
O O20 0.500000 0.500000 0.717798
O O21 0.750000 0.339140 0.714406
#
# Coordination Sequence:
#
# PCOD9339760 Si02
#       7
#     4   4   4   4   4   4   4
#     4  10  21  36  54  80 113 147 185 229 277 329
#     4  12  25  42  63  87 115 148 188 232 280 334
#     4   9  19  35  56  81 110 145 185 230 278 331
#     4   9  18  34  55  80 110 144 185 230 276 329
#     4  10  22  38  58  84 113 147 188 232 277 329
#     4  11  23  39  58  83 115 150 189 233 283 335
#     4  11  23  40  61  87 118 151 188 230 280 333
#
# _framework density 19.115027999999999
#
# number of rings (size 3 to 8) (size 9 to 14) (size 15 to 20)
#    0.000    1.714    0.000    4.286    0.000    6.286 
#    0.000    0.000    0.000    0.000    0.000    0.000 
#    0.000    0.000    0.000    0.000    0.000    0.000 
#
# Total GULP energy -156502.176114 kJ/mol
# GULP energy per Si atom -5589.363433 kJ/mol
# Density = 1.907152 g / cm^3
# Si number density = 19.115028 Si / 1000 Ang^3
#
#
#
# Elastic Constant Matrix: (Units=GPa)
#
#
# Indices 1 2 3 4 5 6 
#
# 1 46.3317 39.1199 42.3144 0.0000 0.0000 0.0000
# 2 39.1199 193.8840 121.9020 0.0000 0.0000 0.0000
# 3 42.3144 121.9020 167.2820 0.0000 0.0000 0.0000
# 4 0.0000 0.0000 0.0000 33.1999 0.0000 0.0000
# 5 0.0000 0.0000 0.0000 0.0000 -3.8304 0.0000
# 6 0.0000 0.0000 0.0000 0.0000 0.0000 39.1524
#
#
#
# Elastic Compliance Matrix: (Units=1/GPa)
#
#
# Indices 1 2 3 4 5 6 
#
# 1 0.028592 -0.002255 -0.005589 0.000000 0.000000 0.000000
# 2 -0.002255 0.009697 -0.006496 0.000000 0.000000 0.000000
# 3 -0.005589 -0.006496 0.012126 0.000000 0.000000 0.000000
# 4 0.000000 0.000000 0.000000 0.030121 0.000000 0.000000
# 5 0.000000 0.000000 0.000000 0.000000 -0.261071 0.000000
# 6 0.000000 0.000000 0.000000 0.000000 0.000000 0.025541
#
#
# Mechanical properties :
#
#
# Convention : Reuss Voigt Hill
#
# Bulk Modulus (GPa) = 46.01032 90.46336 68.23684
# Shear Modulus (GPa) = -41.99222 27.31515 -7.33853
#
# Velocity S-wave (km/s) = -4.69211 3.78430 -1.96150
# Velocity P-wave (km/s) = 2.28735 8.15617 5.53584
#
# Compressibility (1/GPa) = 0.02173425
#
# Stress axis : x y z
#
# Youngs Moduli (GPa) = 34.97482 103.12503 82.47041
#
# Poissons Ratio (x) = 0.23253 0.46095
# Poissons Ratio (y) = 0.07886 0.53573
# Poissons Ratio (z) = 0.19549 0.66990
#
# Static dielectric constant tensor:
#      x y z
#    x 1.647280 0.000000 0.000000 
#    y 0.000000 1.604290 0.000000 
#    z 0.000000 0.000000 1.669520 
# 
# From -- ./inp_files/6753.got.cif
#   From: 2010.05.17/outbox.cif.g08.bks.cpg/sg28_4_cif.got.tgz:6753.got - 2010.06.04 01:15:21.
