data_PCOD9339009
_publ_section_title
;
Structure prediction by ZEFSAII (Michael W. Deem and Ramdas Pophale) SiO2 
 PCOD9339009
Probable space group: P C C 2
;
_chemical_formula_sum "Si O2"
_cell_formula_units_Z 20
_cell_length_a 13.939426
_cell_length_b 5.203854
_cell_length_c 10.268936
_cell_angle_alpha 90.000000
_cell_angle_beta 90.000000
_cell_angle_gamma 90.000000
_cell_volume 744.895655
_symmetry_space_group_name_H-M "P C C 2"
_symmetry_group_IT_number 27
_symmetry_cell_setting 'orthorhombic'
loop_
_space_group_symop_operation_xyz
x,y,z
-x,-y,z
-x,y,1/2+z
x,-y,1/2+z
loop_
_atom_site_type_symbol
_atom_site_label
_atom_site_fract_x
_atom_site_fract_y
_atom_site_fract_z
Si Si1 0.000000 0.500000 0.268960
Si Si2 0.164570 0.266040 0.118934
Si Si3 0.634556 0.137006 0.668216
Si Si4 0.675942 0.749337 0.443390
Si Si5 0.500000 0.500000 0.035543
Si Si6 0.875119 0.100882 0.882828
O O1 0.909335 0.518871 0.170510
O O2 0.972990 0.737120 0.364357
O O3 0.276108 0.333667 0.136488
O O4 0.147537 0.045180 0.231344
O O5 0.140867 0.126804 0.984166
O O6 0.644968 0.077032 0.819563
O O7 0.535819 0.270411 0.628216
O O8 0.659982 0.904881 0.574641
O O9 0.592810 0.539876 0.445561
O O10 0.788772 0.699035 0.423099
#
# Coordination Sequence:
#
# PCOD9339009 Si02
#       6
#     2   4   4   4   2   4
#     4   8  16  32  70 102 132 194 240 296 360 432
#     4   8  16  34  63 103 139 186 238 296 355 434
#     4  10  22  41  66 102 142 187 236 293 351 429
#     4  10  22  41  66 102 142 187 236 293 351 429
#     4  12  24  36  64 106 142 188 230 298 362 424
#     4   8  16  34  63 103 139 186 238 296 355 434
#
# _framework density 26.849398000000001
#
# number of rings (size 3 to 8) (size 9 to 14) (size 15 to 20)
#    1.200    1.600    0.000    1.200    0.000    4.800 
#    0.000    1.000    0.000    6.000    0.000   11.200 
#    0.000    0.000    0.000    0.000    0.000    0.000 
#
# Total GULP energy -111556.744449 kJ/mol
# GULP energy per Si atom -5577.837222 kJ/mol
# Density = 2.678829 g / cm^3
# Si number density = 26.849398 Si / 1000 Ang^3
#
#
#
# Elastic Constant Matrix: (Units=GPa)
#
#
# Indices 1 2 3 4 5 6 
#
# 1 164.1848 33.6417 34.2944 0.0000 0.0000 0.0000
# 2 33.6417 90.9877 18.7732 0.0000 0.0000 0.0000
# 3 34.2944 18.7732 122.8328 0.0000 0.0000 0.0000
# 4 0.0000 0.0000 0.0000 31.5137 0.0000 0.0000
# 5 0.0000 0.0000 0.0000 0.0000 29.6509 0.0000
# 6 0.0000 0.0000 0.0000 0.0000 0.0000 40.0003
#
#
#
# Elastic Compliance Matrix: (Units=1/GPa)
#
#
# Indices 1 2 3 4 5 6 
#
# 1 0.006875 -0.002216 -0.001581 0.000000 0.000000 0.000000
# 2 -0.002216 0.012062 -0.001225 0.000000 0.000000 0.000000
# 3 -0.001581 -0.001225 0.008770 0.000000 0.000000 0.000000
# 4 0.000000 0.000000 0.000000 0.031732 0.000000 0.000000
# 5 0.000000 0.000000 0.000000 0.000000 0.033726 0.000000
# 6 0.000000 0.000000 0.000000 0.000000 0.000000 0.025000
#
#
# Mechanical properties :
#
#
# Convention : Reuss Voigt Hill
#
# Bulk Modulus (GPa) = 56.61197 61.26931 58.94064
# Shear Modulus (GPa) = 37.28673 39.65272 38.46973
#
# Velocity S-wave (km/s) = 3.73062 3.84716 3.78934
# Velocity P-wave (km/s) = 6.29980 6.52712 6.41447
#
# Compressibility (1/GPa) = 0.01766411
#
# Stress axis : x y z
#
# Youngs Moduli (GPa) = 145.45667 82.90165 114.02882
#
# Poissons Ratio (x) = 0.18369 0.18026
# Poissons Ratio (y) = 0.32230 0.13968
# Poissons Ratio (z) = 0.22994 0.10155
#
# Static dielectric constant tensor:
#      x y z
#    x 2.187630 0.000000 0.000000 
#    y 0.000000 2.231720 0.000000 
#    z 0.000000 0.000000 2.090190 
# 
# From -- ./inp_files/2707.got.cif
#   From: 2010.05.17/outbox.cif.g08.bks.cpg/sg27_2_cif.got.tgz:2707.got - 2010.06.04 01:11:05.
