data_PCOD9339452
_publ_section_title
;
Structure prediction by ZEFSAII (Michael W. Deem and Ramdas Pophale) SiO2 
 PCOD9339452
Probable space group: P M A 2
;
_chemical_formula_sum "Si O2"
_cell_formula_units_Z 32
_cell_length_a 8.631484
_cell_length_b 14.694082
_cell_length_c 16.109630
_cell_angle_alpha 90.000000
_cell_angle_beta 90.000000
_cell_angle_gamma 90.000000
_cell_volume 2043.212302
_symmetry_space_group_name_H-M "P M A 2"
_symmetry_group_IT_number 28
_symmetry_cell_setting 'orthorhombic'
loop_
_space_group_symop_operation_xyz
x,y,z
-x,-y,z
1/2-x,y,z
1/2+x,-y,z
loop_
_atom_site_type_symbol
_atom_site_label
_atom_site_fract_x
_atom_site_fract_y
_atom_site_fract_z
Si Si1 0.936501 0.402390 0.064260
Si Si2 0.064168 0.214921 0.315892
Si Si3 0.061143 0.788273 0.995207
Si Si4 0.435613 0.897066 0.650966
Si Si5 0.062763 0.897274 0.834138
Si Si6 0.564335 0.401732 0.258580
Si Si7 0.935520 0.897240 0.478759
Si Si8 0.436227 0.898080 0.160208
O O1 0.750000 0.405267 0.061683
O O2 0.990083 0.315094 0.012126
O O3 0.980680 0.388768 0.161211
O O4 0.000000 0.500000 0.036979
O O5 0.250000 0.214709 0.311380
O O6 0.017397 0.163819 0.400482
O O7 0.002967 0.317532 0.309364
O O8 0.997571 0.159518 0.237761
O O9 0.250000 0.787098 0.993840
O O10 0.015905 0.849389 0.074337
O O11 0.008655 0.834304 0.909774
O O12 0.250000 0.898519 0.644337
O O13 0.478869 0.860293 0.742199
O O14 0.504665 0.857374 0.566368
O O15 0.500000 0.000000 0.652318
O O16 0.250000 0.902459 0.837064
O O17 0.000000 0.000000 0.843395
O O18 0.500000 0.500000 0.284421
O O19 0.750000 0.401320 0.262843
O O20 0.750000 0.902963 0.481504
O O21 0.000000 0.000000 0.469031
O O22 0.250000 0.899436 0.163135
O O23 0.500000 0.000000 0.163575
#
# Coordination Sequence:
#
# PCOD9339452 Si02
#       8
#     4   4   4   4   4   4   4   4
#     4   9  17  31  48  67  89 119 153 191 233 272
#     4  11  22  34  48  69  94 125 162 197 236 281
#     4   9  17  31  47  65  93 125 156 188 230 277
#     4   9  16  27  45  67  89 117 153 192 235 276
#     4   9  17  29  46  67  93 123 154 190 228 275
#     4  10  19  33  52  72  94 123 157 197 241 281
#     4  10  20  32  47  67  93 125 158 195 237 279
#     4  11  21  33  46  64  93 130 164 193 230 274
#
# _framework density 15.661614
#
# number of rings (size 3 to 8) (size 9 to 14) (size 15 to 20)
#    0.000    2.250    1.250    3.375    0.000    4.000 
#    0.000    1.250    0.000    0.000    0.000    0.875 
#    0.000    4.000    0.000    0.000    0.000    0.000 
#
# Total GULP energy -178424.086667 kJ/mol
# GULP energy per Si atom -5575.752708 kJ/mol
# Density = 1.562597 g / cm^3
# Si number density = 15.661614 Si / 1000 Ang^3
#
#
#
# Elastic Constant Matrix: (Units=GPa)
#
#
# Indices 1 2 3 4 5 6 
#
# 1 30.2909 26.7123 34.3983 0.0000 0.0000 0.0000
# 2 26.7123 121.1881 74.8359 0.0000 0.0000 0.0000
# 3 34.3983 74.8359 148.8901 0.0000 0.0000 0.0000
# 4 0.0000 0.0000 0.0000 5.0186 0.0000 0.0000
# 5 0.0000 0.0000 0.0000 0.0000 43.5448 0.0000
# 6 0.0000 0.0000 0.0000 0.0000 0.0000 23.7570
#
#
#
# Elastic Compliance Matrix: (Units=1/GPa)
#
#
# Indices 1 2 3 4 5 6 
#
# 1 0.046989 -0.005298 -0.008193 0.000000 0.000000 0.000000
# 2 -0.005298 0.012563 -0.005090 0.000000 0.000000 0.000000
# 3 -0.008193 -0.005090 0.011168 0.000000 0.000000 0.000000
# 4 0.000000 0.000000 0.000000 0.199259 0.000000 0.000000
# 5 0.000000 0.000000 0.000000 0.000000 0.022965 0.000000
# 6 0.000000 0.000000 0.000000 0.000000 0.000000 0.042093
#
#
# Mechanical properties :
#
#
# Convention : Reuss Voigt Hill
#
# Bulk Modulus (GPa) = 29.80008 63.58469 46.69239
# Shear Modulus (GPa) = 13.04172 25.42559 19.23365
#
# Velocity S-wave (km/s) = 2.88882 4.03356 3.50819
# Velocity P-wave (km/s) = 5.49507 7.89810 6.80352
#
# Compressibility (1/GPa) = 0.03355696
#
# Stress axis : x y z
#
# Youngs Moduli (GPa) = 21.28142 79.59988 89.54321
#
# Poissons Ratio (x) = 0.42172 0.73364
# Poissons Ratio (y) = 0.11275 0.45581
# Poissons Ratio (z) = 0.17436 0.40519
#
# Static dielectric constant tensor:
#      x y z
#    x 1.529860 0.000000 0.000000 
#    y 0.000000 1.497110 0.000000 
#    z 0.000000 0.000000 1.542610 
# 
# From -- ./inp_files/6415.got.cif
#   From: 2010.05.17/outbox.cif.g08.bks.cpg/sg28_4_cif.got.tgz:6415.got - 2010.06.04 01:15:21.
