data_PCOD9339336
_publ_section_title
;
Structure prediction by ZEFSAII (Michael W. Deem and Ramdas Pophale) SiO2 
 PCOD9339336
Probable space group: P M A 2
;
_chemical_formula_sum "Si O2"
_cell_formula_units_Z 24
_cell_length_a 16.005382
_cell_length_b 8.254570
_cell_length_c 9.755298
_cell_angle_alpha 90.000000
_cell_angle_beta 90.000000
_cell_angle_gamma 90.000000
_cell_volume 1288.846033
_symmetry_space_group_name_H-M "P M A 2"
_symmetry_group_IT_number 28
_symmetry_cell_setting 'orthorhombic'
loop_
_space_group_symop_operation_xyz
x,y,z
-x,-y,z
1/2-x,y,z
1/2+x,-y,z
loop_
_atom_site_type_symbol
_atom_site_label
_atom_site_fract_x
_atom_site_fract_y
_atom_site_fract_z
Si Si1 0.007822 0.190547 0.416910
Si Si2 0.346048 0.682730 0.922306
Si Si3 0.157331 0.283454 0.610497
Si Si4 0.001821 0.695068 0.106358
Si Si5 0.345166 0.287406 0.926247
Si Si6 0.582504 0.387486 0.642618
O O1 0.093169 0.225773 0.497694
O O2 0.004229 0.261645 0.265114
O O3 0.939678 0.276954 0.514075
O O4 0.000000 0.000000 0.408801
O O5 0.250000 0.739310 0.932084
O O6 0.343641 0.484995 0.929974
O O7 0.388285 0.712391 0.774315
O O8 0.410569 0.745902 0.036413
O O9 0.250000 0.226342 0.581297
O O10 0.136764 0.238422 0.768471
O O11 0.151941 0.478989 0.609079
O O12 0.000000 0.500000 0.093307
O O13 0.921100 0.762130 0.024390
O O14 0.250000 0.234613 0.961195
O O15 0.500000 0.500000 0.674852
#
# Coordination Sequence:
#
# PCOD9339336 Si02
#       6
#     4   4   4   4   4   4
#     4  11  23  36  49  72 111 152 179 207 256 313
#     4   9  16  29  52  81 103 124 163 221 272 308
#     4   9  17  34  59  84 103 127 172 226 268 311
#     4  10  18  32  52  75 104 136 174 215 257 310
#     4   8  15  29  55  83 101 121 163 222 274 310
#     4   9  16  32  57  79 100 130 173 219 265 312
#
# _framework density 18.621309
#
# number of rings (size 3 to 8) (size 9 to 14) (size 15 to 20)
#    0.000    2.667    0.000    6.500    0.000    0.667 
#    0.000   10.833    0.000    2.000    0.000    0.000 
#    0.000    0.000    0.000    0.000    0.000    0.000 
#
# Total GULP energy -133743.117896 kJ/mol
# GULP energy per Si atom -5572.629912 kJ/mol
# Density = 1.857893 g / cm^3
# Si number density = 18.621309 Si / 1000 Ang^3
#
#
#
# Elastic Constant Matrix: (Units=GPa)
#
#
# Indices 1 2 3 4 5 6 
#
# 1 134.8036 11.6965 97.6788 0.0000 0.0000 0.0000
# 2 11.6965 11.0146 9.5457 0.0000 0.0000 0.0000
# 3 97.6788 9.5457 142.9782 0.0000 0.0000 0.0000
# 4 0.0000 0.0000 0.0000 -17.6428 0.0000 0.0000
# 5 0.0000 0.0000 0.0000 0.0000 -2.1160 0.0000
# 6 0.0000 0.0000 0.0000 0.0000 0.0000 0.1365
#
#
#
# Elastic Compliance Matrix: (Units=1/GPa)
#
#
# Indices 1 2 3 4 5 6 
#
# 1 0.015269 -0.007615 -0.009923 0.000000 0.000000 0.000000
# 2 -0.007615 0.100161 -0.001485 0.000000 0.000000 0.000000
# 3 -0.009923 -0.001485 0.013872 0.000000 0.000000 0.000000
# 4 0.000000 0.000000 0.000000 -0.056680 0.000000 0.000000
# 5 0.000000 0.000000 0.000000 0.000000 -0.472598 0.000000
# 6 0.000000 0.000000 0.000000 0.000000 0.000000 7.324308
#
#
# Mechanical properties :
#
#
# Convention : Reuss Voigt Hill
#
# Bulk Modulus (GPa) = 10.95800 58.51538 34.73669
# Shear Modulus (GPa) = 0.71502 7.40057 4.05780
#
# Velocity S-wave (km/s) = 0.62033 1.99571 1.47778
# Velocity P-wave (km/s) = 2.53190 6.06651 4.64829
#
# Compressibility (1/GPa) = 0.09125753
#
# Stress axis : x y z
#
# Youngs Moduli (GPa) = 65.49122 9.98388 72.08540
#
# Poissons Ratio (x) = 0.07602 0.71531
# Poissons Ratio (y) = 0.49870 0.10704
# Poissons Ratio (z) = 0.64988 0.01483
#
# Static dielectric constant tensor:
#      x y z
#    x 1.839740 0.000000 0.000000 
#    y 0.000000 1.633470 0.000000 
#    z 0.000000 0.000000 1.633940 
# 
# From -- ./inp_files/3784.got.cif
#   From: 2010.05.17/outbox.cif.g08.bks.cpg/sg28_2_cif.got.tgz:3784.got - 2010.06.04 01:15:21.
