data_PCOD9339217
_publ_section_title
;
Structure prediction by ZEFSAII (Michael W. Deem and Ramdas Pophale) SiO2 
 PCOD9339217
Probable space group: P C C 2
;
_chemical_formula_sum "Si O2"
_cell_formula_units_Z 24
_cell_length_a 17.176539
_cell_length_b 4.880940
_cell_length_c 12.523732
_cell_angle_alpha 90.000000
_cell_angle_beta 90.000000
_cell_angle_gamma 90.000000
_cell_volume 1049.960339
_symmetry_space_group_name_H-M "P C C 2"
_symmetry_group_IT_number 27
_symmetry_cell_setting 'orthorhombic'
loop_
_space_group_symop_operation_xyz
x,y,z
-x,-y,z
-x,y,1/2+z
x,-y,1/2+z
loop_
_atom_site_type_symbol
_atom_site_label
_atom_site_fract_x
_atom_site_fract_y
_atom_site_fract_z
Si Si1 0.724305 0.739776 0.412950
Si Si2 0.164527 0.020595 0.232180
Si Si3 0.000000 0.000000 0.838419
Si Si4 0.500000 0.000000 0.241795
Si Si5 0.835905 0.479748 0.096674
Si Si6 0.000000 0.500000 0.491782
Si Si7 0.620959 0.236336 0.411684
Si Si8 0.500000 0.500000 0.077650
O O1 0.777249 0.877602 0.322529
O O2 0.778760 0.612526 0.503755
O O3 0.673563 0.486000 0.367851
O O4 0.672031 0.988065 0.459302
O O5 0.075903 0.067464 0.269811
O O6 0.175739 0.206012 0.127542
O O7 0.177060 0.706958 0.200710
O O8 0.021522 0.250214 0.915031
O O9 0.429813 0.924035 0.323029
O O10 0.494617 0.749262 0.160000
O O11 0.924693 0.429766 0.060913
O O12 0.567662 0.394666 0.497803
#
# Coordination Sequence:
#
# PCOD9339217 Si02
#       8
#     4   4   2   2   4   2   4   2
#     4  12  27  46  71 106 154 188 234 302 365 430
#     4  12  26  45  70 104 141 194 247 297 361 423
#     4  12  24  44  74  98 140 194 248 306 358 412
#     4  12  26  48  80 110 142 190 240 288 358 438
#     4  12  26  45  70 104 141 194 247 297 361 423
#     4  12  24  44  74  98 140 194 248 306 358 412
#     4  12  27  48  75 112 148 188 236 300 355 438
#     4  12  26  48  80 110 142 190 240 288 358 438
#
# _framework density 22.858004000000001
#
# number of rings (size 3 to 8) (size 9 to 14) (size 15 to 20)
#    0.000    0.000    1.667    9.000    2.333    8.000 
#    0.000    0.000    0.000    0.000    0.000    0.000 
#    0.000    0.000    0.000    0.000    0.000    0.000 
#
# Total GULP energy -134344.248499 kJ/mol
# GULP energy per Si atom -5597.677021 kJ/mol
# Density = 2.280598 g / cm^3
# Si number density = 22.858004 Si / 1000 Ang^3
#
#
#
# Elastic Constant Matrix: (Units=GPa)
#
#
# Indices 1 2 3 4 5 6 
#
# 1 118.0751 26.8738 41.6162 0.0000 0.0000 0.0000
# 2 26.8738 96.3528 10.0388 0.0000 0.0000 0.0000
# 3 41.6162 10.0388 81.4047 0.0000 0.0000 0.0000
# 4 0.0000 0.0000 0.0000 44.0300 0.0000 0.0000
# 5 0.0000 0.0000 0.0000 0.0000 -171.7414 0.0000
# 6 0.0000 0.0000 0.0000 0.0000 0.0000 44.6953
#
#
#
# Elastic Compliance Matrix: (Units=1/GPa)
#
#
# Indices 1 2 3 4 5 6 
#
# 1 0.010890 -0.002489 -0.005260 0.000000 0.000000 0.000000
# 2 -0.002489 0.011083 -0.000094 0.000000 0.000000 0.000000
# 3 -0.005260 -0.000094 0.014985 0.000000 0.000000 0.000000
# 4 0.000000 0.000000 0.000000 0.022712 0.000000 0.000000
# 5 0.000000 0.000000 0.000000 0.000000 -0.005823 0.000000
# 6 0.000000 0.000000 0.000000 0.000000 0.000000 0.022374
#
#
# Mechanical properties :
#
#
# Convention : Reuss Voigt Hill
#
# Bulk Modulus (GPa) = 47.01381 50.32112 48.66747
# Shear Modulus (GPa) = 50.50649 -2.11629 24.19510
#
# Velocity S-wave (km/s) = 4.70571 -0.96325 3.25698
# Velocity P-wave (km/s) = 7.08078 4.56348 5.95662
#
# Compressibility (1/GPa) = 0.02127035
#
# Stress axis : x y z
#
# Youngs Moduli (GPa) = 91.83004 90.23150 66.73330
#
# Poissons Ratio (x) = 0.22460 0.35102
# Poissons Ratio (y) = 0.22858 0.00628
# Poissons Ratio (z) = 0.48304 0.00850
#
# Static dielectric constant tensor:
#      x y z
#    x 1.878500 0.000000 0.000000 
#    y 0.000000 1.550570 0.000000 
#    z 0.000000 0.000000 1.928030 
# 
# From -- ./inp_files/2817.got.cif
#   From: 2010.05.17/outbox.cif.g08.bks.cpg/sg27_2_cif.got.tgz:2817.got - 2010.06.04 01:11:05.
