data_PCOD9339906
_publ_section_title
;
Structure prediction by ZEFSAII (Michael W. Deem and Ramdas Pophale) SiO2 
 PCOD9339906
Probable space group: P M A 2
;
_chemical_formula_sum "Si O2"
_cell_formula_units_Z 30
_cell_length_a 29.443447
_cell_length_b 5.090024
_cell_length_c 10.168215
_cell_angle_alpha 90.000000
_cell_angle_beta 90.000000
_cell_angle_gamma 90.000000
_cell_volume 1523.888539
_symmetry_space_group_name_H-M "P M A 2"
_symmetry_group_IT_number 28
_symmetry_cell_setting 'orthorhombic'
loop_
_space_group_symop_operation_xyz
x,y,z
-x,-y,z
1/2-x,y,z
1/2+x,-y,z
loop_
_atom_site_type_symbol
_atom_site_label
_atom_site_fract_x
_atom_site_fract_y
_atom_site_fract_z
Si Si1 0.455908 0.161816 0.785100
Si Si2 0.030562 0.242281 0.471431
Si Si3 0.159391 0.669815 0.587678
Si Si4 0.682266 0.361227 0.004408
Si Si5 0.865853 0.821382 0.421813
Si Si6 0.300945 0.137902 0.180124
Si Si7 0.097205 0.652881 0.837130
Si Si8 0.750000 0.340855 0.756076
O O1 0.461214 0.203713 0.628322
O O2 0.444073 0.446732 0.842531
O O3 0.500000 0.000000 0.830519
O O4 0.416256 0.956281 0.819480
O O5 0.080579 0.241177 0.408269
O O6 0.000000 0.500000 0.453072
O O7 0.000000 0.000000 0.424705
O O8 0.157958 0.435235 0.482973
O O9 0.124883 0.586273 0.703947
O O10 0.209239 0.708135 0.647904
O O11 0.141037 0.935193 0.521029
O O12 0.630146 0.380527 0.960305
O O13 0.711180 0.390345 0.871505
O O14 0.694656 0.582844 0.108813
O O15 0.693005 0.081320 0.068189
O O16 0.839806 0.891270 0.288396
O O17 0.250000 0.111553 0.237069
#
# Coordination Sequence:
#
# PCOD9339906 Si02
#       8
#     4   4   4   4   4   4   4   2
#     4  11  20  34  60  95 133 158 197 247 328 385
#     4  11  21  37  61  89 123 163 204 250 313 389
#     4  11  23  38  60  94 130 161 203 251 331 370
#     4  11  24  44  66  88 121 174 224 249 300 366
#     4  12  25  41  63  94 133 163 206 267 320 378
#     4  12  25  44  65  89 125 172 222 260 306 374
#     4  11  20  38  61  92 126 161 201 264 299 377
#     4  10  24  40  66  90 130 168 210 256 298 388
#
# _framework density 19.686478000000001
#
# number of rings (size 3 to 8) (size 9 to 14) (size 15 to 20)
#    0.000    0.800    4.000    4.400    1.867    4.267 
#    0.000    0.000    0.000    8.000    0.000    0.000 
#    0.000    0.000    0.000    0.000    0.000    0.000 
#
# Total GULP energy -167075.540720 kJ/mol
# GULP energy per Si atom -5569.184691 kJ/mol
# Density = 1.964167 g / cm^3
# Si number density = 19.686478 Si / 1000 Ang^3
#
#
#
# Elastic Constant Matrix: (Units=GPa)
#
#
# Indices 1 2 3 4 5 6 
#
# 1 127.5409 13.1242 38.2350 0.0000 0.0000 0.0000
# 2 13.1242 70.3885 -2.6136 0.0000 0.0000 0.0000
# 3 38.2350 -2.6136 32.8417 0.0000 0.0000 0.0000
# 4 0.0000 0.0000 0.0000 -1.5463 0.0000 0.0000
# 5 0.0000 0.0000 0.0000 0.0000 -33.5016 0.0000
# 6 0.0000 0.0000 0.0000 0.0000 0.0000 -0.0113
#
#
#
# Elastic Compliance Matrix: (Units=1/GPa)
#
#
# Indices 1 2 3 4 5 6 
#
# 1 0.012610 -0.002905 -0.014912 0.000000 0.000000 0.000000
# 2 -0.002905 0.014918 0.004569 0.000000 0.000000 0.000000
# 3 -0.014912 0.004569 0.048174 0.000000 0.000000 0.000000
# 4 0.000000 0.000000 0.000000 -0.646705 0.000000 0.000000
# 5 0.000000 0.000000 0.000000 0.000000 -0.029849 0.000000
# 6 0.000000 0.000000 0.000000 0.000000 0.000000-88.191908
#
#
# Mechanical properties :
#
#
# Convention : Reuss Voigt Hill
#
# Bulk Modulus (GPa) = 20.32263 36.47358 28.39810
# Shear Modulus (GPa) = -0.05634 5.12318 2.53342
#
# Velocity S-wave (km/s) = -0.16935 1.61494 1.13564
# Velocity P-wave (km/s) = 3.21050 4.69519 4.02195
#
# Compressibility (1/GPa) = 0.04920624
#
# Stress axis : x y z
#
# Youngs Moduli (GPa) = 79.30257 67.03249 20.75829
#
# Poissons Ratio (x) = 0.19472 0.30955
# Poissons Ratio (y) = 0.23036 -0.09485
# Poissons Ratio (z) = 1.18255 -0.30628
#
# Static dielectric constant tensor:
#      x y z
#    x 1.733320 0.000000 0.000000 
#    y 0.000000 1.698340 0.000000 
#    z 0.000000 0.000000 1.656090 
# 
# From -- ./inp_files/4335.got.cif
#   From: 2010.05.17/outbox.cif.g08.bks.cpg/sg28_3_cif.got.tgz:4335.got - 2010.06.04 01:15:21.
