data_PCOD9339046
_publ_section_title
;
Structure prediction by ZEFSAII (Michael W. Deem and Ramdas Pophale) SiO2 
 PCOD9339046
Probable space group: P C C 2
;
_chemical_formula_sum "Si O2"
_cell_formula_units_Z 30
_cell_length_a 6.248335
_cell_length_b 19.866484
_cell_length_c 10.190891
_cell_angle_alpha 90.000000
_cell_angle_beta 90.000000
_cell_angle_gamma 90.000000
_cell_volume 1265.020240
_symmetry_space_group_name_H-M "P C C 2"
_symmetry_group_IT_number 27
_symmetry_cell_setting 'orthorhombic'
loop_
_space_group_symop_operation_xyz
x,y,z
-x,-y,z
-x,y,1/2+z
x,-y,1/2+z
loop_
_atom_site_type_symbol
_atom_site_label
_atom_site_fract_x
_atom_site_fract_y
_atom_site_fract_z
Si Si1 0.015834 0.279072 0.373020
Si Si2 0.295624 0.616660 0.263000
Si Si3 0.373081 0.932469 0.284176
Si Si4 0.000000 0.500000 0.863774
Si Si5 0.745272 0.166297 0.511706
Si Si6 0.932724 0.072071 0.043701
Si Si7 0.677548 0.604327 0.471323
Si Si8 0.664756 0.830142 0.362005
O O1 0.149416 0.336998 0.444783
O O2 0.197584 0.231530 0.309284
O O3 0.840777 0.314931 0.281766
O O4 0.888921 0.229778 0.470188
O O5 0.122683 0.556840 0.280788
O O6 0.479738 0.610730 0.372106
O O7 0.397639 0.610375 0.120269
O O8 0.254558 0.896480 0.404741
O O9 0.500000 0.000000 0.321797
O O10 0.530246 0.869323 0.251089
O O11 0.228779 0.947428 0.161075
O O12 0.813668 0.463461 0.946491
O O13 0.504469 0.191422 0.477331
O O14 0.896704 0.123481 0.609766
O O15 0.805485 0.114521 0.935516
O O16 0.000000 0.000000 0.990046
#
# Coordination Sequence:
#
# PCOD9339046 Si02
#       8
#     4   4   4   2   4   4   4   4
#     4  10  22  45  67  98 134 190 246 294 363 429
#     4  11  25  45  76 111 154 197 248 304 362 431
#     4  10  23  40  63  93 125 168 227 288 367 434
#     4  10  24  46  76 110 154 198 252 296 354 428
#     4   9  22  44  62  89 127 170 223 287 351 423
#     4  11  23  37  63  91 123 169 219 285 367 435
#     4  11  25  45  72 114 152 198 245 304 365 431
#     4   9  22  45  62  90 129 174 224 294 353 429
#
# _framework density 23.715036000000001
#
# number of rings (size 3 to 8) (size 9 to 14) (size 15 to 20)
#    0.800    1.067    0.000    2.400    1.867   11.200 
#    2.400    0.000    0.000    0.000    0.000    0.000 
#    0.000    0.000    0.000    0.000    0.000    0.000 
#
# Total GULP energy -167340.383847 kJ/mol
# GULP energy per Si atom -5578.012795 kJ/mol
# Density = 2.366106 g / cm^3
# Si number density = 23.715036 Si / 1000 Ang^3
#
#
#
# Elastic Constant Matrix: (Units=GPa)
#
#
# Indices 1 2 3 4 5 6 
#
# 1 102.7944 19.3018 3.7735 0.0000 0.0000 0.0000
# 2 19.3018 107.9732 -2.3958 0.0000 0.0000 0.0000
# 3 3.7735 -2.3958 73.6600 0.0000 0.0000 0.0000
# 4 0.0000 0.0000 0.0000 6.2821 0.0000 0.0000
# 5 0.0000 0.0000 0.0000 0.0000 22.7237 0.0000
# 6 0.0000 0.0000 0.0000 0.0000 0.0000 -41.2504
#
#
#
# Elastic Compliance Matrix: (Units=1/GPa)
#
#
# Indices 1 2 3 4 5 6 
#
# 1 0.010090 -0.001817 -0.000576 0.000000 0.000000 0.000000
# 2 -0.001817 0.009595 0.000405 0.000000 0.000000 0.000000
# 3 -0.000576 0.000405 0.013619 0.000000 0.000000 0.000000
# 4 0.000000 0.000000 0.000000 0.159182 0.000000 0.000000
# 5 0.000000 0.000000 0.000000 0.000000 0.044007 0.000000
# 6 0.000000 0.000000 0.000000 0.000000 0.000000 -0.024242
#
#
# Mechanical properties :
#
#
# Convention : Reuss Voigt Hill
#
# Bulk Modulus (GPa) = 34.09552 36.19854 35.14703
# Shear Modulus (GPa) = 22.12370 15.13430 18.62900
#
# Velocity S-wave (km/s) = 3.05765 2.52895 2.80578
# Velocity P-wave (km/s) = 5.18402 4.88104 5.03481
#
# Compressibility (1/GPa) = 0.02932936
#
# Stress axis : x y z
#
# Youngs Moduli (GPa) = 99.10405 104.21784 73.42915
#
# Poissons Ratio (x) = 0.18932 0.04230
# Poissons Ratio (y) = 0.18003 -0.02975
# Poissons Ratio (z) = 0.05708 -0.04222
#
# Static dielectric constant tensor:
#      x y z
#    x 1.390010 0.000000 0.000000 
#    y 0.000000 1.937890 0.000000 
#    z 0.000000 0.000000 2.044260 
# 
# From -- ./inp_files/2118.got.cif
#   From: 2010.05.17/outbox.cif.g08.bks.cpg/sg27_2_cif.got.tgz:2118.got - 2010.06.04 01:11:05.
