data_PCOD9339056
_publ_section_title
;
Structure prediction by ZEFSAII (Michael W. Deem and Ramdas Pophale) SiO2 
 PCOD9339056
Probable space group: P C C 2
;
_chemical_formula_sum "Si O2"
_cell_formula_units_Z 18
_cell_length_a 5.050112
_cell_length_b 5.441495
_cell_length_c 26.818702
_cell_angle_alpha 90.000000
_cell_angle_beta 90.000000
_cell_angle_gamma 90.000000
_cell_volume 736.982200
_symmetry_space_group_name_H-M "P C C 2"
_symmetry_group_IT_number 27
_symmetry_cell_setting 'orthorhombic'
loop_
_space_group_symop_operation_xyz
x,y,z
-x,-y,z
-x,y,1/2+z
x,-y,1/2+z
loop_
_atom_site_type_symbol
_atom_site_label
_atom_site_fract_x
_atom_site_fract_y
_atom_site_fract_z
Si Si1 0.500000 0.000000 0.509910
Si Si2 0.760228 0.834659 0.353395
Si Si3 0.333151 0.758151 0.204261
Si Si4 0.000000 0.000000 0.947726
Si Si5 0.000000 0.500000 0.781357
Si Si6 0.751449 0.669983 0.594093
O O1 0.672951 0.835076 0.547551
O O2 0.743884 0.107100 0.476951
O O3 0.773765 0.598466 0.318704
O O4 0.500000 0.000000 0.352853
O O5 0.859245 0.801932 0.410639
O O6 0.000000 0.000000 0.333218
O O7 0.500000 0.500000 0.205346
O O8 0.221198 0.795881 0.148117
O O9 0.105935 0.706176 0.243857
O O10 0.500000 0.000000 0.216979
O O11 0.500000 0.500000 0.600709
O O12 0.000000 0.500000 0.583661
#
# Coordination Sequence:
#
# PCOD9339056 Si02
#       6
#     2   4   4   2   2   4
#     4  12  22  46  74 106 150 206 252 344 408 480
#     4  10  25  49  72 106 157 193 272 333 401 487
#     4  11  27  47  76 115 162 213 269 328 405 497
#     4  10  22  46  74 106 152 198 264 340 408 486
#     4  12  28  46  82 108 160 220 266 340 424 482
#     4  11  24  47  70 109 151 201 262 327 397 493
#
# _framework density 24.423926999999999
#
# number of rings (size 3 to 8) (size 9 to 14) (size 15 to 20)
#    0.667    0.444    3.333    1.333    6.222    0.000 
#    6.000    0.000    0.000    0.000    0.000    0.000 
#    0.000    0.000    0.000    0.000    0.000    0.000 
#
# Total GULP energy -100521.159658 kJ/mol
# GULP energy per Si atom -5584.508870 kJ/mol
# Density = 2.436834 g / cm^3
# Si number density = 24.423927 Si / 1000 Ang^3
#
#
#
# Elastic Constant Matrix: (Units=GPa)
#
#
# Indices 1 2 3 4 5 6 
#
# 1 209.3349 64.1443 78.1544 0.0000 0.0000 0.0000
# 2 64.1443 94.3606 42.8027 0.0000 0.0000 0.0000
# 3 78.1544 42.8027 166.4000 0.0000 0.0000 0.0000
# 4 0.0000 0.0000 0.0000 -21.0774 0.0000 0.0000
# 5 0.0000 0.0000 0.0000 0.0000 3.6935 0.0000
# 6 0.0000 0.0000 0.0000 0.0000 0.0000 54.4631
#
#
#
# Elastic Compliance Matrix: (Units=1/GPa)
#
#
# Indices 1 2 3 4 5 6 
#
# 1 0.006695 -0.003538 -0.002235 0.000000 0.000000 0.000000
# 2 -0.003538 0.013867 -0.001905 0.000000 0.000000 0.000000
# 3 -0.002235 -0.001905 0.007549 0.000000 0.000000 0.000000
# 4 0.000000 0.000000 0.000000 -0.047444 0.000000 0.000000
# 5 0.000000 0.000000 0.000000 0.000000 0.270743 0.000000
# 6 0.000000 0.000000 0.000000 0.000000 0.000000 0.018361
#
#
# Mechanical properties :
#
#
# Convention : Reuss Voigt Hill
#
# Bulk Modulus (GPa) = 78.39439 93.36648 85.88044
# Shear Modulus (GPa) = 17.27842 26.41547 21.84694
#
# Velocity S-wave (km/s) = 2.66266 3.29225 2.99405
# Velocity P-wave (km/s) = 6.45136 7.26377 6.86958
#
# Compressibility (1/GPa) = 0.01275601
#
# Stress axis : x y z
#
# Youngs Moduli (GPa) = 149.35727 72.11480 132.46270
#
# Poissons Ratio (x) = 0.25512 0.29601
# Poissons Ratio (y) = 0.52838 0.25239
# Poissons Ratio (z) = 0.33376 0.13740
#
# Static dielectric constant tensor:
#      x y z
#    x 1.943550 0.000000 0.000000 
#    y 0.000000 1.943590 0.000000 
#    z 0.000000 0.000000 2.050630 
# 
# From -- ./inp_files/5176.got.cif
#   From: 2010.05.17/outbox.cif.g08.bks.cpg/sg27_3_cif.got.tgz:5176.got - 2010.06.04 01:11:05.
