data_PCOD9339031
_publ_section_title
;
Structure prediction by ZEFSAII (Michael W. Deem and Ramdas Pophale) SiO2 
 PCOD9339031
Probable space group: P C C 2
;
_chemical_formula_sum "Si O2"
_cell_formula_units_Z 26
_cell_length_a 6.392832
_cell_length_b 13.536892
_cell_length_c 14.443550
_cell_angle_alpha 90.000000
_cell_angle_beta 90.000000
_cell_angle_gamma 90.000000
_cell_volume 1249.931476
_symmetry_space_group_name_H-M "P C C 2"
_symmetry_group_IT_number 27
_symmetry_cell_setting 'orthorhombic'
loop_
_space_group_symop_operation_xyz
x,y,z
-x,-y,z
-x,y,1/2+z
x,-y,1/2+z
loop_
_atom_site_type_symbol
_atom_site_label
_atom_site_fract_x
_atom_site_fract_y
_atom_site_fract_z
Si Si1 0.000000 0.500000 0.114250
Si Si2 0.257747 0.661125 0.009180
Si Si3 0.345489 0.345011 0.140323
Si Si4 0.058219 0.827649 0.556540
Si Si5 0.629838 0.102841 0.398428
Si Si6 0.965280 0.889255 0.758084
Si Si7 0.676173 0.740789 0.331484
O O1 0.102274 0.582169 0.050944
O O2 0.192314 0.438657 0.160995
O O3 0.468674 0.641411 0.067035
O O4 0.146984 0.768211 0.024346
O O5 0.268113 0.651213 0.898989
O O6 0.210439 0.257322 0.094994
O O7 0.424144 0.302045 0.238238
O O8 0.189491 0.885331 0.477007
O O9 0.992479 0.887588 0.647925
O O10 0.468976 0.193083 0.398149
O O11 0.735197 0.124463 0.298373
O O12 0.500000 0.000000 0.403414
O O13 0.127518 0.809549 0.800145
O O14 0.000000 0.000000 0.793708
#
# Coordination Sequence:
#
# PCOD9339031 Si02
#       7
#     2   4   4   4   4   4   4
#     4  10  24  42  66  98 126 166 214 278 330 414
#     4  11  21  43  69  91 131 164 220 270 336 407
#     4  10  22  43  64  94 130 169 217 272 338 406
#     4  10  23  40  64  93 130 182 220 273 340 392
#     4  12  23  41  66 100 136 177 237 280 326 403
#     4  11  23  41  60  93 135 174 225 277 327 386
#     4  11  23  40  67  94 129 179 217 270 339 395
#
# _framework density 20.801141999999999
#
# number of rings (size 3 to 8) (size 9 to 14) (size 15 to 20)
#    0.000    1.231    4.615    1.385    0.000    2.462 
#    5.538    3.077    0.000    0.000    0.000    0.000 
#    0.000    0.000    0.000    0.000    0.000    0.000 
#
# Total GULP energy -144779.319985 kJ/mol
# GULP energy per Si atom -5568.435384 kJ/mol
# Density = 2.075380 g / cm^3
# Si number density = 20.801142 Si / 1000 Ang^3
#
#
#
# Elastic Constant Matrix: (Units=GPa)
#
#
# Indices 1 2 3 4 5 6 
#
# 1 84.4859 27.3056 45.1386 0.0000 0.0000 0.0000
# 2 27.3056 70.6921 32.2397 0.0000 0.0000 0.0000
# 3 45.1386 32.2397 122.2179 0.0000 0.0000 0.0000
# 4 0.0000 0.0000 0.0000 50.1446 0.0000 0.0000
# 5 0.0000 0.0000 0.0000 0.0000 31.2759 0.0000
# 6 0.0000 0.0000 0.0000 0.0000 0.0000 38.2596
#
#
#
# Elastic Compliance Matrix: (Units=1/GPa)
#
#
# Indices 1 2 3 4 5 6 
#
# 1 0.015625 -0.003869 -0.004750 0.000000 0.000000 0.000000
# 2 -0.003869 0.017038 -0.003066 0.000000 0.000000 0.000000
# 3 -0.004750 -0.003066 0.010745 0.000000 0.000000 0.000000
# 4 0.000000 0.000000 0.000000 0.019942 0.000000 0.000000
# 5 0.000000 0.000000 0.000000 0.000000 0.031973 0.000000
# 6 0.000000 0.000000 0.000000 0.000000 0.000000 0.026137
#
#
# Mechanical properties :
#
#
# Convention : Reuss Voigt Hill
#
# Bulk Modulus (GPa) = 49.90287 54.08486 51.99386
# Shear Modulus (GPa) = 33.00119 35.45016 34.22567
#
# Velocity S-wave (km/s) = 3.98742 4.13272 4.06072
# Velocity P-wave (km/s) = 6.72621 6.98784 6.85827
#
# Compressibility (1/GPa) = 0.02003893
#
# Stress axis : x y z
#
# Youngs Moduli (GPa) = 64.00198 58.69106 93.06561
#
# Poissons Ratio (x) = 0.22707 0.44206
# Poissons Ratio (y) = 0.24762 0.28531
# Poissons Ratio (z) = 0.30401 0.17993
#
# Static dielectric constant tensor:
#      x y z
#    x 1.957110 0.000000 0.000000 
#    y 0.000000 1.771990 0.000000 
#    z 0.000000 0.000000 1.745260 
# 
# From -- ./inp_files/3088.got.cif
#   From: 2010.05.17/outbox.cif.g08.bks.cpg/sg27_2_cif.got.tgz:3088.got - 2010.06.04 01:11:05.
