data_PCOD9339679
_publ_section_title
;
Structure prediction by ZEFSAII (Michael W. Deem and Ramdas Pophale) SiO2 
 PCOD9339679
Probable space group: P M A 2
;
_chemical_formula_sum "Si O2"
_cell_formula_units_Z 32
_cell_length_a 8.547847
_cell_length_b 9.375519
_cell_length_c 21.289048
_cell_angle_alpha 90.000000
_cell_angle_beta 90.000000
_cell_angle_gamma 90.000000
_cell_volume 1706.114993
_symmetry_space_group_name_H-M "P M A 2"
_symmetry_group_IT_number 28
_symmetry_cell_setting 'orthorhombic'
loop_
_space_group_symop_operation_xyz
x,y,z
-x,-y,z
1/2-x,y,z
1/2+x,-y,z
loop_
_atom_site_type_symbol
_atom_site_label
_atom_site_fract_x
_atom_site_fract_y
_atom_site_fract_z
Si Si1 0.937955 0.838739 0.381910
Si Si2 0.062041 0.661214 0.500354
Si Si3 0.437472 0.339690 0.258980
Si Si4 0.061232 0.840378 0.001890
Si Si5 0.561041 0.340057 0.883256
Si Si6 0.938995 0.160310 0.623193
Si Si7 0.439058 0.661157 0.743429
Si Si8 0.562129 0.161417 0.142592
O O1 0.750000 0.841992 0.383973
O O2 0.987272 0.756411 0.318481
O O3 0.000131 0.750421 0.441236
O O4 0.000000 0.000000 0.382548
O O5 0.250000 0.657891 0.498373
O O6 0.012738 0.742885 0.563978
O O7 0.000000 0.500000 0.499251
O O8 0.500000 0.500000 0.264892
O O9 0.250000 0.343746 0.258115
O O10 0.497239 0.264671 0.195798
O O11 0.250000 0.841348 0.000453
O O12 0.004105 0.749319 0.942832
O O13 0.015040 0.790710 0.071980
O O14 0.000000 0.000000 0.995300
O O15 0.500000 0.500000 0.888997
O O16 0.750000 0.340531 0.884630
O O17 0.513305 0.288678 0.813463
O O18 0.750000 0.156011 0.623698
O O19 0.992499 0.235927 0.687615
O O20 0.000000 0.000000 0.617459
O O21 0.500000 0.500000 0.734391
O O22 0.250000 0.655967 0.741727
O O23 0.750000 0.158260 0.145988
O O24 0.500000 0.000000 0.151719
#
# Coordination Sequence:
#
# PCOD9339679 Si02
#       8
#     4   4   4   4   4   4   4   4
#     4  11  24  41  62  87 115 147 183 224 270 321
#     4  11  23  39  60  85 114 147 184 226 272 323
#     4  11  24  40  59  84 113 145 182 225 272 323
#     4   9  19  34  52  77 107 140 178 221 268 319
#     4   9  18  33  52  75 105 139 177 221 268 319
#     4  10  22  37  54  80 111 143 180 223 270 320
#     4   9  18  34  54  76 104 139 179 222 268 319
#     4  10  20  36  57  80 109 144 183 226 273 326
#
# _framework density 18.756063000000001
#
# number of rings (size 3 to 8) (size 9 to 14) (size 15 to 20)
#    0.000    2.000    0.000    3.000    0.000    8.500 
#    0.000    1.250    0.000    0.000    0.000    0.000 
#    0.000    0.000    0.000    0.000    0.000    0.000 
#
# Total GULP energy -178702.970664 kJ/mol
# GULP energy per Si atom -5584.467833 kJ/mol
# Density = 1.871337 g / cm^3
# Si number density = 18.756063 Si / 1000 Ang^3
#
#
#
# Elastic Constant Matrix: (Units=GPa)
#
#
# Indices 1 2 3 4 5 6 
#
# 1 24.6076 31.5477 42.3938 0.0000 0.0000 0.0000
# 2 31.5477 155.2698 127.0219 0.0000 0.0000 0.0000
# 3 42.3938 127.0219 216.9018 0.0000 0.0000 0.0000
# 4 0.0000 0.0000 0.0000 42.5685 0.0000 0.0000
# 5 0.0000 0.0000 0.0000 0.0000 53.3456 0.0000
# 6 0.0000 0.0000 0.0000 0.0000 0.0000 36.8996
#
#
#
# Elastic Compliance Matrix: (Units=1/GPa)
#
#
# Indices 1 2 3 4 5 6 
#
# 1 0.063439 -0.005272 -0.009312 0.000000 0.000000 0.000000
# 2 -0.005272 0.012802 -0.006467 0.000000 0.000000 0.000000
# 3 -0.009312 -0.006467 0.010217 0.000000 0.000000 0.000000
# 4 0.000000 0.000000 0.000000 0.023492 0.000000 0.000000
# 5 0.000000 0.000000 0.000000 0.000000 0.018746 0.000000
# 6 0.000000 0.000000 0.000000 0.000000 0.000000 0.027101
#
#
# Mechanical properties :
#
#
# Convention : Reuss Voigt Hill
#
# Bulk Modulus (GPa) = 22.54412 88.74513 55.64463
# Shear Modulus (GPa) = 23.50931 39.61712 31.56322
#
# Velocity S-wave (km/s) = 3.54421 4.60089 4.10668
# Velocity P-wave (km/s) = 5.36604 8.69726 7.22623
#
# Compressibility (1/GPa) = 0.04435746
#
# Stress axis : x y z
#
# Youngs Moduli (GPa) = 15.76321 78.11560 97.87265
#
# Poissons Ratio (x) = 0.41179 0.91140
# Poissons Ratio (y) = 0.08310 0.63289
# Poissons Ratio (z) = 0.14679 0.50513
#
# Static dielectric constant tensor:
#      x y z
#    x 1.636350 0.000000 0.000000 
#    y 0.000000 1.594500 0.000000 
#    z 0.000000 0.000000 1.668380 
# 
# From -- ./inp_files/7142.got.cif
#   From: 2010.05.17/outbox.cif.g08.bks.cpg/sg28_4_cif.got.tgz:7142.got - 2010.06.04 01:15:21.
