data_PCOD9339728
_publ_section_title
;
Structure prediction by ZEFSAII (Michael W. Deem and Ramdas Pophale) SiO2 
 PCOD9339728
Probable space group: P M A 2
;
_chemical_formula_sum "Si O2"
_cell_formula_units_Z 24
_cell_length_a 8.593092
_cell_length_b 15.509891
_cell_length_c 9.646880
_cell_angle_alpha 90.000000
_cell_angle_beta 90.000000
_cell_angle_gamma 90.000000
_cell_volume 1285.716104
_symmetry_space_group_name_H-M "P M A 2"
_symmetry_group_IT_number 28
_symmetry_cell_setting 'orthorhombic'
loop_
_space_group_symop_operation_xyz
x,y,z
-x,-y,z
1/2-x,y,z
1/2+x,-y,z
loop_
_atom_site_type_symbol
_atom_site_label
_atom_site_fract_x
_atom_site_fract_y
_atom_site_fract_z
Si Si1 0.436378 0.404042 0.318150
Si Si2 0.564101 0.252650 0.127178
Si Si3 0.562967 0.906104 0.627359
Si Si4 0.062351 0.254453 0.816000
Si Si5 0.562611 0.904985 0.306625
Si Si6 0.563722 0.404214 0.622835
O O1 0.500000 0.500000 0.288831
O O2 0.250000 0.405441 0.320642
O O3 0.496847 0.335397 0.207755
O O4 0.498444 0.379476 0.471047
O O5 0.750000 0.256458 0.126602
O O6 0.507374 0.168050 0.209167
O O7 0.500131 0.250782 0.971420
O O8 0.750000 0.909390 0.629858
O O9 0.512497 0.830258 0.729455
O O10 0.516814 0.888452 0.467535
O O11 0.500000 0.000000 0.666771
O O12 0.250000 0.257926 0.816772
O O13 0.996678 0.337092 0.735584
O O14 0.750000 0.903593 0.297701
O O15 0.500000 0.000000 0.270506
O O16 0.500000 0.500000 0.652147
O O17 0.750000 0.405880 0.618201
#
# Coordination Sequence:
#
# PCOD9339728 Si02
#       6
#     4   4   4   4   4   4
#     4  11  22  40  64  90 118 153 195 243 294 350
#     4  12  25  40  58  86 120 158 199 244 297 356
#     4   9  20  37  61  87 114 147 190 238 288 342
#     4  11  23  40  59  85 120 159 197 241 294 351
#     4  10  20  38  62  89 117 152 195 244 296 352
#     4  11  22  39  63  91 119 153 195 242 291 347
#
# _framework density 18.666640000000001
#
# number of rings (size 3 to 8) (size 9 to 14) (size 15 to 20)
#    0.000    1.333    0.000    7.500    0.000    4.667 
#    0.000    5.000    0.000    0.000    0.000    0.000 
#    0.000    0.000    0.000    0.000    0.000    0.000 
#
# Total GULP energy -134231.606444 kJ/mol
# GULP energy per Si atom -5592.983602 kJ/mol
# Density = 1.862415 g / cm^3
# Si number density = 18.666640 Si / 1000 Ang^3
#
#
#
# Elastic Constant Matrix: (Units=GPa)
#
#
# Indices 1 2 3 4 5 6 
#
# 1 146.9273 62.6310 68.3113 0.0000 0.0000 0.0000
# 2 62.6310 133.3924 126.7290 0.0000 0.0000 0.0000
# 3 68.3113 126.7290 160.7956 0.0000 0.0000 0.0000
# 4 0.0000 0.0000 0.0000 -37.7532 0.0000 0.0000
# 5 0.0000 0.0000 0.0000 0.0000 32.9935 0.0000
# 6 0.0000 0.0000 0.0000 0.0000 0.0000 36.6832
#
#
#
# Elastic Compliance Matrix: (Units=1/GPa)
#
#
# Indices 1 2 3 4 5 6 
#
# 1 0.008651 -0.002270 -0.001886 0.000000 0.000000 0.000000
# 2 -0.002270 0.030435 -0.023023 0.000000 0.000000 0.000000
# 3 -0.001886 -0.023023 0.025166 0.000000 0.000000 0.000000
# 4 0.000000 0.000000 0.000000 -0.026488 0.000000 0.000000
# 5 0.000000 0.000000 0.000000 0.000000 0.030309 0.000000
# 6 0.000000 0.000000 0.000000 0.000000 0.000000 0.027260
#
#
# Mechanical properties :
#
#
# Convention : Reuss Voigt Hill
#
# Bulk Modulus (GPa) = 101.07336 106.27310 103.67323
# Shear Modulus (GPa) = 32.68234 18.61431 25.64832
#
# Velocity S-wave (km/s) = 4.18885 3.16127 3.71080
# Velocity P-wave (km/s) = 8.81245 8.38931 8.60348
#
# Compressibility (1/GPa) = 0.00989380
#
# Stress axis : x y z
#
# Youngs Moduli (GPa) = 115.59963 32.85693 39.73688
#
# Poissons Ratio (x) = 0.07457 0.07496
# Poissons Ratio (y) = 0.26236 0.91485
# Poissons Ratio (z) = 0.21806 0.75646
#
# Static dielectric constant tensor:
#      x y z
#    x 1.623520 0.000000 0.000000 
#    y 0.000000 1.620730 0.000000 
#    z 0.000000 0.000000 1.618520 
# 
# From -- ./inp_files/2454.got.cif
#   From: 2010.05.17/outbox.cif.g08.bks.cpg/sg28_2_cif.got.tgz:2454.got - 2010.06.04 01:15:21.
