data_PCOD9339220
_publ_section_title
;
Structure prediction by ZEFSAII (Michael W. Deem and Ramdas Pophale) SiO2 
 PCOD9339220
Probable space group: P C C 2
;
_chemical_formula_sum "Si O2"
_cell_formula_units_Z 14
_cell_length_a 8.736854
_cell_length_b 4.958624
_cell_length_c 12.602396
_cell_angle_alpha 90.000000
_cell_angle_beta 90.000000
_cell_angle_gamma 90.000000
_cell_volume 545.970753
_symmetry_space_group_name_H-M "P C C 2"
_symmetry_group_IT_number 27
_symmetry_cell_setting 'orthorhombic'
loop_
_space_group_symop_operation_xyz
x,y,z
-x,-y,z
-x,y,1/2+z
x,-y,1/2+z
loop_
_atom_site_type_symbol
_atom_site_label
_atom_site_fract_x
_atom_site_fract_y
_atom_site_fract_z
Si Si1 0.679068 0.174180 0.008580
Si Si2 0.714457 0.677640 0.862808
Si Si3 0.000000 0.500000 0.755089
Si Si4 0.000000 0.000000 0.116197
Si Si5 0.500000 0.500000 0.672344
O O1 0.545062 0.253095 0.093340
O O2 0.844282 0.098016 0.058590
O O3 0.696891 0.460917 0.953682
O O4 0.659142 0.957564 0.912958
O O5 0.889699 0.673853 0.829504
O O6 0.634220 0.552445 0.758556
O O7 0.061677 0.738503 0.680372
#
# Coordination Sequence:
#
# PCOD9339220 Si02
#       5
#     4   4   2   2   2
#     4  12  28  51  83 120 167 226 283 350 430 513
#     4  12  28  51  81 120 165 224 283 351 429 512
#     4  12  24  50  84 122 162 222 284 360 424 510
#     4  12  24  50  84 120 166 224 286 356 430 500
#     4  12  30  54  80 120 176 218 286 352 432 524
#
# _framework density 25.642399000000001
#
# number of rings (size 3 to 8) (size 9 to 14) (size 15 to 20)
#    0.000    0.000    2.857    6.000    0.000    6.857 
#    0.000    0.000    0.000    0.000    0.000    0.000 
#    0.000    0.000    0.000    0.000    0.000    0.000 
#
# Total GULP energy -78085.573882 kJ/mol
# GULP energy per Si atom -5577.540992 kJ/mol
# Density = 2.558404 g / cm^3
# Si number density = 25.642399 Si / 1000 Ang^3
#
#
#
# Elastic Constant Matrix: (Units=GPa)
#
#
# Indices 1 2 3 4 5 6 
#
# 1 121.3193 47.6761 55.2045 0.0000 0.0000 0.0000
# 2 47.6761 68.3900 15.2641 0.0000 0.0000 0.0000
# 3 55.2045 15.2641 92.7996 0.0000 0.0000 0.0000
# 4 0.0000 0.0000 0.0000 7.3312 0.0000 0.0000
# 5 0.0000 0.0000 0.0000 0.0000 41.1241 0.0000
# 6 0.0000 0.0000 0.0000 0.0000 0.0000 26.3937
#
#
#
# Elastic Compliance Matrix: (Units=1/GPa)
#
#
# Indices 1 2 3 4 5 6 
#
# 1 0.015182 -0.008894 -0.007568 0.000000 0.000000 0.000000
# 2 -0.008894 0.020390 0.001937 0.000000 0.000000 0.000000
# 3 -0.007568 0.001937 0.014960 0.000000 0.000000 0.000000
# 4 0.000000 0.000000 0.000000 0.136403 0.000000 0.000000
# 5 0.000000 0.000000 0.000000 0.000000 0.024317 0.000000
# 6 0.000000 0.000000 0.000000 0.000000 0.000000 0.037888
#
#
# Mechanical properties :
#
#
# Convention : Reuss Voigt Hill
#
# Bulk Modulus (GPa) = 46.55402 57.64425 52.09914
# Shear Modulus (GPa) = 17.52232 25.92742 21.72487
#
# Velocity S-wave (km/s) = 2.61690 3.18325 2.91387
# Velocity P-wave (km/s) = 5.22737 6.00330 5.62872
#
# Compressibility (1/GPa) = 0.02148042
#
# Stress axis : x y z
#
# Youngs Moduli (GPa) = 65.86767 49.04332 66.84692
#
# Poissons Ratio (x) = 0.43621 0.50593
# Poissons Ratio (y) = 0.58586 -0.12950
# Poissons Ratio (z) = 0.49851 -0.09501
#
# Static dielectric constant tensor:
#      x y z
#    x 2.150330 0.000000 0.000000 
#    y 0.000000 2.092200 0.000000 
#    z 0.000000 0.000000 2.085530 
# 
# From -- ./inp_files/2133.got.cif
#   From: 2010.05.17/outbox.cif.g08.bks.cpg/sg27_2_cif.got.tgz:2133.got - 2010.06.04 01:11:05.
