data_PCOD9339162
_publ_section_title
;
Structure prediction by ZEFSAII (Michael W. Deem and Ramdas Pophale) SiO2 
 PCOD9339162
Probable space group: P C C 2
;
_chemical_formula_sum "Si O2"
_cell_formula_units_Z 24
_cell_length_a 10.428540
_cell_length_b 7.692032
_cell_length_c 11.643820
_cell_angle_alpha 90.000000
_cell_angle_beta 90.000000
_cell_angle_gamma 90.000000
_cell_volume 934.028390
_symmetry_space_group_name_H-M "P C C 2"
_symmetry_group_IT_number 27
_symmetry_cell_setting 'orthorhombic'
loop_
_space_group_symop_operation_xyz
x,y,z
-x,-y,z
-x,y,1/2+z
x,-y,1/2+z
loop_
_atom_site_type_symbol
_atom_site_label
_atom_site_fract_x
_atom_site_fract_y
_atom_site_fract_z
Si Si1 0.793539 0.990546 0.339560
Si Si2 0.138404 0.500720 0.045448
Si Si3 0.347585 0.652909 0.371839
Si Si4 0.201062 0.112718 0.591864
Si Si5 0.519436 0.289385 0.066007
Si Si6 0.701808 0.670432 0.226631
O O1 0.711621 0.165081 0.338347
O O2 0.844893 0.013465 0.207235
O O3 0.840490 0.984705 0.473186
O O4 0.735911 0.798600 0.328707
O O5 0.143180 0.695638 0.091146
O O6 0.171499 0.379297 0.154015
O O7 0.000000 0.500000 0.987186
O O8 0.251427 0.443966 0.960111
O O9 0.477770 0.711959 0.432947
O O10 0.352406 0.514199 0.270818
O O11 0.354561 0.172109 0.585838
O O12 0.500000 0.500000 0.081174
O O13 0.401708 0.229772 0.146957
#
# Coordination Sequence:
#
# PCOD9339162 Si02
#       6
#     4   4   4   4   4   4
#     4  12  26  47  73 108 152 184 245 295 364 434
#     4  11  24  49  74 100 141 195 248 305 362 427
#     4  11  23  44  70 104 146 191 236 298 362 436
#     4  12  25  46  72 110 146 197 239 299 362 436
#     4  11  21  40  69 104 147 191 238 282 364 434
#     4  11  23  44  70 104 146 191 236 298 362 436
#
# _framework density 25.695150000000002
#
# number of rings (size 3 to 8) (size 9 to 14) (size 15 to 20)
#    0.000    0.667    6.667    2.000    0.000    9.333 
#    0.000    5.000    0.000    0.000    0.000    0.000 
#    0.000    0.000    0.000    0.000    0.000    0.000 
#
# Total GULP energy -133723.300606 kJ/mol
# GULP energy per Si atom -5571.804192 kJ/mol
# Density = 2.563667 g / cm^3
# Si number density = 25.695150 Si / 1000 Ang^3
#
#
#
# Elastic Constant Matrix: (Units=GPa)
#
#
# Indices 1 2 3 4 5 6 
#
# 1 97.9932 -3.8878 14.1541 0.0000 0.0000 0.0000
# 2 -3.8878 131.1499 29.1348 0.0000 0.0000 0.0000
# 3 14.1541 29.1348 152.0570 0.0000 0.0000 0.0000
# 4 0.0000 0.0000 0.0000 39.0925 0.0000 0.0000
# 5 0.0000 0.0000 0.0000 0.0000 267.5856 0.0000
# 6 0.0000 0.0000 0.0000 0.0000 0.0000 -0.2170
#
#
#
# Elastic Compliance Matrix: (Units=1/GPa)
#
#
# Indices 1 2 3 4 5 6 
#
# 1 0.010381 0.000546 -0.001071 0.000000 0.000000 0.000000
# 2 0.000546 0.007993 -0.001582 0.000000 0.000000 0.000000
# 3 -0.001071 -0.001582 0.006979 0.000000 0.000000 0.000000
# 4 0.000000 0.000000 0.000000 0.025580 0.000000 0.000000
# 5 0.000000 0.000000 0.000000 0.000000 0.003737 0.000000
# 6 0.000000 0.000000 0.000000 0.000000 0.000000 -4.608199
#
#
# Mechanical properties :
#
#
# Convention : Reuss Voigt Hill
#
# Bulk Modulus (GPa) = 47.30795 51.11137 49.20966
# Shear Modulus (GPa) = -1.10077 84.07882 41.48903
#
# Velocity S-wave (km/s) = -0.65523 5.72649 4.02265
# Velocity P-wave (km/s) = 4.22833 7.97861 6.38502
#
# Compressibility (1/GPa) = 0.02113809
#
# Stress axis : x y z
#
# Youngs Moduli (GPa) = 96.32881 125.11702 143.28055
#
# Poissons Ratio (x) = -0.06827 0.15343
# Poissons Ratio (y) = -0.05256 0.22670
# Poissons Ratio (z) = 0.10315 0.19796
#
# Static dielectric constant tensor:
#      x y z
#    x 2.135660 0.000000 0.000000 
#    y 0.000000 1.996190 0.000000 
#    z 0.000000 0.000000 2.165790 
# 
# From -- ./inp_files/2562.got.cif
#   From: 2010.05.17/outbox.cif.g08.bks.cpg/sg27_2_cif.got.tgz:2562.got - 2010.06.04 01:11:05.
