data_PCOD9339209
_publ_section_title
;
Structure prediction by ZEFSAII (Michael W. Deem and Ramdas Pophale) SiO2 
 PCOD9339209
Probable space group: P C C 2
;
_chemical_formula_sum "Si O2"
_cell_formula_units_Z 20
_cell_length_a 7.672342
_cell_length_b 10.733922
_cell_length_c 9.471364
_cell_angle_alpha 90.000000
_cell_angle_beta 90.000000
_cell_angle_gamma 90.000000
_cell_volume 780.007747
_symmetry_space_group_name_H-M "P C C 2"
_symmetry_group_IT_number 27
_symmetry_cell_setting 'orthorhombic'
loop_
_space_group_symop_operation_xyz
x,y,z
-x,-y,z
-x,y,1/2+z
x,-y,1/2+z
loop_
_atom_site_type_symbol
_atom_site_label
_atom_site_fract_x
_atom_site_fract_y
_atom_site_fract_z
Si Si1 0.450507 0.708885 0.334480
Si Si2 0.309868 0.232522 0.107697
Si Si3 0.809762 0.506760 0.711369
Si Si4 0.003767 0.861409 0.263604
Si Si5 0.185235 0.272944 0.510667
O O1 0.510931 0.778150 0.193851
O O2 0.328941 0.782288 0.441995
O O3 0.343280 0.582693 0.294803
O O4 0.169292 0.859521 0.666642
O O5 0.254794 0.374043 0.152345
O O6 0.048816 0.230686 0.391149
O O7 0.630288 0.706746 0.427731
O O8 0.846728 0.593322 0.577301
O O9 0.000000 0.000000 0.322975
O O10 0.148027 0.814320 0.150101
O O11 0.000000 0.500000 0.783556
#
# Coordination Sequence:
#
# PCOD9339209 Si02
#       5
#     4   4   4   4   4
#     4  11  26  44  71 113 162 202 247 325 395 469
#     4  11  26  42  74 111 156 207 254 317 400 472
#     4  12  26  43  73 115 162 204 256 313 398 481
#     4  11  26  51  79 108 151 209 277 332 383 465
#     4  11  26  48  75 117 153 209 263 321 403 468
#
# _framework density 25.640771999999998
#
# number of rings (size 3 to 8) (size 9 to 14) (size 15 to 20)
#    0.000    0.800    4.000    1.200   11.200    0.800 
#    0.000    1.000    4.400    0.000    0.000    0.000 
#    0.000    0.000    0.000    0.000    0.000    0.000 
#
# Total GULP energy -111662.296709 kJ/mol
# GULP energy per Si atom -5583.114835 kJ/mol
# Density = 2.558241 g / cm^3
# Si number density = 25.640772 Si / 1000 Ang^3
#
#
#
# Elastic Constant Matrix: (Units=GPa)
#
#
# Indices 1 2 3 4 5 6 
#
# 1 182.7652 5.9490 30.9062 0.0000 0.0000 0.0000
# 2 5.9490 64.8809 8.6301 0.0000 0.0000 0.0000
# 3 30.9062 8.6301 158.8819 0.0000 0.0000 0.0000
# 4 0.0000 0.0000 0.0000 24.2361 0.0000 0.0000
# 5 0.0000 0.0000 0.0000 0.0000 34.0532 0.0000
# 6 0.0000 0.0000 0.0000 0.0000 0.0000 0.4738
#
#
#
# Elastic Compliance Matrix: (Units=1/GPa)
#
#
# Indices 1 2 3 4 5 6 
#
# 1 0.005667 -0.000376 -0.001082 0.000000 0.000000 0.000000
# 2 -0.000376 0.015550 -0.000772 0.000000 0.000000 0.000000
# 3 -0.001082 -0.000772 0.006546 0.000000 0.000000 0.000000
# 4 0.000000 0.000000 0.000000 0.041261 0.000000 0.000000
# 5 0.000000 0.000000 0.000000 0.000000 0.029366 0.000000
# 6 0.000000 0.000000 0.000000 0.000000 0.000000 2.110583
#
#
# Mechanical properties :
#
#
# Convention : Reuss Voigt Hill
#
# Bulk Modulus (GPa) = 42.90980 55.27763 49.09371
# Shear Modulus (GPa) = 2.25104 35.82213 19.03658
#
# Velocity S-wave (km/s) = 0.93799 3.74180 2.72772
# Velocity P-wave (km/s) = 4.23608 6.34613 5.39527
#
# Compressibility (1/GPa) = 0.02330470
#
# Stress axis : x y z
#
# Youngs Moduli (GPa) = 176.47016 64.30894 152.75696
#
# Poissons Ratio (x) = 0.02416 0.16527
# Poissons Ratio (y) = 0.06630 0.11786
# Poissons Ratio (z) = 0.19092 0.04962
#
# Static dielectric constant tensor:
#      x y z
#    x 2.217020 0.000000 0.000000 
#    y 0.000000 1.947490 0.000000 
#    z 0.000000 0.000000 2.050350 
# 
# From -- ./inp_files/2302.got.cif
#   From: 2010.05.17/outbox.cif.g08.bks.cpg/sg27_2_cif.got.tgz:2302.got - 2010.06.04 01:11:05.
