data_PCOD9339155
_publ_section_title
;
Structure prediction by ZEFSAII (Michael W. Deem and Ramdas Pophale) SiO2 
 PCOD9339155
Probable space group: P C C 2
;
_chemical_formula_sum "Si O2"
_cell_formula_units_Z 20
_cell_length_a 11.625796
_cell_length_b 5.023377
_cell_length_c 16.736051
_cell_angle_alpha 90.000000
_cell_angle_beta 90.000000
_cell_angle_gamma 90.000000
_cell_volume 977.398035
_symmetry_space_group_name_H-M "P C C 2"
_symmetry_group_IT_number 27
_symmetry_cell_setting 'orthorhombic'
loop_
_space_group_symop_operation_xyz
x,y,z
-x,-y,z
-x,y,1/2+z
x,-y,1/2+z
loop_
_atom_site_type_symbol
_atom_site_label
_atom_site_fract_x
_atom_site_fract_y
_atom_site_fract_z
Si Si1 0.296746 0.022355 0.698830
Si Si2 0.136551 0.984069 0.842666
Si Si3 0.539633 0.752338 0.324988
Si Si4 0.361225 0.523861 0.595470
Si Si5 0.259786 0.510217 0.420567
O O1 0.180338 0.994798 0.750446
O O2 0.389690 0.956172 0.767787
O O3 0.323692 0.805708 0.631936
O O4 0.315881 0.303549 0.657860
O O5 0.176659 0.716011 0.886026
O O6 0.203741 0.217137 0.889957
O O7 0.000000 0.000000 0.846321
O O8 0.500000 0.500000 0.269512
O O9 0.619482 0.553295 0.377171
O O10 0.500000 0.000000 0.382607
O O11 0.500000 0.500000 0.583117
O O12 0.291092 0.493950 0.512979
#
# Coordination Sequence:
#
# PCOD9339155 Si02
#       5
#     4   4   4   4   4
#     4  11  23  38  61  90 123 162 207 249 305 375
#     4  11  24  46  68  87 117 165 221 274 307 348
#     4  11  20  35  58  88 122 165 211 252 299 372
#     4  12  24  39  60  95 136 163 188 246 318 384
#     4  11  24  40  63  92 124 163 211 255 311 379
#
# _framework density 20.462492000000001
#
# number of rings (size 3 to 8) (size 9 to 14) (size 15 to 20)
#    0.000    0.800    0.000   10.800    0.000    1.600 
#    0.000    6.000    0.000    0.000    0.000    0.000 
#    0.000    0.000    0.000    0.000    0.000    0.000 
#
# Total GULP energy -111429.340761 kJ/mol
# GULP energy per Si atom -5571.467038 kJ/mol
# Density = 2.041592 g / cm^3
# Si number density = 20.462492 Si / 1000 Ang^3
#
#
#
# Elastic Constant Matrix: (Units=GPa)
#
#
# Indices 1 2 3 4 5 6 
#
# 1 37.5052 -15.2910 10.6258 0.0000 0.0000 0.0000
# 2 -15.2910 76.5644 -28.6374 0.0000 0.0000 0.0000
# 3 10.6258 -28.6374 80.3828 0.0000 0.0000 0.0000
# 4 0.0000 0.0000 0.0000 21.7852 0.0000 0.0000
# 5 0.0000 0.0000 0.0000 0.0000 4.7982 0.0000
# 6 0.0000 0.0000 0.0000 0.0000 0.0000 -32.1555
#
#
#
# Elastic Compliance Matrix: (Units=1/GPa)
#
#
# Indices 1 2 3 4 5 6 
#
# 1 0.029321 0.005083 -0.002065 0.000000 0.000000 0.000000
# 2 0.005083 0.015950 0.005010 0.000000 0.000000 0.000000
# 3 -0.002065 0.005010 0.014498 0.000000 0.000000 0.000000
# 4 0.000000 0.000000 0.000000 0.045903 0.000000 0.000000
# 5 0.000000 0.000000 0.000000 0.000000 0.208410 0.000000
# 6 0.000000 0.000000 0.000000 0.000000 0.000000 -0.031099
#
#
# Mechanical properties :
#
#
# Convention : Reuss Voigt Hill
#
# Bulk Modulus (GPa) = 13.18787 14.20525 13.69656
# Shear Modulus (GPa) = 17.11151 14.06924 15.59038
#
# Velocity S-wave (km/s) = 2.89491 2.62499 2.76325
# Velocity P-wave (km/s) = 4.19916 4.01803 4.10959
#
# Compressibility (1/GPa) = 0.07582725
#
# Stress axis : x y z
#
# Youngs Moduli (GPa) = 34.10581 62.69518 68.97281
#
# Poissons Ratio (x) = -0.31870 0.14242
# Poissons Ratio (y) = -0.17337 -0.34559
# Poissons Ratio (z) = 0.07042 -0.31413
#
# Static dielectric constant tensor:
#      x y z
#    x 2.042220 0.000000 0.000000 
#    y 0.000000 1.386400 0.000000 
#    z 0.000000 0.000000 1.816860 
# 
# From -- ./inp_files/3530.got.cif
#   From: 2010.05.17/outbox.cif.g08.bks.cpg/sg27_2_cif.got.tgz:3530.got - 2010.06.04 01:11:05.
