data_PCOD9339364
_publ_section_title
;
Structure prediction by ZEFSAII (Michael W. Deem and Ramdas Pophale) SiO2 
 PCOD9339364
Probable space group: P M A 2
;
_chemical_formula_sum "Si O2"
_cell_formula_units_Z 32
_cell_length_a 8.525272
_cell_length_b 14.784977
_cell_length_c 16.137329
_cell_angle_alpha 90.000000
_cell_angle_beta 90.000000
_cell_angle_gamma 90.000000
_cell_volume 2034.044971
_symmetry_space_group_name_H-M "P M A 2"
_symmetry_group_IT_number 28
_symmetry_cell_setting 'orthorhombic'
loop_
_space_group_symop_operation_xyz
x,y,z
-x,-y,z
1/2-x,y,z
1/2+x,-y,z
loop_
_atom_site_type_symbol
_atom_site_label
_atom_site_fract_x
_atom_site_fract_y
_atom_site_fract_z
Si Si1 0.060039 0.711595 0.580440
Si Si2 0.060897 0.902627 0.321208
Si Si3 0.936183 0.602857 0.737204
Si Si4 0.060385 0.602743 0.093522
Si Si5 0.562057 0.397142 0.910860
Si Si6 0.938983 0.097452 0.514100
Si Si7 0.441634 0.712843 0.253545
Si Si8 0.939353 0.398230 0.416201
O O1 0.250000 0.709772 0.584001
O O2 0.009938 0.815473 0.566438
O O3 0.011609 0.655449 0.498650
O O4 0.994796 0.663773 0.661704
O O5 0.250000 0.904068 0.320457
O O6 0.012045 0.890071 0.417650
O O7 0.007948 0.816087 0.268603
O O8 0.000000 0.000000 0.292993
O O9 0.750000 0.597617 0.737416
O O10 0.000000 0.500000 0.727928
O O11 0.993546 0.641518 0.825871
O O12 0.250000 0.598869 0.095769
O O13 0.005672 0.665447 0.168924
O O14 0.000000 0.500000 0.103288
O O15 0.016141 0.638907 0.001806
O O16 0.500000 0.500000 0.912126
O O17 0.750000 0.397043 0.904787
O O18 0.750000 0.095880 0.514630
O O19 0.000000 0.000000 0.542357
O O20 0.250000 0.712968 0.252820
O O21 0.490644 0.653990 0.333257
O O22 0.750000 0.399228 0.415642
O O23 0.000000 0.500000 0.417233
#
# Coordination Sequence:
#
# PCOD9339364 Si02
#       8
#     4   4   4   4   4   4   4   4
#     4  10  19  32  47  65  91 123 155 186 225 270
#     4   9  16  29  47  65  87 117 151 188 226 263
#     4  11  21  32  47  67  91 121 154 190 230 271
#     4   9  17  28  45  67  91 120 152 185 221 265
#     4   9  16  28  45  65  88 115 149 188 228 268
#     4   9  17  30  48  67  88 118 152 190 231 268
#     4   9  16  29  46  64  89 122 153 180 218 267
#     4  10  19  30  43  60  88 124 156 181 212 256
#
# _framework density 15.732198
#
# number of rings (size 3 to 8) (size 9 to 14) (size 15 to 20)
#    0.000    2.500    1.250    3.000    0.000    2.500 
#    0.000    1.250    0.000    0.000    0.000    0.875 
#    0.000    2.000    0.000    0.000    0.000    0.000 
#
# Total GULP energy -178335.754085 kJ/mol
# GULP energy per Si atom -5572.992315 kJ/mol
# Density = 1.569639 g / cm^3
# Si number density = 15.732198 Si / 1000 Ang^3
#
#
#
# Elastic Constant Matrix: (Units=GPa)
#
#
# Indices 1 2 3 4 5 6 
#
# 1 23.7786 23.6892 30.3616 0.0000 0.0000 0.0000
# 2 23.6892 129.3009 82.3023 0.0000 0.0000 0.0000
# 3 30.3616 82.3023 155.2622 0.0000 0.0000 0.0000
# 4 0.0000 0.0000 0.0000 8.2907 0.0000 0.0000
# 5 0.0000 0.0000 0.0000 0.0000 14.3116 0.0000
# 6 0.0000 0.0000 0.0000 0.0000 0.0000 22.8393
#
#
#
# Elastic Compliance Matrix: (Units=1/GPa)
#
#
# Indices 1 2 3 4 5 6 
#
# 1 0.058248 -0.005164 -0.008653 0.000000 0.000000 0.000000
# 2 -0.005164 0.012130 -0.005420 0.000000 0.000000 0.000000
# 3 -0.008653 -0.005420 0.011006 0.000000 0.000000 0.000000
# 4 0.000000 0.000000 0.000000 0.120617 0.000000 0.000000
# 5 0.000000 0.000000 0.000000 0.000000 0.069873 0.000000
# 6 0.000000 0.000000 0.000000 0.000000 0.000000 0.043784
#
#
# Mechanical properties :
#
#
# Convention : Reuss Voigt Hill
#
# Bulk Modulus (GPa) = 23.30476 64.56088 43.93282
# Shear Modulus (GPa) = 13.57091 20.55424 17.06257
#
# Velocity S-wave (km/s) = 2.94023 3.61849 3.29684
# Velocity P-wave (km/s) = 5.13538 7.65405 6.51754
#
# Compressibility (1/GPa) = 0.04290970
#
# Stress axis : x y z
#
# Youngs Moduli (GPa) = 17.16803 82.44050 90.85939
#
# Poissons Ratio (x) = 0.42569 0.78623
# Poissons Ratio (y) = 0.08865 0.49247
# Poissons Ratio (z) = 0.14856 0.44684
#
# Static dielectric constant tensor:
#      x y z
#    x 1.537470 0.000000 0.000000 
#    y 0.000000 1.504250 0.000000 
#    z 0.000000 0.000000 1.542450 
# 
# From -- ./inp_files/6408.got.cif
#   From: 2010.05.17/outbox.cif.g08.bks.cpg/sg28_4_cif.got.tgz:6408.got - 2010.06.04 01:15:21.
