data_PCOD9339008
_publ_section_title
;
Structure prediction by ZEFSAII (Michael W. Deem and Ramdas Pophale) SiO2 
 PCOD9339008
Probable space group: P C C 2
;
_chemical_formula_sum "Si O2"
_cell_formula_units_Z 32
_cell_length_a 9.985849
_cell_length_b 11.881441
_cell_length_c 11.606080
_cell_angle_alpha 90.000000
_cell_angle_beta 90.000000
_cell_angle_gamma 90.000000
_cell_volume 1377.018168
_symmetry_space_group_name_H-M "P C C 2"
_symmetry_group_IT_number 27
_symmetry_cell_setting 'orthorhombic'
loop_
_space_group_symop_operation_xyz
x,y,z
-x,-y,z
-x,y,1/2+z
x,-y,1/2+z
loop_
_atom_site_type_symbol
_atom_site_label
_atom_site_fract_x
_atom_site_fract_y
_atom_site_fract_z
Si Si1 0.991865 0.760300 0.929570
Si Si2 0.436190 0.753475 0.054753
Si Si3 0.117259 0.573540 0.096099
Si Si4 0.274364 0.826875 0.502478
Si Si5 0.686969 0.549102 0.409964
Si Si6 0.222867 0.088359 0.461316
Si Si7 0.395035 0.404944 0.726171
Si Si8 0.789027 0.252270 0.759218
O O1 0.049613 0.676631 0.027137
O O2 0.066565 0.876743 0.967173
O O3 0.058851 0.734564 0.806089
O O4 0.834071 0.767628 0.921201
O O5 0.569561 0.799644 0.997634
O O6 0.388408 0.639210 0.990943
O O7 0.315098 0.840983 0.048744
O O8 0.456897 0.712798 0.186073
O O9 0.188699 0.510374 0.987813
O O10 0.000000 0.500000 0.149704
O O11 0.241414 0.595054 0.180748
O O12 0.228652 0.783129 0.628965
O O13 0.252276 0.958961 0.479923
O O14 0.617390 0.440017 0.358653
O O15 0.725011 0.629812 0.301407
O O16 0.263248 0.148590 0.339567
O O17 0.500000 0.500000 0.679386
#
# Coordination Sequence:
#
# PCOD9339008 Si02
#       8
#     4   4   4   4   4   4   4   4
#     4   9  21  44  62  92 138 167 219 287 322 388
#     4  10  22  42  66 100 134 166 225 275 317 405
#     4  10  22  41  65  90 129 171 224 278 326 389
#     4  12  21  39  77  94 125 187 221 262 353 392
#     4   9  20  43  61  85 136 174 204 279 329 378
#     4   9  20  46  63  95 137 173 211 289 330 376
#     4  11  22  39  63  90 126 174 211 261 337 393
#     4   8  20  41  61  87 132 162 216 273 321 390
#
# _framework density 23.238619
#
# number of rings (size 3 to 8) (size 9 to 14) (size 15 to 20)
#    0.750    1.500    2.500    1.500    3.500    2.500 
#    6.750    6.250    0.000    0.000    0.000    0.000 
#    0.000    0.000    0.000    0.000    0.000    0.000 
#
# Total GULP energy -178383.146839 kJ/mol
# GULP energy per Si atom -5574.473339 kJ/mol
# Density = 2.318573 g / cm^3
# Si number density = 23.238619 Si / 1000 Ang^3
#
#
#
# Elastic Constant Matrix: (Units=GPa)
#
#
# Indices 1 2 3 4 5 6 
#
# 1 104.6408 21.3604 -11.4916 0.0000 0.0000 0.0000
# 2 21.3604 71.9011 9.2256 0.0000 0.0000 0.0000
# 3 -11.4916 9.2256 34.6099 0.0000 0.0000 0.0000
# 4 0.0000 0.0000 0.0000 26.3722 0.0000 0.0000
# 5 0.0000 0.0000 0.0000 0.0000 25.8094 0.0000
# 6 0.0000 0.0000 0.0000 0.0000 0.0000 33.8359
#
#
#
# Elastic Compliance Matrix: (Units=1/GPa)
#
#
# Indices 1 2 3 4 5 6 
#
# 1 0.010842 -0.003813 0.004616 0.000000 0.000000 0.000000
# 2 -0.003813 0.015742 -0.005462 0.000000 0.000000 0.000000
# 3 0.004616 -0.005462 0.031882 0.000000 0.000000 0.000000
# 4 0.000000 0.000000 0.000000 0.037919 0.000000 0.000000
# 5 0.000000 0.000000 0.000000 0.000000 0.038746 0.000000
# 6 0.000000 0.000000 0.000000 0.000000 0.000000 0.029554
#
#
# Mechanical properties :
#
#
# Convention : Reuss Voigt Hill
#
# Bulk Modulus (GPa) = 20.34692 27.70452 24.02572
# Shear Modulus (GPa) = 26.26255 30.00733 28.13494
#
# Velocity S-wave (km/s) = 3.36538 3.59732 3.48328
# Velocity P-wave (km/s) = 4.88628 5.40388 5.15158
#
# Compressibility (1/GPa) = 0.04914749
#
# Stress axis : x y z
#
# Youngs Moduli (GPa) = 92.23515 63.52567 31.36547
#
# Poissons Ratio (x) = 0.24224 -0.14479
# Poissons Ratio (y) = 0.35171 0.17132
# Poissons Ratio (z) = -0.42578 0.34699
#
# Static dielectric constant tensor:
#      x y z
#    x 1.944770 0.000000 0.000000 
#    y 0.000000 1.859650 0.000000 
#    z 0.000000 0.000000 1.959340 
# 
# From -- ./inp_files/2644.got.cif
#   From: 2010.05.17/outbox.cif.g08.bks.cpg/sg27_2_cif.got.tgz:2644.got - 2010.06.04 01:11:05.
