data_PCOD9339881
_publ_section_title
;
Structure prediction by ZEFSAII (Michael W. Deem and Ramdas Pophale) SiO2 
 PCOD9339881
Probable space group: P M A 2
;
_chemical_formula_sum "Si O2"
_cell_formula_units_Z 16
_cell_length_a 9.626999
_cell_length_b 9.002869
_cell_length_c 7.237088
_cell_angle_alpha 90.000000
_cell_angle_beta 90.000000
_cell_angle_gamma 90.000000
_cell_volume 627.242838
_symmetry_space_group_name_H-M "P M A 2"
_symmetry_group_IT_number 28
_symmetry_cell_setting 'orthorhombic'
loop_
_space_group_symop_operation_xyz
x,y,z
-x,-y,z
1/2-x,y,z
1/2+x,-y,z
loop_
_atom_site_type_symbol
_atom_site_label
_atom_site_fract_x
_atom_site_fract_y
_atom_site_fract_z
Si Si1 0.750000 0.671220 0.416150
Si Si2 0.250000 0.718485 0.526035
Si Si3 0.750000 0.632756 0.844075
Si Si4 0.250000 0.704188 0.954842
Si Si5 0.970977 0.852061 0.004559
Si Si6 0.500000 0.500000 0.396959
Si Si7 0.750000 0.976532 0.297601
O O1 0.750000 0.611393 0.624819
O O2 0.615243 0.608569 0.310683
O O3 0.750000 0.845311 0.446208
O O4 0.250000 0.757757 0.742292
O O5 0.392334 0.621748 0.488612
O O6 0.250000 0.866430 0.399816
O O7 0.750000 0.472734 0.940120
O O8 0.618411 0.730183 0.899287
O O9 0.114063 0.769592 0.050732
O O10 0.121131 0.073300 0.166831
O O11 0.000000 0.000000 0.882979
#
# Coordination Sequence:
#
# PCOD9339881 Si02
#       7
#     2   2   2   2   4   2   2
#     4  11  24  46  74 115 149 194 262 320 387 459
#     4  11  25  46  81 120 155 207 264 333 393 465
#     4  11  23  47  79 114 151 194 263 328 381 474
#     4  12  23  48  85 112 148 212 267 326 390 461
#     4  11  27  50  73 110 158 207 255 316 398 477
#     4  10  22  46  70 116 152 188 252 326 390 446
#     4  11  29  51  73 111 163 209 254 327 397 479
#
# _framework density 25.508459999999999
#
# number of rings (size 3 to 8) (size 9 to 14) (size 15 to 20)
#    0.000    1.000    2.500    3.750    7.000    0.000 
#    9.000    0.000    0.000    0.000    0.000    0.000 
#    0.000    0.000    0.000    0.000    0.000    0.000 
#
# Total GULP energy -89372.551364 kJ/mol
# GULP energy per Si atom -5585.784460 kJ/mol
# Density = 2.545040 g / cm^3
# Si number density = 25.508460 Si / 1000 Ang^3
#
#
#
# Elastic Constant Matrix: (Units=GPa)
#
#
# Indices 1 2 3 4 5 6 
#
# 1 228.4986 79.1574 42.9182 0.0000 0.0000 0.0000
# 2 79.1574 248.3636 58.0979 0.0000 0.0000 0.0000
# 3 42.9182 58.0979 110.3587 0.0000 0.0000 0.0000
# 4 0.0000 0.0000 0.0000 41.4060 0.0000 0.0000
# 5 0.0000 0.0000 0.0000 0.0000 -27.8500 0.0000
# 6 0.0000 0.0000 0.0000 0.0000 0.0000 56.7117
#
#
#
# Elastic Compliance Matrix: (Units=1/GPa)
#
#
# Indices 1 2 3 4 5 6 
#
# 1 0.005073 -0.001318 -0.001279 0.000000 0.000000 0.000000
# 2 -0.001318 0.004934 -0.002085 0.000000 0.000000 0.000000
# 3 -0.001279 -0.002085 0.010657 0.000000 0.000000 0.000000
# 4 0.000000 0.000000 0.000000 0.024151 0.000000 0.000000
# 5 0.000000 0.000000 0.000000 0.000000 -0.035907 0.000000
# 6 0.000000 0.000000 0.000000 0.000000 0.000000 0.017633
#
#
# Mechanical properties :
#
#
# Convention : Reuss Voigt Hill
#
# Bulk Modulus (GPa) = 88.49744 105.28530 96.89137
# Shear Modulus (GPa) = 126.03416 41.19004 83.61210
#
# Velocity S-wave (km/s) = 7.03676 4.02277 5.73143
# Velocity P-wave (km/s) = 10.03943 7.93355 9.04796
#
# Compressibility (1/GPa) = 0.01129976
#
# Stress axis : x y z
#
# Youngs Moduli (GPa) = 197.11676 202.67297 93.83903
#
# Poissons Ratio (x) = 0.26705 0.12004
# Poissons Ratio (y) = 0.25973 0.19566
# Poissons Ratio (z) = 0.25216 0.42259
#
# Static dielectric constant tensor:
#      x y z
#    x 2.176530 0.000000 0.000000 
#    y 0.000000 2.073580 0.000000 
#    z 0.000000 0.000000 2.008270 
# 
# From -- ./inp_files/2133.got.cif
#   From: 2010.05.17/outbox.cif.g08.bks.cpg/sg28_2_cif.got.tgz:2133.got - 2010.06.04 01:15:21.
