data_PCOD9339827
_publ_section_title
;
Structure prediction by ZEFSAII (Michael W. Deem and Ramdas Pophale) SiO2 
 PCOD9339827
Probable space group: P M A 2
;
_chemical_formula_sum "Si O2"
_cell_formula_units_Z 32
_cell_length_a 16.994441
_cell_length_b 6.729266
_cell_length_c 13.404749
_cell_angle_alpha 90.000000
_cell_angle_beta 90.000000
_cell_angle_gamma 90.000000
_cell_volume 1532.968624
_symmetry_space_group_name_H-M "P M A 2"
_symmetry_group_IT_number 28
_symmetry_cell_setting 'orthorhombic'
loop_
_space_group_symop_operation_xyz
x,y,z
-x,-y,z
1/2-x,y,z
1/2+x,-y,z
loop_
_atom_site_type_symbol
_atom_site_label
_atom_site_fract_x
_atom_site_fract_y
_atom_site_fract_z
Si Si1 0.458706 0.306427 0.438940
Si Si2 0.588341 0.432757 0.722624
Si Si3 0.658500 0.756225 0.281707
Si Si4 0.840352 0.028591 0.787654
Si Si5 0.343200 0.336148 0.908019
Si Si6 0.661401 0.744928 0.595153
Si Si7 0.932038 0.138114 0.259602
Si Si8 0.091952 0.502066 0.110870
O O1 0.500000 0.500000 0.480924
O O2 0.384514 0.362259 0.369473
O O3 0.412217 0.189659 0.525386
O O4 0.478506 0.782102 0.358761
O O5 0.500000 0.500000 0.700897
O O6 0.612559 0.545247 0.822967
O O7 0.642913 0.521326 0.634121
O O8 0.603551 0.204774 0.750944
O O9 0.750000 0.723181 0.278554
O O10 0.617953 0.675759 0.182684
O O11 0.636001 0.987409 0.293097
O O12 0.750000 0.103826 0.802544
O O13 0.863768 0.897372 0.885361
O O14 0.838396 0.877132 0.694605
O O15 0.250000 0.343771 0.890961
O O16 0.361892 0.450792 0.010260
O O17 0.750000 0.758206 0.550820
O O18 0.900721 0.301802 0.181734
O O19 0.000000 0.000000 0.210251
O O20 0.000000 0.500000 0.085982
#
# Coordination Sequence:
#
# PCOD9339827 Si02
#       8
#     4   4   4   4   4   4   4   4
#     4  11  20  43  65  89 128 172 221 274 336 385
#     4  11  22  42  64  97 134 174 217 267 333 397
#     4  11  23  40  63  91 129 170 223 276 330 393
#     4   9  20  43  66  90 134 176 212 271 332 388
#     4  10  23  39  64  97 130 171 221 269 324 393
#     4  10  22  40  65  96 130 172 224 278 330 395
#     4  10  21  42  63  90 130 173 220 269 334 388
#     4  12  21  42  66  94 131 172 218 271 331 389
#
# _framework density 20.874531000000001
#
# number of rings (size 3 to 8) (size 9 to 14) (size 15 to 20)
#    0.000    1.500    3.750    3.375    0.000    4.000 
#   13.500    0.000    0.000    0.000    0.000    0.000 
#    0.000    0.000    0.000    0.000    0.000    0.000 
#
# Total GULP energy -178205.620949 kJ/mol
# GULP energy per Si atom -5568.925655 kJ/mol
# Density = 2.082702 g / cm^3
# Si number density = 20.874531 Si / 1000 Ang^3
#
#
#
# Elastic Constant Matrix: (Units=GPa)
#
#
# Indices 1 2 3 4 5 6 
#
# 1 89.8728 50.0183 13.9331 0.0000 0.0000 0.0000
# 2 50.0183 95.1714 29.2256 0.0000 0.0000 0.0000
# 3 13.9331 29.2256 73.3812 0.0000 0.0000 0.0000
# 4 0.0000 0.0000 0.0000 16.7532 0.0000 0.0000
# 5 0.0000 0.0000 0.0000 0.0000 94.2248 0.0000
# 6 0.0000 0.0000 0.0000 0.0000 0.0000 22.7225
#
#
#
# Elastic Compliance Matrix: (Units=1/GPa)
#
#
# Indices 1 2 3 4 5 6 
#
# 1 0.015735 -0.008377 0.000349 0.000000 0.000000 0.000000
# 2 -0.008377 0.016431 -0.004953 0.000000 0.000000 0.000000
# 3 0.000349 -0.004953 0.015534 0.000000 0.000000 0.000000
# 4 0.000000 0.000000 0.000000 0.059690 0.000000 0.000000
# 5 0.000000 0.000000 0.000000 0.000000 0.010613 0.000000
# 6 0.000000 0.000000 0.000000 0.000000 0.000000 0.044009
#
#
# Mechanical properties :
#
#
# Convention : Reuss Voigt Hill
#
# Bulk Modulus (GPa) = 46.00505 49.41994 47.71250
# Shear Modulus (GPa) = 25.61206 37.75666 31.68436
#
# Velocity S-wave (km/s) = 3.50659 4.25755 3.90018
# Velocity P-wave (km/s) = 6.20335 6.92063 6.57178
#
# Compressibility (1/GPa) = 0.02173675
#
# Stress axis : x y z
#
# Youngs Moduli (GPa) = 63.55361 60.86103 64.37448
#
# Poissons Ratio (x) = 0.50981 -0.02244
# Poissons Ratio (y) = 0.53236 0.31888
# Poissons Ratio (z) = -0.02215 0.30147
#
# Static dielectric constant tensor:
#      x y z
#    x 1.670950 0.000000 0.000000 
#    y 0.000000 1.548870 0.000000 
#    z 0.000000 0.000000 1.799580 
# 
# From -- ./inp_files/6630.got.cif
#   From: 2010.05.17/outbox.cif.g08.bks.cpg/sg28_4_cif.got.tgz:6630.got - 2010.06.04 01:15:21.
