data_PCOD9339098
_publ_section_title
;
Structure prediction by ZEFSAII (Michael W. Deem and Ramdas Pophale) SiO2 
 PCOD9339098
Probable space group: P C C 2
;
_chemical_formula_sum "Si O2"
_cell_formula_units_Z 30
_cell_length_a 5.650566
_cell_length_b 15.507206
_cell_length_c 16.506521
_cell_angle_alpha 90.000000
_cell_angle_beta 90.000000
_cell_angle_gamma 90.000000
_cell_volume 1446.375500
_symmetry_space_group_name_H-M "P C C 2"
_symmetry_group_IT_number 27
_symmetry_cell_setting 'orthorhombic'
loop_
_space_group_symop_operation_xyz
x,y,z
-x,-y,z
-x,y,1/2+z
x,-y,1/2+z
loop_
_atom_site_type_symbol
_atom_site_label
_atom_site_fract_x
_atom_site_fract_y
_atom_site_fract_z
Si Si1 0.779116 0.884611 0.093530
Si Si2 0.855131 0.830002 0.790215
Si Si3 0.168596 0.219933 0.506333
Si Si4 0.000000 0.000000 0.211231
Si Si5 0.519375 0.900838 0.925745
Si Si6 0.492106 0.399054 0.798581
Si Si7 0.464817 0.742057 0.159536
Si Si8 0.985152 0.667377 0.367440
O O1 0.691786 0.800278 0.141117
O O2 0.024624 0.851724 0.056105
O O3 0.620125 0.904861 0.016495
O O4 0.797381 0.967668 0.150133
O O5 0.693777 0.848577 0.867835
O O6 0.696387 0.803526 0.714574
O O7 0.019655 0.749689 0.808116
O O8 0.972193 0.918702 0.767679
O O9 0.295620 0.161406 0.437831
O O10 0.339477 0.266883 0.571510
O O11 0.020166 0.292338 0.457997
O O12 0.500000 0.000000 0.896348
O O13 0.500000 0.500000 0.779450
O O14 0.498671 0.341739 0.715936
O O15 0.734154 0.379725 0.849747
O O16 0.240092 0.376845 0.844610
#
# Coordination Sequence:
#
# PCOD9339098 Si02
#       8
#     4   4   4   2   4   4   4   4
#     4  11  23  41  61  89 133 183 233 281 345 397
#     4  11  24  40  60  98 131 186 229 288 334 402
#     4  11  22  44  65  93 132 189 229 279 347 413
#     4  12  24  34  60  92 136 174 240 288 326 388
#     4  11  25  38  61  89 136 188 246 291 333 389
#     4  11  25  48  79 108 139 173 225 288 356 429
#     4  10  24  41  67  97 130 180 220 285 354 415
#     4  11  24  46  74 102 140 185 230 278 352 427
#
# _framework density 20.741503000000002
#
# number of rings (size 3 to 8) (size 9 to 14) (size 15 to 20)
#    0.000    1.067    2.667    3.600    9.333    0.533 
#    0.000    0.667    2.933    0.000    0.000    0.000 
#    0.000    0.000    0.000    0.000    0.000    0.000 
#
# Total GULP energy -167352.564379 kJ/mol
# GULP energy per Si atom -5578.418813 kJ/mol
# Density = 2.069429 g / cm^3
# Si number density = 20.741503 Si / 1000 Ang^3
#
#
#
# Elastic Constant Matrix: (Units=GPa)
#
#
# Indices 1 2 3 4 5 6 
#
# 1 72.7012 18.2960 8.6149 0.0000 0.0000 0.0000
# 2 18.2960 97.8934 5.2205 0.0000 0.0000 0.0000
# 3 8.6149 5.2205 47.9503 0.0000 0.0000 0.0000
# 4 0.0000 0.0000 0.0000 9.4636 0.0000 0.0000
# 5 0.0000 0.0000 0.0000 0.0000 30.9055 0.0000
# 6 0.0000 0.0000 0.0000 0.0000 0.0000 14.8700
#
#
#
# Elastic Compliance Matrix: (Units=1/GPa)
#
#
# Indices 1 2 3 4 5 6 
#
# 1 0.014693 -0.002621 -0.002355 0.000000 0.000000 0.000000
# 2 -0.002621 0.010742 -0.000699 0.000000 0.000000 0.000000
# 3 -0.002355 -0.000699 0.021354 0.000000 0.000000 0.000000
# 4 0.000000 0.000000 0.000000 0.105668 0.000000 0.000000
# 5 0.000000 0.000000 0.000000 0.000000 0.032357 0.000000
# 6 0.000000 0.000000 0.000000 0.000000 0.000000 0.067249
#
#
# Mechanical properties :
#
#
# Convention : Reuss Voigt Hill
#
# Bulk Modulus (GPa) = 28.21513 31.42307 29.81910
# Shear Modulus (GPa) = 18.16689 23.47539 20.82114
#
# Velocity S-wave (km/s) = 2.96272 3.36788 3.17178
# Velocity P-wave (km/s) = 5.03353 5.50511 5.27459
#
# Compressibility (1/GPa) = 0.03544197
#
# Stress axis : x y z
#
# Youngs Moduli (GPa) = 68.05755 93.09049 46.82953
#
# Poissons Ratio (x) = 0.24395 0.11026
# Poissons Ratio (y) = 0.17835 0.03272
# Poissons Ratio (z) = 0.16025 0.06504
#
# Static dielectric constant tensor:
#      x y z
#    x 1.835550 0.000000 0.000000 
#    y 0.000000 1.717270 0.000000 
#    z 0.000000 0.000000 1.755930 
# 
# From -- ./inp_files/4065.got.cif
#   From: 2010.05.17/outbox.cif.g08.bks.cpg/sg27_3_cif.got.tgz:4065.got - 2010.06.04 01:11:05.
