data_PCOD9339108
_publ_section_title
;
Structure prediction by ZEFSAII (Michael W. Deem and Ramdas Pophale) SiO2 
 PCOD9339108
Probable space group: P C C 2
;
_chemical_formula_sum "Si O2"
_cell_formula_units_Z 28
_cell_length_a 23.648998
_cell_length_b 5.023338
_cell_length_c 8.746643
_cell_angle_alpha 90.000000
_cell_angle_beta 90.000000
_cell_angle_gamma 90.000000
_cell_volume 1039.074164
_symmetry_space_group_name_H-M "P C C 2"
_symmetry_group_IT_number 27
_symmetry_cell_setting 'orthorhombic'
loop_
_space_group_symop_operation_xyz
x,y,z
-x,-y,z
-x,y,1/2+z
x,-y,1/2+z
loop_
_atom_site_type_symbol
_atom_site_label
_atom_site_fract_x
_atom_site_fract_y
_atom_site_fract_z
Si Si1 0.051938 0.179443 0.526750
Si Si2 0.181026 0.836304 0.997146
Si Si3 0.387883 0.681751 0.366072
Si Si4 0.000000 0.500000 0.794302
Si Si5 0.500000 0.500000 0.391432
Si Si6 0.776429 0.314588 0.670216
Si Si7 0.650271 0.792513 0.150113
Si Si8 0.560926 0.140025 0.118175
O O1 0.115973 0.095673 0.539076
O O2 0.050714 0.412998 0.403091
O O3 0.027456 0.285749 0.683956
O O4 0.000000 0.000000 0.469526
O O5 0.208380 0.607924 0.106483
O O6 0.211876 0.111548 0.031885
O O7 0.186860 0.746574 0.821619
O O8 0.461587 0.704673 0.293838
O O9 0.384429 0.414139 0.256642
O O10 0.337004 0.630262 0.486442
O O11 0.377025 0.905177 0.222947
O O12 0.450516 0.385248 0.498688
O O13 0.713040 0.225731 0.718432
O O14 0.594572 0.904900 0.012051
O O15 0.500000 0.000000 0.107620
#
# Coordination Sequence:
#
# PCOD9339108 Si02
#       8
#     4   4   4   2   2   4   4   4
#     4  11  25  43  77 115 158 211 261 331 400 480
#     4  12  29  52  84 115 170 210 283 332 413 475
#     4  12  26  45  69 101 142 179 237 308 377 467
#     4  10  24  42  72 114 162 200 264 316 404 468
#     4  12  24  46  62 110 140 182 230 304 390 480
#     4  12  30  53  81 119 159 225 275 345 400 491
#     4  12  29  46  80  99 149 190 260 309 393 462
#     4  12  25  43  68 104 134 184 231 309 380 459
#
# _framework density 26.947067000000001
#
# number of rings (size 3 to 8) (size 9 to 14) (size 15 to 20)
#    0.000    0.286    2.857    4.286   16.000    0.000 
#    0.000    0.000    0.000    0.000    0.000    0.000 
#    0.000    0.000    0.000    0.000    0.000    0.000 
#
# Total GULP energy -156037.936023 kJ/mol
# GULP energy per Si atom -5572.783429 kJ/mol
# Density = 2.688573 g / cm^3
# Si number density = 26.947067 Si / 1000 Ang^3
#
#
#
# Elastic Constant Matrix: (Units=GPa)
#
#
# Indices 1 2 3 4 5 6 
#
# 1 145.0615 14.5364 4.0724 0.0000 0.0000 0.0000
# 2 14.5364 98.8569 22.5655 0.0000 0.0000 0.0000
# 3 4.0724 22.5655 165.4913 0.0000 0.0000 0.0000
# 4 0.0000 0.0000 0.0000 56.1647 0.0000 0.0000
# 5 0.0000 0.0000 0.0000 0.0000 45.9083 0.0000
# 6 0.0000 0.0000 0.0000 0.0000 0.0000 40.3621
#
#
#
# Elastic Compliance Matrix: (Units=1/GPa)
#
#
# Indices 1 2 3 4 5 6 
#
# 1 0.006997 -0.001021 -0.000033 0.000000 0.000000 0.000000
# 2 -0.001021 0.010590 -0.001419 0.000000 0.000000 0.000000
# 3 -0.000033 -0.001419 0.006237 0.000000 0.000000 0.000000
# 4 0.000000 0.000000 0.000000 0.017805 0.000000 0.000000
# 5 0.000000 0.000000 0.000000 0.000000 0.021783 0.000000
# 6 0.000000 0.000000 0.000000 0.000000 0.000000 0.024776
#
#
# Mechanical properties :
#
#
# Convention : Reuss Voigt Hill
#
# Bulk Modulus (GPa) = 52.97364 54.63981 53.80673
# Shear Modulus (GPa) = 50.28913 53.03606 51.66260
#
# Velocity S-wave (km/s) = 4.32466 4.44120 4.38332
# Velocity P-wave (km/s) = 6.68117 6.82787 6.75492
#
# Compressibility (1/GPa) = 0.01887731
#
# Stress axis : x y z
#
# Youngs Moduli (GPa) = 142.92048 94.43152 160.33638
#
# Poissons Ratio (x) = 0.09645 0.00528
# Poissons Ratio (y) = 0.14597 0.22749
# Poissons Ratio (z) = 0.00470 0.13398
#
# Static dielectric constant tensor:
#      x y z
#    x 2.330890 0.000000 0.000000 
#    y 0.000000 0.463090 0.000000 
#    z 0.000000 0.000000 2.194140 
# 
# From -- ./inp_files/1755.got.cif
#   From: 2010.05.17/outbox.cif.g08.bks.cpg/sg27_1_cif.got.tgz:1755.got - 2010.06.04 01:11:05.
