data_PCOD9339738
_publ_section_title
;
Structure prediction by ZEFSAII (Michael W. Deem and Ramdas Pophale) SiO2 
 PCOD9339738
Probable space group: P M A 2
;
_chemical_formula_sum "Si O2"
_cell_formula_units_Z 16
_cell_length_a 15.227171
_cell_length_b 4.827622
_cell_length_c 8.332542
_cell_angle_alpha 90.000000
_cell_angle_beta 90.000000
_cell_angle_gamma 90.000000
_cell_volume 612.533709
_symmetry_space_group_name_H-M "P M A 2"
_symmetry_group_IT_number 28
_symmetry_cell_setting 'orthorhombic'
loop_
_space_group_symop_operation_xyz
x,y,z
-x,-y,z
1/2-x,y,z
1/2+x,-y,z
loop_
_atom_site_type_symbol
_atom_site_label
_atom_site_fract_x
_atom_site_fract_y
_atom_site_fract_z
Si Si1 0.894598 0.468624 0.642190
Si Si2 0.606792 0.970178 0.453692
Si Si3 0.595572 0.628230 0.145003
Si Si4 0.152211 0.880018 0.956241
O O1 0.863685 0.776182 0.602084
O O2 0.869989 0.300833 0.799901
O O3 0.000000 0.500000 0.643017
O O4 0.863701 0.277512 0.493628
O O5 0.630527 0.811000 0.292120
O O6 0.500000 0.000000 0.449405
O O7 0.500000 0.500000 0.182473
O O8 0.647861 0.357559 0.092464
O O9 0.591968 0.856440 0.001305
O O10 0.250000 0.995750 0.945319
#
# Coordination Sequence:
#
# PCOD9339738 Si02
#       4
#     4   4   4   4
#     4  10  21  39  65  95 128 168 214 267 324 386
#     4  10  20  38  65  97 126 159 215 276 322 376
#     4  12  24  43  70  97 128 173 222 271 329 394
#     4  12  26  44  64  97 138 176 217 270 328 394
#
# _framework density 26.121010999999999
#
# number of rings (size 3 to 8) (size 9 to 14) (size 15 to 20)
#    0.000    1.000    0.000    9.000    0.000    4.000 
#    0.000    8.750    0.000    0.000    0.000    0.000 
#    0.000    0.000    0.000    0.000    0.000    0.000 
#
# Total GULP energy -89529.958618 kJ/mol
# GULP energy per Si atom -5595.622414 kJ/mol
# Density = 2.606156 g / cm^3
# Si number density = 26.121011 Si / 1000 Ang^3
#
#
#
# Elastic Constant Matrix: (Units=GPa)
#
#
# Indices 1 2 3 4 5 6 
#
# 1 57.2465 11.0927 0.5911 0.0000 0.0000 0.0000
# 2 11.0927 166.8554 39.4536 0.0000 0.0000 0.0000
# 3 0.5911 39.4536 108.2383 0.0000 0.0000 0.0000
# 4 0.0000 0.0000 0.0000 47.7798 0.0000 0.0000
# 5 0.0000 0.0000 0.0000 0.0000 180.1656 0.0000
# 6 0.0000 0.0000 0.0000 0.0000 0.0000 7.3632
#
#
#
# Elastic Compliance Matrix: (Units=1/GPa)
#
#
# Indices 1 2 3 4 5 6 
#
# 1 0.017709 -0.001263 0.000364 0.000000 0.000000 0.000000
# 2 -0.001263 0.006649 -0.002417 0.000000 0.000000 0.000000
# 3 0.000364 -0.002417 0.010118 0.000000 0.000000 0.000000
# 4 0.000000 0.000000 0.000000 0.020929 0.000000 0.000000
# 5 0.000000 0.000000 0.000000 0.000000 0.005550 0.000000
# 6 0.000000 0.000000 0.000000 0.000000 0.000000 0.135811
#
#
# Mechanical properties :
#
#
# Convention : Reuss Voigt Hill
#
# Bulk Modulus (GPa) = 35.91509 48.29055 42.10282
# Shear Modulus (GPa) = 23.50953 65.80857 44.65905
#
# Velocity S-wave (km/s) = 3.00329 5.02478 4.13934
# Velocity P-wave (km/s) = 5.07993 7.22440 6.24490
#
# Compressibility (1/GPa) = 0.02784345
#
# Stress axis : x y z
#
# Youngs Moduli (GPa) = 56.46733 150.40744 98.83633
#
# Poissons Ratio (x) = 0.19002 -0.03596
# Poissons Ratio (y) = 0.07134 0.23884
# Poissons Ratio (z) = -0.02054 0.36347
#
# Static dielectric constant tensor:
#      x y z
#    x 1.898900 0.000000 0.000000 
#    y 0.000000 1.938770 0.000000 
#    z 0.000000 0.000000 2.166700 
# 
# From -- ./inp_files/3618.got.cif
#   From: 2010.05.17/outbox.cif.g08.bks.cpg/sg28_2_cif.got.tgz:3618.got - 2010.06.04 01:15:21.
