data_PCOD9339003
_publ_section_title
;
Structure prediction by ZEFSAII (Michael W. Deem and Ramdas Pophale) SiO2 
 PCOD9339003
Probable space group: P C C 2
;
_chemical_formula_sum "Si O2"
_cell_formula_units_Z 24
_cell_length_a 11.018313
_cell_length_b 6.074934
_cell_length_c 17.019105
_cell_angle_alpha 90.000000
_cell_angle_beta 90.000000
_cell_angle_gamma 90.000000
_cell_volume 1139.182716
_symmetry_space_group_name_H-M "P C C 2"
_symmetry_group_IT_number 27
_symmetry_cell_setting 'orthorhombic'
loop_
_space_group_symop_operation_xyz
x,y,z
-x,-y,z
-x,y,1/2+z
x,-y,1/2+z
loop_
_atom_site_type_symbol
_atom_site_label
_atom_site_fract_x
_atom_site_fract_y
_atom_site_fract_z
Si Si1 0.183706 0.858497 0.414530
Si Si2 0.798682 0.807367 0.269991
Si Si3 0.625044 0.889322 0.670730
Si Si4 0.820295 0.200629 0.055368
Si Si5 0.368462 0.589478 0.325297
Si Si6 0.000000 0.500000 0.460849
Si Si7 0.000000 0.000000 0.680491
O O1 0.304717 0.719945 0.396028
O O2 0.065873 0.699325 0.415125
O O3 0.183472 0.029251 0.343003
O O4 0.188414 0.998903 0.494052
O O5 0.731775 0.591284 0.300258
O O6 0.929949 0.813912 0.230050
O O7 0.710060 0.916688 0.205359
O O8 0.692577 0.765682 0.599374
O O9 0.608604 0.734760 0.747056
O O10 0.500000 0.000000 0.645913
O O11 0.908026 0.127001 0.125079
O O12 0.889334 0.398369 0.011657
O O13 0.500000 0.500000 0.348691
#
# Coordination Sequence:
#
# PCOD9339003 Si02
#       7
#     4   4   4   4   4   2   2
#     4  11  25  43  65  98 137 178 224 290 346 413
#     4  10  23  41  68  97 130 172 229 284 346 402
#     4  10  22  44  66  99 133 176 225 292 341 406
#     4  11  24  43  65  95 139 180 220 287 348 420
#     4  11  23  43  74  99 133 183 237 285 346 423
#     4  12  24  44  70  96 138 180 230 278 352 424
#     4  10  22  40  66  94 134 170 220 292 348 402
#
# _framework density 21.067734999999999
#
# number of rings (size 3 to 8) (size 9 to 14) (size 15 to 20)
#    0.000    1.333    3.333    1.000    7.000    0.000 
#    6.000    0.000    0.000    0.000    0.000    0.000 
#    0.000    0.000    0.000    0.000    0.000    0.000 
#
# Total GULP energy -134025.434515 kJ/mol
# GULP energy per Si atom -5584.393105 kJ/mol
# Density = 2.101978 g / cm^3
# Si number density = 21.067735 Si / 1000 Ang^3
#
#
#
# Elastic Constant Matrix: (Units=GPa)
#
#
# Indices 1 2 3 4 5 6 
#
# 1 138.7583 37.7166 62.6743 0.0000 0.0000 0.0000
# 2 37.7166 62.5154 19.1756 0.0000 0.0000 0.0000
# 3 62.6743 19.1756 64.4359 0.0000 0.0000 0.0000
# 4 0.0000 0.0000 0.0000 9.5940 0.0000 0.0000
# 5 0.0000 0.0000 0.0000 0.0000 27.6179 0.0000
# 6 0.0000 0.0000 0.0000 0.0000 0.0000 38.7289
#
#
#
# Elastic Compliance Matrix: (Units=1/GPa)
#
#
# Indices 1 2 3 4 5 6 
#
# 1 0.014006 -0.004700 -0.012224 0.000000 0.000000 0.000000
# 2 -0.004700 0.019180 -0.001136 0.000000 0.000000 0.000000
# 3 -0.012224 -0.001136 0.027747 0.000000 0.000000 0.000000
# 4 0.000000 0.000000 0.000000 0.104231 0.000000 0.000000
# 5 0.000000 0.000000 0.000000 0.000000 0.036208 0.000000
# 6 0.000000 0.000000 0.000000 0.000000 0.000000 0.025821
#
#
# Mechanical properties :
#
#
# Convention : Reuss Voigt Hill
#
# Bulk Modulus (GPa) = 40.30246 56.09362 48.19804
# Shear Modulus (GPa) = 18.41041 24.93105 21.67073
#
# Velocity S-wave (km/s) = 2.95933 3.44375 3.21069
# Velocity P-wave (km/s) = 5.55413 6.51888 6.05575
#
# Compressibility (1/GPa) = 0.02481238
#
# Stress axis : x y z
#
# Youngs Moduli (GPa) = 71.39910 52.13674 36.03959
#
# Poissons Ratio (x) = 0.24506 0.44055
# Poissons Ratio (y) = 0.33560 0.04094
# Poissons Ratio (z) = 0.87279 0.05923
#
# Static dielectric constant tensor:
#      x y z
#    x 1.763660 0.000000 0.000000 
#    y 0.000000 1.769250 0.000000 
#    z 0.000000 0.000000 1.751480 
# 
# From -- ./inp_files/4418.got.cif
#   From: 2010.05.17/outbox.cif.g08.bks.cpg/sg27_3_cif.got.tgz:4418.got - 2010.06.04 01:11:05.
