data_PCOD9339103
_publ_section_title
;
Structure prediction by ZEFSAII (Michael W. Deem and Ramdas Pophale) SiO2 
 PCOD9339103
Probable space group: P C C 2
;
_chemical_formula_sum "Si O2"
_cell_formula_units_Z 28
_cell_length_a 5.089487
_cell_length_b 27.086476
_cell_length_c 8.872183
_cell_angle_alpha 90.000000
_cell_angle_beta 90.000000
_cell_angle_gamma 90.000000
_cell_volume 1223.086033
_symmetry_space_group_name_H-M "P C C 2"
_symmetry_group_IT_number 27
_symmetry_cell_setting 'orthorhombic'
loop_
_space_group_symop_operation_xyz
x,y,z
-x,-y,z
-x,y,1/2+z
x,-y,1/2+z
loop_
_atom_site_type_symbol
_atom_site_label
_atom_site_fract_x
_atom_site_fract_y
_atom_site_fract_z
Si Si1 0.322075 0.954935 0.660280
Si Si2 0.000000 0.500000 0.428819
Si Si3 0.149668 0.808052 0.015131
Si Si4 0.000000 0.000000 0.426440
Si Si5 0.360697 0.156499 0.191421
Si Si6 0.320859 0.544780 0.695255
Si Si7 0.147532 0.692604 0.989870
Si Si8 0.645673 0.656512 0.165103
O O1 0.437927 0.901179 0.679513
O O2 0.500000 0.000000 0.606305
O O3 0.098109 0.956190 0.533982
O O4 0.206958 0.974787 0.815959
O O5 0.791454 0.475521 0.539603
O O6 0.904237 0.543956 0.321071
O O7 0.260598 0.831083 0.859554
O O8 0.088002 0.750735 0.985195
O O9 0.384486 0.813328 0.137470
O O10 0.885383 0.832680 0.080593
O O11 0.500000 0.500000 0.750440
O O12 0.431282 0.598863 0.676681
O O13 0.249258 0.674816 0.826811
O O14 0.388087 0.684202 0.105798
O O15 0.887693 0.664498 0.048932
#
# Coordination Sequence:
#
# PCOD9339103 Si02
#       8
#     4   2   4   2   4   4   4   4
#     4  11  25  42  69 100 143 182 234 282 349 425
#     4  10  24  42  66  94 144 180 232 282 340 406
#     4  12  26  49  74 107 144 187 244 305 359 425
#     4  10  24  42  66  94 144 180 232 282 340 406
#     4  12  28  45  78 106 145 190 241 292 372 426
#     4  11  25  42  69 100 143 182 234 282 349 425
#     4  12  26  49  74 107 144 187 244 305 359 425
#     4  12  28  45  78 106 145 190 241 292 372 426
#
# _framework density 22.892911999999999
#
# number of rings (size 3 to 8) (size 9 to 14) (size 15 to 20)
#    0.000    0.571    0.000    6.857   16.000    0.000 
#    0.000    0.000    0.000    0.000    0.000    0.000 
#    0.000    0.000    0.000    0.000    0.000    0.000 
#
# Total GULP energy -156709.867700 kJ/mol
# GULP energy per Si atom -5596.780989 kJ/mol
# Density = 2.284081 g / cm^3
# Si number density = 22.892912 Si / 1000 Ang^3
#
#
#
# Elastic Constant Matrix: (Units=GPa)
#
#
# Indices 1 2 3 4 5 6 
#
# 1 68.1066 8.2752 4.3261 0.0000 0.0000 0.0000
# 2 8.2752 109.4361 9.8568 0.0000 0.0000 0.0000
# 3 4.3261 9.8568 98.4024 0.0000 0.0000 0.0000
# 4 0.0000 0.0000 0.0000 -586.4608 0.0000 0.0000
# 5 0.0000 0.0000 0.0000 0.0000 35.1862 0.0000
# 6 0.0000 0.0000 0.0000 0.0000 0.0000 34.2051
#
#
#
# Elastic Compliance Matrix: (Units=1/GPa)
#
#
# Indices 1 2 3 4 5 6 
#
# 1 0.014848 -0.001074 -0.000545 0.000000 0.000000 0.000000
# 2 -0.001074 0.009299 -0.000884 0.000000 0.000000 0.000000
# 3 -0.000545 -0.000884 0.010275 0.000000 0.000000 0.000000
# 4 0.000000 0.000000 0.000000 -0.001705 0.000000 0.000000
# 5 0.000000 0.000000 0.000000 0.000000 0.028420 0.000000
# 6 0.000000 0.000000 0.000000 0.000000 0.000000 0.029235
#
#
# Mechanical properties :
#
#
# Convention : Reuss Voigt Hill
#
# Bulk Modulus (GPa) = 33.99599 35.65126 34.82362
# Shear Modulus (GPa) = 47.53612 -86.51476 -19.48932
#
# Velocity S-wave (km/s) = 4.56176 -6.15411 -2.92091
# Velocity P-wave (km/s) = 6.52904 5.90683 1.96695
#
# Compressibility (1/GPa) = 0.02941524
#
# Stress axis : x y z
#
# Youngs Moduli (GPa) = 67.34941 107.54327 97.32465
#
# Poissons Ratio (x) = 0.11546 0.05306
# Poissons Ratio (y) = 0.07231 0.08606
# Poissons Ratio (z) = 0.03672 0.09509
#
# Static dielectric constant tensor:
#      x y z
#    x 1.818120 0.000000 0.000000 
#    y 0.000000 1.847850 0.000000 
#    z 0.000000 0.000000 1.817810 
# 
# From -- ./inp_files/906.got.cif
#   From: 2010.05.17/outbox.cif.g08.bks.cpg/sg27_1_cif.got.tgz:906.got - 2010.06.04 01:11:05.
