data_PCOD9339902
_publ_section_title
;
Structure prediction by ZEFSAII (Michael W. Deem and Ramdas Pophale) SiO2 
 PCOD9339902
Probable space group: P M A 2
;
_chemical_formula_sum "Si O2"
_cell_formula_units_Z 28
_cell_length_a 18.304626
_cell_length_b 10.722552
_cell_length_c 5.702171
_cell_angle_alpha 90.000000
_cell_angle_beta 90.000000
_cell_angle_gamma 90.000000
_cell_volume 1119.178241
_symmetry_space_group_name_H-M "P M A 2"
_symmetry_group_IT_number 28
_symmetry_cell_setting 'orthorhombic'
loop_
_space_group_symop_operation_xyz
x,y,z
-x,-y,z
1/2-x,y,z
1/2+x,-y,z
loop_
_atom_site_type_symbol
_atom_site_label
_atom_site_fract_x
_atom_site_fract_y
_atom_site_fract_z
Si Si1 0.666975 0.909600 0.183270
Si Si2 0.580172 0.488701 0.732887
Si Si3 0.053869 0.792304 0.827243
Si Si4 0.669372 0.390815 0.343149
Si Si5 0.337922 0.989177 0.687296
Si Si6 0.520172 0.237696 0.320853
Si Si7 0.380350 0.360067 0.132607
O O1 0.750000 0.956885 0.176343
O O2 0.635374 0.966790 0.426940
O O3 0.665665 0.760043 0.197112
O O4 0.637430 0.934540 0.920115
O O5 0.500000 0.500000 0.616452
O O6 0.566622 0.356000 0.862581
O O7 0.651799 0.461160 0.585166
O O8 0.593412 0.617008 0.868425
O O9 0.010216 0.815550 0.583548
O O10 0.131118 0.854964 0.761635
O O11 0.021821 0.839584 0.075937
O O12 0.750000 0.335904 0.326099
O O13 0.601697 0.296514 0.327316
O O14 0.659040 0.508572 0.172938
O O15 0.250000 0.993651 0.675696
O O16 0.454944 0.335327 0.274269
#
# Coordination Sequence:
#
# PCOD9339902 Si02
#       7
#     4   4   4   4   4   4   4
#     4  10  24  44  69  97 135 186 240 291 350 410
#     4  11  22  42  69 100 142 184 225 282 361 430
#     4  11  22  42  70  99 130 176 233 277 338 423
#     4  11  24  39  62 101 145 181 234 285 346 431
#     4  10  23  46  69  96 138 187 233 292 351 407
#     4  11  24  42  67 102 139 183 221 280 360 410
#     4  12  23  43  69  99 139 192 229 290 352 433
#
# _framework density 25.018357000000002
#
# number of rings (size 3 to 8) (size 9 to 14) (size 15 to 20)
#    0.000    1.143    2.857    3.429    2.000    4.000 
#    0.000    4.286    0.000    0.000    0.000    0.000 
#    0.000    0.000    0.000    0.000    0.000    0.000 
#
# Total GULP energy -155953.059423 kJ/mol
# GULP energy per Si atom -5569.752122 kJ/mol
# Density = 2.496141 g / cm^3
# Si number density = 25.018357 Si / 1000 Ang^3
#
#
#
# Elastic Constant Matrix: (Units=GPa)
#
#
# Indices 1 2 3 4 5 6 
#
# 1 95.3916 0.7794 15.3438 0.0000 0.0000 0.0000
# 2 0.7794 51.3032 19.0734 0.0000 0.0000 0.0000
# 3 15.3438 19.0734 200.7995 0.0000 0.0000 0.0000
# 4 0.0000 0.0000 0.0000 38.0632 0.0000 0.0000
# 5 0.0000 0.0000 0.0000 0.0000 13.2038 0.0000
# 6 0.0000 0.0000 0.0000 0.0000 0.0000 32.0842
#
#
#
# Elastic Compliance Matrix: (Units=1/GPa)
#
#
# Indices 1 2 3 4 5 6 
#
# 1 0.010615 0.000145 -0.000825 0.000000 0.000000 0.000000
# 2 0.000145 0.020208 -0.001931 0.000000 0.000000 0.000000
# 3 -0.000825 -0.001931 0.005227 0.000000 0.000000 0.000000
# 4 0.000000 0.000000 0.000000 0.026272 0.000000 0.000000
# 5 0.000000 0.000000 0.000000 0.000000 0.075736 0.000000
# 6 0.000000 0.000000 0.000000 0.000000 0.000000 0.031168
#
#
# Mechanical properties :
#
#
# Convention : Reuss Voigt Hill
#
# Bulk Modulus (GPa) = 32.43752 46.43196 39.43474
# Shear Modulus (GPa) = 27.06786 37.49008 32.27897
#
# Velocity S-wave (km/s) = 3.29282 3.87525 3.59585
# Velocity P-wave (km/s) = 5.23933 6.21473 5.74776
#
# Compressibility (1/GPa) = 0.03082849
#
# Stress axis : x y z
#
# Youngs Moduli (GPa) = 94.20989 49.48656 191.33244
#
# Poissons Ratio (x) = -0.00720 0.15783
# Poissons Ratio (y) = -0.01370 0.36938
# Poissons Ratio (z) = 0.07771 0.09554
#
# Static dielectric constant tensor:
#      x y z
#    x 1.922290 0.000000 0.000000 
#    y 0.000000 1.977050 0.000000 
#    z 0.000000 0.000000 2.212370 
# 
# From -- ./inp_files/1395.got.cif
#   From: 2010.05.17/outbox.cif.g08.bks.cpg/sg28_1_cif.got.tgz:1395.got - 2010.06.04 01:15:21.
