data_PCOD9339295
_publ_section_title
;
Structure prediction by ZEFSAII (Michael W. Deem and Ramdas Pophale) SiO2 
 PCOD9339295
Probable space group: P M A 2
;
_chemical_formula_sum "Si O2"
_cell_formula_units_Z 28
_cell_length_a 9.428406
_cell_length_b 18.130825
_cell_length_c 9.421086
_cell_angle_alpha 90.000000
_cell_angle_beta 90.000000
_cell_angle_gamma 90.000000
_cell_volume 1610.485466
_symmetry_space_group_name_H-M "P M A 2"
_symmetry_group_IT_number 28
_symmetry_cell_setting 'orthorhombic'
loop_
_space_group_symop_operation_xyz
x,y,z
-x,-y,z
1/2-x,y,z
1/2+x,-y,z
loop_
_atom_site_type_symbol
_atom_site_label
_atom_site_fract_x
_atom_site_fract_y
_atom_site_fract_z
Si Si1 0.415268 0.757643 0.538540
Si Si2 0.916791 0.424251 0.077773
Si Si3 0.087533 0.321400 0.293602
Si Si4 0.414992 0.927302 0.970854
Si Si5 0.089852 0.705689 0.858222
Si Si6 0.593065 0.801467 0.054577
Si Si7 0.080884 0.922980 0.633614
O O1 0.250000 0.758374 0.491488
O O2 0.511165 0.710989 0.431726
O O3 0.418727 0.715896 0.690344
O O4 0.458452 0.844369 0.560362
O O5 0.750000 0.435889 0.108847
O O6 0.000000 0.500000 0.055352
O O7 0.993670 0.380870 0.207141
O O8 0.923397 0.373181 0.935910
O O9 0.250000 0.347161 0.319086
O O10 0.096140 0.252070 0.187408
O O11 0.250000 0.937200 0.990427
O O12 0.477864 0.864348 0.069013
O O13 0.500000 0.000000 0.003524
O O14 0.440499 0.910433 0.803277
O O15 0.250000 0.733593 0.898477
O O16 0.964398 0.753341 0.924479
O O17 0.750000 0.831654 0.027051
O O18 0.250000 0.933778 0.611827
O O19 0.000000 0.000000 0.596343
#
# Coordination Sequence:
#
# PCOD9339295 Si02
#       7
#     4   4   4   4   4   4   4
#     4  10  19  35  55  79 110 146 186 227 275 327
#     4  10  20  37  62  86 111 143 176 218 269 325
#     4  10  22  37  54  80 111 144 184 223 265 323
#     4  10  18  30  48  73 103 135 177 228 278 326
#     4   9  18  34  56  80 106 138 177 219 268 321
#     4  10  19  32  50  74 103 136 177 224 268 317
#     4   9  18  31  49  74 105 140 180 227 275 325
#
# _framework density 17.386064000000001
#
# number of rings (size 3 to 8) (size 9 to 14) (size 15 to 20)
#    0.000    2.286    1.429    1.714    0.000    4.000 
#    0.000    1.429    0.000    3.429    0.000    0.000 
#    0.000    0.000    0.000    0.000    0.000    0.000 
#
# Total GULP energy -155948.562308 kJ/mol
# GULP energy per Si atom -5569.591511 kJ/mol
# Density = 1.734649 g / cm^3
# Si number density = 17.386064 Si / 1000 Ang^3
#
#
#
# Elastic Constant Matrix: (Units=GPa)
#
#
# Indices 1 2 3 4 5 6 
#
# 1 104.1916 53.5781 40.2369 0.0000 0.0000 0.0000
# 2 53.5781 92.0237 23.8897 0.0000 0.0000 0.0000
# 3 40.2369 23.8897 50.9895 0.0000 0.0000 0.0000
# 4 0.0000 0.0000 0.0000 11.6658 0.0000 0.0000
# 5 0.0000 0.0000 0.0000 0.0000 51.9967 0.0000
# 6 0.0000 0.0000 0.0000 0.0000 0.0000 34.3247
#
#
#
# Elastic Compliance Matrix: (Units=1/GPa)
#
#
# Indices 1 2 3 4 5 6 
#
# 1 0.017385 -0.007469 -0.010220 0.000000 0.000000 0.000000
# 2 -0.007469 0.015580 -0.001406 0.000000 0.000000 0.000000
# 3 -0.010220 -0.001406 0.028335 0.000000 0.000000 0.000000
# 4 0.000000 0.000000 0.000000 0.085721 0.000000 0.000000
# 5 0.000000 0.000000 0.000000 0.000000 0.019232 0.000000
# 6 0.000000 0.000000 0.000000 0.000000 0.000000 0.029133
#
#
# Mechanical properties :
#
#
# Convention : Reuss Voigt Hill
#
# Bulk Modulus (GPa) = 43.26802 53.62379 48.44590
# Shear Modulus (GPa) = 20.72288 28.23079 24.47683
#
# Velocity S-wave (km/s) = 3.45617 4.03396 3.75619
# Velocity P-wave (km/s) = 6.39277 7.25307 6.83647
#
# Compressibility (1/GPa) = 0.02311176
#
# Stress axis : x y z
#
# Youngs Moduli (GPa) = 57.52087 64.18380 35.29199
#
# Poissons Ratio (x) = 0.47938 0.36067
# Poissons Ratio (y) = 0.42962 0.04962
# Poissons Ratio (z) = 0.58784 0.09023
#
# Static dielectric constant tensor:
#      x y z
#    x 1.585010 0.000000 0.000000 
#    y 0.000000 1.669730 0.000000 
#    z 0.000000 0.000000 1.581220 
# 
# From -- ./inp_files/2602.got.cif
#   From: 2010.05.17/outbox.cif.g08.bks.cpg/sg28_2_cif.got.tgz:2602.got - 2010.06.04 01:15:21.
