data_PCOD9339548
_publ_section_title
;
Structure prediction by ZEFSAII (Michael W. Deem and Ramdas Pophale) SiO2 
 PCOD9339548
Probable space group: P M A 2
;
_chemical_formula_sum "Si O2"
_cell_formula_units_Z 28
_cell_length_a 8.694082
_cell_length_b 18.539179
_cell_length_c 9.861564
_cell_angle_alpha 90.000000
_cell_angle_beta 90.000000
_cell_angle_gamma 90.000000
_cell_volume 1589.498152
_symmetry_space_group_name_H-M "P M A 2"
_symmetry_group_IT_number 28
_symmetry_cell_setting 'orthorhombic'
loop_
_space_group_symop_operation_xyz
x,y,z
-x,-y,z
1/2-x,y,z
1/2+x,-y,z
loop_
_atom_site_type_symbol
_atom_site_label
_atom_site_fract_x
_atom_site_fract_y
_atom_site_fract_z
Si Si1 0.072725 0.193308 0.716510
Si Si2 0.433138 0.080610 0.168828
Si Si3 0.567091 0.420514 0.725001
Si Si4 0.571715 0.073986 0.872832
Si Si5 0.064553 0.700639 0.510163
Si Si6 0.565022 0.299069 0.932009
Si Si7 0.566108 0.235591 0.226743
O O1 0.250000 0.171102 0.714051
O O2 0.959617 0.129359 0.754314
O O3 0.020729 0.233459 0.582330
O O4 0.039011 0.248647 0.838346
O O5 0.250000 0.076288 0.180506
O O6 0.491509 0.155435 0.237557
O O7 0.500000 0.000000 0.206185
O O8 0.483237 0.092572 0.011840
O O9 0.500000 0.500000 0.722004
O O10 0.750000 0.426430 0.714168
O O11 0.517110 0.370132 0.597026
O O12 0.536033 0.377795 0.866432
O O13 0.750000 0.068306 0.907107
O O14 0.500000 0.000000 0.825923
O O15 0.250000 0.707067 0.527555
O O16 0.029914 0.711047 0.351888
O O17 0.750000 0.284633 0.910726
O O18 0.529968 0.277342 0.086251
O O19 0.750000 0.223243 0.226703
#
# Coordination Sequence:
#
# PCOD9339548 Si02
#       7
#     4   4   4   4   4   4   4
#     4  11  20  32  51  77 105 137 175 221 271 321
#     4  11  21  33  51  78 110 144 184 228 276 326
#     4   9  18  34  55  80 109 142 180 222 270 327
#     4  11  20  32  50  74 104 138 180 228 275 321
#     4   9  20  37  56  78 106 144 185 221 269 330
#     4   9  18  33  55  79 104 136 176 221 268 322
#     4  10  19  35  58  80 106 143 185 231 276 323
#
# _framework density 17.615621999999998
#
# number of rings (size 3 to 8) (size 9 to 14) (size 15 to 20)
#    0.000    2.000    1.429    5.571    0.000    2.857 
#    0.000    1.429    0.000    3.429    0.000    0.000 
#    0.000    0.000    0.000    0.000    0.000    0.000 
#
# Total GULP energy -155923.673748 kJ/mol
# GULP energy per Si atom -5568.702634 kJ/mol
# Density = 1.757553 g / cm^3
# Si number density = 17.615622 Si / 1000 Ang^3
#
#
#
# Elastic Constant Matrix: (Units=GPa)
#
#
# Indices 1 2 3 4 5 6 
#
# 1 47.8544 25.4396 24.2609 0.0000 0.0000 0.0000
# 2 25.4396 110.9286 39.2351 0.0000 0.0000 0.0000
# 3 24.2609 39.2351 96.5160 0.0000 0.0000 0.0000
# 4 0.0000 0.0000 0.0000 18.6923 0.0000 0.0000
# 5 0.0000 0.0000 0.0000 0.0000 16.1861 0.0000
# 6 0.0000 0.0000 0.0000 0.0000 0.0000 32.1472
#
#
#
# Elastic Compliance Matrix: (Units=1/GPa)
#
#
# Indices 1 2 3 4 5 6 
#
# 1 0.025509 -0.004184 -0.004711 0.000000 0.000000 0.000000
# 2 -0.004184 0.011215 -0.003507 0.000000 0.000000 0.000000
# 3 -0.004711 -0.003507 0.012971 0.000000 0.000000 0.000000
# 4 0.000000 0.000000 0.000000 0.053498 0.000000 0.000000
# 5 0.000000 0.000000 0.000000 0.000000 0.061781 0.000000
# 6 0.000000 0.000000 0.000000 0.000000 0.000000 0.031107
#
#
# Mechanical properties :
#
#
# Convention : Reuss Voigt Hill
#
# Bulk Modulus (GPa) = 40.17642 48.13004 44.15323
# Shear Modulus (GPa) = 21.81662 24.49603 23.15632
#
# Velocity S-wave (km/s) = 3.52302 3.73310 3.62958
# Velocity P-wave (km/s) = 6.27740 6.77961 6.53333
#
# Compressibility (1/GPa) = 0.02489022
#
# Stress axis : x y z
#
# Youngs Moduli (GPa) = 39.20129 89.16784 77.09477
#
# Poissons Ratio (x) = 0.37305 0.36323
# Poissons Ratio (y) = 0.16401 0.27040
# Poissons Ratio (z) = 0.18469 0.31274
#
# Static dielectric constant tensor:
#      x y z
#    x 1.595350 0.000000 0.000000 
#    y 0.000000 1.636870 0.000000 
#    z 0.000000 0.000000 1.613770 
# 
# From -- ./inp_files/2631.got.cif
#   From: 2010.05.17/outbox.cif.g08.bks.cpg/sg28_2_cif.got.tgz:2631.got - 2010.06.04 01:15:21.
