data_PCOD9339262
_publ_section_title
;
Structure prediction by ZEFSAII (Michael W. Deem and Ramdas Pophale) SiO2 
 PCOD9339262
Probable space group: P M A 2
;
_chemical_formula_sum "Si O2"
_cell_formula_units_Z 32
_cell_length_a 8.726680
_cell_length_b 15.687485
_cell_length_c 15.812670
_cell_angle_alpha 90.000000
_cell_angle_beta 90.000000
_cell_angle_gamma 90.000000
_cell_volume 2164.749172
_symmetry_space_group_name_H-M "P M A 2"
_symmetry_group_IT_number 28
_symmetry_cell_setting 'orthorhombic'
loop_
_space_group_symop_operation_xyz
x,y,z
-x,-y,z
1/2-x,y,z
1/2+x,-y,z
loop_
_atom_site_type_symbol
_atom_site_label
_atom_site_fract_x
_atom_site_fract_y
_atom_site_fract_z
Si Si1 0.066206 0.231128 0.834660
Si Si2 0.065746 0.095159 0.693835
Si Si3 0.566110 0.903875 0.506224
Si Si4 0.925598 0.412516 0.032147
Si Si5 0.073097 0.588789 0.826482
Si Si6 0.935627 0.224883 0.022772
Si Si7 0.433667 0.095743 0.158532
Si Si8 0.066535 0.903378 0.334392
O O1 0.250000 0.228643 0.844054
O O2 0.017381 0.159518 0.767382
O O3 0.016690 0.325266 0.803954
O O4 0.989437 0.215485 0.925843
O O5 0.250000 0.088153 0.696662
O O6 0.027481 0.130298 0.599729
O O7 0.000000 0.000000 0.704179
O O8 0.750000 0.906399 0.496215
O O9 0.492072 0.863316 0.422429
O O10 0.500000 0.000000 0.509562
O O11 0.750000 0.413796 0.058942
O O12 0.929884 0.414196 0.929404
O O13 0.000000 0.500000 0.062588
O O14 0.989579 0.319137 0.053660
O O15 0.250000 0.595005 0.800825
O O16 0.000000 0.500000 0.796578
O O17 0.750000 0.222674 0.025364
O O18 0.006992 0.153086 0.081804
O O19 0.250000 0.092079 0.161567
O O20 0.499201 0.132603 0.247164
O O21 0.500000 0.000000 0.149335
O O22 0.250000 0.905746 0.332001
O O23 0.000000 0.000000 0.335394
#
# Coordination Sequence:
#
# PCOD9339262 Si02
#       8
#     4   4   4   4   4   4   4   4
#     4  10  19  31  44  62  87 118 152 185 218 256
#     4   9  19  31  44  61  85 116 150 184 217 251
#     4   9  15  26  42  61  82 106 137 175 216 258
#     4   8  15  26  42  61  82 105 134 171 214 255
#     4   9  16  27  43  63  83 108 139 178 223 265
#     4  10  20  33  45  62  87 117 150 185 218 253
#     4  11  21  33  47  63  84 115 149 183 218 257
#     4  10  17  27  43  63  84 107 135 173 217 261
#
# _framework density 14.782314
#
# number of rings (size 3 to 8) (size 9 to 14) (size 15 to 20)
#    0.000    2.500    0.000    6.000    0.000    5.500 
#    0.000    1.250    0.000    0.000    0.000    0.000 
#    0.000    1.000    0.000    7.250    0.000    3.750 
#
# Total GULP energy -178148.590098 kJ/mol
# GULP energy per Si atom -5567.143441 kJ/mol
# Density = 1.474867 g / cm^3
# Si number density = 14.782314 Si / 1000 Ang^3
#
#
#
# Elastic Constant Matrix: (Units=GPa)
#
#
# Indices 1 2 3 4 5 6 
#
# 1 86.1592 34.3261 39.1399 0.0000 0.0000 0.0000
# 2 34.3261 83.4374 55.2689 0.0000 0.0000 0.0000
# 3 39.1399 55.2689 93.8382 0.0000 0.0000 0.0000
# 4 0.0000 0.0000 0.0000 -0.7742 0.0000 0.0000
# 5 0.0000 0.0000 0.0000 0.0000 21.6140 0.0000
# 6 0.0000 0.0000 0.0000 0.0000 0.0000 21.6899
#
#
#
# Elastic Compliance Matrix: (Units=1/GPa)
#
#
# Indices 1 2 3 4 5 6 
#
# 1 0.014851 -0.003290 -0.004256 0.000000 0.000000 0.000000
# 2 -0.003290 0.020381 -0.010632 0.000000 0.000000 0.000000
# 3 -0.004256 -0.010632 0.018694 0.000000 0.000000 0.000000
# 4 0.000000 0.000000 0.000000 -1.291577 0.000000 0.000000
# 5 0.000000 0.000000 0.000000 0.000000 0.046266 0.000000
# 6 0.000000 0.000000 0.000000 0.000000 0.000000 0.046104
#
#
# Mechanical properties :
#
#
# Convention : Reuss Voigt Hill
#
# Bulk Modulus (GPa) = 56.91804 57.87829 57.39817
# Shear Modulus (GPa) = -4.53281 17.48591 6.47655
#
# Velocity S-wave (km/s) = -1.75301 3.44305 2.09542
# Velocity P-wave (km/s) = 5.87285 7.41922 6.69086
#
# Compressibility (1/GPa) = 0.01756912
#
# Stress axis : x y z
#
# Youngs Moduli (GPa) = 67.33632 49.06511 53.49334
#
# Poissons Ratio (x) = 0.16143 0.22769
# Poissons Ratio (y) = 0.22155 0.56873
# Poissons Ratio (z) = 0.28661 0.52165
#
# Static dielectric constant tensor:
#      x y z
#    x 1.497580 0.000000 0.000000 
#    y 0.000000 1.484390 0.000000 
#    z 0.000000 0.000000 1.514490 
# 
# From -- ./inp_files/6456.got.cif
#   From: 2010.05.17/outbox.cif.g08.bks.cpg/sg28_4_cif.got.tgz:6456.got - 2010.06.04 01:15:21.
