data_PCOD9339816
_publ_section_title
;
Structure prediction by ZEFSAII (Michael W. Deem and Ramdas Pophale) SiO2 
 PCOD9339816
Probable space group: P M A 2
;
_chemical_formula_sum "Si O2"
_cell_formula_units_Z 28
_cell_length_a 19.646065
_cell_length_b 6.328070
_cell_length_c 11.737439
_cell_angle_alpha 90.000000
_cell_angle_beta 90.000000
_cell_angle_gamma 90.000000
_cell_volume 1459.218071
_symmetry_space_group_name_H-M "P M A 2"
_symmetry_group_IT_number 28
_symmetry_cell_setting 'orthorhombic'
loop_
_space_group_symop_operation_xyz
x,y,z
-x,-y,z
1/2-x,y,z
1/2+x,-y,z
loop_
_atom_site_type_symbol
_atom_site_label
_atom_site_fract_x
_atom_site_fract_y
_atom_site_fract_z
Si Si1 0.629977 0.249996 0.686880
Si Si2 0.578044 0.973026 0.887894
Si Si3 0.825686 0.915345 0.505497
Si Si4 0.825686 0.584645 0.868263
Si Si5 0.578044 0.526964 0.485868
Si Si6 0.671019 0.231738 0.055435
Si Si7 0.671019 0.268248 0.318326
O O1 0.670894 0.415185 0.765370
O O2 0.586578 0.385417 0.598487
O O3 0.586581 0.114572 0.775275
O O4 0.670893 0.084811 0.608387
O O5 0.611691 0.746369 0.860551
O O6 0.500000 0.000000 0.922741
O O7 0.624973 0.069389 0.986789
O O8 0.750000 0.813532 0.508583
O O9 0.888308 0.753619 0.513212
O O10 0.832438 0.048936 0.388723
O O11 0.750000 0.686460 0.865178
O O12 0.832438 0.451047 0.985036
O O13 0.500000 0.500000 0.451018
O O14 0.624973 0.430597 0.386975
O O15 0.750000 0.163567 0.052248
O O16 0.650734 0.249996 0.186881
O O17 0.750000 0.336417 0.321515
#
# Coordination Sequence:
#
# PCOD9339816 Si02
#       7
#     4   4   4   4   4   4   4
#     4  10  23  36  60  86 123 158 200 252 299 356
#     4  11  24  38  58  88 123 163 202 245 301 361
#     4  10  21  39  63  91 120 157 203 249 299 353
#     4  10  21  39  63  91 120 157 203 249 299 353
#     4  11  24  38  58  88 123 163 202 245 301 361
#     4   9  20  41  64  89 120 156 202 253 296 351
#     4   9  20  41  64  89 120 156 202 253 296 351
#
# _framework density 19.188359999999999
#
# number of rings (size 3 to 8) (size 9 to 14) (size 15 to 20)
#    0.000    2.000    0.000    2.143    4.000    9.143 
#    5.143    4.286    0.000    0.000    0.000    0.000 
#    0.000    0.000    0.000    0.000    0.000    0.000 
#
# Total GULP energy -156235.704509 kJ/mol
# GULP energy per Si atom -5579.846590 kJ/mol
# Density = 1.914469 g / cm^3
# Si number density = 19.188360 Si / 1000 Ang^3
#
#
#
# Elastic Constant Matrix: (Units=GPa)
#
#
# Indices 1 2 3 4 5 6 
#
# 1 92.7671 50.9545 30.7985 0.0000 0.0000 0.0000
# 2 50.9545 81.1977 37.3114 0.0000 0.0000 0.0000
# 3 30.7985 37.3114 142.3379 0.0000 0.0000 0.0000
# 4 0.0000 0.0000 0.0000 9.4416 0.0000 0.0000
# 5 0.0000 0.0000 0.0000 0.0000 -32.8307 0.0000
# 6 0.0000 0.0000 0.0000 0.0000 0.0000 77.9207
#
#
#
# Elastic Compliance Matrix: (Units=1/GPa)
#
#
# Indices 1 2 3 4 5 6 
#
# 1 0.016568 -0.009948 -0.000977 0.000000 0.000000 0.000000
# 2 -0.009948 0.019975 -0.003084 0.000000 0.000000 0.000000
# 3 -0.000977 -0.003084 0.008045 0.000000 0.000000 0.000000
# 4 0.000000 0.000000 0.000000 0.105914 0.000000 0.000000
# 5 0.000000 0.000000 0.000000 0.000000 -0.030459 0.000000
# 6 0.000000 0.000000 0.000000 0.000000 0.000000 0.012834
#
#
# Mechanical properties :
#
#
# Convention : Reuss Voigt Hill
#
# Bulk Modulus (GPa) = 60.34666 61.60350 60.97508
# Shear Modulus (GPa) = 30.04451 24.05553 27.05002
#
# Velocity S-wave (km/s) = 3.96127 3.54454 3.75868
# Velocity P-wave (km/s) = 7.24155 6.99471 7.11920
#
# Compressibility (1/GPa) = 0.01657093
#
# Stress axis : x y z
#
# Youngs Moduli (GPa) = 60.35569 50.06138 124.29591
#
# Poissons Ratio (x) = 0.49802 0.12147
# Poissons Ratio (y) = 0.60043 0.38329
# Poissons Ratio (z) = 0.05898 0.15437
#
# Static dielectric constant tensor:
#      x y z
#    x 1.675620 0.000000 0.000000 
#    y 0.000000 1.690250 0.000000 
#    z 0.000000 0.000000 1.644590 
# 
# From -- ./inp_files/5796.got.cif
#   From: 2010.05.17/outbox.cif.g08.bks.cpg/sg28_3_cif.got.tgz:5796.got - 2010.06.04 01:15:21.
