data_PCOD9339717
_publ_section_title
;
Structure prediction by ZEFSAII (Michael W. Deem and Ramdas Pophale) SiO2 
 PCOD9339717
Probable space group: P M A 2
;
_chemical_formula_sum "Si O2"
_cell_formula_units_Z 32
_cell_length_a 8.661954
_cell_length_b 15.850351
_cell_length_c 12.184082
_cell_angle_alpha 90.000000
_cell_angle_beta 90.000000
_cell_angle_gamma 90.000000
_cell_volume 1672.813675
_symmetry_space_group_name_H-M "P M A 2"
_symmetry_group_IT_number 28
_symmetry_cell_setting 'orthorhombic'
loop_
_space_group_symop_operation_xyz
x,y,z
-x,-y,z
1/2-x,y,z
1/2+x,-y,z
loop_
_atom_site_type_symbol
_atom_site_label
_atom_site_fract_x
_atom_site_fract_y
_atom_site_fract_z
Si Si1 0.564471 0.090956 0.256660
Si Si2 0.434459 0.410297 0.785189
Si Si3 0.561961 0.750000 0.643688
Si Si4 0.064471 0.590956 0.256660
Si Si5 0.564581 0.150430 0.014361
Si Si6 0.934459 0.910297 0.785188
Si Si7 0.064180 0.250000 0.389641
Si Si8 0.564581 0.349568 0.014361
O O1 0.750000 0.091528 0.262308
O O2 0.518881 0.109286 0.129977
O O3 0.499280 0.167021 0.329357
O O4 0.500000 0.000000 0.290252
O O5 0.500000 0.500000 0.749095
O O6 0.250000 0.412870 0.781680
O O7 0.489556 0.333233 0.708918
O O8 0.487016 0.391566 0.909385
O O9 0.750000 0.750000 0.646131
O O10 0.510444 0.833233 0.708918
O O11 0.515519 0.750000 0.517056
O O12 0.250000 0.591528 0.262308
O O13 0.018881 0.609287 0.129977
O O14 0.000000 0.500000 0.290250
O O15 0.999279 0.667020 0.329357
O O16 0.750000 0.142972 0.003634
O O17 0.526221 0.249999 0.017071
O O18 0.487016 0.108432 0.909384
O O19 0.750000 0.912870 0.781679
O O20 0.000000 0.000000 0.749094
O O21 0.250000 0.250000 0.384364
O O22 0.750000 0.357026 0.003634
#
# Coordination Sequence:
#
# PCOD9339717 Si02
#       8
#     4   4   4   4   4   4   4   4
#     4  11  23  41  62  91 125 159 199 247 299 358
#     4  11  22  39  61  89 121 156 196 242 294 354
#     4   9  22  42  61  84 118 155 200 249 296 349
#     4  11  23  41  62  91 125 159 199 247 299 358
#     4  10  20  37  61  90 123 155 192 241 295 355
#     4  11  22  39  61  89 121 156 196 242 294 354
#     4  11  23  42  65  88 118 159 204 253 302 353
#     4  10  20  37  61  90 123 155 192 241 295 355
#
# _framework density 19.129448
#
# number of rings (size 3 to 8) (size 9 to 14) (size 15 to 20)
#    0.000    1.500    2.500    2.625    0.000    5.000 
#    0.000    7.500    0.000    0.000    0.000    0.000 
#    0.000    0.000    0.000    0.000    0.000    0.000 
#
# Total GULP energy -178904.761816 kJ/mol
# GULP energy per Si atom -5590.773807 kJ/mol
# Density = 1.908591 g / cm^3
# Si number density = 19.129448 Si / 1000 Ang^3
#
#
#
# Elastic Constant Matrix: (Units=GPa)
#
#
# Indices 1 2 3 4 5 6 
#
# 1 40.8678 48.5418 40.0519 0.0000 0.0000 0.0000
# 2 48.5418 205.1879 94.1901 0.0000 0.0000 0.0000
# 3 40.0519 94.1901 155.7673 0.0000 0.0000 0.0000
# 4 0.0000 0.0000 0.0000 -2.9239 0.0000 0.0000
# 5 0.0000 0.0000 0.0000 0.0000 -22.0802 0.0000
# 6 0.0000 0.0000 0.0000 0.0000 0.0000 33.9367
#
#
#
# Elastic Compliance Matrix: (Units=1/GPa)
#
#
# Indices 1 2 3 4 5 6 
#
# 1 0.037625 -0.006174 -0.005941 0.000000 0.000000 0.000000
# 2 -0.006174 0.007759 -0.003104 0.000000 0.000000 0.000000
# 3 -0.005941 -0.003104 0.009825 0.000000 0.000000 0.000000
# 4 0.000000 0.000000 0.000000 -0.342009 0.000000 0.000000
# 5 0.000000 0.000000 0.000000 0.000000 -0.045289 0.000000
# 6 0.000000 0.000000 0.000000 0.000000 0.000000 0.029467
#
#
# Mechanical properties :
#
#
# Convention : Reuss Voigt Hill
#
# Bulk Modulus (GPa) = 40.37152 85.26561 62.81857
# Shear Modulus (GPa) = -18.94456 16.38913 -1.27771
#
# Velocity S-wave (km/s) = -3.15037 2.93020 -0.81816
# Velocity P-wave (km/s) = 2.81373 7.49118 5.65840
#
# Compressibility (1/GPa) = 0.02476994
#
# Stress axis : x y z
#
# Youngs Moduli (GPa) = 26.57827 128.87955 101.78458
#
# Poissons Ratio (x) = 0.79567 0.60472
# Poissons Ratio (y) = 0.16409 0.31598
# Poissons Ratio (z) = 0.15791 0.40010
#
# Static dielectric constant tensor:
#      x y z
#    x 1.644230 0.000000 0.000000 
#    y 0.000000 1.652270 0.000000 
#    z 0.000000 0.000000 1.639890 
# 
# From -- ./inp_files/5070.got.cif
#   From: 2010.05.17/outbox.cif.g08.bks.cpg/sg28_3_cif.got.tgz:5070.got - 2010.06.04 01:15:21.
