data_PCOD9339783
_publ_section_title
;
Structure prediction by ZEFSAII (Michael W. Deem and Ramdas Pophale) SiO2 
 PCOD9339783
Probable space group: P M A 2
;
_chemical_formula_sum "Si O2"
_cell_formula_units_Z 24
_cell_length_a 8.703455
_cell_length_b 9.708346
_cell_length_c 16.099576
_cell_angle_alpha 90.000000
_cell_angle_beta 90.000000
_cell_angle_gamma 90.000000
_cell_volume 1360.352229
_symmetry_space_group_name_H-M "P M A 2"
_symmetry_group_IT_number 28
_symmetry_cell_setting 'orthorhombic'
loop_
_space_group_symop_operation_xyz
x,y,z
-x,-y,z
1/2-x,y,z
1/2+x,-y,z
loop_
_atom_site_type_symbol
_atom_site_label
_atom_site_fract_x
_atom_site_fract_y
_atom_site_fract_z
Si Si1 0.433172 0.345281 0.161650
Si Si2 0.065721 0.655732 0.990576
Si Si3 0.433920 0.846854 0.495396
Si Si4 0.933920 0.153146 0.304102
Si Si5 0.433172 0.345281 0.637848
Si Si6 0.434279 0.655732 0.808922
O O1 0.500000 0.500000 0.168687
O O2 0.250000 0.352174 0.159793
O O3 0.491759 0.255710 0.238333
O O4 0.493898 0.283163 0.074118
O O5 0.250000 0.650348 0.998641
O O6 0.028719 0.718150 0.899749
O O7 0.000000 0.500000 0.988264
O O8 0.250000 0.848612 0.505490
O O9 0.468221 0.806735 0.399749
O O10 0.508239 0.744290 0.561165
O O11 0.500000 0.000000 0.507770
O O12 0.750000 0.151389 0.294007
O O13 0.000000 0.000000 0.291729
O O14 0.500000 0.500000 0.630811
O O15 0.250000 0.352174 0.639704
O O16 0.493898 0.283163 0.725380
O O17 0.500000 0.500000 0.811234
O O18 0.250000 0.650348 0.800857
#
# Coordination Sequence:
#
# PCOD9339783 Si02
#       6
#     4   4   4   4   4   4
#     4  11  21  33  52  78 108 139 173 215 259 303
#     4   9  16  27  45  70 101 135 170 209 253 302
#     4  10  21  38  58  78 102 134 172 212 256 310
#     4  10  21  38  58  78 102 134 172 212 256 310
#     4  11  21  33  52  78 108 139 173 215 259 303
#     4   9  16  27  45  70 101 135 170 209 253 302
#
# _framework density 17.642489000000001
#
# number of rings (size 3 to 8) (size 9 to 14) (size 15 to 20)
#    0.000    2.000    0.000    7.000    0.000    4.667 
#    0.000    0.000    0.000    1.000    0.000    0.000 
#    0.000    0.000    0.000    0.000    0.000    0.000 
#
# Total GULP energy -133857.102606 kJ/mol
# GULP energy per Si atom -5577.379275 kJ/mol
# Density = 1.760233 g / cm^3
# Si number density = 17.642489 Si / 1000 Ang^3
#
#
#
# Elastic Constant Matrix: (Units=GPa)
#
#
# Indices 1 2 3 4 5 6 
#
# 1 134.2581 39.0231 96.1167 0.0000 0.0000 0.0000
# 2 39.0231 43.2587 74.8926 0.0000 0.0000 0.0000
# 3 96.1167 74.8926 198.0514 0.0000 0.0000 0.0000
# 4 0.0000 0.0000 0.0000 -14.2839 0.0000 0.0000
# 5 0.0000 0.0000 0.0000 0.0000 56.9638 0.0000
# 6 0.0000 0.0000 0.0000 0.0000 0.0000 25.2051
#
#
#
# Elastic Compliance Matrix: (Units=1/GPa)
#
#
# Indices 1 2 3 4 5 6 
#
# 1 0.011477 -0.002057 -0.004792 0.000000 0.000000 0.000000
# 2 -0.002057 0.067311 -0.024455 0.000000 0.000000 0.000000
# 3 -0.004792 -0.024455 0.016623 0.000000 0.000000 0.000000
# 4 0.000000 0.000000 0.000000 -0.070009 0.000000 0.000000
# 5 0.000000 0.000000 0.000000 0.000000 0.017555 0.000000
# 6 0.000000 0.000000 0.000000 0.000000 0.000000 0.039674
#
#
# Mechanical properties :
#
#
# Convention : Reuss Voigt Hill
#
# Bulk Modulus (GPa) = 30.48573 88.40366 59.44469
# Shear Modulus (GPa) = 32.01562 24.61271 28.31417
#
# Velocity S-wave (km/s) = 4.26454 3.73913 4.01045
# Velocity P-wave (km/s) = 6.44714 8.29811 7.43049
#
# Compressibility (1/GPa) = 0.03280223
#
# Stress axis : x y z
#
# Youngs Moduli (GPa) = 87.13191 14.85640 60.15884
#
# Poissons Ratio (x) = 0.03055 0.28829
# Poissons Ratio (y) = 0.17919 1.47121
# Poissons Ratio (z) = 0.41755 0.36332
#
# Static dielectric constant tensor:
#      x y z
#    x 1.583220 0.000000 0.000000 
#    y 0.000000 1.562900 0.000000 
#    z 0.000000 0.000000 1.652620 
# 
# From -- ./inp_files/6683.got.cif
#   From: 2010.05.17/outbox.cif.g08.bks.cpg/sg28_4_cif.got.tgz:6683.got - 2010.06.04 01:15:21.
