data_PCOD9339030
_publ_section_title
;
Structure prediction by ZEFSAII (Michael W. Deem and Ramdas Pophale) SiO2 
 PCOD9339030
Probable space group: P C C 2
;
_chemical_formula_sum "Si O2"
_cell_formula_units_Z 24
_cell_length_a 5.186054
_cell_length_b 15.762835
_cell_length_c 10.732080
_cell_angle_alpha 90.000000
_cell_angle_beta 90.000000
_cell_angle_gamma 90.000000
_cell_volume 877.314415
_symmetry_space_group_name_H-M "P C C 2"
_symmetry_group_IT_number 27
_symmetry_cell_setting 'orthorhombic'
loop_
_space_group_symop_operation_xyz
x,y,z
-x,-y,z
-x,y,1/2+z
x,-y,1/2+z
loop_
_atom_site_type_symbol
_atom_site_label
_atom_site_fract_x
_atom_site_fract_y
_atom_site_fract_z
Si Si1 0.302776 0.133995 0.869460
Si Si2 0.500000 0.500000 0.236554
Si Si3 0.479208 0.324459 0.600480
Si Si4 0.863828 0.421273 0.924490
Si Si5 0.593332 0.901797 0.605240
Si Si6 0.000000 0.000000 0.490021
Si Si7 0.997830 0.275384 0.752174
O O1 0.464626 0.129723 0.743183
O O2 0.057335 0.192602 0.836520
O O3 0.464541 0.153801 0.994683
O O4 0.207049 0.039683 0.897909
O O5 0.537564 0.418430 0.155916
O O6 0.264456 0.480983 0.324280
O O7 0.371008 0.355006 0.465230
O O8 0.236886 0.274816 0.657003
O O9 0.747597 0.290597 0.662806
O O10 0.000000 0.500000 0.005634
O O11 0.034829 0.352301 0.851016
O O12 0.892957 0.921631 0.572039
O O13 0.500000 0.000000 0.602545
#
# Coordination Sequence:
#
# PCOD9339030 Si02
#       7
#     4   2   4   4   4   2   4
#     4  11  25  48  79 112 166 213 275 341 420 490
#     4  10  22  44  70 102 140 184 260 312 392 468
#     4  11  26  45  73 107 146 201 255 326 394 477
#     4  11  24  44  76 106 151 204 264 327 403 488
#     4  10  22  45  77 118 156 214 277 338 409 498
#     4  10  22  42  80 114 158 210 282 330 418 490
#     4  11  28  50  71 113 156 202 263 330 407 489
#
# _framework density 27.356214000000001
#
# number of rings (size 3 to 8) (size 9 to 14) (size 15 to 20)
#    0.000    1.333    1.667    2.500    9.333    2.667 
#    6.000    0.000    0.000    0.000    0.000    0.000 
#    0.000    0.000    0.000    0.000    0.000    0.000 
#
# Total GULP energy -133741.978942 kJ/mol
# GULP energy per Si atom -5572.582456 kJ/mol
# Density = 2.729395 g / cm^3
# Si number density = 27.356214 Si / 1000 Ang^3
#
#
#
# Elastic Constant Matrix: (Units=GPa)
#
#
# Indices 1 2 3 4 5 6 
#
# 1 61.9239 -17.5324 -0.5504 0.0000 0.0000 0.0000
# 2 -17.5324 61.9823 8.0678 0.0000 0.0000 0.0000
# 3 -0.5504 8.0678 109.6374 0.0000 0.0000 0.0000
# 4 0.0000 0.0000 0.0000 52.2270 0.0000 0.0000
# 5 0.0000 0.0000 0.0000 0.0000 45.0264 0.0000
# 6 0.0000 0.0000 0.0000 0.0000 0.0000 41.3469
#
#
#
# Elastic Compliance Matrix: (Units=1/GPa)
#
#
# Indices 1 2 3 4 5 6 
#
# 1 0.017563 0.005004 -0.000280 0.000000 0.000000 0.000000
# 2 0.005004 0.017716 -0.001279 0.000000 0.000000 0.000000
# 3 -0.000280 -0.001279 0.009214 0.000000 0.000000 0.000000
# 4 0.000000 0.000000 0.000000 0.019147 0.000000 0.000000
# 5 0.000000 0.000000 0.000000 0.000000 0.022209 0.000000
# 6 0.000000 0.000000 0.000000 0.000000 0.000000 0.024186
#
#
# Mechanical properties :
#
#
# Convention : Reuss Voigt Hill
#
# Bulk Modulus (GPa) = 19.46126 23.72375 21.59250
# Shear Modulus (GPa) = 41.57282 43.95730 42.76506
#
# Velocity S-wave (km/s) = 3.90254 4.01290 3.95811
# Velocity P-wave (km/s) = 5.23793 5.49201 5.36647
#
# Compressibility (1/GPa) = 0.05138414
#
# Stress axis : x y z
#
# Youngs Moduli (GPa) = 56.93708 56.44742 108.53466
#
# Poissons Ratio (x) = -0.28249 0.03040
# Poissons Ratio (y) = -0.28494 0.13876
# Poissons Ratio (z) = 0.01595 0.07217
#
# Static dielectric constant tensor:
#      x y z
#    x 2.502780 0.000000 0.000000 
#    y 0.000000 2.125390 0.000000 
#    z 0.000000 0.000000 2.614280 
# 
# From -- ./inp_files/2053.got.cif
#   From: 2010.05.17/outbox.cif.g08.bks.cpg/sg27_2_cif.got.tgz:2053.got - 2010.06.04 01:11:05.
