data_PCOD9339660
_publ_section_title
;
Structure prediction by ZEFSAII (Michael W. Deem and Ramdas Pophale) SiO2 
 PCOD9339660
Probable space group: P M A 2
;
_chemical_formula_sum "Si O2"
_cell_formula_units_Z 16
_cell_length_a 11.412210
_cell_length_b 7.239859
_cell_length_c 7.020361
_cell_angle_alpha 90.000000
_cell_angle_beta 90.000000
_cell_angle_gamma 90.000000
_cell_volume 580.041822
_symmetry_space_group_name_H-M "P M A 2"
_symmetry_group_IT_number 28
_symmetry_cell_setting 'orthorhombic'
loop_
_space_group_symop_operation_xyz
x,y,z
-x,-y,z
1/2-x,y,z
1/2+x,-y,z
loop_
_atom_site_type_symbol
_atom_site_label
_atom_site_fract_x
_atom_site_fract_y
_atom_site_fract_z
Si Si1 0.876410 0.595284 0.310520
Si Si2 0.621535 0.750306 0.878400
Si Si3 0.375032 0.005264 0.346794
Si Si4 0.376357 0.823764 0.752156
O O1 0.750000 0.496614 0.336490
O O2 0.000000 0.500000 0.347323
O O3 0.871125 0.786363 0.426153
O O4 0.878624 0.672184 0.093687
O O5 0.750000 0.690640 0.801357
O O6 0.490773 0.708313 0.803248
O O7 0.622982 0.974484 0.853333
O O8 0.250000 0.971859 0.247452
O O9 0.380595 0.872833 0.528159
O O10 0.500000 0.000000 0.242665
O O11 0.250000 0.737200 0.797383
#
# Coordination Sequence:
#
# PCOD9339660 Si02
#       4
#     4   4   4   4
#     4  10  23  40  56  80 117 157 192 231 280 337
#     4   9  17  32  53  78 110 143 179 226 278 328
#     4  10  20  35  58  86 114 146 187 237 287 335
#     4   9  17  31  54  84 111 136 177 230 282 330
#
# _framework density 27.584216000000001
#
# number of rings (size 3 to 8) (size 9 to 14) (size 15 to 20)
#    0.000    2.500    2.500    0.000    3.500    2.000 
#    0.000    1.250    0.000    0.000    0.000    0.000 
#    0.000    0.000    0.000    0.000    0.000    0.000 
#
# Total GULP energy -89337.240609 kJ/mol
# GULP energy per Si atom -5583.577538 kJ/mol
# Density = 2.752143 g / cm^3
# Si number density = 27.584216 Si / 1000 Ang^3
#
#
#
# Elastic Constant Matrix: (Units=GPa)
#
#
# Indices 1 2 3 4 5 6 
#
# 1 413.0291 51.3807 39.4656 0.0000 0.0000 0.0000
# 2 51.3807 103.7502 10.5184 0.0000 0.0000 0.0000
# 3 39.4656 10.5184 77.9675 0.0000 0.0000 0.0000
# 4 0.0000 0.0000 0.0000 18.4104 0.0000 0.0000
# 5 0.0000 0.0000 0.0000 0.0000 25.4215 0.0000
# 6 0.0000 0.0000 0.0000 0.0000 0.0000 17.2648
#
#
#
# Elastic Compliance Matrix: (Units=1/GPa)
#
#
# Indices 1 2 3 4 5 6 
#
# 1 0.002686 -0.001209 -0.001196 0.000000 0.000000 0.000000
# 2 -0.001209 0.010316 -0.000780 0.000000 0.000000 0.000000
# 3 -0.001196 -0.000780 0.013537 0.000000 0.000000 0.000000
# 4 0.000000 0.000000 0.000000 0.054317 0.000000 0.000000
# 5 0.000000 0.000000 0.000000 0.000000 0.039337 0.000000
# 6 0.000000 0.000000 0.000000 0.000000 0.000000 0.057921
#
#
# Mechanical properties :
#
#
# Convention : Reuss Voigt Hill
#
# Bulk Modulus (GPa) = 49.58218 88.60847 69.09533
# Shear Modulus (GPa) = 26.14964 45.11147 35.63055
#
# Velocity S-wave (km/s) = 3.08229 4.04841 3.59792
# Velocity P-wave (km/s) = 5.53906 7.35156 6.50871
#
# Compressibility (1/GPa) = 0.02016853
#
# Stress axis : x y z
#
# Youngs Moduli (GPa) = 372.32364 96.93447 73.87332
#
# Poissons Ratio (x) = 0.11718 0.08838
# Poissons Ratio (y) = 0.45007 0.05761
# Poissons Ratio (z) = 0.44546 0.07560
#
# Static dielectric constant tensor:
#      x y z
#    x 2.204980 0.000000 0.000000 
#    y 0.000000 2.137630 0.000000 
#    z 0.000000 0.000000 2.132840 
# 
# From -- ./inp_files/2839.got.cif
#   From: 2010.05.17/outbox.cif.g08.bks.cpg/sg28_2_cif.got.tgz:2839.got - 2010.06.04 01:15:21.
