data_PCOD9339331
_publ_section_title
;
Structure prediction by ZEFSAII (Michael W. Deem and Ramdas Pophale) SiO2 
 PCOD9339331
Probable space group: P M A 2
;
_chemical_formula_sum "Si O2"
_cell_formula_units_Z 26
_cell_length_a 14.629406
_cell_length_b 9.694167
_cell_length_c 10.735975
_cell_angle_alpha 90.000000
_cell_angle_beta 90.000000
_cell_angle_gamma 90.000000
_cell_volume 1522.574953
_symmetry_space_group_name_H-M "P M A 2"
_symmetry_group_IT_number 28
_symmetry_cell_setting 'orthorhombic'
loop_
_space_group_symop_operation_xyz
x,y,z
-x,-y,z
1/2-x,y,z
1/2+x,-y,z
loop_
_atom_site_type_symbol
_atom_site_label
_atom_site_fract_x
_atom_site_fract_y
_atom_site_fract_z
Si Si1 0.357884 0.625420 0.368960
Si Si2 0.250000 0.545110 0.993007
Si Si3 0.066156 0.612995 0.100300
Si Si4 0.008015 0.157695 0.428974
Si Si5 0.250000 0.361982 0.770061
Si Si6 0.938608 0.866006 0.149936
Si Si7 0.414520 0.410812 0.584820
Si Si8 0.250000 0.228011 0.029470
O O1 0.250000 0.645566 0.351695
O O2 0.403749 0.572555 0.240933
O O3 0.410409 0.769451 0.397246
O O4 0.375311 0.513427 0.477334
O O5 0.159801 0.625967 0.027869
O O6 0.250000 0.393719 0.063277
O O7 0.250000 0.501825 0.850547
O O8 0.000000 0.500000 0.042429
O O9 0.004288 0.745142 0.105728
O O10 0.065906 0.147640 0.300384
O O11 0.052302 0.269595 0.520246
O O12 0.000000 0.000000 0.475341
O O13 0.339149 0.368479 0.684769
O O14 0.250000 0.243542 0.877884
O O15 0.840498 0.844868 0.084684
O O16 0.000000 0.000000 0.124113
O O17 0.500000 0.500000 0.637238
#
# Coordination Sequence:
#
# PCOD9339331 Si02
#       8
#     4   2   4   4   2   4   4   2
#     4  10  18  31  55  82 111 136 175 229 281 332
#     4  10  22  32  57  80 107 143 188 235 270 327
#     4  11  18  33  55  85 110 141 179 225 286 336
#     4   9  20  37  53  84 114 145 179 214 284 341
#     4  10  22  36  54  84 106 142 198 226 270 324
#     4  10  21  37  58  84 119 146 180 226 279 345
#     4  10  20  35  58  79 108 142 181 235 274 320
#     4  10  22  38  55  82 111 149 188 227 276 321
#
# _framework density 17.076336000000001
#
# number of rings (size 3 to 8) (size 9 to 14) (size 15 to 20)
#    0.462    1.538    3.077    2.308    0.000    3.077 
#    9.692    0.769    0.000    3.692    0.000    0.000 
#    0.000    0.000    0.000    0.000    0.000    0.000 
#
# Total GULP energy -144758.244440 kJ/mol
# GULP energy per Si atom -5567.624786 kJ/mol
# Density = 1.703747 g / cm^3
# Si number density = 17.076336 Si / 1000 Ang^3
#
#
#
# Elastic Constant Matrix: (Units=GPa)
#
#
# Indices 1 2 3 4 5 6 
#
# 1 162.0995 36.7708 63.0773 0.0000 0.0000 0.0000
# 2 36.7708 89.0430 32.2562 0.0000 0.0000 0.0000
# 3 63.0773 32.2562 69.9219 0.0000 0.0000 0.0000
# 4 0.0000 0.0000 0.0000 12.8429 0.0000 0.0000
# 5 0.0000 0.0000 0.0000 0.0000 -63.9590 0.0000
# 6 0.0000 0.0000 0.0000 0.0000 0.0000 14.7962
#
#
#
# Elastic Compliance Matrix: (Units=1/GPa)
#
#
# Indices 1 2 3 4 5 6 
#
# 1 0.009578 -0.000991 -0.008184 0.000000 0.000000 0.000000
# 2 -0.000991 0.013586 -0.005374 0.000000 0.000000 0.000000
# 3 -0.008184 -0.005374 0.024163 0.000000 0.000000 0.000000
# 4 0.000000 0.000000 0.000000 0.077864 0.000000 0.000000
# 5 0.000000 0.000000 0.000000 0.000000 -0.015635 0.000000
# 6 0.000000 0.000000 0.000000 0.000000 0.000000 0.067585
#
#
# Mechanical properties :
#
#
# Convention : Reuss Voigt Hill
#
# Bulk Modulus (GPa) = 54.85031 65.03030 59.94031
# Shear Modulus (GPa) = 23.54990 5.33337 14.44164
#
# Velocity S-wave (km/s) = 3.71765 1.76919 2.91127
# Velocity P-wave (km/s) = 7.11465 6.50678 6.81749
#
# Compressibility (1/GPa) = 0.01823144
#
# Stress axis : x y z
#
# Youngs Moduli (GPa) = 104.40318 73.60310 41.38540
#
# Poissons Ratio (x) = 0.07293 0.33868
# Poissons Ratio (y) = 0.10345 0.22239
# Poissons Ratio (z) = 0.85439 0.39552
#
# Static dielectric constant tensor:
#      x y z
#    x 1.586120 0.000000 0.000000 
#    y 0.000000 1.545100 0.000000 
#    z 0.000000 0.000000 1.588950 
# 
# From -- ./inp_files/5516.got.cif
#   From: 2010.05.17/outbox.cif.g08.bks.cpg/sg28_3_cif.got.tgz:5516.got - 2010.06.04 01:15:21.
