data_PCOD9339822
_publ_section_title
;
Structure prediction by ZEFSAII (Michael W. Deem and Ramdas Pophale) SiO2 
 PCOD9339822
Probable space group: P M A 2
;
_chemical_formula_sum "Si O2"
_cell_formula_units_Z 32
_cell_length_a 14.879326
_cell_length_b 6.968190
_cell_length_c 14.771865
_cell_angle_alpha 90.000000
_cell_angle_beta 90.000000
_cell_angle_gamma 90.000000
_cell_volume 1531.576073
_symmetry_space_group_name_H-M "P M A 2"
_symmetry_group_IT_number 28
_symmetry_cell_setting 'orthorhombic'
loop_
_space_group_symop_operation_xyz
x,y,z
-x,-y,z
1/2-x,y,z
1/2+x,-y,z
loop_
_atom_site_type_symbol
_atom_site_label
_atom_site_fract_x
_atom_site_fract_y
_atom_site_fract_z
Si Si1 0.099402 0.899185 0.965830
Si Si2 0.860504 0.545914 0.941153
Si Si3 0.142946 0.161946 0.598818
Si Si4 0.401703 0.438003 0.443891
Si Si5 0.645345 0.881776 0.302562
Si Si6 0.352942 0.185224 0.106625
Si Si7 0.146985 0.863212 0.457035
Si Si8 0.590059 0.869164 0.805393
O O1 0.106445 0.672653 0.952047
O O2 0.143604 0.998934 0.877580
O O3 0.000000 0.000000 0.971051
O O4 0.144331 0.979531 0.056472
O O5 0.750000 0.549533 0.931329
O O6 0.905973 0.663748 0.857843
O O7 0.887258 0.662527 0.032397
O O8 0.250000 0.192945 0.588641
O O9 0.095294 0.323285 0.538218
O O10 0.124106 0.159848 0.704548
O O11 0.113696 0.964726 0.548395
O O12 0.500000 0.500000 0.413191
O O13 0.358681 0.301255 0.368842
O O14 0.353718 0.637688 0.459573
O O15 0.750000 0.931762 0.282624
O O16 0.603082 0.834621 0.205153
O O17 0.604517 0.050712 0.365250
O O18 0.250000 0.246765 0.120337
O O19 0.250000 0.927389 0.451535
O O20 0.500000 0.000000 0.794224
#
# Coordination Sequence:
#
# PCOD9339822 Si02
#       8
#     4   4   4   4   4   4   4   4
#     4  10  22  40  58  90 127 167 202 259 320 378
#     4  10  21  40  66  93 125 166 215 260 310 383
#     4  10  22  40  61  87 119 158 206 254 303 374
#     4  11  23  37  56  87 121 160 201 256 311 372
#     4   9  19  38  60  85 119 156 205 257 303 367
#     4   9  19  37  61  90 120 162 212 258 310 372
#     4   9  19  37  61  82 113 158 200 245 304 363
#     4  10  23  39  63  90 125 163 203 262 321 379
#
# _framework density 20.893511
#
# number of rings (size 3 to 8) (size 9 to 14) (size 15 to 20)
#    0.000    2.250    0.000    2.625    1.750    9.500 
#    6.750    5.000    0.000    0.000    0.000    0.000 
#    0.000    0.000    0.000    0.000    0.000    0.000 
#
# Total GULP energy -178200.575205 kJ/mol
# GULP energy per Si atom -5568.767975 kJ/mol
# Density = 2.084596 g / cm^3
# Si number density = 20.893511 Si / 1000 Ang^3
#
#
#
# Elastic Constant Matrix: (Units=GPa)
#
#
# Indices 1 2 3 4 5 6 
#
# 1 51.2482 -3.4714 -17.6804 0.0000 0.0000 0.0000
# 2 -3.4714 166.2431 61.8197 0.0000 0.0000 0.0000
# 3 -17.6804 61.8197 159.9568 0.0000 0.0000 0.0000
# 4 0.0000 0.0000 0.0000 4.7412 0.0000 0.0000
# 5 0.0000 0.0000 0.0000 0.0000 11.2598 0.0000
# 6 0.0000 0.0000 0.0000 0.0000 0.0000 21.5549
#
#
#
# Elastic Compliance Matrix: (Units=1/GPa)
#
#
# Indices 1 2 3 4 5 6 
#
# 1 0.020319 -0.000480 0.002431 0.000000 0.000000 0.000000
# 2 -0.000480 0.007036 -0.002772 0.000000 0.000000 0.000000
# 3 0.002431 -0.002772 0.007592 0.000000 0.000000 0.000000
# 4 0.000000 0.000000 0.000000 0.210915 0.000000 0.000000
# 5 0.000000 0.000000 0.000000 0.000000 0.088811 0.000000
# 6 0.000000 0.000000 0.000000 0.000000 0.000000 0.046393
#
#
# Mechanical properties :
#
#
# Convention : Reuss Voigt Hill
#
# Bulk Modulus (GPa) = 30.02497 50.97598 40.50047
# Shear Modulus (GPa) = 12.69646 29.96321 21.32984
#
# Velocity S-wave (km/s) = 2.46778 3.79105 3.19859
# Velocity P-wave (km/s) = 4.74569 6.60407 5.75045
#
# Compressibility (1/GPa) = 0.03330561
#
# Stress axis : x y z
#
# Youngs Moduli (GPa) = 49.21455 142.12193 131.71945
#
# Poissons Ratio (x) = 0.06820 -0.32026
# Poissons Ratio (y) = 0.02362 0.36518
# Poissons Ratio (z) = -0.11966 0.39402
#
# Static dielectric constant tensor:
#      x y z
#    x 1.904100 0.000000 0.000000 
#    y 0.000000 1.741520 0.000000 
#    z 0.000000 0.000000 1.785160 
# 
# From -- ./inp_files/6615.got.cif
#   From: 2010.05.17/outbox.cif.g08.bks.cpg/sg28_4_cif.got.tgz:6615.got - 2010.06.04 01:15:21.
