data_PCOD9339762
_publ_section_title
;
Structure prediction by ZEFSAII (Michael W. Deem and Ramdas Pophale) SiO2 
 PCOD9339762
Probable space group: P M A 2
;
_chemical_formula_sum "Si O2"
_cell_formula_units_Z 32
_cell_length_a 15.719700
_cell_length_b 12.384974
_cell_length_c 7.637963
_cell_angle_alpha 90.000000
_cell_angle_beta 90.000000
_cell_angle_gamma 90.000000
_cell_volume 1487.020319
_symmetry_space_group_name_H-M "P M A 2"
_symmetry_group_IT_number 28
_symmetry_cell_setting 'orthorhombic'
loop_
_space_group_symop_operation_xyz
x,y,z
-x,-y,z
1/2-x,y,z
1/2+x,-y,z
loop_
_atom_site_type_symbol
_atom_site_label
_atom_site_fract_x
_atom_site_fract_y
_atom_site_fract_z
Si Si1 0.843889 0.723525 0.913250
Si Si2 0.654342 0.246353 0.409628
Si Si3 0.902711 0.488837 0.930364
Si Si4 0.347648 0.281863 0.484601
Si Si5 0.148567 0.515276 0.534546
Si Si6 0.008892 0.119800 0.905665
Si Si7 0.489153 0.118357 0.498922
Si Si8 0.655788 0.249826 0.001659
O O1 0.750000 0.762875 0.959385
O O2 0.856338 0.600546 0.975692
O O3 0.848971 0.717437 0.699319
O O4 0.918001 0.801907 0.979346
O O5 0.750000 0.226635 0.479649
O O6 0.635865 0.373562 0.433744
O O7 0.578811 0.179438 0.493791
O O8 0.654838 0.219205 0.205161
O O9 0.899453 0.479022 0.718685
O O10 0.000000 0.500000 0.987673
O O11 0.861188 0.378117 0.993586
O O12 0.250000 0.260885 0.431398
O O13 0.373665 0.404364 0.436437
O O14 0.415365 0.194161 0.421968
O O15 0.250000 0.506415 0.574250
O O16 0.034338 0.103400 0.702830
O O17 0.920403 0.184503 0.913654
O O18 0.000000 0.000000 0.983782
O O19 0.500000 0.000000 0.418826
O O20 0.750000 0.228230 0.928154
#
# Coordination Sequence:
#
# PCOD9339762 Si02
#       8
#     4   4   4   4   4   4   4   4
#     4   9  17  32  53  79 113 142 173 225 287 341
#     4  10  23  39  56  80 115 154 190 228 278 336
#     4  11  19  32  57  86 111 141 186 232 289 338
#     4   8  16  31  52  80 109 139 173 222 285 337
#     4   9  18  33  55  83 109 141 183 228 279 340
#     4  10  21  37  59  87 112 142 193 242 280 333
#     4  10  21  36  57  84 110 143 189 239 282 324
#     4  11  23  40  57  80 118 157 189 231 281 339
#
# _framework density 21.519544
#
# number of rings (size 3 to 8) (size 9 to 14) (size 15 to 20)
#    0.000    2.250    1.250    2.625    3.500    3.000 
#    2.250    2.500    0.000    0.750    0.000    0.000 
#    0.000    0.000    0.000    0.000    0.000    0.000 
#
# Total GULP energy -178686.022764 kJ/mol
# GULP energy per Si atom -5583.938211 kJ/mol
# Density = 2.147056 g / cm^3
# Si number density = 21.519544 Si / 1000 Ang^3
#
#
#
# Elastic Constant Matrix: (Units=GPa)
#
#
# Indices 1 2 3 4 5 6 
#
# 1 122.1274 68.5450 -12.1099 0.0000 0.0000 0.0000
# 2 68.5450 147.6164 -9.9583 0.0000 0.0000 0.0000
# 3 -12.1099 -9.9583 33.9855 0.0000 0.0000 0.0000
# 4 0.0000 0.0000 0.0000 324.8522 0.0000 0.0000
# 5 0.0000 0.0000 0.0000 0.0000 72.4955 0.0000
# 6 0.0000 0.0000 0.0000 0.0000 0.0000 11.9059
#
#
#
# Elastic Compliance Matrix: (Units=1/GPa)
#
#
# Indices 1 2 3 4 5 6 
#
# 1 0.011285 -0.005069 0.002536 0.000000 0.000000 0.000000
# 2 -0.005069 0.009188 0.000886 0.000000 0.000000 0.000000
# 3 0.002536 0.000886 0.030587 0.000000 0.000000 0.000000
# 4 0.000000 0.000000 0.000000 0.003078 0.000000 0.000000
# 5 0.000000 0.000000 0.000000 0.000000 0.013794 0.000000
# 6 0.000000 0.000000 0.000000 0.000000 0.000000 0.083992
#
#
# Mechanical properties :
#
#
# Convention : Reuss Voigt Hill
#
# Bulk Modulus (GPa) = 20.93560 44.07587 32.50574
# Shear Modulus (GPa) = 29.21586 99.00091 64.10839
#
# Velocity S-wave (km/s) = 3.68862 6.79007 5.46401
# Velocity P-wave (km/s) = 5.28119 9.05536 7.41251
#
# Compressibility (1/GPa) = 0.04776553
#
# Stress axis : x y z
#
# Youngs Moduli (GPa) = 88.61682 108.84015 32.69311
#
# Poissons Ratio (x) = 0.55170 -0.08290
# Poissons Ratio (y) = 0.44919 -0.02897
# Poissons Ratio (z) = -0.22471 -0.09643
#
# Static dielectric constant tensor:
#      x y z
#    x 1.736550 0.000000 0.000000 
#    y 0.000000 1.774770 0.000000 
#    z 0.000000 0.000000 1.810980 
# 
# From -- ./inp_files/3525.got.cif
#   From: 2010.05.17/outbox.cif.g08.bks.cpg/sg28_2_cif.got.tgz:3525.got - 2010.06.04 01:15:21.
