data_PCOD9339654
_publ_section_title
;
Structure prediction by ZEFSAII (Michael W. Deem and Ramdas Pophale) SiO2 
 PCOD9339654
Probable space group: P M A 2
;
_chemical_formula_sum "Si O2"
_cell_formula_units_Z 32
_cell_length_a 8.861055
_cell_length_b 14.961496
_cell_length_c 12.231315
_cell_angle_alpha 90.000000
_cell_angle_beta 90.000000
_cell_angle_gamma 90.000000
_cell_volume 1621.562170
_symmetry_space_group_name_H-M "P M A 2"
_symmetry_group_IT_number 28
_symmetry_cell_setting 'orthorhombic'
loop_
_space_group_symop_operation_xyz
x,y,z
-x,-y,z
1/2-x,y,z
1/2+x,-y,z
loop_
_atom_site_type_symbol
_atom_site_label
_atom_site_fract_x
_atom_site_fract_y
_atom_site_fract_z
Si Si1 0.075371 0.415718 0.707220
Si Si2 0.067782 0.907126 0.083628
Si Si3 0.422345 0.869453 0.834154
Si Si4 0.070131 0.283495 0.133309
Si Si5 0.930183 0.400646 0.327174
Si Si6 0.422116 0.666193 0.908869
Si Si7 0.072803 0.280367 0.513439
Si Si8 0.929929 0.907594 0.603442
O O1 0.250000 0.433631 0.728478
O O2 0.065137 0.329907 0.630045
O O3 0.000000 0.500000 0.648324
O O4 0.987508 0.399806 0.819236
O O5 0.250000 0.905038 0.091324
O O6 0.999855 0.816886 0.135978
O O7 0.027593 0.902882 0.953728
O O8 0.000000 0.000000 0.127420
O O9 0.250000 0.900376 0.814974
O O10 0.420532 0.762872 0.850226
O O11 0.520139 0.894933 0.729834
O O12 0.250000 0.278773 0.145629
O O13 0.997495 0.347915 0.223280
O O14 0.024607 0.323333 0.015264
O O15 0.750000 0.407653 0.319653
O O16 0.000000 0.500000 0.335741
O O17 0.978282 0.338939 0.429358
O O18 0.250000 0.644838 0.940591
O O19 0.250000 0.280262 0.479504
O O20 0.020845 0.178987 0.533804
O O21 0.750000 0.910953 0.599230
O O22 0.000000 0.000000 0.563278
#
# Coordination Sequence:
#
# PCOD9339654 Si02
#       8
#     4   4   4   4   4   4   4   4
#     4  11  22  37  58  88 123 161 203 248 307 373
#     4  10  20  35  56  89 128 170 214 258 306 367
#     4   9  18  32  53  82 120 164 208 251 297 354
#     4  11  23  41  65  92 125 163 206 260 314 369
#     4  12  26  46  72  97 121 155 204 259 315 378
#     4  10  20  36  58  87 124 163 204 252 307 369
#     4  10  23  43  64  90 124 161 206 258 309 367
#     4  11  22  36  57  87 124 164 207 253 302 362
#
# _framework density 19.734057
#
# number of rings (size 3 to 8) (size 9 to 14) (size 15 to 20)
#    0.000    1.500    1.250    5.250    0.000    7.000 
#    0.000    3.125    0.000    1.500    0.000    0.000 
#    0.000    0.000    0.000    0.000    0.000    0.000 
#
# Total GULP energy -178786.376307 kJ/mol
# GULP energy per Si atom -5587.074260 kJ/mol
# Density = 1.968914 g / cm^3
# Si number density = 19.734057 Si / 1000 Ang^3
#
#
#
# Elastic Constant Matrix: (Units=GPa)
#
#
# Indices 1 2 3 4 5 6 
#
# 1 120.6787 70.0284 46.0996 0.0000 0.0000 0.0000
# 2 70.0284 159.5501 50.5306 0.0000 0.0000 0.0000
# 3 46.0996 50.5306 61.0157 0.0000 0.0000 0.0000
# 4 0.0000 0.0000 0.0000 14.6123 0.0000 0.0000
# 5 0.0000 0.0000 0.0000 0.0000 30.0353 0.0000
# 6 0.0000 0.0000 0.0000 0.0000 0.0000 44.4557
#
#
#
# Elastic Compliance Matrix: (Units=1/GPa)
#
#
# Indices 1 2 3 4 5 6 
#
# 1 0.012948 -0.003504 -0.006881 0.000000 0.000000 0.000000
# 2 -0.003504 0.009444 -0.005174 0.000000 0.000000 0.000000
# 3 -0.006881 -0.005174 0.025873 0.000000 0.000000 0.000000
# 4 0.000000 0.000000 0.000000 0.068435 0.000000 0.000000
# 5 0.000000 0.000000 0.000000 0.000000 0.033294 0.000000
# 6 0.000000 0.000000 0.000000 0.000000 0.000000 0.022494
#
#
# Mechanical properties :
#
#
# Convention : Reuss Voigt Hill
#
# Bulk Modulus (GPa) = 58.31738 74.95129 66.63434
# Shear Modulus (GPa) = 23.88650 29.45973 26.67311
#
# Velocity S-wave (km/s) = 3.48288 3.86792 3.68044
# Velocity P-wave (km/s) = 6.76681 7.61648 7.20419
#
# Compressibility (1/GPa) = 0.01714755
#
# Stress axis : x y z
#
# Youngs Moduli (GPa) = 77.22995 105.88588 38.65023
#
# Poissons Ratio (x) = 0.37101 0.26596
# Poissons Ratio (y) = 0.27060 0.19997
# Poissons Ratio (z) = 0.53143 0.54785
#
# Static dielectric constant tensor:
#      x y z
#    x 1.674520 0.000000 0.000000 
#    y 0.000000 1.732900 0.000000 
#    z 0.000000 0.000000 1.678400 
# 
# From -- ./inp_files/5054.got.cif
#   From: 2010.05.17/outbox.cif.g08.bks.cpg/sg28_3_cif.got.tgz:5054.got - 2010.06.04 01:15:21.
