data_PCOD9339420
_publ_section_title
;
Structure prediction by ZEFSAII (Michael W. Deem and Ramdas Pophale) SiO2 
 PCOD9339420
Probable space group: P M A 2
;
_chemical_formula_sum "Si O2"
_cell_formula_units_Z 32
_cell_length_a 8.879879
_cell_length_b 14.936227
_cell_length_c 12.724239
_cell_angle_alpha 90.000000
_cell_angle_beta 90.000000
_cell_angle_gamma 90.000000
_cell_volume 1687.639848
_symmetry_space_group_name_H-M "P M A 2"
_symmetry_group_IT_number 28
_symmetry_cell_setting 'orthorhombic'
loop_
_space_group_symop_operation_xyz
x,y,z
-x,-y,z
1/2-x,y,z
1/2+x,-y,z
loop_
_atom_site_type_symbol
_atom_site_label
_atom_site_fract_x
_atom_site_fract_y
_atom_site_fract_z
Si Si1 0.929737 0.411959 0.061350
Si Si2 0.068128 0.906084 0.152170
Si Si3 0.570684 0.908130 0.693199
Si Si4 0.068752 0.400184 0.427352
Si Si5 0.923389 0.340851 0.848602
Si Si6 0.923439 0.133619 0.912202
Si Si7 0.069243 0.290491 0.634583
Si Si8 0.069295 0.721168 0.245053
O O1 0.750000 0.421086 0.054681
O O2 0.960143 0.327590 0.134215
O O3 0.000000 0.500000 0.110950
O O4 0.989476 0.398745 0.943449
O O5 0.250000 0.908418 0.152404
O O6 0.022089 0.823675 0.226701
O O7 0.023826 0.889264 0.029720
O O8 0.000000 0.000000 0.186175
O O9 0.750000 0.912866 0.684922
O O10 0.522986 0.901255 0.815923
O O11 0.518009 0.814108 0.640309
O O12 0.500000 0.000000 0.650423
O O13 0.250000 0.407361 0.425062
O O14 0.021757 0.347996 0.533987
O O15 0.000000 0.500000 0.421557
O O16 0.012634 0.336625 0.333221
O O17 0.750000 0.366731 0.827572
O O18 0.920466 0.240493 0.896229
O O19 0.012522 0.337184 0.740810
O O20 0.750000 0.101541 0.899767
O O21 0.250000 0.287965 0.635244
O O22 0.250000 0.718331 0.263790
#
# Coordination Sequence:
#
# PCOD9339420 Si02
#       8
#     4   4   4   4   4   4   4   4
#     4  10  20  34  53  80 113 147 181 224 278 336
#     4  10  20  34  54  81 115 153 190 231 279 333
#     4  10  19  32  51  79 113 150 188 228 273 326
#     4  11  24  43  65  87 110 142 188 241 292 342
#     4   9  17  32  54  79 111 150 185 222 273 331
#     4   9  16  30  51  76 110 152 190 225 267 322
#     4   9  21  39  57  80 113 146 183 233 282 329
#     4  10  21  40  61  82 114 150 189 236 284 335
#
# _framework density 18.961393000000001
#
# number of rings (size 3 to 8) (size 9 to 14) (size 15 to 20)
#    0.000    2.250    1.250    1.500    0.000    6.000 
#    0.000    3.125    0.000    3.000    0.000    0.000 
#    0.000    0.000    0.000    0.000    0.000    0.000 
#
# Total GULP energy -178491.088432 kJ/mol
# GULP energy per Si atom -5577.846514 kJ/mol
# Density = 1.891824 g / cm^3
# Si number density = 18.961393 Si / 1000 Ang^3
#
#
#
# Elastic Constant Matrix: (Units=GPa)
#
#
# Indices 1 2 3 4 5 6 
#
# 1 20.9125 39.0887 30.9065 0.0000 0.0000 0.0000
# 2 39.0887 142.5080 66.1079 0.0000 0.0000 0.0000
# 3 30.9065 66.1079 104.9260 0.0000 0.0000 0.0000
# 4 0.0000 0.0000 0.0000 14.9318 0.0000 0.0000
# 5 0.0000 0.0000 0.0000 0.0000 19.4473 0.0000
# 6 0.0000 0.0000 0.0000 0.0000 0.0000 -112.8812
#
#
#
# Elastic Compliance Matrix: (Units=1/GPa)
#
#
# Indices 1 2 3 4 5 6 
#
# 1 0.125101 -0.024332 -0.021519 0.000000 0.000000 0.000000
# 2 -0.024332 0.014647 -0.002061 0.000000 0.000000 0.000000
# 3 -0.021519 -0.002061 0.017168 0.000000 0.000000 0.000000
# 4 0.000000 0.000000 0.000000 0.066971 0.000000 0.000000
# 5 0.000000 0.000000 0.000000 0.000000 0.051421 0.000000
# 6 0.000000 0.000000 0.000000 0.000000 0.000000 -0.008859
#
#
# Mechanical properties :
#
#
# Convention : Reuss Voigt Hill
#
# Bulk Modulus (GPa) = 16.36882 60.06142 38.21512
# Shear Modulus (GPa) = 13.06717 -6.88420 3.09149
#
# Velocity S-wave (km/s) = 2.62801 -1.90749 1.27826
# Velocity P-wave (km/s) = 4.22611 5.18585 4.73038
#
# Compressibility (1/GPa) = 0.06109176
#
# Stress axis : x y z
#
# Youngs Moduli (GPa) = 7.99353 68.27151 58.24807
#
# Poissons Ratio (x) = 1.66116 1.25345
# Poissons Ratio (y) = 0.19450 0.12008
# Poissons Ratio (z) = 0.17201 0.14074
#
# Static dielectric constant tensor:
#      x y z
#    x 1.651750 0.000000 0.000000 
#    y 0.000000 1.705070 0.000000 
#    z 0.000000 0.000000 1.648540 
# 
# From -- ./inp_files/5046.got.cif
#   From: 2010.05.17/outbox.cif.g08.bks.cpg/sg28_3_cif.got.tgz:5046.got - 2010.06.04 01:15:21.
