data_PCOD9339425
_publ_section_title
;
Structure prediction by ZEFSAII (Michael W. Deem and Ramdas Pophale) SiO2 
 PCOD9339425
Probable space group: P M A 2
;
_chemical_formula_sum "Si O2"
_cell_formula_units_Z 28
_cell_length_a 8.703177
_cell_length_b 9.467609
_cell_length_c 18.751800
_cell_angle_alpha 90.000000
_cell_angle_beta 90.000000
_cell_angle_gamma 90.000000
_cell_volume 1545.116009
_symmetry_space_group_name_H-M "P M A 2"
_symmetry_group_IT_number 28
_symmetry_cell_setting 'orthorhombic'
loop_
_space_group_symop_operation_xyz
x,y,z
-x,-y,z
1/2-x,y,z
1/2+x,-y,z
loop_
_atom_site_type_symbol
_atom_site_label
_atom_site_fract_x
_atom_site_fract_y
_atom_site_fract_z
Si Si1 0.564801 0.157037 0.865380
Si Si2 0.435788 0.657302 0.731460
Si Si3 0.564623 0.157655 0.594777
Si Si4 0.565980 0.658066 0.153468
Si Si5 0.065661 0.659075 0.457559
Si Si6 0.434171 0.843165 0.026373
Si Si7 0.434123 0.340650 0.310341
O O1 0.750000 0.148146 0.862733
O O2 0.514226 0.264697 0.804169
O O3 0.500000 0.000000 0.852926
O O4 0.521557 0.202595 0.945778
O O5 0.500000 0.500000 0.726170
O O6 0.250000 0.650361 0.731305
O O7 0.483733 0.753017 0.664200
O O8 0.750000 0.149964 0.595454
O O9 0.518811 0.243683 0.523902
O O10 0.500000 0.000000 0.595917
O O11 0.500000 0.500000 0.150175
O O12 0.750000 0.652169 0.148972
O O13 0.499670 0.745978 0.088326
O O14 0.526587 0.720058 0.232242
O O15 0.250000 0.649496 0.455267
O O16 0.000000 0.500000 0.466029
O O17 0.005384 0.721118 0.382407
O O18 0.250000 0.845926 0.030413
O O19 0.500000 0.000000 0.035499
O O20 0.500000 0.500000 0.308561
O O21 0.250000 0.345055 0.317115
#
# Coordination Sequence:
#
# PCOD9339425 Si02
#       7
#     4   4   4   4   4   4   4
#     4   9  19  35  55  78 104 136 174 213 256 308
#     4  10  21  37  55  79 108 136 171 212 254 302
#     4  10  22  37  54  77 105 137 173 211 253 304
#     4  10  20  34  53  78 106 138 177 219 264 313
#     4  10  19  32  52  78 104 133 171 213 257 305
#     4  10  20  35  54  77 106 140 177 217 262 313
#     4   9  17  30  50  75 102 134 171 211 258 309
#
# _framework density 18.121616
#
# number of rings (size 3 to 8) (size 9 to 14) (size 15 to 20)
#    0.000    2.286    0.000    3.429    0.000    5.143 
#    0.000    2.143    0.000    1.714    0.000    0.000 
#    0.000    0.000    0.000    0.000    0.000    0.000 
#
# Total GULP energy -156201.853627 kJ/mol
# GULP energy per Si atom -5578.637630 kJ/mol
# Density = 1.808037 g / cm^3
# Si number density = 18.121616 Si / 1000 Ang^3
#
#
#
# Elastic Constant Matrix: (Units=GPa)
#
#
# Indices 1 2 3 4 5 6 
#
# 1 41.1016 30.7187 53.8910 0.0000 0.0000 0.0000
# 2 30.7187 104.6886 108.2249 0.0000 0.0000 0.0000
# 3 53.8910 108.2249 215.2420 0.0000 0.0000 0.0000
# 4 0.0000 0.0000 0.0000 -145.0313 0.0000 0.0000
# 5 0.0000 0.0000 0.0000 0.0000 37.5275 0.0000
# 6 0.0000 0.0000 0.0000 0.0000 0.0000 31.0548
#
#
#
# Elastic Compliance Matrix: (Units=1/GPa)
#
#
# Indices 1 2 3 4 5 6 
#
# 1 0.036566 -0.002635 -0.007831 0.000000 0.000000 0.000000
# 2 -0.002635 0.020081 -0.009437 0.000000 0.000000 0.000000
# 3 -0.007831 -0.009437 0.011352 0.000000 0.000000 0.000000
# 4 0.000000 0.000000 0.000000 -0.006895 0.000000 0.000000
# 5 0.000000 0.000000 0.000000 0.000000 0.026647 0.000000
# 6 0.000000 0.000000 0.000000 0.000000 0.000000 0.032201
#
#
# Mechanical properties :
#
#
# Convention : Reuss Voigt Hill
#
# Bulk Modulus (GPa) = 35.46825 82.96680 59.21753
# Shear Modulus (GPa) = 29.55860 -4.07663 12.74098
#
# Velocity S-wave (km/s) = 4.04310 -1.50149 2.65445
# Velocity P-wave (km/s) = 6.43509 6.54803 6.49181
#
# Compressibility (1/GPa) = 0.02819423
#
# Stress axis : x y z
#
# Youngs Moduli (GPa) = 27.34773 49.79733 88.09261
#
# Poissons Ratio (x) = 0.13119 0.68981
# Poissons Ratio (y) = 0.07205 0.83137
# Poissons Ratio (z) = 0.21415 0.46996
#
# Static dielectric constant tensor:
#      x y z
#    x 1.608370 0.000000 0.000000 
#    y 0.000000 1.578250 0.000000 
#    z 0.000000 0.000000 1.659480 
# 
# From -- ./inp_files/6779.got.cif
#   From: 2010.05.17/outbox.cif.g08.bks.cpg/sg28_4_cif.got.tgz:6779.got - 2010.06.04 01:15:21.
