data_PCOD9339674
_publ_section_title
;
Structure prediction by ZEFSAII (Michael W. Deem and Ramdas Pophale) SiO2 
 PCOD9339674
Probable space group: P M A 2
;
_chemical_formula_sum "Si O2"
_cell_formula_units_Z 28
_cell_length_a 8.656091
_cell_length_b 14.725909
_cell_length_c 13.047509
_cell_angle_alpha 90.000000
_cell_angle_beta 90.000000
_cell_angle_gamma 90.000000
_cell_volume 1663.150424
_symmetry_space_group_name_H-M "P M A 2"
_symmetry_group_IT_number 28
_symmetry_cell_setting 'orthorhombic'
loop_
_space_group_symop_operation_xyz
x,y,z
-x,-y,z
1/2-x,y,z
1/2+x,-y,z
loop_
_atom_site_type_symbol
_atom_site_label
_atom_site_fract_x
_atom_site_fract_y
_atom_site_fract_z
Si Si1 0.564252 0.400547 0.673800
Si Si2 0.934941 0.720045 0.090406
Si Si3 0.064095 0.718596 0.481954
Si Si4 0.935604 0.601988 0.292362
Si Si5 0.565453 0.903246 0.403144
Si Si6 0.565590 0.096491 0.172804
Si Si7 0.935807 0.399514 0.908765
O O1 0.500000 0.500000 0.647999
O O2 0.750000 0.405608 0.671582
O O3 0.516046 0.328371 0.588472
O O4 0.518906 0.378715 0.790843
O O5 0.750000 0.729228 0.087906
O O6 0.974720 0.656946 0.188636
O O7 0.010834 0.818042 0.107096
O O8 0.995209 0.670901 0.989002
O O9 0.250000 0.723890 0.477908
O O10 0.005675 0.655919 0.388563
O O11 0.993698 0.818141 0.467647
O O12 0.750000 0.599643 0.301969
O O13 0.000000 0.500000 0.288118
O O14 0.750000 0.905649 0.400004
O O15 0.502472 0.890427 0.287306
O O16 0.500000 0.000000 0.439629
O O17 0.750000 0.092466 0.178992
O O18 0.500000 0.000000 0.135103
O O19 0.750000 0.400459 0.915867
O O20 0.000000 0.500000 0.932352
#
# Coordination Sequence:
#
# PCOD9339674 Si02
#       7
#     4   4   4   4   4   4   4
#     4   9  20  36  55  79 107 141 183 228 268 316
#     4  11  22  36  54  79 110 142 181 223 268 320
#     4  11  21  35  55  79 108 142 180 221 271 322
#     4  11  23  35  49  73 109 144 177 217 265 320
#     4  11  21  35  54  79 109 142 180 221 266 319
#     4  11  21  35  56  80 109 143 179 220 267 319
#     4  10  20  36  56  79 107 142 185 228 271 318
#
# _framework density 16.835518
#
# number of rings (size 3 to 8) (size 9 to 14) (size 15 to 20)
#    0.000    1.429    1.429    6.000    0.000    5.714 
#    0.000    0.000    0.000    0.857    0.000    4.000 
#    0.000    0.000    0.000    0.000    0.000    0.000 
#
# Total GULP energy -156462.614948 kJ/mol
# GULP energy per Si atom -5587.950534 kJ/mol
# Density = 1.679720 g / cm^3
# Si number density = 16.835518 Si / 1000 Ang^3
#
#
#
# Elastic Constant Matrix: (Units=GPa)
#
#
# Indices 1 2 3 4 5 6 
#
# 1 95.7272 65.5872 47.9766 0.0000 0.0000 0.0000
# 2 65.5872 179.2488 95.0230 0.0000 0.0000 0.0000
# 3 47.9766 95.0230 100.3779 0.0000 0.0000 0.0000
# 4 0.0000 0.0000 0.0000 20.6684 0.0000 0.0000
# 5 0.0000 0.0000 0.0000 0.0000 18.0173 0.0000
# 6 0.0000 0.0000 0.0000 0.0000 0.0000 33.7369
#
#
#
# Elastic Compliance Matrix: (Units=1/GPa)
#
#
# Indices 1 2 3 4 5 6 
#
# 1 0.014654 -0.003310 -0.003871 0.000000 0.000000 0.000000
# 2 -0.003310 0.011947 -0.009727 0.000000 0.000000 0.000000
# 3 -0.003871 -0.009727 0.021021 0.000000 0.000000 0.000000
# 4 0.000000 0.000000 0.000000 0.048383 0.000000 0.000000
# 5 0.000000 0.000000 0.000000 0.000000 0.055502 0.000000
# 6 0.000000 0.000000 0.000000 0.000000 0.000000 0.029641
#
#
# Mechanical properties :
#
#
# Convention : Reuss Voigt Hill
#
# Bulk Modulus (GPa) = 72.43434 88.05862 80.24648
# Shear Modulus (GPa) = 22.77229 25.60232 24.18731
#
# Velocity S-wave (km/s) = 3.68181 3.90389 3.79447
# Velocity P-wave (km/s) = 7.82256 8.52873 8.18326
#
# Compressibility (1/GPa) = 0.01380561
#
# Stress axis : x y z
#
# Youngs Moduli (GPa) = 68.24029 83.70643 47.57253
#
# Poissons Ratio (x) = 0.27707 0.18413
# Poissons Ratio (y) = 0.22588 0.46274
# Poissons Ratio (z) = 0.26413 0.81422
#
# Static dielectric constant tensor:
#      x y z
#    x 1.563140 0.000000 0.000000 
#    y 0.000000 1.553160 0.000000 
#    z 0.000000 0.000000 1.555210 
# 
# From -- ./inp_files/4858.got.cif
#   From: 2010.05.17/outbox.cif.g08.bks.cpg/sg28_3_cif.got.tgz:4858.got - 2010.06.04 01:15:21.
