data_PCOD9339589
_publ_section_title
;
Structure prediction by ZEFSAII (Michael W. Deem and Ramdas Pophale) SiO2 
 PCOD9339589
Probable space group: P M A 2
;
_chemical_formula_sum "Si O2"
_cell_formula_units_Z 24
_cell_length_a 8.752854
_cell_length_b 9.958688
_cell_length_c 16.138245
_cell_angle_alpha 90.000000
_cell_angle_beta 90.000000
_cell_angle_gamma 90.000000
_cell_volume 1406.721467
_symmetry_space_group_name_H-M "P M A 2"
_symmetry_group_IT_number 28
_symmetry_cell_setting 'orthorhombic'
loop_
_space_group_symop_operation_xyz
x,y,z
-x,-y,z
1/2-x,y,z
1/2+x,-y,z
loop_
_atom_site_type_symbol
_atom_site_label
_atom_site_fract_x
_atom_site_fract_y
_atom_site_fract_z
Si Si1 0.065765 0.350292 0.573600
Si Si2 0.434135 0.147155 0.715526
Si Si3 0.933344 0.851855 0.905414
Si Si4 0.067598 0.650925 0.224193
Si Si5 0.066807 0.650457 0.040040
Si Si6 0.932720 0.651240 0.390594
O O1 0.250000 0.359921 0.576916
O O2 0.013073 0.254400 0.647589
O O3 0.027024 0.293613 0.481736
O O4 0.000000 0.500000 0.581684
O O5 0.250000 0.140393 0.711716
O O6 0.475543 0.183879 0.810216
O O7 0.500000 0.000000 0.698420
O O8 0.750000 0.855733 0.911240
O O9 0.000000 0.000000 0.921684
O O10 0.999360 0.745683 0.969899
O O11 0.250000 0.643998 0.232292
O O12 0.029957 0.705707 0.132785
O O13 0.000000 0.500000 0.222304
O O14 0.999683 0.716835 0.307235
O O15 0.250000 0.643224 0.033360
O O16 0.000000 0.500000 0.032970
O O17 0.750000 0.645054 0.383188
O O18 0.000000 0.500000 0.392570
#
# Coordination Sequence:
#
# PCOD9339589 Si02
#       6
#     4   4   4   4   4   4
#     4   9  18  31  47  71 100 126 157 196 237 280
#     4   9  19  35  52  71  95 125 161 197 236 286
#     4  10  20  35  54  73  96 128 164 202 244 293
#     4   9  16  26  42  65  94 125 157 193 233 280
#     4  10  20  33  50  74 102 130 162 202 246 289
#     4   9  15  24  41  64  92 124 155 190 232 278
#
# _framework density 17.060946999999999
#
# number of rings (size 3 to 8) (size 9 to 14) (size 15 to 20)
#    0.000    2.667    0.000    3.000    0.000    4.667 
#    0.000    1.667    0.000    1.000    0.000    4.667 
#    0.000    0.000    0.000    0.000    0.000    0.000 
#
# Total GULP energy -133668.229441 kJ/mol
# GULP energy per Si atom -5569.509560 kJ/mol
# Density = 1.702212 g / cm^3
# Si number density = 17.060947 Si / 1000 Ang^3
#
#
#
# Elastic Constant Matrix: (Units=GPa)
#
#
# Indices 1 2 3 4 5 6 
#
# 1 48.2408 26.2805 56.7485 0.0000 0.0000 0.0000
# 2 26.2805 58.7147 88.6114 0.0000 0.0000 0.0000
# 3 56.7485 88.6114 194.4756 0.0000 0.0000 0.0000
# 4 0.0000 0.0000 0.0000 -7.6118 0.0000 0.0000
# 5 0.0000 0.0000 0.0000 0.0000 25.7473 0.0000
# 6 0.0000 0.0000 0.0000 0.0000 0.0000 21.1742
#
#
#
# Elastic Compliance Matrix: (Units=1/GPa)
#
#
# Indices 1 2 3 4 5 6 
#
# 1 0.031574 -0.000729 -0.008881 0.000000 0.000000 0.000000
# 2 -0.000729 0.054544 -0.024640 0.000000 0.000000 0.000000
# 3 -0.008881 -0.024640 0.018961 0.000000 0.000000 0.000000
# 4 0.000000 0.000000 0.000000 -0.131375 0.000000 0.000000
# 5 0.000000 0.000000 0.000000 0.000000 0.038839 0.000000
# 6 0.000000 0.000000 0.000000 0.000000 0.000000 0.047227
#
#
# Mechanical properties :
#
#
# Convention : Reuss Voigt Hill
#
# Bulk Modulus (GPa) = 27.33853 71.63465 49.48659
# Shear Modulus (GPa) = 35.59672 16.51465 26.05569
#
# Velocity S-wave (km/s) = 4.57272 3.11461 3.91220
# Velocity P-wave (km/s) = 6.62861 7.41708 7.03390
#
# Compressibility (1/GPa) = 0.03657841
#
# Stress axis : x y z
#
# Youngs Moduli (GPa) = 31.67162 18.33383 52.74103
#
# Poissons Ratio (x) = 0.01337 0.46840
# Poissons Ratio (y) = 0.02309 1.29953
# Poissons Ratio (z) = 0.28128 0.45174
#
# Static dielectric constant tensor:
#      x y z
#    x 1.573090 0.000000 0.000000 
#    y 0.000000 1.527880 0.000000 
#    z 0.000000 0.000000 1.643310 
# 
# From -- ./inp_files/6665.got.cif
#   From: 2010.05.17/outbox.cif.g08.bks.cpg/sg28_4_cif.got.tgz:6665.got - 2010.06.04 01:15:21.
