data_PCOD9339575
_publ_section_title
;
Structure prediction by ZEFSAII (Michael W. Deem and Ramdas Pophale) SiO2 
 PCOD9339575
Probable space group: P M A 2
;
_chemical_formula_sum "Si O2"
_cell_formula_units_Z 18
_cell_length_a 9.293243
_cell_length_b 9.741249
_cell_length_c 9.771437
_cell_angle_alpha 90.000000
_cell_angle_beta 90.000000
_cell_angle_gamma 90.000000
_cell_volume 884.586637
_symmetry_space_group_name_H-M "P M A 2"
_symmetry_group_IT_number 28
_symmetry_cell_setting 'orthorhombic'
loop_
_space_group_symop_operation_xyz
x,y,z
-x,-y,z
1/2-x,y,z
1/2+x,-y,z
loop_
_atom_site_type_symbol
_atom_site_label
_atom_site_fract_x
_atom_site_fract_y
_atom_site_fract_z
Si Si1 0.250000 0.269135 0.978641
Si Si2 0.250000 0.872398 0.907396
Si Si3 0.750000 0.049283 0.219153
Si Si4 0.250000 0.182333 0.660806
Si Si5 0.250000 0.585834 0.045150
Si Si6 0.502659 0.264957 0.187663
Si Si7 0.750000 0.749544 0.370663
Si Si8 0.000000 0.000000 0.730221
O O1 0.250000 0.226396 0.820108
O O2 0.250000 0.434685 0.986785
O O3 0.394594 0.225453 0.061658
O O4 0.109003 0.913785 0.823996
O O5 0.250000 0.954575 0.051538
O O6 0.250000 0.710841 0.936967
O O7 0.605642 0.141190 0.239701
O O8 0.750000 0.910530 0.310761
O O9 0.250000 0.279094 0.530901
O O10 0.105585 0.093827 0.643062
O O11 0.389652 0.619431 0.134808
O O12 0.393049 0.310134 0.303548
#
# Coordination Sequence:
#
# PCOD9339575 Si02
#       8
#     2   2   2   2   2   4   2   2
#     4  11  21  40  63  89 122 158 210 271 297 360
#     4   9  20  33  58  89 114 157 204 255 314 352
#     4  10  20  31  58  85 123 155 194 248 313 370
#     4  11  24  38  57  88 128 170 200 237 325 368
#     4  10  20  37  64  91 117 150 215 262 310 345
#     4   9  21  36  58  91 114 155 214 246 306 360
#     4  11  23  35  58  86 132 162 197 237 311 385
#     4  10  22  36  54  84 134 154 200 258 300 380
#
# _framework density 20.348486999999999
#
# number of rings (size 3 to 8) (size 9 to 14) (size 15 to 20)
#    0.000    2.222    0.000    4.000   15.556    0.000 
#    0.000    0.000    0.000   21.333    0.000    0.000 
#    0.000    0.000    0.000    0.000    0.000    0.000 
#
# Total GULP energy -100417.211225 kJ/mol
# GULP energy per Si atom -5578.733957 kJ/mol
# Density = 2.030217 g / cm^3
# Si number density = 20.348487 Si / 1000 Ang^3
#
#
#
# Elastic Constant Matrix: (Units=GPa)
#
#
# Indices 1 2 3 4 5 6 
#
# 1 157.2180 12.3761 22.7286 0.0000 0.0000 0.0000
# 2 12.3761 64.8773 -23.5686 0.0000 0.0000 0.0000
# 3 22.7286 -23.5686 74.3279 0.0000 0.0000 0.0000
# 4 0.0000 0.0000 0.0000 12.3228 0.0000 0.0000
# 5 0.0000 0.0000 0.0000 0.0000 -32.2410 0.0000
# 6 0.0000 0.0000 0.0000 0.0000 0.0000 24.9309
#
#
#
# Elastic Compliance Matrix: (Units=1/GPa)
#
#
# Indices 1 2 3 4 5 6 
#
# 1 0.006964 -0.002376 -0.002883 0.000000 0.000000 0.000000
# 2 -0.002376 0.018231 0.006507 0.000000 0.000000 0.000000
# 3 -0.002883 0.006507 0.016399 0.000000 0.000000 0.000000
# 4 0.000000 0.000000 0.000000 0.081150 0.000000 0.000000
# 5 0.000000 0.000000 0.000000 0.000000 -0.031016 0.000000
# 6 0.000000 0.000000 0.000000 0.000000 0.000000 0.040111
#
#
# Mechanical properties :
#
#
# Convention : Reuss Voigt Hill
#
# Bulk Modulus (GPa) = 22.68026 35.49948 29.08987
# Shear Modulus (GPa) = 34.71278 19.99502 27.35390
#
# Velocity S-wave (km/s) = 4.13475 3.13809 3.67041
# Velocity P-wave (km/s) = 5.82795 5.53297 5.68238
#
# Compressibility (1/GPa) = 0.04409120
#
# Stress axis : x y z
#
# Youngs Moduli (GPa) = 143.58723 54.85184 60.97968
#
# Poissons Ratio (x) = 0.13032 0.17580
# Poissons Ratio (y) = 0.34115 -0.39682
# Poissons Ratio (z) = 0.41396 -0.35694
#
# Static dielectric constant tensor:
#      x y z
#    x 1.736760 0.000000 0.000000 
#    y 0.000000 1.783540 0.000000 
#    z 0.000000 0.000000 1.707330 
# 
# From -- ./inp_files/2234.got.cif
#   From: 2010.05.17/outbox.cif.g08.bks.cpg/sg28_2_cif.got.tgz:2234.got - 2010.06.04 01:15:21.
