data_PCOD9339820
_publ_section_title
;
Structure prediction by ZEFSAII (Michael W. Deem and Ramdas Pophale) SiO2 
 PCOD9339820
Probable space group: P M A 2
;
_chemical_formula_sum "Si O2"
_cell_formula_units_Z 28
_cell_length_a 20.605914
_cell_length_b 4.808637
_cell_length_c 10.419601
_cell_angle_alpha 90.000000
_cell_angle_beta 90.000000
_cell_angle_gamma 90.000000
_cell_volume 1032.440341
_symmetry_space_group_name_H-M "P M A 2"
_symmetry_group_IT_number 28
_symmetry_cell_setting 'orthorhombic'
loop_
_space_group_symop_operation_xyz
x,y,z
-x,-y,z
1/2-x,y,z
1/2+x,-y,z
loop_
_atom_site_type_symbol
_atom_site_label
_atom_site_fract_x
_atom_site_fract_y
_atom_site_fract_z
Si Si1 0.442399 0.773394 0.077560
Si Si2 0.132253 0.295663 0.000088
Si Si3 0.679128 0.747681 0.270140
Si Si4 0.574777 0.074299 0.636533
Si Si5 0.179462 0.688170 0.791666
Si Si6 0.932759 0.168688 0.359742
Si Si7 0.320726 0.365584 0.538244
O O1 0.432233 0.487794 0.001045
O O2 0.440424 0.666354 0.226335
O O3 0.500000 0.000000 0.069274
O O4 0.382503 0.973004 0.029584
O O5 0.169265 0.379514 0.130763
O O6 0.169673 0.411089 0.877035
O O7 0.750000 0.882553 0.268761
O O8 0.676465 0.536888 0.390501
O O9 0.624045 0.960115 0.314885
O O10 0.610903 0.154189 0.769164
O O11 0.572521 0.271499 0.507634
O O12 0.500000 0.000000 0.665145
O O13 0.619796 0.826088 0.582337
O O14 0.250000 0.814556 0.829457
O O15 0.184832 0.600873 0.643329
O O16 0.000000 0.000000 0.368416
O O17 0.250000 0.212410 0.546819
#
# Coordination Sequence:
#
# PCOD9339820 Si02
#       7
#     4   4   4   4   4   4   4
#     4  10  22  43  67  99 134 180 224 279 342 406
#     4  11  24  41  66  97 135 177 226 279 337 403
#     4   9  18  37  63  94 127 170 226 281 333 399
#     4  10  21  39  64  97 129 171 223 282 337 402
#     4  11  25  42  62  91 130 176 221 274 339 406
#     4   8  17  36  64  95 132 168 219 277 340 398
#     4   9  20  40  64  89 126 172 220 272 335 402
#
# _framework density 27.120208000000002
#
# number of rings (size 3 to 8) (size 9 to 14) (size 15 to 20)
#    0.000    2.286    0.000    1.286    4.000    1.714 
#    2.571    6.429    0.000    0.000    0.000    0.000 
#    0.000    0.000    0.000    0.000    0.000    0.000 
#
# Total GULP energy -156050.852470 kJ/mol
# GULP energy per Si atom -5573.244731 kJ/mol
# Density = 2.705848 g / cm^3
# Si number density = 27.120208 Si / 1000 Ang^3
#
#
#
# Elastic Constant Matrix: (Units=GPa)
#
#
# Indices 1 2 3 4 5 6 
#
# 1 188.2919 19.4478 26.8945 0.0000 0.0000 0.0000
# 2 19.4478 88.9551 19.9954 0.0000 0.0000 0.0000
# 3 26.8945 19.9954 164.4335 0.0000 0.0000 0.0000
# 4 0.0000 0.0000 0.0000 17.3893 0.0000 0.0000
# 5 0.0000 0.0000 0.0000 0.0000 16.3774 0.0000
# 6 0.0000 0.0000 0.0000 0.0000 0.0000 31.9212
#
#
#
# Elastic Compliance Matrix: (Units=1/GPa)
#
#
# Indices 1 2 3 4 5 6 
#
# 1 0.005529 -0.001034 -0.000779 0.000000 0.000000 0.000000
# 2 -0.001034 0.011751 -0.001260 0.000000 0.000000 0.000000
# 3 -0.000779 -0.001260 0.006362 0.000000 0.000000 0.000000
# 4 0.000000 0.000000 0.000000 0.057506 0.000000 0.000000
# 5 0.000000 0.000000 0.000000 0.000000 0.061060 0.000000
# 6 0.000000 0.000000 0.000000 0.000000 0.000000 0.031327
#
#
# Mechanical properties :
#
#
# Convention : Reuss Voigt Hill
#
# Bulk Modulus (GPa) = 57.15141 63.81733 60.48437
# Shear Modulus (GPa) = 26.95245 38.16043 32.55644
#
# Velocity S-wave (km/s) = 3.15590 3.75518 3.46851
# Velocity P-wave (km/s) = 5.86504 6.51032 6.19609
#
# Compressibility (1/GPa) = 0.01749738
#
# Stress axis : x y z
#
# Youngs Moduli (GPa) = 180.86830 85.10047 157.18250
#
# Poissons Ratio (x) = 0.08797 0.12238
# Poissons Ratio (y) = 0.18697 0.19802
# Poissons Ratio (z) = 0.14082 0.10721
#
# Static dielectric constant tensor:
#      x y z
#    x 1.927620 0.000000 0.000000 
#    y 0.000000 2.167670 0.000000 
#    z 0.000000 0.000000 2.161690 
# 
# From -- ./inp_files/5790.got.cif
#   From: 2010.05.17/outbox.cif.g08.bks.cpg/sg28_3_cif.got.tgz:5790.got - 2010.06.04 01:15:21.
