data_PCOD9339706
_publ_section_title
;
Structure prediction by ZEFSAII (Michael W. Deem and Ramdas Pophale) SiO2 
 PCOD9339706
Probable space group: P M A 2
;
_chemical_formula_sum "Si O2"
_cell_formula_units_Z 24
_cell_length_a 8.585238
_cell_length_b 9.475763
_cell_length_c 15.778455
_cell_angle_alpha 90.000000
_cell_angle_beta 90.000000
_cell_angle_gamma 90.000000
_cell_volume 1283.603831
_symmetry_space_group_name_H-M "P M A 2"
_symmetry_group_IT_number 28
_symmetry_cell_setting 'orthorhombic'
loop_
_space_group_symop_operation_xyz
x,y,z
-x,-y,z
1/2-x,y,z
1/2+x,-y,z
loop_
_atom_site_type_symbol
_atom_site_label
_atom_site_fract_x
_atom_site_fract_y
_atom_site_fract_z
Si Si1 0.937710 0.658865 0.087340
Si Si2 0.563600 0.659835 0.400225
Si Si3 0.064175 0.657655 0.582181
Si Si4 0.937400 0.842043 0.926735
Si Si5 0.437388 0.158372 0.735391
Si Si6 0.436416 0.840806 0.244415
O O1 0.750000 0.656958 0.091249
O O2 0.000000 0.500000 0.092536
O O3 0.001908 0.752287 0.164326
O O4 0.987289 0.734377 0.999647
O O5 0.500000 0.500000 0.388269
O O6 0.750000 0.656383 0.396649
O O7 0.507902 0.708966 0.493163
O O8 0.496960 0.761001 0.328062
O O9 0.250000 0.655268 0.574821
O O10 0.000000 0.500000 0.593901
O O11 0.010824 0.748271 0.662004
O O12 0.750000 0.849909 0.928820
O O13 0.982198 0.796844 0.831320
O O14 0.000000 0.000000 0.942143
O O15 0.250000 0.161033 0.728794
O O16 0.500000 0.000000 0.725758
O O17 0.250000 0.843006 0.243902
O O18 0.500000 0.000000 0.241131
#
# Coordination Sequence:
#
# PCOD9339706 Si02
#       6
#     4   4   4   4   4   4
#     4  11  23  40  60  87 118 154 194 238 287 341
#     4  11  22  40  63  88 117 153 192 237 287 342
#     4  11  22  38  59  86 117 154 194 239 289 343
#     4   9  20  37  59  84 115 151 193 239 289 342
#     4  10  20  37  58  85 117 154 195 240 289 343
#     4  12  25  42  62  88 118 152 191 237 287 343
#
# _framework density 18.697358000000001
#
# number of rings (size 3 to 8) (size 9 to 14) (size 15 to 20)
#    0.000    1.333    0.000    7.500    0.000    4.667 
#    0.000    5.000    0.000    0.000    0.000    0.000 
#    0.000    0.000    0.000    0.000    0.000    0.000 
#
# Total GULP energy -134187.073725 kJ/mol
# GULP energy per Si atom -5591.128072 kJ/mol
# Density = 1.865480 g / cm^3
# Si number density = 18.697358 Si / 1000 Ang^3
#
#
#
# Elastic Constant Matrix: (Units=GPa)
#
#
# Indices 1 2 3 4 5 6 
#
# 1 139.7362 56.6239 71.6938 0.0000 0.0000 0.0000
# 2 56.6239 127.4415 121.7356 0.0000 0.0000 0.0000
# 3 71.6938 121.7356 199.9658 0.0000 0.0000 0.0000
# 4 0.0000 0.0000 0.0000 46.0114 0.0000 0.0000
# 5 0.0000 0.0000 0.0000 0.0000 49.7390 0.0000
# 6 0.0000 0.0000 0.0000 0.0000 0.0000 36.5233
#
#
#
# Elastic Compliance Matrix: (Units=1/GPa)
#
#
# Indices 1 2 3 4 5 6 
#
# 1 0.009019 -0.002195 -0.001898 0.000000 0.000000 0.000000
# 2 -0.002195 0.019285 -0.010953 0.000000 0.000000 0.000000
# 3 -0.001898 -0.010953 0.012349 0.000000 0.000000 0.000000
# 4 0.000000 0.000000 0.000000 0.021734 0.000000 0.000000
# 5 0.000000 0.000000 0.000000 0.000000 0.020105 0.000000
# 6 0.000000 0.000000 0.000000 0.000000 0.000000 0.027380
#
#
# Mechanical properties :
#
#
# Convention : Reuss Voigt Hill
#
# Bulk Modulus (GPa) = 94.67795 107.47222 101.07508
# Shear Modulus (GPa) = 34.84704 40.92742 37.88723
#
# Velocity S-wave (km/s) = 4.32179 4.68369 4.50637
# Velocity P-wave (km/s) = 8.69775 9.31955 9.01401
#
# Compressibility (1/GPa) = 0.01056212
#
# Stress axis : x y z
#
# Youngs Moduli (GPa) = 110.87364 51.85405 80.97557
#
# Poissons Ratio (x) = 0.11381 0.15365
# Poissons Ratio (y) = 0.24335 0.88696
# Poissons Ratio (z) = 0.21038 0.56798
#
# Static dielectric constant tensor:
#      x y z
#    x 1.625730 0.000000 0.000000 
#    y 0.000000 1.592510 0.000000 
#    z 0.000000 0.000000 1.648590 
# 
# From -- ./inp_files/6040.got.cif
#   From: 2010.05.17/outbox.cif.g08.bks.cpg/sg28_4_cif.got.tgz:6040.got - 2010.06.04 01:15:21.
