data_PCOD9339231
_publ_section_title
;
Structure prediction by ZEFSAII (Michael W. Deem and Ramdas Pophale) SiO2 
 PCOD9339231
Probable space group: P M A 2
;
_chemical_formula_sum "Si O2"
_cell_formula_units_Z 32
_cell_length_a 9.069217
_cell_length_b 22.100073
_cell_length_c 7.466158
_cell_angle_alpha 90.000000
_cell_angle_beta 90.000000
_cell_angle_gamma 90.000000
_cell_volume 1496.444719
_symmetry_space_group_name_H-M "P M A 2"
_symmetry_group_IT_number 28
_symmetry_cell_setting 'orthorhombic'
loop_
_space_group_symop_operation_xyz
x,y,z
-x,-y,z
1/2-x,y,z
1/2+x,-y,z
loop_
_atom_site_type_symbol
_atom_site_label
_atom_site_fract_x
_atom_site_fract_y
_atom_site_fract_z
Si Si1 0.418847 0.319146 0.300080
Si Si2 0.585671 0.441190 0.799109
Si Si3 0.929815 0.940202 0.294702
Si Si4 0.572280 0.060788 0.894327
Si Si5 0.924372 0.809924 0.308672
Si Si6 0.918198 0.683083 0.869174
Si Si7 0.924705 0.817030 0.874698
Si Si8 0.086368 0.557845 0.372305
O O1 0.250000 0.325343 0.363570
O O2 0.486056 0.255141 0.365993
O O3 0.506160 0.378966 0.344374
O O4 0.413899 0.314538 0.084928
O O5 0.500000 0.500000 0.870594
O O6 0.750000 0.439009 0.873734
O O7 0.508290 0.376557 0.823133
O O8 0.596301 0.450281 0.585818
O O9 0.750000 0.943967 0.282007
O O10 0.972079 0.875355 0.379727
O O11 0.003096 0.938341 0.096195
O O12 0.000000 0.000000 0.380795
O O13 0.750000 0.056843 0.898988
O O14 0.500000 0.000000 0.812483
O O15 0.516565 0.124616 0.814338
O O16 0.750000 0.805818 0.346228
O O17 0.938193 0.814070 0.092154
O O18 0.750000 0.675855 0.805150
O O19 0.970374 0.750017 0.808616
O O20 0.750000 0.825234 0.835510
O O21 0.250000 0.560101 0.297491
O O22 0.000000 0.500000 0.299284
#
# Coordination Sequence:
#
# PCOD9339231 Si02
#       8
#     4   4   4   4   4   4   4   4
#     4   9  17  31  50  71  94 123 155 189 229 277
#     4  10  21  36  53  71  94 122 155 191 230 275
#     4   9  14  21  32  48  74 109 147 184 220 263
#     4  10  16  21  31  49  75 110 150 187 222 264
#     4   7  12  23  38  55  80 113 145 177 219 265
#     4   9  18  32  51  73  97 124 155 190 234 282
#     4   8  14  26  40  56  82 114 145 181 223 270
#     4  10  21  36  52  71  93 121 154 191 231 274
#
# _framework density 21.384015999999999
#
# number of rings (size 3 to 8) (size 9 to 14) (size 15 to 20)
#    0.000    3.000    0.000    5.250    0.000    3.000 
#    0.000    5.625    0.000    0.000    0.000    0.000 
#    0.000    1.000    0.000    4.500    0.000    7.000 
#
# Total GULP energy -178309.644444 kJ/mol
# GULP energy per Si atom -5572.176389 kJ/mol
# Density = 2.133535 g / cm^3
# Si number density = 21.384016 Si / 1000 Ang^3
#
#
#
# Elastic Constant Matrix: (Units=GPa)
#
#
# Indices 1 2 3 4 5 6 
#
# 1 128.3278 119.6071 8.9116 0.0000 0.0000 0.0000
# 2 119.6071 283.5526 5.3695 0.0000 0.0000 0.0000
# 3 8.9116 5.3695 56.6855 0.0000 0.0000 0.0000
# 4 0.0000 0.0000 0.0000 49.1463 0.0000 0.0000
# 5 0.0000 0.0000 0.0000 0.0000 1.9110 0.0000
# 6 0.0000 0.0000 0.0000 0.0000 0.0000 40.8928
#
#
#
# Elastic Compliance Matrix: (Units=1/GPa)
#
#
# Indices 1 2 3 4 5 6 
#
# 1 0.012971 -0.005443 -0.001524 0.000000 0.000000 0.000000
# 2 -0.005443 0.005817 0.000305 0.000000 0.000000 0.000000
# 3 -0.001524 0.000305 0.017852 0.000000 0.000000 0.000000
# 4 0.000000 0.000000 0.000000 0.020347 0.000000 0.000000
# 5 0.000000 0.000000 0.000000 0.000000 0.523288 0.000000
# 6 0.000000 0.000000 0.000000 0.000000 0.000000 0.024454
#
#
# Mechanical properties :
#
#
# Convention : Reuss Voigt Hill
#
# Bulk Modulus (GPa) = 42.88809 81.81578 62.35193
# Shear Modulus (GPa) = 7.98946 40.70187 24.34566
#
# Velocity S-wave (km/s) = 1.93502 4.36751 3.37782
# Velocity P-wave (km/s) = 5.00920 7.98604 6.66592
#
# Compressibility (1/GPa) = 0.02331650
#
# Stress axis : x y z
#
# Youngs Moduli (GPa) = 77.09482 171.91974 56.01654
#
# Poissons Ratio (x) = 0.93568 0.08535
# Poissons Ratio (y) = 0.41959 -0.01707
# Poissons Ratio (z) = 0.11747 -0.05238
#
# Static dielectric constant tensor:
#      x y z
#    x 1.747640 0.000000 0.000000 
#    y 0.000000 1.838270 0.000000 
#    z 0.000000 0.000000 1.828550 
# 
# From -- ./inp_files/5238.got.cif
#   From: 2010.05.17/outbox.cif.g08.bks.cpg/sg28_3_cif.got.tgz:5238.got - 2010.06.04 01:15:21.
