data_PCOD9339156
_publ_section_title
;
Structure prediction by ZEFSAII (Michael W. Deem and Ramdas Pophale) SiO2 
 PCOD9339156
Probable space group: P C C 2
;
_chemical_formula_sum "Si O2"
_cell_formula_units_Z 20
_cell_length_a 11.422716
_cell_length_b 4.872479
_cell_length_c 16.087336
_cell_angle_alpha 90.000000
_cell_angle_beta 90.000000
_cell_angle_gamma 90.000000
_cell_volume 895.371956
_symmetry_space_group_name_H-M "P C C 2"
_symmetry_group_IT_number 27
_symmetry_cell_setting 'orthorhombic'
loop_
_space_group_symop_operation_xyz
x,y,z
-x,-y,z
-x,y,1/2+z
x,-y,1/2+z
loop_
_atom_site_type_symbol
_atom_site_label
_atom_site_fract_x
_atom_site_fract_y
_atom_site_fract_z
Si Si1 0.078426 0.740966 0.430020
Si Si2 0.618796 0.874518 0.518420
Si Si3 0.313406 0.904915 0.341531
Si Si4 0.371208 0.585733 0.734224
Si Si5 0.252591 0.371417 0.070429
O O1 0.178346 0.857510 0.368186
O O2 0.140487 0.604716 0.511164
O O3 0.000000 0.500000 0.391071
O O4 0.000000 0.000000 0.454512
O O5 0.629107 0.971396 0.423766
O O6 0.718313 0.048631 0.565738
O O7 0.500000 0.000000 0.553873
O O8 0.647088 0.555654 0.525637
O O9 0.356879 0.609073 0.313554
O O10 0.349987 0.108004 0.267271
O O11 0.500000 0.500000 0.700251
O O12 0.270606 0.536695 0.665167
#
# Coordination Sequence:
#
# PCOD9339156 Si02
#       5
#     4   4   4   4   4
#     4  11  23  45  68  88 120 170 227 283 314 349
#     4  11  20  37  60  89 123 167 211 254 305 381
#     4  11  24  39  62  93 125 165 214 256 314 387
#     4  12  23  40  62  97 138 166 191 254 329 394
#     4  11  24  39  62  93 124 164 215 257 314 387
#
# _framework density 22.337088000000001
#
# number of rings (size 3 to 8) (size 9 to 14) (size 15 to 20)
#    0.000    0.800    0.000   10.800    0.000    0.000 
#    0.000    6.000    0.000    0.000    0.000    0.000 
#    0.000    0.000    0.000    0.000    0.000    0.000 
#
# Total GULP energy -111620.538880 kJ/mol
# GULP energy per Si atom -5581.026944 kJ/mol
# Density = 2.228625 g / cm^3
# Si number density = 22.337088 Si / 1000 Ang^3
#
#
#
# Elastic Constant Matrix: (Units=GPa)
#
#
# Indices 1 2 3 4 5 6 
#
# 1 108.1060 29.4435 6.1666 0.0000 0.0000 0.0000
# 2 29.4435 100.5592 6.7902 0.0000 0.0000 0.0000
# 3 6.1666 6.7902 70.8616 0.0000 0.0000 0.0000
# 4 0.0000 0.0000 0.0000 29.0604 0.0000 0.0000
# 5 0.0000 0.0000 0.0000 0.0000 10.6706 0.0000
# 6 0.0000 0.0000 0.0000 0.0000 0.0000 43.5585
#
#
#
# Elastic Compliance Matrix: (Units=1/GPa)
#
#
# Indices 1 2 3 4 5 6 
#
# 1 0.010077 -0.002910 -0.000598 0.000000 0.000000 0.000000
# 2 -0.002910 0.010850 -0.000786 0.000000 0.000000 0.000000
# 3 -0.000598 -0.000786 0.014239 0.000000 0.000000 0.000000
# 4 0.000000 0.000000 0.000000 0.034411 0.000000 0.000000
# 5 0.000000 0.000000 0.000000 0.000000 0.093716 0.000000
# 6 0.000000 0.000000 0.000000 0.000000 0.000000 0.022958
#
#
# Mechanical properties :
#
#
# Convention : Reuss Voigt Hill
#
# Bulk Modulus (GPa) = 37.62689 40.48081 39.05385
# Shear Modulus (GPa) = 24.54613 32.46636 28.50625
#
# Velocity S-wave (km/s) = 3.31856 3.81658 3.57625
# Velocity P-wave (km/s) = 5.61830 6.13056 5.88001
#
# Compressibility (1/GPa) = 0.02657674
#
# Stress axis : x y z
#
# Youngs Moduli (GPa) = 99.23708 92.16966 70.22758
#
# Poissons Ratio (x) = 0.26822 0.04200
# Poissons Ratio (y) = 0.28879 0.05523
# Poissons Ratio (z) = 0.05935 0.07248
#
# Static dielectric constant tensor:
#      x y z
#    x 1.924130 0.000000 0.000000 
#    y 0.000000 1.775910 0.000000 
#    z 0.000000 0.000000 1.853660 
# 
# From -- ./inp_files/2989.got.cif
#   From: 2010.05.17/outbox.cif.g08.bks.cpg/sg27_2_cif.got.tgz:2989.got - 2010.06.04 01:11:05.
