data_PCOD9339337
_publ_section_title
;
Structure prediction by ZEFSAII (Michael W. Deem and Ramdas Pophale) SiO2 
 PCOD9339337
Probable space group: P M A 2
;
_chemical_formula_sum "Si O2"
_cell_formula_units_Z 32
_cell_length_a 8.852117
_cell_length_b 14.955569
_cell_length_c 12.724523
_cell_angle_alpha 90.000000
_cell_angle_beta 90.000000
_cell_angle_gamma 90.000000
_cell_volume 1684.579834
_symmetry_space_group_name_H-M "P M A 2"
_symmetry_group_IT_number 28
_symmetry_cell_setting 'orthorhombic'
loop_
_space_group_symop_operation_xyz
x,y,z
-x,-y,z
1/2-x,y,z
1/2+x,-y,z
loop_
_atom_site_type_symbol
_atom_site_label
_atom_site_fract_x
_atom_site_fract_y
_atom_site_fract_z
Si Si1 0.569013 0.908460 0.362630
Si Si2 0.568698 0.710420 0.301442
Si Si3 0.569422 0.907333 0.811657
Si Si4 0.923589 0.339839 0.515962
Si Si5 0.424229 0.866056 0.585043
Si Si6 0.930603 0.410410 0.730185
Si Si7 0.067088 0.400289 0.096973
Si Si8 0.568825 0.718555 0.895106
O O1 0.750000 0.912916 0.359920
O O2 0.519174 0.814969 0.307725
O O3 0.513081 0.901721 0.483487
O O4 0.500000 0.000000 0.317697
O O5 0.750000 0.712470 0.298715
O O6 0.515614 0.664611 0.409181
O O7 0.517160 0.652546 0.202016
O O8 0.750000 0.914205 0.802619
O O9 0.501346 0.888970 0.695413
O O10 0.533250 0.823589 0.887292
O O11 0.500000 0.000000 0.850198
O O12 0.750000 0.364289 0.492377
O O13 0.922092 0.240477 0.566096
O O14 0.984823 0.400038 0.610109
O O15 0.250000 0.898010 0.584561
O O16 0.750000 0.413518 0.730035
O O17 0.000000 0.500000 0.777609
O O18 0.987836 0.328023 0.797663
O O19 0.250000 0.407706 0.098509
O O20 0.000000 0.500000 0.089733
O O21 0.025631 0.336619 0.998812
O O22 0.750000 0.710007 0.882941
#
# Coordination Sequence:
#
# PCOD9339337 Si02
#       8
#     4   4   4   4   4   4   4   4
#     4  10  19  32  51  79 112 151 190 228 274 329
#     4   9  20  37  58  81 111 147 186 230 280 337
#     4  11  22  35  54  81 113 151 190 230 279 336
#     4   9  19  34  53  79 114 150 184 229 279 329
#     4  10  18  32  52  77 111 151 191 232 273 325
#     4  11  22  36  55  83 116 150 186 229 284 343
#     4  10  22  42  64  87 110 141 187 238 288 337
#     4  10  22  40  61  83 112 148 189 237 285 337
#
# _framework density 18.995835
#
# number of rings (size 3 to 8) (size 9 to 14) (size 15 to 20)
#    0.000    2.000    1.250    2.250    0.000    5.000 
#    0.000    3.125    0.000    0.000    0.000    0.000 
#    0.000    0.000    0.000    0.000    0.000    0.000 
#
# Total GULP energy -178582.617159 kJ/mol
# GULP energy per Si atom -5580.706786 kJ/mol
# Density = 1.895260 g / cm^3
# Si number density = 18.995835 Si / 1000 Ang^3
#
#
#
# Elastic Constant Matrix: (Units=GPa)
#
#
# Indices 1 2 3 4 5 6 
#
# 1 36.4072 43.8482 32.9550 0.0000 0.0000 0.0000
# 2 43.8482 142.2403 71.4448 0.0000 0.0000 0.0000
# 3 32.9550 71.4448 109.3013 0.0000 0.0000 0.0000
# 4 0.0000 0.0000 0.0000 19.0640 0.0000 0.0000
# 5 0.0000 0.0000 0.0000 0.0000 9.4611 0.0000
# 6 0.0000 0.0000 0.0000 0.0000 0.0000 23.2868
#
#
#
# Elastic Compliance Matrix: (Units=1/GPa)
#
#
# Indices 1 2 3 4 5 6 
#
# 1 0.047031 -0.010981 -0.007002 0.000000 0.000000 0.000000
# 2 -0.010981 0.013031 -0.005207 0.000000 0.000000 0.000000
# 3 -0.007002 -0.005207 0.014664 0.000000 0.000000 0.000000
# 4 0.000000 0.000000 0.000000 0.052455 0.000000 0.000000
# 5 0.000000 0.000000 0.000000 0.000000 0.105696 0.000000
# 6 0.000000 0.000000 0.000000 0.000000 0.000000 0.042943
#
#
# Mechanical properties :
#
#
# Convention : Reuss Voigt Hill
#
# Bulk Modulus (GPa) = 35.27949 64.93829 50.10889
# Shear Modulus (GPa) = 15.07629 19.67578 17.37603
#
# Velocity S-wave (km/s) = 2.82026 3.22187 3.02773
# Velocity P-wave (km/s) = 5.40534 6.93544 6.21764
#
# Compressibility (1/GPa) = 0.02834508
#
# Stress axis : x y z
#
# Youngs Moduli (GPa) = 21.26271 76.74213 68.19604
#
# Poissons Ratio (x) = 0.84270 0.47753
# Poissons Ratio (y) = 0.23348 0.35507
# Poissons Ratio (z) = 0.14889 0.39957
#
# Static dielectric constant tensor:
#      x y z
#    x 1.643450 0.000000 0.000000 
#    y 0.000000 1.747630 0.000000 
#    z 0.000000 0.000000 1.640030 
# 
# From -- ./inp_files/5040.got.cif
#   From: 2010.05.17/outbox.cif.g08.bks.cpg/sg28_3_cif.got.tgz:5040.got - 2010.06.04 01:15:21.
