data_PCOD9339810
_publ_section_title
;
Structure prediction by ZEFSAII (Michael W. Deem and Ramdas Pophale) SiO2 
 PCOD9339810
Probable space group: P M A 2
;
_chemical_formula_sum "Si O2"
_cell_formula_units_Z 28
_cell_length_a 21.409440
_cell_length_b 5.617034
_cell_length_c 10.977087
_cell_angle_alpha 90.000000
_cell_angle_beta 90.000000
_cell_angle_gamma 90.000000
_cell_volume 1320.077615
_symmetry_space_group_name_H-M "P M A 2"
_symmetry_group_IT_number 28
_symmetry_cell_setting 'orthorhombic'
loop_
_space_group_symop_operation_xyz
x,y,z
-x,-y,z
1/2-x,y,z
1/2+x,-y,z
loop_
_atom_site_type_symbol
_atom_site_label
_atom_site_fract_x
_atom_site_fract_y
_atom_site_fract_z
Si Si1 0.890883 0.499190 0.829710
Si Si2 0.561130 0.168215 0.027194
Si Si3 0.070121 0.066617 0.353666
Si Si4 0.678962 0.872266 0.980205
Si Si5 0.069543 0.559870 0.274488
Si Si6 0.183565 0.870103 0.717847
Si Si7 0.563107 0.864980 0.635954
O O1 0.856668 0.633378 0.940638
O O2 0.833970 0.398369 0.749239
O O3 0.929307 0.655121 0.733949
O O4 0.931534 0.297623 0.896567
O O5 0.559866 0.358356 0.135529
O O6 0.500000 0.000000 0.026510
O O7 0.625880 0.023807 0.048399
O O8 0.099768 0.295170 0.284671
O O9 0.062379 0.167334 0.490604
O O10 0.098119 0.796242 0.341418
O O11 0.000000 0.000000 0.306154
O O12 0.750000 0.846663 0.029321
O O13 0.685808 0.003843 0.849526
O O14 0.000000 0.500000 0.324771
O O15 0.250000 0.898450 0.655934
O O16 0.124741 0.977445 0.651741
O O17 0.500000 0.000000 0.666592
#
# Coordination Sequence:
#
# PCOD9339810 Si02
#       7
#     4   4   4   4   4   4   4
#     4  10  22  36  58  88 126 164 203 254 318 387
#     4  11  24  37  61  93 127 160 203 267 322 374
#     4   9  20  38  63  86 120 166 214 259 306 372
#     4   9  20  38  57  84 123 169 210 246 304 385
#     4  10  21  39  62  88 122 164 214 260 309 373
#     4   9  19  36  57  84 121 167 210 245 299 381
#     4  10  22  38  59  92 126 159 199 263 320 375
#
# _framework density 21.210874
#
# number of rings (size 3 to 8) (size 9 to 14) (size 15 to 20)
#    0.000    2.286    0.000    1.714    6.000    8.000 
#    0.000    0.000    0.000    1.714    0.000    0.000 
#    0.000    0.000    0.000    0.000    0.000    0.000 
#
# Total GULP energy -155885.190602 kJ/mol
# GULP energy per Si atom -5567.328236 kJ/mol
# Density = 2.116260 g / cm^3
# Si number density = 21.210874 Si / 1000 Ang^3
#
#
#
# Elastic Constant Matrix: (Units=GPa)
#
#
# Indices 1 2 3 4 5 6 
#
# 1 126.9138 52.0129 44.1472 0.0000 0.0000 0.0000
# 2 52.0129 132.3854 45.9057 0.0000 0.0000 0.0000
# 3 44.1472 45.9057 76.3071 0.0000 0.0000 0.0000
# 4 0.0000 0.0000 0.0000 22.4364 0.0000 0.0000
# 5 0.0000 0.0000 0.0000 0.0000 8.5531 0.0000
# 6 0.0000 0.0000 0.0000 0.0000 0.0000 -108.5000
#
#
#
# Elastic Compliance Matrix: (Units=1/GPa)
#
#
# Indices 1 2 3 4 5 6 
#
# 1 0.010505 -0.002552 -0.004542 0.000000 0.000000 0.000000
# 2 -0.002552 0.010165 -0.004638 0.000000 0.000000 0.000000
# 3 -0.004542 -0.004638 0.018523 0.000000 0.000000 0.000000
# 4 0.000000 0.000000 0.000000 0.044570 0.000000 0.000000
# 5 0.000000 0.000000 0.000000 0.000000 0.116917 0.000000
# 6 0.000000 0.000000 0.000000 0.000000 0.000000 -0.009217
#
#
# Mechanical properties :
#
#
# Convention : Reuss Voigt Hill
#
# Bulk Modulus (GPa) = 63.58376 68.85979 66.22177
# Shear Modulus (GPa) = 22.70938 -2.59942 10.05498
#
# Velocity S-wave (km/s) = 3.27563 -1.10823 2.17963
# Velocity P-wave (km/s) = 6.65945 5.55853 6.13374
#
# Compressibility (1/GPa) = 0.01572729
#
# Stress axis : x y z
#
# Youngs Moduli (GPa) = 95.18824 98.37738 53.98566
#
# Poissons Ratio (x) = 0.25110 0.24523
# Poissons Ratio (y) = 0.24296 0.25041
# Poissons Ratio (z) = 0.43239 0.45632
#
# Static dielectric constant tensor:
#      x y z
#    x 1.752140 0.000000 0.000000 
#    y 0.000000 1.974760 0.000000 
#    z 0.000000 0.000000 1.780120 
# 
# From -- ./inp_files/5788.got.cif
#   From: 2010.05.17/outbox.cif.g08.bks.cpg/sg28_3_cif.got.tgz:5788.got - 2010.06.04 01:15:21.
