data_PCOD9339714
_publ_section_title
;
Structure prediction by ZEFSAII (Michael W. Deem and Ramdas Pophale) SiO2 
 PCOD9339714
Probable space group: P M A 2
;
_chemical_formula_sum "Si O2"
_cell_formula_units_Z 20
_cell_length_a 15.190338
_cell_length_b 5.041724
_cell_length_c 11.481085
_cell_angle_alpha 90.000000
_cell_angle_beta 90.000000
_cell_angle_gamma 90.000000
_cell_volume 879.284540
_symmetry_space_group_name_H-M "P M A 2"
_symmetry_group_IT_number 28
_symmetry_cell_setting 'orthorhombic'
loop_
_space_group_symop_operation_xyz
x,y,z
-x,-y,z
1/2-x,y,z
1/2+x,-y,z
loop_
_atom_site_type_symbol
_atom_site_label
_atom_site_fract_x
_atom_site_fract_y
_atom_site_fract_z
Si Si1 0.650395 0.882488 0.754450
Si Si2 0.061787 0.752832 0.136477
Si Si3 0.400467 0.606041 0.893507
Si Si4 0.142530 0.393012 0.521076
Si Si5 0.644093 0.108170 0.382541
O O1 0.750000 0.968688 0.724108
O O2 0.652749 0.645469 0.847763
O O3 0.610399 0.738797 0.640779
O O4 0.605957 0.142190 0.807997
O O5 0.110276 0.818879 0.255756
O O6 0.000000 0.500000 0.156447
O O7 0.122423 0.693725 0.024592
O O8 0.000000 0.000000 0.103267
O O9 0.500000 0.500000 0.897284
O O10 0.250000 0.404723 0.531058
O O11 0.112742 0.682624 0.480893
O O12 0.118741 0.187272 0.419413
O O13 0.750000 0.120229 0.382084
#
# Coordination Sequence:
#
# PCOD9339714 Si02
#       5
#     4   4   4   4   4
#     4  11  22  39  64  90 118 155 202 247 293 359
#     4  11  23  41  60  81 117 157 191 237 297 349
#     4  11  23  41  60  85 122 161 196 243 306 358
#     4   9  19  36  58  86 119 150 182 236 300 342
#     4  10  20  37  61  86 113 149 194 237 283 346
#
# _framework density 22.745764000000001
#
# number of rings (size 3 to 8) (size 9 to 14) (size 15 to 20)
#    0.000    1.600    0.000    6.000    0.000    4.800 
#    0.000   12.000    0.000    0.000    0.000    0.000 
#    0.000    0.000    0.000    0.000    0.000    0.000 
#
# Total GULP energy -111867.409557 kJ/mol
# GULP energy per Si atom -5593.370478 kJ/mol
# Density = 2.269399 g / cm^3
# Si number density = 22.745764 Si / 1000 Ang^3
#
#
#
# Elastic Constant Matrix: (Units=GPa)
#
#
# Indices 1 2 3 4 5 6 
#
# 1 26.8260 4.5118 7.9565 0.0000 0.0000 0.0000
# 2 4.5118 100.3819 -8.9558 0.0000 0.0000 0.0000
# 3 7.9565 -8.9558 79.2578 0.0000 0.0000 0.0000
# 4 0.0000 0.0000 0.0000 39.3986 0.0000 0.0000
# 5 0.0000 0.0000 0.0000 0.0000 173.3278 0.0000
# 6 0.0000 0.0000 0.0000 0.0000 0.0000 27.0262
#
#
#
# Elastic Compliance Matrix: (Units=1/GPa)
#
#
# Indices 1 2 3 4 5 6 
#
# 1 0.038861 -0.002116 -0.004140 0.000000 0.000000 0.000000
# 2 -0.002116 0.010179 0.001363 0.000000 0.000000 0.000000
# 3 -0.004140 0.001363 0.013187 0.000000 0.000000 0.000000
# 4 0.000000 0.000000 0.000000 0.025382 0.000000 0.000000
# 5 0.000000 0.000000 0.000000 0.000000 0.005769 0.000000
# 6 0.000000 0.000000 0.000000 0.000000 0.000000 0.037001
#
#
# Mechanical properties :
#
#
# Convention : Reuss Voigt Hill
#
# Bulk Modulus (GPa) = 19.06982 23.72118 21.39550
# Shear Modulus (GPa) = 31.71671 61.48076 46.59874
#
# Velocity S-wave (km/s) = 3.73822 5.20463 4.53114
# Velocity P-wave (km/s) = 5.19947 6.82416 6.06645
#
# Compressibility (1/GPa) = 0.05243888
#
# Stress axis : x y z
#
# Youngs Moduli (GPa) = 25.73269 98.24509 75.83425
#
# Poissons Ratio (x) = 0.20789 0.31397
# Poissons Ratio (y) = 0.05445 -0.10333
# Poissons Ratio (z) = 0.10654 -0.13387
#
# Static dielectric constant tensor:
#      x y z
#    x 1.860690 0.000000 0.000000 
#    y 0.000000 1.798870 0.000000 
#    z 0.000000 0.000000 1.859300 
# 
# From -- ./inp_files/5441.got.cif
#   From: 2010.05.17/outbox.cif.g08.bks.cpg/sg28_3_cif.got.tgz:5441.got - 2010.06.04 01:15:21.
