data_PCOD9339690
_publ_section_title
;
Structure prediction by ZEFSAII (Michael W. Deem and Ramdas Pophale) SiO2 
 PCOD9339690
Probable space group: P M A 2
;
_chemical_formula_sum "Si O2"
_cell_formula_units_Z 24
_cell_length_a 15.676434
_cell_length_b 8.500418
_cell_length_c 9.644148
_cell_angle_alpha 90.000000
_cell_angle_beta 90.000000
_cell_angle_gamma 90.000000
_cell_volume 1285.142917
_symmetry_space_group_name_H-M "P M A 2"
_symmetry_group_IT_number 28
_symmetry_cell_setting 'orthorhombic'
loop_
_space_group_symop_operation_xyz
x,y,z
-x,-y,z
1/2-x,y,z
1/2+x,-y,z
loop_
_atom_site_type_symbol
_atom_site_label
_atom_site_fract_x
_atom_site_fract_y
_atom_site_fract_z
Si Si1 0.649861 0.297869 0.510750
Si Si2 0.506728 0.686771 0.007562
Si Si3 0.916848 0.113413 0.779761
Si Si4 0.500166 0.812388 0.318645
Si Si5 0.844499 0.795371 0.815381
Si Si6 0.650008 0.675039 0.510120
O O1 0.750000 0.256604 0.491874
O O2 0.587313 0.249485 0.386715
O O3 0.644250 0.486626 0.523287
O O4 0.612638 0.209968 0.646053
O O5 0.500000 0.500000 0.016575
O O6 0.503307 0.761873 0.158917
O O7 0.438539 0.768294 0.904508
O O8 0.594785 0.727643 0.931616
O O9 0.847669 0.983810 0.821336
O O10 0.000000 0.000000 0.754724
O O11 0.581579 0.740002 0.400418
O O12 0.500000 0.000000 0.332031
O O13 0.750000 0.732964 0.833482
O O14 0.872273 0.746373 0.660451
O O15 0.750000 0.714876 0.478820
#
# Coordination Sequence:
#
# PCOD9339690 Si02
#       6
#     4   4   4   4   4   4
#     4  11  22  38  61  89 117 152 195 239 285 340
#     4  11  23  40  60  82 114 155 193 234 288 345
#     4  10  20  36  59  86 117 152 192 235 285 339
#     4  12  24  40  60  84 118 155 193 239 290 345
#     4  10  20  37  60  88 117 148 189 238 285 337
#     4  10  22  39  62  89 118 152 193 237 286 340
#
# _framework density 18.674966999999999
#
# number of rings (size 3 to 8) (size 9 to 14) (size 15 to 20)
#    0.000    1.333    0.000    8.000    0.000    2.667 
#    0.000    5.000    0.000    0.000    0.000    0.000 
#    0.000    0.000    0.000    0.000    0.000    0.000 
#
# Total GULP energy -134055.875540 kJ/mol
# GULP energy per Si atom -5585.661481 kJ/mol
# Density = 1.863246 g / cm^3
# Si number density = 18.674967 Si / 1000 Ang^3
#
#
#
# Elastic Constant Matrix: (Units=GPa)
#
#
# Indices 1 2 3 4 5 6 
#
# 1 107.6618 36.3945 71.9620 0.0000 0.0000 0.0000
# 2 36.3945 101.5456 22.8527 0.0000 0.0000 0.0000
# 3 71.9620 22.8527 120.4887 0.0000 0.0000 0.0000
# 4 0.0000 0.0000 0.0000 44.5222 0.0000 0.0000
# 5 0.0000 0.0000 0.0000 0.0000 10.4719 0.0000
# 6 0.0000 0.0000 0.0000 0.0000 0.0000 10.7752
#
#
#
# Elastic Compliance Matrix: (Units=1/GPa)
#
#
# Indices 1 2 3 4 5 6 
#
# 1 0.016846 -0.003942 -0.009314 0.000000 0.000000 0.000000
# 2 -0.003942 0.011209 0.000228 0.000000 0.000000 0.000000
# 3 -0.009314 0.000228 0.013819 0.000000 0.000000 0.000000
# 4 0.000000 0.000000 0.000000 0.022461 0.000000 0.000000
# 5 0.000000 0.000000 0.000000 0.000000 0.095494 0.000000
# 6 0.000000 0.000000 0.000000 0.000000 0.000000 0.092806
#
#
# Mechanical properties :
#
#
# Convention : Reuss Voigt Hill
#
# Bulk Modulus (GPa) = 63.21251 65.79050 64.50150
# Shear Modulus (GPa) = 17.60795 26.38633 21.99714
#
# Velocity S-wave (km/s) = 3.07394 3.76297 3.43577
# Velocity P-wave (km/s) = 6.82064 7.36109 7.09601
#
# Compressibility (1/GPa) = 0.01581965
#
# Stress axis : x y z
#
# Youngs Moduli (GPa) = 59.36041 89.21270 72.36446
#
# Poissons Ratio (x) = 0.35165 0.67399
# Poissons Ratio (y) = 0.23398 -0.01651
# Poissons Ratio (z) = 0.55287 -0.02036
#
# Static dielectric constant tensor:
#      x y z
#    x 1.659720 0.000000 0.000000 
#    y 0.000000 1.639070 0.000000 
#    z 0.000000 0.000000 1.603420 
# 
# From -- ./inp_files/3805.got.cif
#   From: 2010.05.17/outbox.cif.g08.bks.cpg/sg28_2_cif.got.tgz:3805.got - 2010.06.04 01:15:21.
