data_PCOD9339515
_publ_section_title
;
Structure prediction by ZEFSAII (Michael W. Deem and Ramdas Pophale) SiO2 
 PCOD9339515
Probable space group: P M A 2
;
_chemical_formula_sum "Si O2"
_cell_formula_units_Z 24
_cell_length_a 8.374746
_cell_length_b 26.430254
_cell_length_c 5.069497
_cell_angle_alpha 90.000000
_cell_angle_beta 90.000000
_cell_angle_gamma 90.000000
_cell_volume 1122.116249
_symmetry_space_group_name_H-M "P M A 2"
_symmetry_group_IT_number 28
_symmetry_cell_setting 'orthorhombic'
loop_
_space_group_symop_operation_xyz
x,y,z
-x,-y,z
1/2-x,y,z
1/2+x,-y,z
loop_
_atom_site_type_symbol
_atom_site_label
_atom_site_fract_x
_atom_site_fract_y
_atom_site_fract_z
Si Si1 0.438127 0.612253 0.709400
Si Si2 0.560109 0.225823 0.986539
Si Si3 0.944647 0.116936 0.199061
Si Si4 0.561386 0.555287 0.210717
Si Si5 0.442524 0.943784 0.696977
Si Si6 0.937996 0.718551 0.485623
O O1 0.250000 0.615989 0.758067
O O2 0.474192 0.572219 0.477930
O O3 0.502800 0.665403 0.601740
O O4 0.522164 0.594319 0.976948
O O5 0.750000 0.223093 0.937487
O O6 0.477942 0.240772 0.713282
O O7 0.503355 0.172130 0.103772
O O8 0.524729 0.266677 0.214260
O O9 0.750000 0.119017 0.204809
O O10 0.998152 0.097251 0.482430
O O11 0.993347 0.075402 0.983629
O O12 0.500000 0.500000 0.129435
O O13 0.750000 0.554187 0.258412
O O14 0.250000 0.944114 0.691818
O O15 0.500000 0.000000 0.637044
O O16 0.750000 0.716449 0.435513
#
# Coordination Sequence:
#
# PCOD9339515 Si02
#       6
#     4   4   4   4   4   4
#     4  12  25  44  67  94 125 166 213 256 301 364
#     4  11  22  41  66  90 116 160 211 252 295 364
#     4   9  19  35  57  80 109 147 193 240 289 347
#     4  12  25  44  67  96 130 167 207 256 311 365
#     4  10  19  34  54  80 110 146 187 236 291 350
#     4  12  25  42  62  92 129 162 196 252 316 366
#
# _framework density 21.388159000000002
#
# number of rings (size 3 to 8) (size 9 to 14) (size 15 to 20)
#    0.000    1.000    0.000    8.000    0.000    2.667 
#    0.000    5.000    0.000    0.000    0.000    0.000 
#    0.000    0.000    0.000    0.000    0.000    0.000 
#
# Total GULP energy -134356.701816 kJ/mol
# GULP energy per Si atom -5598.195909 kJ/mol
# Density = 2.133948 g / cm^3
# Si number density = 21.388159 Si / 1000 Ang^3
#
#
#
# Elastic Constant Matrix: (Units=GPa)
#
#
# Indices 1 2 3 4 5 6 
#
# 1 45.4274 1.0176 -17.5461 0.0000 0.0000 0.0000
# 2 1.0176 55.3738 -28.9627 0.0000 0.0000 0.0000
# 3 -17.5461 -28.9627 57.0637 0.0000 0.0000 0.0000
# 4 0.0000 0.0000 0.0000 36.3314 0.0000 0.0000
# 5 0.0000 0.0000 0.0000 0.0000 8.9172 0.0000
# 6 0.0000 0.0000 0.0000 0.0000 0.0000 28.0096
#
#
#
# Elastic Compliance Matrix: (Units=1/GPa)
#
#
# Indices 1 2 3 4 5 6 
#
# 1 0.025972 0.005037 0.010543 0.000000 0.000000 0.000000
# 2 0.005037 0.025563 0.014523 0.000000 0.000000 0.000000
# 3 0.010543 0.014523 0.028137 0.000000 0.000000 0.000000
# 4 0.000000 0.000000 0.000000 0.027524 0.000000 0.000000
# 5 0.000000 0.000000 0.000000 0.000000 0.112143 0.000000
# 6 0.000000 0.000000 0.000000 0.000000 0.000000 0.035702
#
#
# Mechanical properties :
#
#
# Convention : Reuss Voigt Hill
#
# Bulk Modulus (GPa) = 7.14912 7.43137 7.29025
# Shear Modulus (GPa) = 20.70713 28.20870 24.45791
#
# Velocity S-wave (km/s) = 3.11490 3.63560 3.38527
# Velocity P-wave (km/s) = 4.03567 4.59407 4.32389
#
# Compressibility (1/GPa) = 0.13987726
#
# Stress axis : x y z
#
# Youngs Moduli (GPa) = 38.50247 39.11951 35.54022
#
# Poissons Ratio (x) = -0.19704 -0.37468
# Poissons Ratio (y) = -0.19393 -0.51615
# Poissons Ratio (z) = -0.40591 -0.56814
#
# Static dielectric constant tensor:
#      x y z
#    x 1.741000 0.000000 0.000000 
#    y 0.000000 1.773470 0.000000 
#    z 0.000000 0.000000 1.739150 
# 
# From -- ./inp_files/223.got.cif
#   From: 2010.05.17/outbox.cif.g08.bks.cpg/sg28_1_cif.got.tgz:223.got - 2010.06.04 01:15:21.
