data_PCOD9339239
_publ_section_title
;
Structure prediction by ZEFSAII (Michael W. Deem and Ramdas Pophale) SiO2 
 PCOD9339239
Probable space group: P M A 2
;
_chemical_formula_sum "Si O2"
_cell_formula_units_Z 24
_cell_length_a 8.672604
_cell_length_b 9.197131
_cell_length_c 16.360215
_cell_angle_alpha 90.000000
_cell_angle_beta 90.000000
_cell_angle_gamma 90.000000
_cell_volume 1304.941058
_symmetry_space_group_name_H-M "P M A 2"
_symmetry_group_IT_number 28
_symmetry_cell_setting 'orthorhombic'
loop_
_space_group_symop_operation_xyz
x,y,z
-x,-y,z
1/2-x,y,z
1/2+x,-y,z
loop_
_atom_site_type_symbol
_atom_site_label
_atom_site_fract_x
_atom_site_fract_y
_atom_site_fract_z
Si Si1 0.934751 0.335360 0.424360
Si Si2 0.065399 0.663492 0.243655
Si Si3 0.934308 0.334561 0.758682
Si Si4 0.934069 0.665777 0.591075
Si Si5 0.565527 0.838795 0.090986
Si Si6 0.564834 0.663275 0.927768
O O1 0.750000 0.340237 0.433996
O O2 0.972349 0.274467 0.334379
O O3 0.000000 0.500000 0.420894
O O4 0.008479 0.266620 0.505592
O O5 0.250000 0.656364 0.237721
O O6 0.000000 0.500000 0.237953
O O7 0.998744 0.756987 0.170241
O O8 0.750000 0.338523 0.756416
O O9 0.000000 0.500000 0.760096
O O10 0.999735 0.267403 0.674819
O O11 0.994431 0.271294 0.844256
O O12 0.750000 0.660379 0.593823
O O13 0.000000 0.500000 0.589881
O O14 0.750000 0.842099 0.095656
O O15 0.500000 0.000000 0.087886
O O16 0.522889 0.753346 0.008178
O O17 0.500000 0.500000 0.937264
O O18 0.750000 0.656610 0.919834
#
# Coordination Sequence:
#
# PCOD9339239 Si02
#       6
#     4   4   4   4   4   4
#     4   9  16  26  41  65  96 130 165 203 245 293
#     4  10  20  34  54  78 106 137 173 214 257 305
#     4  10  17  26  42  65  95 130 164 202 245 294
#     4  10  16  23  37  60  94 131 163 200 243 292
#     4  11  24  39  56  76 102 134 171 214 261 311
#     4  10  20  34  52  76 102 132 168 209 253 301
#
# _framework density 18.391635999999998
#
# number of rings (size 3 to 8) (size 9 to 14) (size 15 to 20)
#    0.000    2.000    0.000    8.500    0.000    6.000 
#    0.000    0.000    0.000    0.000    0.000    1.167 
#    0.000    2.667    0.000    0.000    0.000    0.000 
#
# Total GULP energy -133851.843395 kJ/mol
# GULP energy per Si atom -5577.160141 kJ/mol
# Density = 1.834978 g / cm^3
# Si number density = 18.391636 Si / 1000 Ang^3
#
#
#
# Elastic Constant Matrix: (Units=GPa)
#
#
# Indices 1 2 3 4 5 6 
#
# 1 117.4099 22.4866 90.1012 0.0000 0.0000 0.0000
# 2 22.4866 40.1292 56.1523 0.0000 0.0000 0.0000
# 3 90.1012 56.1523 241.8843 0.0000 0.0000 0.0000
# 4 0.0000 0.0000 0.0000 -5.0597 0.0000 0.0000
# 5 0.0000 0.0000 0.0000 0.0000 37.1331 0.0000
# 6 0.0000 0.0000 0.0000 0.0000 0.0000 12.9649
#
#
#
# Elastic Compliance Matrix: (Units=1/GPa)
#
#
# Indices 1 2 3 4 5 6 
#
# 1 0.011939 -0.000692 -0.004287 0.000000 0.000000 0.000000
# 2 -0.000692 0.036949 -0.008320 0.000000 0.000000 0.000000
# 3 -0.004287 -0.008320 0.007662 0.000000 0.000000 0.000000
# 4 0.000000 0.000000 0.000000 -0.197640 0.000000 0.000000
# 5 0.000000 0.000000 0.000000 0.000000 0.026930 0.000000
# 6 0.000000 0.000000 0.000000 0.000000 0.000000 0.077131
#
#
# Mechanical properties :
#
#
# Convention : Reuss Voigt Hill
#
# Bulk Modulus (GPa) = 33.38459 81.87817 57.63138
# Shear Modulus (GPa) = -11213.48217 24.38654 -5594.54781
#
# Velocity S-wave (km/s) = -78.16835 3.64532 -55.21324
# Velocity P-wave (km/s) = 90.16021 7.89517 63.50799
#
# Compressibility (1/GPa) = 0.02995394
#
# Stress axis : x y z
#
# Youngs Moduli (GPa) = 83.75648 27.06427 130.50693
#
# Poissons Ratio (x) = 0.01872 0.55945
# Poissons Ratio (y) = 0.05795 1.08580
# Poissons Ratio (z) = 0.35904 0.22517
#
# Static dielectric constant tensor:
#      x y z
#    x 1.613260 0.000000 0.000000 
#    y 0.000000 1.582100 0.000000 
#    z 0.000000 0.000000 1.719650 
# 
# From -- ./inp_files/6688.got.cif
#   From: 2010.05.17/outbox.cif.g08.bks.cpg/sg28_4_cif.got.tgz:6688.got - 2010.06.04 01:15:21.
