data_PCOD9339920
_publ_section_title
;
Structure prediction by ZEFSAII (Michael W. Deem and Ramdas Pophale) SiO2 
 PCOD9339920
Probable space group: P M A 2
;
_chemical_formula_sum "Si O2"
_cell_formula_units_Z 20
_cell_length_a 30.983571
_cell_length_b 5.264063
_cell_length_c 5.042365
_cell_angle_alpha 90.000000
_cell_angle_beta 90.000000
_cell_angle_gamma 90.000000
_cell_volume 822.407058
_symmetry_space_group_name_H-M "P M A 2"
_symmetry_group_IT_number 28
_symmetry_cell_setting 'orthorhombic'
loop_
_space_group_symop_operation_xyz
x,y,z
-x,-y,z
1/2-x,y,z
1/2+x,-y,z
loop_
_atom_site_type_symbol
_atom_site_label
_atom_site_fract_x
_atom_site_fract_y
_atom_site_fract_z
Si Si1 0.155192 0.032018 0.454620
Si Si2 0.250000 0.926089 0.466588
Si Si3 0.971764 0.749369 0.619802
Si Si4 0.088419 0.263119 0.117596
Si Si5 0.654602 0.474320 0.803903
Si Si6 0.250000 0.615614 0.978941
O O1 0.122653 0.049954 0.210696
O O2 0.145888 0.281291 0.624262
O O3 0.205576 0.052821 0.380707
O O4 0.150843 0.779190 0.629767
O O5 0.250000 0.863900 0.779949
O O6 0.250000 0.669992 0.291464
O O7 0.942948 0.686553 0.363552
O O8 0.000000 0.500000 0.682055
O O9 0.941247 0.808178 0.869632
O O10 0.000000 0.000000 0.564817
O O11 0.118956 0.497391 0.031972
O O12 0.703713 0.501146 0.907844
#
# Coordination Sequence:
#
# PCOD9339920 Si02
#       6
#     4   2   4   4   4   2
#     4  11  27  48  76 115 158 205 258 312 371 452
#     4  10  25  45  71 107 160 208 252 305 371 437
#     4  12  30  54  80 113 152 195 250 324 408 478
#     4  12  28  51  84 114 152 200 258 323 388 468
#     4  11  27  48  76 115 158 205 258 312 371 452
#     4  10  25  45  71 107 160 208 252 305 371 437
#
# _framework density 24.318857999999999
#
# number of rings (size 3 to 8) (size 9 to 14) (size 15 to 20)
#    0.000    0.800    2.000    1.800   14.000    4.000 
#    0.000    0.000    0.000    0.000    0.000    0.000 
#    0.000    0.000    0.000    0.000    0.000    0.000 
#
# Total GULP energy -112027.611165 kJ/mol
# GULP energy per Si atom -5601.380558 kJ/mol
# Density = 2.426351 g / cm^3
# Si number density = 24.318858 Si / 1000 Ang^3
#
#
#
# Elastic Constant Matrix: (Units=GPa)
#
#
# Indices 1 2 3 4 5 6 
#
# 1 179.9903 46.8410 64.0601 0.0000 0.0000 0.0000
# 2 46.8410 151.6624 41.0316 0.0000 0.0000 0.0000
# 3 64.0601 41.0316 135.2032 0.0000 0.0000 0.0000
# 4 0.0000 0.0000 0.0000 35.0191 0.0000 0.0000
# 5 0.0000 0.0000 0.0000 0.0000 63.5962 0.0000
# 6 0.0000 0.0000 0.0000 0.0000 0.0000 74.9445
#
#
#
# Elastic Compliance Matrix: (Units=1/GPa)
#
#
# Indices 1 2 3 4 5 6 
#
# 1 0.006933 -0.001365 -0.002871 0.000000 0.000000 0.000000
# 2 -0.001365 0.007452 -0.001615 0.000000 0.000000 0.000000
# 3 -0.002871 -0.001615 0.009247 0.000000 0.000000 0.000000
# 4 0.000000 0.000000 0.000000 0.028556 0.000000 0.000000
# 5 0.000000 0.000000 0.000000 0.000000 0.015724 0.000000
# 6 0.000000 0.000000 0.000000 0.000000 0.000000 0.013343
#
#
# Mechanical properties :
#
#
# Convention : Reuss Voigt Hill
#
# Bulk Modulus (GPa) = 83.81655 85.63569 84.72612
# Shear Modulus (GPa) = 51.58276 55.70684 53.64480
#
# Velocity S-wave (km/s) = 4.61054 4.79130 4.70179
# Velocity P-wave (km/s) = 7.92989 8.11781 8.02440
#
# Compressibility (1/GPa) = 0.01193082
#
# Stress axis : x y z
#
# Youngs Moduli (GPa) = 144.24527 134.19296 108.14884
#
# Poissons Ratio (x) = 0.18311 0.31045
# Poissons Ratio (y) = 0.19682 0.17466
# Poissons Ratio (z) = 0.41407 0.21672
#
# Static dielectric constant tensor:
#      x y z
#    x 1.946660 0.000000 0.000000 
#    y 0.000000 1.966510 0.000000 
#    z 0.000000 0.000000 2.058390 
# 
# From -- ./inp_files/1842.got.cif
#   From: 2010.05.17/outbox.cif.g08.bks.cpg/sg28_1_cif.got.tgz:1842.got - 2010.06.04 01:15:21.
