data_PCOD9339875
_publ_section_title
;
Structure prediction by ZEFSAII (Michael W. Deem and Ramdas Pophale) SiO2 
 PCOD9339875
Probable space group: P M A 2
;
_chemical_formula_sum "Si O2"
_cell_formula_units_Z 28
_cell_length_a 18.250308
_cell_length_b 12.135503
_cell_length_c 5.468904
_cell_angle_alpha 90.000000
_cell_angle_beta 90.000000
_cell_angle_gamma 90.000000
_cell_volume 1211.234633
_symmetry_space_group_name_H-M "P M A 2"
_symmetry_group_IT_number 28
_symmetry_cell_setting 'orthorhombic'
loop_
_space_group_symop_operation_xyz
x,y,z
-x,-y,z
1/2-x,y,z
1/2+x,-y,z
loop_
_atom_site_type_symbol
_atom_site_label
_atom_site_fract_x
_atom_site_fract_y
_atom_site_fract_z
Si Si1 0.545826 0.787294 0.371600
Si Si2 0.976155 0.389545 0.043537
Si Si3 0.104028 0.806783 0.498266
Si Si4 0.381000 0.358826 0.731752
Si Si5 0.332015 0.151222 0.062289
Si Si6 0.334751 0.602267 0.724381
Si Si7 0.333523 0.905245 0.995315
O O1 0.495395 0.720666 0.184257
O O2 0.602797 0.701062 0.480776
O O3 0.600313 0.869532 0.244770
O O4 0.482891 0.826602 0.551493
O O5 0.000000 0.500000 0.190331
O O6 0.894164 0.385628 0.943224
O O7 0.038385 0.391776 0.831959
O O8 0.250000 0.633330 0.768130
O O9 0.130134 0.677583 0.508488
O O10 0.141957 0.847432 0.746944
O O11 0.125753 0.869135 0.247359
O O12 0.336840 0.470094 0.687800
O O13 0.348297 0.263070 0.908792
O O14 0.250000 0.161407 0.170356
O O15 0.333852 0.035156 0.924201
O O16 0.250000 0.875595 0.050808
#
# Coordination Sequence:
#
# PCOD9339875 Si02
#       7
#     4   4   4   4   4   4   4
#     4  11  24  42  70 103 137 188 235 301 364 431
#     4   9  20  38  65  94 141 189 234 286 359 436
#     4  12  26  45  74 109 150 195 249 293 365 446
#     4  10  22  43  69 101 140 184 241 301 370 432
#     4  10  25  48  73 103 140 187 245 309 377 434
#     4  11  22  41  70 104 144 189 243 304 361 443
#     4  11  26  50  76 105 149 197 243 307 367 433
#
# _framework density 23.116909
#
# number of rings (size 3 to 8) (size 9 to 14) (size 15 to 20)
#    0.000    1.429    1.429    2.571    6.000    1.714 
#    2.571    1.429    0.000    0.000    0.000    0.000 
#    0.000    0.000    0.000    0.000    0.000    0.000 
#
# Total GULP energy -156072.847806 kJ/mol
# GULP energy per Si atom -5574.030279 kJ/mol
# Density = 2.306429 g / cm^3
# Si number density = 23.116909 Si / 1000 Ang^3
#
#
#
# Elastic Constant Matrix: (Units=GPa)
#
#
# Indices 1 2 3 4 5 6 
#
# 1 151.4287 25.1991 12.2432 0.0000 0.0000 0.0000
# 2 25.1991 102.5653 19.7567 0.0000 0.0000 0.0000
# 3 12.2432 19.7567 54.3534 0.0000 0.0000 0.0000
# 4 0.0000 0.0000 0.0000 22.9838 0.0000 0.0000
# 5 0.0000 0.0000 0.0000 0.0000 20.6351 0.0000
# 6 0.0000 0.0000 0.0000 0.0000 0.0000 28.1137
#
#
#
# Elastic Compliance Matrix: (Units=1/GPa)
#
#
# Indices 1 2 3 4 5 6 
#
# 1 0.006937 -0.001509 -0.001014 0.000000 0.000000 0.000000
# 2 -0.001509 0.010812 -0.003590 0.000000 0.000000 0.000000
# 3 -0.001014 -0.003590 0.019932 0.000000 0.000000 0.000000
# 4 0.000000 0.000000 0.000000 0.043509 0.000000 0.000000
# 5 0.000000 0.000000 0.000000 0.000000 0.048461 0.000000
# 6 0.000000 0.000000 0.000000 0.000000 0.000000 0.035570
#
#
# Mechanical properties :
#
#
# Convention : Reuss Voigt Hill
#
# Bulk Modulus (GPa) = 39.28632 46.97171 43.12901
# Shear Modulus (GPa) = 26.89163 31.08975 28.99069
#
# Velocity S-wave (km/s) = 3.41440 3.67126 3.54516
# Velocity P-wave (km/s) = 5.70751 6.19146 5.95440
#
# Compressibility (1/GPa) = 0.02545416
#
# Stress axis : x y z
#
# Youngs Moduli (GPa) = 144.15740 92.48828 50.17182
#
# Poissons Ratio (x) = 0.13956 0.05088
# Poissons Ratio (y) = 0.21753 0.18013
# Poissons Ratio (z) = 0.14618 0.33205
#
# Static dielectric constant tensor:
#      x y z
#    x 1.875860 0.000000 0.000000 
#    y 0.000000 2.052800 0.000000 
#    z 0.000000 0.000000 1.915050 
# 
# From -- ./inp_files/1386.got.cif
#   From: 2010.05.17/outbox.cif.g08.bks.cpg/sg28_1_cif.got.tgz:1386.got - 2010.06.04 01:15:21.
