data_PCOD9339805
_publ_section_title
;
Structure prediction by ZEFSAII (Michael W. Deem and Ramdas Pophale) SiO2 
 PCOD9339805
Probable space group: P M A 2
;
_chemical_formula_sum "Si O2"
_cell_formula_units_Z 22
_cell_length_a 31.518175
_cell_length_b 4.904203
_cell_length_c 5.205160
_cell_angle_alpha 90.000000
_cell_angle_beta 90.000000
_cell_angle_gamma 90.000000
_cell_volume 804.569537
_symmetry_space_group_name_H-M "P M A 2"
_symmetry_group_IT_number 28
_symmetry_cell_setting 'orthorhombic'
loop_
_space_group_symop_operation_xyz
x,y,z
-x,-y,z
1/2-x,y,z
1/2+x,-y,z
loop_
_atom_site_type_symbol
_atom_site_label
_atom_site_fract_x
_atom_site_fract_y
_atom_site_fract_z
Si Si1 0.750000 0.639736 0.117270
Si Si2 0.069816 0.168992 0.171125
Si Si3 0.341214 0.311342 0.143914
Si Si4 0.750000 0.355054 0.514806
Si Si5 0.500000 0.500000 0.873855
Si Si6 0.572392 0.333139 0.524765
Si Si7 0.160930 0.815459 0.506499
O O1 0.704683 0.721032 0.009647
O O2 0.750000 0.312027 0.199986
O O3 0.750000 0.678263 0.432431
O O4 0.114060 0.228332 0.021577
O O5 0.074033 0.359349 0.423671
O O6 0.066692 0.864801 0.278450
O O7 0.029650 0.294073 0.030591
O O8 0.342514 0.615344 0.256757
O O9 0.339122 0.115373 0.393358
O O10 0.794024 0.261375 0.628061
O O11 0.532004 0.319357 0.704476
O O12 0.617351 0.252137 0.650120
#
# Coordination Sequence:
#
# PCOD9339805 Si02
#       7
#     2   4   4   2   2   4   4
#     4  10  21  38  68 102 140 186 234 290 354 432
#     4  10  24  44  66  98 138 179 233 299 357 437
#     4   9  19  40  64  93 135 177 227 284 355 423
#     4  10  21  38  68 102 140 186 234 290 354 432
#     4  12  26  42  76  98 136 186 250 290 392 426
#     4  10  24  44  66  98 138 179 233 299 357 437
#     4   9  19  40  64  93 135 177 227 284 355 423
#
# _framework density 27.343814999999999
#
# number of rings (size 3 to 8) (size 9 to 14) (size 15 to 20)
#    0.000    2.182    0.000    1.091    2.545    5.818 
#    0.000   14.545    0.000    0.000    0.000    0.000 
#    0.000    0.000    0.000    0.000    0.000    0.000 
#
# Total GULP energy -122807.871868 kJ/mol
# GULP energy per Si atom -5582.175994 kJ/mol
# Density = 2.728158 g / cm^3
# Si number density = 27.343815 Si / 1000 Ang^3
#
#
#
# Elastic Constant Matrix: (Units=GPa)
#
#
# Indices 1 2 3 4 5 6 
#
# 1 313.8737 26.1480 53.7740 0.0000 0.0000 0.0000
# 2 26.1480 70.4493 23.5382 0.0000 0.0000 0.0000
# 3 53.7740 23.5382 65.7823 0.0000 0.0000 0.0000
# 4 0.0000 0.0000 0.0000 41.9768 0.0000 0.0000
# 5 0.0000 0.0000 0.0000 0.0000 -113.1327 0.0000
# 6 0.0000 0.0000 0.0000 0.0000 0.0000 34.8943
#
#
#
# Elastic Compliance Matrix: (Units=1/GPa)
#
#
# Indices 1 2 3 4 5 6 
#
# 1 0.003715 -0.000414 -0.002889 0.000000 0.000000 0.000000
# 2 -0.000414 0.016168 -0.005447 0.000000 0.000000 0.000000
# 3 -0.002889 -0.005447 0.019512 0.000000 0.000000 0.000000
# 4 0.000000 0.000000 0.000000 0.023823 0.000000 0.000000
# 5 0.000000 0.000000 0.000000 0.000000 -0.008839 0.000000
# 6 0.000000 0.000000 0.000000 0.000000 0.000000 0.028658
#
#
# Mechanical properties :
#
#
# Convention : Reuss Voigt Hill
#
# Bulk Modulus (GPa) = 45.67018 73.00286 59.33652
# Shear Modulus (GPa) = 46.36664 15.85736 31.11200
#
# Velocity S-wave (km/s) = 4.12234 2.41078 3.37680
# Velocity P-wave (km/s) = 6.27668 5.87411 6.07873
#
# Compressibility (1/GPa) = 0.02189613
#
# Stress axis : x y z
#
# Youngs Moduli (GPa) = 269.14692 61.85012 51.24924
#
# Poissons Ratio (x) = 0.02559 0.14807
# Poissons Ratio (y) = 0.11135 0.27916
# Poissons Ratio (z) = 0.77761 0.33690
#
# Static dielectric constant tensor:
#      x y z
#    x 2.185460 0.000000 0.000000 
#    y 0.000000 2.060640 0.000000 
#    z 0.000000 0.000000 2.175780 
# 
# From -- ./inp_files/1864.got.cif
#   From: 2010.05.17/outbox.cif.g08.bks.cpg/sg28_1_cif.got.tgz:1864.got - 2010.06.04 01:15:21.
