data_PCOD9339788
_publ_section_title
;
Structure prediction by ZEFSAII (Michael W. Deem and Ramdas Pophale) SiO2 
 PCOD9339788
Probable space group: P M A 2
;
_chemical_formula_sum "Si O2"
_cell_formula_units_Z 32
_cell_length_a 15.526871
_cell_length_b 8.527911
_cell_length_c 12.342932
_cell_angle_alpha 90.000000
_cell_angle_beta 90.000000
_cell_angle_gamma 90.000000
_cell_volume 1634.349522
_symmetry_space_group_name_H-M "P M A 2"
_symmetry_group_IT_number 28
_symmetry_cell_setting 'orthorhombic'
loop_
_space_group_symop_operation_xyz
x,y,z
-x,-y,z
1/2-x,y,z
1/2+x,-y,z
loop_
_atom_site_type_symbol
_atom_site_label
_atom_site_fract_x
_atom_site_fract_y
_atom_site_fract_z
Si Si1 0.149595 0.667170 0.011680
Si Si2 0.508421 0.815291 0.413781
Si Si3 0.845889 0.213884 0.782107
Si Si4 0.152642 0.284778 0.574263
Si Si5 0.912998 0.891278 0.783696
Si Si6 0.083518 0.608212 0.581914
Si Si7 0.497760 0.310664 0.172227
Si Si8 0.352153 0.289944 0.998479
O O1 0.250000 0.706787 0.032619
O O2 0.085272 0.720788 0.105426
O O3 0.144726 0.479890 0.991443
O O4 0.119310 0.745393 0.900309
O O5 0.598209 0.765676 0.469558
O O6 0.435166 0.719652 0.479952
O O7 0.504696 0.768330 0.288843
O O8 0.500000 0.000000 0.428786
O O9 0.750000 0.282497 0.777001
O O10 0.900021 0.287914 0.686450
O O11 0.843315 0.028513 0.772394
O O12 0.250000 0.224339 0.575738
O O13 0.100980 0.219041 0.679175
O O14 0.154652 0.473838 0.572454
O O15 0.892828 0.792439 0.892187
O O16 0.000000 0.000000 0.785616
O O17 0.000000 0.500000 0.595102
O O18 0.500000 0.500000 0.186264
O O19 0.415268 0.258196 0.100392
O O20 0.250000 0.247162 0.009909
#
# Coordination Sequence:
#
# PCOD9339788 Si02
#       8
#     4   4   4   4   4   4   4   4
#     4   9  20  38  60  88 121 159 204 254 306 369
#     4  11  24  42  61  85 119 156 199 250 309 376
#     4  11  21  34  55  86 121 149 184 238 298 356
#     4  11  22  39  63  88 118 157 204 254 305 367
#     4  12  23  36  57  88 125 164 199 245 309 371
#     4  10  21  38  60  85 113 153 198 241 293 362
#     4  10  21  39  61  84 115 158 207 257 306 361
#     4  10  21  38  61  88 119 158 206 253 304 372
#
# _framework density 19.579656
#
# number of rings (size 3 to 8) (size 9 to 14) (size 15 to 20)
#    0.000    1.500    0.000    6.750    0.000    4.500 
#    0.000    5.000    0.000    0.000    0.000    0.000 
#    0.000    0.000    0.000    0.000    0.000    0.000 
#
# Total GULP energy -178569.098006 kJ/mol
# GULP energy per Si atom -5580.284313 kJ/mol
# Density = 1.953509 g / cm^3
# Si number density = 19.579656 Si / 1000 Ang^3
#
#
#
# Elastic Constant Matrix: (Units=GPa)
#
#
# Indices 1 2 3 4 5 6 
#
# 1 127.7842 37.2521 68.0946 0.0000 0.0000 0.0000
# 2 37.2521 86.4794 75.4993 0.0000 0.0000 0.0000
# 3 68.0946 75.4993 168.9489 0.0000 0.0000 0.0000
# 4 0.0000 0.0000 0.0000 76.4604 0.0000 0.0000
# 5 0.0000 0.0000 0.0000 0.0000 12.5908 0.0000
# 6 0.0000 0.0000 0.0000 0.0000 0.0000 23.1091
#
#
#
# Elastic Compliance Matrix: (Units=1/GPa)
#
#
# Indices 1 2 3 4 5 6 
#
# 1 0.010055 -0.001301 -0.003471 0.000000 0.000000 0.000000
# 2 -0.001301 0.019129 -0.008024 0.000000 0.000000 0.000000
# 3 -0.003471 -0.008024 0.010904 0.000000 0.000000 0.000000
# 4 0.000000 0.000000 0.000000 0.013079 0.000000 0.000000
# 5 0.000000 0.000000 0.000000 0.000000 0.079423 0.000000
# 6 0.000000 0.000000 0.000000 0.000000 0.000000 0.043273
#
#
# Mechanical properties :
#
#
# Convention : Reuss Voigt Hill
#
# Bulk Modulus (GPa) = 68.98706 82.76717 75.87711
# Shear Modulus (GPa) = 24.23823 35.92317 30.08070
#
# Velocity S-wave (km/s) = 3.52224 4.28801 3.92385
# Velocity P-wave (km/s) = 7.20084 8.17801 7.70493
#
# Compressibility (1/GPa) = 0.01449547
#
# Stress axis : x y z
#
# Youngs Moduli (GPa) = 99.45631 52.27665 91.71092
#
# Poissons Ratio (x) = 0.06799 0.31836
# Poissons Ratio (y) = 0.12936 0.73590
# Poissons Ratio (z) = 0.34524 0.41947
#
# Static dielectric constant tensor:
#      x y z
#    x 1.768780 0.000000 0.000000 
#    y 0.000000 1.707670 0.000000 
#    z 0.000000 0.000000 1.646310 
# 
# From -- ./inp_files/5564.got.cif
#   From: 2010.05.17/outbox.cif.g08.bks.cpg/sg28_3_cif.got.tgz:5564.got - 2010.06.04 01:15:21.
