data_PCOD9339518
_publ_section_title
;
Structure prediction by ZEFSAII (Michael W. Deem and Ramdas Pophale) SiO2 
 PCOD9339518
Probable space group: P M A 2
;
_chemical_formula_sum "Si O2"
_cell_formula_units_Z 32
_cell_length_a 16.657608
_cell_length_b 5.144137
_cell_length_c 19.047957
_cell_angle_alpha 90.000000
_cell_angle_beta 90.000000
_cell_angle_gamma 90.000000
_cell_volume 1632.200723
_symmetry_space_group_name_H-M "P M A 2"
_symmetry_group_IT_number 28
_symmetry_cell_setting 'orthorhombic'
loop_
_space_group_symop_operation_xyz
x,y,z
-x,-y,z
1/2-x,y,z
1/2+x,-y,z
loop_
_atom_site_type_symbol
_atom_site_label
_atom_site_fract_x
_atom_site_fract_y
_atom_site_fract_z
Si Si1 0.657345 0.391270 0.316860
Si Si2 0.942453 0.746716 0.699482
Si Si3 0.596626 0.499590 0.161831
Si Si4 0.842478 0.909109 0.409449
Si Si5 0.443159 0.246853 0.544958
Si Si6 0.904794 0.061497 0.913835
Si Si7 0.097718 0.991576 0.077483
Si Si8 0.343141 0.426575 0.834045
O O1 0.750000 0.317762 0.301961
O O2 0.617370 0.463303 0.243205
O O3 0.656215 0.655016 0.361111
O O4 0.623130 0.154200 0.364663
O O5 0.902408 0.748383 0.622070
O O6 0.882405 0.678723 0.762096
O O7 0.000000 0.500000 0.696562
O O8 0.000000 0.000000 0.711376
O O9 0.500000 0.500000 0.157103
O O10 0.625489 0.749111 0.117700
O O11 0.628171 0.247580 0.122500
O O12 0.750000 0.977773 0.426466
O O13 0.886488 0.820142 0.480038
O O14 0.500000 0.500000 0.534003
O O15 0.500000 0.000000 0.550541
O O16 0.885567 0.323382 0.870201
O O17 0.855553 0.819120 0.884332
O O18 0.000000 0.000000 0.906949
O O19 0.883986 0.066317 0.996364
O O20 0.000000 0.000000 0.079969
O O21 0.250000 0.490834 0.824071
#
# Coordination Sequence:
#
# PCOD9339518 Si02
#       8
#     4   4   4   4   4   4   4   4
#     4  10  21  36  53  78 110 148 187 223 273 343
#     4  10  21  39  61  84 114 154 195 232 284 354
#     4  10  19  34  55  80 107 138 182 237 283 326
#     4  10  21  37  56  78 112 151 186 225 279 344
#     4  10  21  37  59  87 114 143 189 243 283 330
#     4  11  22  40  64  85 113 159 200 235 290 360
#     4   9  19  35  56  80 106 140 188 235 279 335
#     4  12  24  38  58  90 124 151 191 248 294 340
#
# _framework density 19.605433999999999
#
# number of rings (size 3 to 8) (size 9 to 14) (size 15 to 20)
#    0.000    1.750    0.000    4.875    0.000    4.000 
#    0.000    3.750    0.000    7.500    0.000    0.000 
#    0.000    0.000    0.000    0.000    0.000    0.000 
#
# Total GULP energy -178450.582016 kJ/mol
# GULP energy per Si atom -5576.580688 kJ/mol
# Density = 1.956081 g / cm^3
# Si number density = 19.605434 Si / 1000 Ang^3
#
#
#
# Elastic Constant Matrix: (Units=GPa)
#
#
# Indices 1 2 3 4 5 6 
#
# 1 33.1627 15.5235 40.1545 0.0000 0.0000 0.0000
# 2 15.5235 135.5211 41.3670 0.0000 0.0000 0.0000
# 3 40.1545 41.3670 153.8592 0.0000 0.0000 0.0000
# 4 0.0000 0.0000 0.0000 31.1872 0.0000 0.0000
# 5 0.0000 0.0000 0.0000 0.0000 178.4325 0.0000
# 6 0.0000 0.0000 0.0000 0.0000 0.0000 10.7939
#
#
#
# Elastic Compliance Matrix: (Units=1/GPa)
#
#
# Indices 1 2 3 4 5 6 
#
# 1 0.044438 -0.001689 -0.011143 0.000000 0.000000 0.000000
# 2 -0.001689 0.008103 -0.001738 0.000000 0.000000 0.000000
# 3 -0.011143 -0.001738 0.009875 0.000000 0.000000 0.000000
# 4 0.000000 0.000000 0.000000 0.032064 0.000000 0.000000
# 5 0.000000 0.000000 0.000000 0.000000 0.005604 0.000000
# 6 0.000000 0.000000 0.000000 0.000000 0.000000 0.092645
#
#
# Mechanical properties :
#
#
# Convention : Reuss Voigt Hill
#
# Bulk Modulus (GPa) = 30.05215 57.40368 43.72791
# Shear Modulus (GPa) = 21.46284 59.11592 40.28938
#
# Velocity S-wave (km/s) = 3.31227 5.49712 4.53814
# Velocity P-wave (km/s) = 5.47631 8.34470 7.05776
#
# Compressibility (1/GPa) = 0.03327549
#
# Stress axis : x y z
#
# Youngs Moduli (GPa) = 22.50346 123.41382 101.26675
#
# Poissons Ratio (x) = 0.20841 1.12845
# Poissons Ratio (y) = 0.03800 0.17598
# Poissons Ratio (z) = 0.25076 0.21447
#
# Static dielectric constant tensor:
#      x y z
#    x 1.653420 0.000000 0.000000 
#    y 0.000000 1.665460 0.000000 
#    z 0.000000 0.000000 1.773980 
# 
# From -- ./inp_files/6984.got.cif
#   From: 2010.05.17/outbox.cif.g08.bks.cpg/sg28_4_cif.got.tgz:6984.got - 2010.06.04 01:15:21.
