data_PCOD9339675
_publ_section_title
;
Structure prediction by ZEFSAII (Michael W. Deem and Ramdas Pophale) SiO2 
 PCOD9339675
Probable space group: P M A 2
;
_chemical_formula_sum "Si O2"
_cell_formula_units_Z 24
_cell_length_a 8.624868
_cell_length_b 9.543320
_cell_length_c 15.848147
_cell_angle_alpha 90.000000
_cell_angle_beta 90.000000
_cell_angle_gamma 90.000000
_cell_volume 1304.459003
_symmetry_space_group_name_H-M "P M A 2"
_symmetry_group_IT_number 28
_symmetry_cell_setting 'orthorhombic'
loop_
_space_group_symop_operation_xyz
x,y,z
-x,-y,z
1/2-x,y,z
1/2+x,-y,z
loop_
_atom_site_type_symbol
_atom_site_label
_atom_site_fract_x
_atom_site_fract_y
_atom_site_fract_z
Si Si1 0.062928 0.842782 0.552720
Si Si2 0.563559 0.342501 0.392240
Si Si3 0.936809 0.156357 0.870528
Si Si4 0.062454 0.657023 0.713367
Si Si5 0.934905 0.656598 0.211957
Si Si6 0.563707 0.156564 0.061706
O O1 0.250000 0.849076 0.553791
O O2 0.016275 0.759669 0.468116
O O3 0.013272 0.751679 0.633747
O O4 0.000000 0.000000 0.555445
O O5 0.500000 0.500000 0.406308
O O6 0.750000 0.349472 0.388875
O O7 0.500030 0.291681 0.302006
O O8 0.750000 0.148734 0.867428
O O9 0.988629 0.264591 0.798995
O O10 0.980350 0.199709 0.965915
O O11 0.000000 0.000000 0.854823
O O12 0.250000 0.651420 0.713192
O O13 0.000000 0.500000 0.707556
O O14 0.750000 0.653546 0.215295
O O15 0.000000 0.500000 0.202066
O O16 0.992730 0.747323 0.133772
O O17 0.750000 0.157385 0.067878
O O18 0.500000 0.000000 0.072799
#
# Coordination Sequence:
#
# PCOD9339675 Si02
#       6
#     4   4   4   4   4   4
#     4  10  22  37  56  81 110 141 178 220 265 317
#     4  10  20  36  56  80 108 141 180 224 269 321
#     4   9  19  35  56  80 109 142 180 222 267 317
#     4  10  21  37  55  81 111 142 179 220 264 316
#     4  11  22  37  57  81 109 145 183 226 275 325
#     4  10  20  36  56  81 111 145 183 226 272 324
#
# _framework density 18.398430999999999
#
# number of rings (size 3 to 8) (size 9 to 14) (size 15 to 20)
#    0.000    2.000    0.000    4.500    0.000    4.667 
#    0.000    3.333    0.000    0.000    0.000    0.000 
#    0.000    0.000    0.000    0.000    0.000    0.000 
#
# Total GULP energy -134037.366138 kJ/mol
# GULP energy per Si atom -5584.890256 kJ/mol
# Density = 1.835656 g / cm^3
# Si number density = 18.398431 Si / 1000 Ang^3
#
#
#
# Elastic Constant Matrix: (Units=GPa)
#
#
# Indices 1 2 3 4 5 6 
#
# 1 57.8135 36.0431 53.8366 0.0000 0.0000 0.0000
# 2 36.0431 130.2021 126.8865 0.0000 0.0000 0.0000
# 3 53.8366 126.8865 206.2029 0.0000 0.0000 0.0000
# 4 0.0000 0.0000 0.0000 43.2925 0.0000 0.0000
# 5 0.0000 0.0000 0.0000 0.0000 -16.4827 0.0000
# 6 0.0000 0.0000 0.0000 0.0000 0.0000 36.4225
#
#
#
# Elastic Compliance Matrix: (Units=1/GPa)
#
#
# Indices 1 2 3 4 5 6 
#
# 1 0.022939 -0.001283 -0.005200 0.000000 0.000000 0.000000
# 2 -0.001283 0.019257 -0.011515 0.000000 0.000000 0.000000
# 3 -0.005200 -0.011515 0.013293 0.000000 0.000000 0.000000
# 4 0.000000 0.000000 0.000000 0.023099 0.000000 0.000000
# 5 0.000000 0.000000 0.000000 0.000000 -0.060670 0.000000
# 6 0.000000 0.000000 0.000000 0.000000 0.000000 0.027456
#
#
# Mechanical properties :
#
#
# Convention : Reuss Voigt Hill
#
# Bulk Modulus (GPa) = 51.29781 91.97232 71.63507
# Shear Modulus (GPa) = 56.90493 24.47661 40.69077
#
# Velocity S-wave (km/s) = 5.56744 3.65137 4.70791
# Velocity P-wave (km/s) = 8.32290 8.23859 8.28085
#
# Compressibility (1/GPa) = 0.01949401
#
# Stress axis : x y z
#
# Youngs Moduli (GPa) = 43.59455 51.92863 75.22851
#
# Poissons Ratio (x) = 0.06661 0.39116
# Poissons Ratio (y) = 0.05592 0.86625
# Poissons Ratio (z) = 0.22667 0.59796
#
# Static dielectric constant tensor:
#      x y z
#    x 1.620550 0.000000 0.000000 
#    y 0.000000 1.577330 0.000000 
#    z 0.000000 0.000000 1.643940 
# 
# From -- ./inp_files/6020.got.cif
#   From: 2010.05.17/outbox.cif.g08.bks.cpg/sg28_4_cif.got.tgz:6020.got - 2010.06.04 01:15:21.
