data_PCOD9339619
_publ_section_title
;
Structure prediction by ZEFSAII (Michael W. Deem and Ramdas Pophale) SiO2 
 PCOD9339619
Probable space group: P M A 2
;
_chemical_formula_sum "Si O2"
_cell_formula_units_Z 32
_cell_length_a 8.855964
_cell_length_b 15.044694
_cell_length_c 12.597901
_cell_angle_alpha 90.000000
_cell_angle_beta 90.000000
_cell_angle_gamma 90.000000
_cell_volume 1678.484722
_symmetry_space_group_name_H-M "P M A 2"
_symmetry_group_IT_number 28
_symmetry_cell_setting 'orthorhombic'
loop_
_space_group_symop_operation_xyz
x,y,z
-x,-y,z
1/2-x,y,z
1/2+x,-y,z
loop_
_atom_site_type_symbol
_atom_site_label
_atom_site_fract_x
_atom_site_fract_y
_atom_site_fract_z
Si Si1 0.576647 0.633660 0.391090
Si Si2 0.076672 0.162993 0.318481
Si Si3 0.930531 0.407169 0.615800
Si Si4 0.932494 0.099181 0.896750
Si Si5 0.068007 0.407782 0.150683
Si Si6 0.567110 0.222225 0.701458
Si Si7 0.929349 0.088047 0.519462
Si Si8 0.069347 0.780719 0.100834
O O1 0.750000 0.604304 0.409517
O O2 0.576772 0.739356 0.372107
O O3 0.479801 0.608660 0.493253
O O4 0.524974 0.597812 0.276291
O O5 0.250000 0.136582 0.300334
O O6 0.996198 0.100915 0.402991
O O7 0.990188 0.173552 0.208240
O O8 0.750000 0.410729 0.619932
O O9 0.984727 0.323436 0.686417
O O10 0.000000 0.500000 0.651439
O O11 0.750000 0.090984 0.890504
O O12 0.985290 0.161255 0.798729
O O13 0.969057 0.155303 0.002625
O O14 0.000000 0.000000 0.895591
O O15 0.250000 0.407331 0.145224
O O16 0.000000 0.500000 0.108084
O O17 0.004713 0.317672 0.097625
O O18 0.750000 0.225440 0.709711
O O19 0.529910 0.170930 0.593167
O O20 0.750000 0.080706 0.515096
O O21 0.000000 0.000000 0.569025
O O22 0.250000 0.770045 0.104750
#
# Coordination Sequence:
#
# PCOD9339619 Si02
#       8
#     4   4   4   4   4   4   4   4
#     4   9  18  32  51  78 112 151 192 232 276 329
#     4  10  20  35  55  81 117 154 190 238 286 341
#     4  11  21  34  54  81 114 153 191 232 279 336
#     4  10  22  42  66  89 112 145 192 244 297 350
#     4  10  20  34  54  83 119 158 198 242 288 343
#     4   9  20  39  60  83 115 150 188 237 290 343
#     4  11  21  35  56  84 115 151 189 230 288 352
#     4  10  21  37  59  85 116 154 194 241 294 348
#
# _framework density 19.064813999999998
#
# number of rings (size 3 to 8) (size 9 to 14) (size 15 to 20)
#    0.000    2.000    1.250    3.375    0.000    5.000 
#    0.000    3.750    0.000    1.500    0.000    0.000 
#    0.000    0.000    0.000    0.000    0.000    0.000 
#
# Total GULP energy -178592.771740 kJ/mol
# GULP energy per Si atom -5581.024117 kJ/mol
# Density = 1.902142 g / cm^3
# Si number density = 19.064814 Si / 1000 Ang^3
#
#
#
# Elastic Constant Matrix: (Units=GPa)
#
#
# Indices 1 2 3 4 5 6 
#
# 1 51.3821 49.3395 40.0495 0.0000 0.0000 0.0000
# 2 49.3395 165.1906 71.9392 0.0000 0.0000 0.0000
# 3 40.0495 71.9392 96.1617 0.0000 0.0000 0.0000
# 4 0.0000 0.0000 0.0000 16.9534 0.0000 0.0000
# 5 0.0000 0.0000 0.0000 0.0000 9.9438 0.0000
# 6 0.0000 0.0000 0.0000 0.0000 0.0000 34.4793
#
#
#
# Elastic Compliance Matrix: (Units=1/GPa)
#
#
# Indices 1 2 3 4 5 6 
#
# 1 0.031918 -0.005554 -0.009139 0.000000 0.000000 0.000000
# 2 -0.005554 0.009945 -0.005127 0.000000 0.000000 0.000000
# 3 -0.009139 -0.005127 0.018041 0.000000 0.000000 0.000000
# 4 0.000000 0.000000 0.000000 0.058985 0.000000 0.000000
# 5 0.000000 0.000000 0.000000 0.000000 0.100565 0.000000
# 6 0.000000 0.000000 0.000000 0.000000 0.000000 0.029003
#
#
# Mechanical properties :
#
#
# Convention : Reuss Voigt Hill
#
# Bulk Modulus (GPa) = 49.34511 70.59898 59.97205
# Shear Modulus (GPa) = 16.95776 22.36905 19.66340
#
# Velocity S-wave (km/s) = 2.98565 3.42909 3.21502
# Velocity P-wave (km/s) = 6.15016 7.26565 6.73105
#
# Compressibility (1/GPa) = 0.02026543
#
# Stress axis : x y z
#
# Youngs Moduli (GPa) = 31.33051 100.55136 55.42984
#
# Poissons Ratio (x) = 0.55841 0.50655
# Poissons Ratio (y) = 0.17399 0.28420
# Poissons Ratio (z) = 0.28632 0.51554
#
# Static dielectric constant tensor:
#      x y z
#    x 1.647630 0.000000 0.000000 
#    y 0.000000 1.691960 0.000000 
#    z 0.000000 0.000000 1.648770 
# 
# From -- ./inp_files/5005.got.cif
#   From: 2010.05.17/outbox.cif.g08.bks.cpg/sg28_3_cif.got.tgz:5005.got - 2010.06.04 01:15:21.
