data_PCOD9339341
_publ_section_title
;
Structure prediction by ZEFSAII (Michael W. Deem and Ramdas Pophale) SiO2 
 PCOD9339341
Probable space group: P M A 2
;
_chemical_formula_sum "Si O2"
_cell_formula_units_Z 32
_cell_length_a 14.885097
_cell_length_b 9.448330
_cell_length_c 9.075632
_cell_angle_alpha 90.000000
_cell_angle_beta 90.000000
_cell_angle_gamma 90.000000
_cell_volume 1276.390609
_symmetry_space_group_name_H-M "P M A 2"
_symmetry_group_IT_number 28
_symmetry_cell_setting 'orthorhombic'
loop_
_space_group_symop_operation_xyz
x,y,z
-x,-y,z
1/2-x,y,z
1/2+x,-y,z
loop_
_atom_site_type_symbol
_atom_site_label
_atom_site_fract_x
_atom_site_fract_y
_atom_site_fract_z
Si Si1 0.648201 0.355986 0.296900
Si Si2 0.146172 0.508155 0.625235
Si Si3 0.645424 0.756529 0.472420
Si Si4 0.143923 0.210989 0.143100
Si Si5 0.643928 0.190033 0.694404
Si Si6 0.147291 0.908777 0.999370
Si Si7 0.590996 0.063551 0.418746
Si Si8 0.518447 0.357506 0.032673
O O1 0.750000 0.387113 0.246609
O O2 0.639590 0.426732 0.458203
O O3 0.636571 0.185168 0.320940
O O4 0.573570 0.405883 0.181435
O O5 0.250000 0.485123 0.669755
O O6 0.105628 0.350853 0.594382
O O7 0.121023 0.644380 0.725957
O O8 0.750000 0.717058 0.464906
O O9 0.610163 0.740862 0.305066
O O10 0.643888 0.926930 0.478279
O O11 0.250000 0.236252 0.133263
O O12 0.081804 0.297130 0.037182
O O13 0.130731 0.046165 0.098773
O O14 0.750000 0.194560 0.641121
O O15 0.643549 0.072921 0.822341
O O16 0.573736 0.145946 0.570057
O O17 0.250000 0.862064 0.027815
O O18 0.077754 0.781607 0.007581
O O19 0.500000 0.000000 0.353769
O O20 0.500000 0.500000 0.943078
#
# Coordination Sequence:
#
# PCOD9339341 Si02
#       8
#     4   4   4   4   4   4   4   4
#     4  10  20  37  58  82 118 161 199 235 292 370
#     4   8  16  32  57  84 112 147 184 232 292 355
#     4  10  18  32  55  84 114 142 182 237 298 354
#     4  10  22  39  60  87 122 163 203 250 309 378
#     4   9  19  39  61  80 107 151 202 244 295 361
#     4  10  22  42  64  83 113 162 213 257 306 373
#     4  11  21  32  52  85 120 154 195 243 290 346
#     4  12  24  37  59  89 120 152 198 258 321 385
#
# _framework density 25.070692999999999
#
# number of rings (size 3 to 8) (size 9 to 14) (size 15 to 20)
#    0.000    2.000    0.000    4.875    0.000    4.000 
#    0.000    4.375    0.000    4.500    0.000    0.000 
#    0.000    0.000    0.000    0.000    0.000    0.000 
#
# Total GULP energy -178141.005275 kJ/mol
# GULP energy per Si atom -5566.906415 kJ/mol
# Density = 2.501363 g / cm^3
# Si number density = 25.070693 Si / 1000 Ang^3
#
#
#
# Elastic Constant Matrix: (Units=GPa)
#
#
# Indices 1 2 3 4 5 6 
#
# 1 79.5044 27.0729 1.6545 0.0000 0.0000 0.0000
# 2 27.0729 123.8984 -22.4620 0.0000 0.0000 0.0000
# 3 1.6545 -22.4620 8.7200 0.0000 0.0000 0.0000
# 4 0.0000 0.0000 0.0000 13.8505 0.0000 0.0000
# 5 0.0000 0.0000 0.0000 0.0000 10.1966 0.0000
# 6 0.0000 0.0000 0.0000 0.0000 0.0000 15.1859
#
#
#
# Elastic Compliance Matrix: (Units=1/GPa)
#
#
# Indices 1 2 3 4 5 6 
#
# 1 0.015547 -0.007377 -0.021952 0.000000 0.000000 0.000000
# 2 -0.007377 0.018643 0.049423 0.000000 0.000000 0.000000
# 3 -0.021952 0.049423 0.246153 0.000000 0.000000 0.000000
# 4 0.000000 0.000000 0.000000 0.072200 0.000000 0.000000
# 5 0.000000 0.000000 0.000000 0.000000 0.098072 0.000000
# 6 0.000000 0.000000 0.000000 0.000000 0.000000 0.065851
#
#
# Mechanical properties :
#
#
# Convention : Reuss Voigt Hill
#
# Bulk Modulus (GPa) = 3.11983 24.96150 14.04067
# Shear Modulus (GPa) = 8.57456 21.57043 15.07250
#
# Velocity S-wave (km/s) = 1.85137 2.93641 2.45460
# Velocity P-wave (km/s) = 2.41189 4.63409 3.69405
#
# Compressibility (1/GPa) = 0.32053021
#
# Stress axis : x y z
#
# Youngs Moduli (GPa) = 64.32224 53.63926 4.06252
#
# Poissons Ratio (x) = 0.39569 0.08918
# Poissons Ratio (y) = 0.47450 -0.20078
# Poissons Ratio (z) = 1.41200 -2.65100
#
# Static dielectric constant tensor:
#      x y z
#    x 1.949310 0.000000 0.000000 
#    y 0.000000 2.062890 0.000000 
#    z 0.000000 0.000000 2.090030 
# 
# From -- ./inp_files/5551.got.cif
#   From: 2010.05.17/outbox.cif.g08.bks.cpg/sg28_3_cif.got.tgz:5551.got - 2010.06.04 01:15:21.
