data_PCOD9339567
_publ_section_title
;
Structure prediction by ZEFSAII (Michael W. Deem and Ramdas Pophale) SiO2 
 PCOD9339567
Probable space group: P M A 2
;
_chemical_formula_sum "Si O2"
_cell_formula_units_Z 32
_cell_length_a 15.407338
_cell_length_b 11.975643
_cell_length_c 7.622922
_cell_angle_alpha 90.000000
_cell_angle_beta 90.000000
_cell_angle_gamma 90.000000
_cell_volume 1406.526526
_symmetry_space_group_name_H-M "P M A 2"
_symmetry_group_IT_number 28
_symmetry_cell_setting 'orthorhombic'
loop_
_space_group_symop_operation_xyz
x,y,z
-x,-y,z
1/2-x,y,z
1/2+x,-y,z
loop_
_atom_site_type_symbol
_atom_site_label
_atom_site_fract_x
_atom_site_fract_y
_atom_site_fract_z
Si Si1 0.978304 0.204110 0.008070
Si Si2 0.896283 0.515853 0.241322
Si Si3 0.605378 0.724879 0.478431
Si Si4 0.847991 0.022923 0.949562
Si Si5 0.922695 0.936049 0.299726
Si Si6 0.564061 0.393324 0.564789
Si Si7 0.155048 0.236321 0.852856
Si Si8 0.847683 0.379736 0.941033
O O1 0.019561 0.141151 0.170764
O O2 0.906136 0.294031 0.050417
O O3 0.061339 0.268249 0.929926
O O4 0.924739 0.109262 0.899601
O O5 0.875280 0.635288 0.327239
O O6 0.876705 0.427468 0.398751
O O7 0.000000 0.500000 0.214874
O O8 0.853292 0.492044 0.055382
O O9 0.627213 0.849547 0.418674
O O10 0.502253 0.706902 0.519353
O O11 0.653616 0.709094 0.661337
O O12 0.750000 0.064013 0.919157
O O13 0.854324 0.900389 0.860046
O O14 0.863682 0.002247 0.159804
O O15 0.000000 0.000000 0.399200
O O16 0.500000 0.500000 0.586891
O O17 0.613823 0.381566 0.746239
O O18 0.250000 0.258016 0.935410
O O19 0.750000 0.341971 0.932257
#
# Coordination Sequence:
#
# PCOD9339567 Si02
#       8
#     4   4   4   4   4   4   4   4
#     4  10  19  38  60  85 123 162 208 260 321 391
#     4   9  21  40  64  85 123 168 210 262 323 383
#     4  10  19  38  59  87 122 168 205 262 327 381
#     4   9  19  36  56  87 124 163 206 257 315 386
#     4   9  19  33  59  88 118 165 208 252 311 381
#     4   9  20  40  62  83 120 169 209 264 317 384
#     4  10  20  34  58  86 119 160 205 257 315 382
#     4  12  23  37  64  95 123 165 216 267 323 392
#
# _framework density 22.751080999999999
#
# number of rings (size 3 to 8) (size 9 to 14) (size 15 to 20)
#    0.000    2.500    1.250    3.375    0.000    2.500 
#    2.250    1.875    0.000    0.750    0.000    0.000 
#    0.000    0.000    0.000    0.000    0.000    0.000 
#
# Total GULP energy -178367.358051 kJ/mol
# GULP energy per Si atom -5573.979939 kJ/mol
# Density = 2.269930 g / cm^3
# Si number density = 22.751081 Si / 1000 Ang^3
#
#
#
# Elastic Constant Matrix: (Units=GPa)
#
#
# Indices 1 2 3 4 5 6 
#
# 1 121.3937 13.2959 20.2819 0.0000 0.0000 0.0000
# 2 13.2959 41.6882 -0.4848 0.0000 0.0000 0.0000
# 3 20.2819 -0.4848 52.3665 0.0000 0.0000 0.0000
# 4 0.0000 0.0000 0.0000 18.9418 0.0000 0.0000
# 5 0.0000 0.0000 0.0000 0.0000 4.1111 0.0000
# 6 0.0000 0.0000 0.0000 0.0000 0.0000 15.0690
#
#
#
# Elastic Compliance Matrix: (Units=1/GPa)
#
#
# Indices 1 2 3 4 5 6 
#
# 1 0.009159 -0.002963 -0.003575 0.000000 0.000000 0.000000
# 2 -0.002963 0.024949 0.001378 0.000000 0.000000 0.000000
# 3 -0.003575 0.001378 0.020494 0.000000 0.000000 0.000000
# 4 0.000000 0.000000 0.000000 0.052793 0.000000 0.000000
# 5 0.000000 0.000000 0.000000 0.000000 0.243246 0.000000
# 6 0.000000 0.000000 0.000000 0.000000 0.000000 0.066362
#
#
# Mechanical properties :
#
#
# Convention : Reuss Voigt Hill
#
# Bulk Modulus (GPa) = 22.58204 31.29269 26.93736
# Shear Modulus (GPa) = 11.31012 19.78140 15.54576
#
# Velocity S-wave (km/s) = 2.23205 2.95188 2.61683
# Velocity P-wave (km/s) = 4.07308 5.04007 4.58216
#
# Compressibility (1/GPa) = 0.04428299
#
# Stress axis : x y z
#
# Youngs Moduli (GPa) = 109.17679 40.08246 48.79584
#
# Poissons Ratio (x) = 0.11876 0.17444
# Poissons Ratio (y) = 0.32347 -0.06726
# Poissons Ratio (z) = 0.39030 -0.05525
#
# Static dielectric constant tensor:
#      x y z
#    x 1.862520 0.000000 0.000000 
#    y 0.000000 1.986650 0.000000 
#    z 0.000000 0.000000 1.903910 
# 
# From -- ./inp_files/3537.got.cif
#   From: 2010.05.17/outbox.cif.g08.bks.cpg/sg28_2_cif.got.tgz:3537.got - 2010.06.04 01:15:21.
