data_PCOD9339234
_publ_section_title
;
Structure prediction by ZEFSAII (Michael W. Deem and Ramdas Pophale) SiO2 
 PCOD9339234
Probable space group: P M A 2
;
_chemical_formula_sum "Si O2"
_cell_formula_units_Z 32
_cell_length_a 8.579030
_cell_length_b 9.148218
_cell_length_c 22.020041
_cell_angle_alpha 90.000000
_cell_angle_beta 90.000000
_cell_angle_gamma 90.000000
_cell_volume 1728.195281
_symmetry_space_group_name_H-M "P M A 2"
_symmetry_group_IT_number 28
_symmetry_cell_setting 'orthorhombic'
loop_
_space_group_symop_operation_xyz
x,y,z
-x,-y,z
1/2-x,y,z
1/2+x,-y,z
loop_
_atom_site_type_symbol
_atom_site_label
_atom_site_fract_x
_atom_site_fract_y
_atom_site_fract_z
Si Si1 0.935850 0.835455 0.102310
Si Si2 0.062141 0.665697 0.986513
Si Si3 0.062477 0.667421 0.722810
Si Si4 0.063899 0.667135 0.472209
Si Si5 0.936219 0.665240 0.345824
Si Si6 0.937624 0.333931 0.854147
Si Si7 0.936331 0.165255 0.229688
Si Si8 0.564240 0.667289 0.597585
O O1 0.750000 0.837879 0.106787
O O2 0.990255 0.750186 0.042916
O O3 0.005471 0.772190 0.165050
O O4 0.000000 0.000000 0.097402
O O5 0.250000 0.666450 0.990951
O O6 0.000000 0.500000 0.988306
O O7 0.016406 0.729539 0.919806
O O8 0.250000 0.664756 0.717719
O O9 0.016294 0.732686 0.788753
O O10 0.000000 0.500000 0.724738
O O11 0.992671 0.734660 0.661316
O O12 0.250000 0.664101 0.472262
O O13 0.000000 0.500000 0.471974
O O14 0.000952 0.731523 0.409090
O O15 0.001900 0.734241 0.535220
O O16 0.750000 0.662937 0.348036
O O17 0.000000 0.500000 0.341812
O O18 0.996234 0.749774 0.287091
O O19 0.750000 0.340117 0.853728
O O20 0.000000 0.500000 0.854391
O O21 0.750000 0.164958 0.231079
O O22 0.000000 0.000000 0.232397
O O23 0.500000 0.500000 0.598540
O O24 0.750000 0.662837 0.595393
#
# Coordination Sequence:
#
# PCOD9339234 Si02
#       8
#     4   4   4   4   4   4   4   4
#     4  11  22  38  57  78 101 131 165 204 249 297
#     4  10  19  33  51  75 103 134 168 207 250 299
#     4   9  14  21  32  50  76 112 153 193 233 281
#     4  10  17  27  41  60  87 122 159 199 243 291
#     4  11  21  35  53  77 105 135 168 207 250 298
#     4   8  15  25  39  58  86 120 156 195 240 286
#     4  11  22  39  59  80 103 132 165 203 247 296
#     4  10  16  22  32  50  77 114 155 196 237 284
#
# _framework density 18.516427
#
# number of rings (size 3 to 8) (size 9 to 14) (size 15 to 20)
#    0.000    2.000    0.000    9.375    0.000    1.500 
#    0.000    2.500    0.000    0.000    0.000    0.000 
#    0.000    1.000    0.000    8.500    0.000   10.000 
#
# Total GULP energy -178377.427028 kJ/mol
# GULP energy per Si atom -5574.294595 kJ/mol
# Density = 1.847428 g / cm^3
# Si number density = 18.516427 Si / 1000 Ang^3
#
#
#
# Elastic Constant Matrix: (Units=GPa)
#
#
# Indices 1 2 3 4 5 6 
#
# 1 164.0398 13.7313 81.0418 0.0000 0.0000 0.0000
# 2 13.7313 12.6067 37.2238 0.0000 0.0000 0.0000
# 3 81.0418 37.2238 245.1692 0.0000 0.0000 0.0000
# 4 0.0000 0.0000 0.0000 -13.1409 0.0000 0.0000
# 5 0.0000 0.0000 0.0000 0.0000 17.0609 0.0000
# 6 0.0000 0.0000 0.0000 0.0000 0.0000 16.1133
#
#
#
# Elastic Compliance Matrix: (Units=1/GPa)
#
#
# Indices 1 2 3 4 5 6 
#
# 1 0.007301 -0.001498 -0.002186 0.000000 0.000000 0.000000
# 2 -0.001498 0.144088 -0.021382 0.000000 0.000000 0.000000
# 3 -0.002186 -0.021382 0.008048 0.000000 0.000000 0.000000
# 4 0.000000 0.000000 0.000000 -0.076098 0.000000 0.000000
# 5 0.000000 0.000000 0.000000 0.000000 0.058614 0.000000
# 6 0.000000 0.000000 0.000000 0.000000 0.000000 0.062061
#
#
# Mechanical properties :
#
#
# Convention : Reuss Voigt Hill
#
# Bulk Modulus (GPa) = 9.14860 76.20106 42.67483
# Shear Modulus (GPa) = 17.20694 23.32791 20.26743
#
# Velocity S-wave (km/s) = 3.05172 3.55329 3.31201
# Velocity P-wave (km/s) = 4.16759 7.62083 6.14190
#
# Compressibility (1/GPa) = 0.10930633
#
# Stress axis : x y z
#
# Youngs Moduli (GPa) = 136.95840 6.94018 124.25755
#
# Poissons Ratio (x) = 0.01040 0.27164
# Poissons Ratio (y) = 0.20515 2.65683
# Poissons Ratio (z) = 0.29941 0.14839
#
# Static dielectric constant tensor:
#      x y z
#    x 1.615330 0.000000 0.000000 
#    y 0.000000 1.607770 0.000000 
#    z 0.000000 0.000000 1.735660 
# 
# From -- ./inp_files/6944.got.cif
#   From: 2010.05.17/outbox.cif.g08.bks.cpg/sg28_4_cif.got.tgz:6944.got - 2010.06.04 01:15:21.
