data_PCOD9339429
_publ_section_title
;
Structure prediction by ZEFSAII (Michael W. Deem and Ramdas Pophale) SiO2 
 PCOD9339429
Probable space group: P M A 2
;
_chemical_formula_sum "Si O2"
_cell_formula_units_Z 28
_cell_length_a 8.392884
_cell_length_b 9.242429
_cell_length_c 19.124179
_cell_angle_alpha 90.000000
_cell_angle_beta 90.000000
_cell_angle_gamma 90.000000
_cell_volume 1483.474699
_symmetry_space_group_name_H-M "P M A 2"
_symmetry_group_IT_number 28
_symmetry_cell_setting 'orthorhombic'
loop_
_space_group_symop_operation_xyz
x,y,z
-x,-y,z
1/2-x,y,z
1/2+x,-y,z
loop_
_atom_site_type_symbol
_atom_site_label
_atom_site_fract_x
_atom_site_fract_y
_atom_site_fract_z
Si Si1 0.940593 0.336370 0.984840
Si Si2 0.442484 0.166543 0.272386
Si Si3 0.941326 0.834261 0.119566
Si Si4 0.558896 0.663726 0.712048
Si Si5 0.057154 0.165690 0.575020
Si Si6 0.557457 0.833347 0.422457
Si Si7 0.558894 0.164065 0.847369
O O1 0.750000 0.336357 0.983651
O O2 0.997985 0.246571 0.917219
O O3 0.000000 0.500000 0.981159
O O4 0.996369 0.259919 0.055775
O O5 0.250000 0.168288 0.272473
O O6 0.494333 0.223835 0.196430
O O7 0.496378 0.230767 0.347407
O O8 0.500000 0.000000 0.272657
O O9 0.750000 0.835216 0.117842
O O10 0.000000 0.000000 0.112686
O O11 0.500000 0.500000 0.716322
O O12 0.750000 0.664730 0.711783
O O13 0.501539 0.739610 0.640359
O O14 0.500361 0.753551 0.778671
O O15 0.250000 0.164104 0.575805
O O16 0.004914 0.224098 0.498359
O O17 0.000000 0.000000 0.582247
O O18 0.750000 0.831352 0.422267
O O19 0.500000 0.000000 0.422353
O O20 0.750000 0.164725 0.847262
O O21 0.500000 0.000000 0.847504
#
# Coordination Sequence:
#
# PCOD9339429 Si02
#       7
#     4   4   4   4   4   4   4
#     4  11  24  40  58  80 107 140 176 215 261 313
#     4   8  14  24  42  69 100 134 170 212 260 307
#     4  10  19  32  52  79 109 141 179 221 265 312
#     4  11  23  38  56  79 108 142 179 218 263 313
#     4   9  18  31  50  76 104 136 174 217 262 310
#     4   8  13  24  42  67  99 132 168 211 259 306
#     4  11  24  41  62  86 110 137 171 212 258 309
#
# _framework density 18.874604999999999
#
# number of rings (size 3 to 8) (size 9 to 14) (size 15 to 20)
#    0.000    2.286    0.000    3.000    0.000    7.429 
#    0.000    0.000    0.000    0.857    0.000    2.000 
#    0.000    0.000    0.000    0.000    0.000    0.000 
#
# Total GULP energy -156106.454984 kJ/mol
# GULP energy per Si atom -5575.230535 kJ/mol
# Density = 1.883165 g / cm^3
# Si number density = 18.874605 Si / 1000 Ang^3
#
#
#
# Elastic Constant Matrix: (Units=GPa)
#
#
# Indices 1 2 3 4 5 6 
#
# 1 28.3915 18.0558 33.0053 0.0000 0.0000 0.0000
# 2 18.0558 105.4060 97.6616 0.0000 0.0000 0.0000
# 3 33.0053 97.6616 251.5641 0.0000 0.0000 0.0000
# 4 0.0000 0.0000 0.0000 -5.2192 0.0000 0.0000
# 5 0.0000 0.0000 0.0000 0.0000 11.3311 0.0000
# 6 0.0000 0.0000 0.0000 0.0000 0.0000 26.5909
#
#
#
# Elastic Compliance Matrix: (Units=1/GPa)
#
#
# Indices 1 2 3 4 5 6 
#
# 1 0.042276 -0.003284 -0.004272 0.000000 0.000000 0.000000
# 2 -0.003284 0.015072 -0.005420 0.000000 0.000000 0.000000
# 3 -0.004272 -0.005420 0.006640 0.000000 0.000000 0.000000
# 4 0.000000 0.000000 0.000000 -0.191600 0.000000 0.000000
# 5 0.000000 0.000000 0.000000 0.000000 0.088253 0.000000
# 6 0.000000 0.000000 0.000000 0.000000 0.000000 0.037607
#
#
# Mechanical properties :
#
#
# Convention : Reuss Voigt Hill
#
# Bulk Modulus (GPa) = 26.29095 75.86746 51.07920
# Shear Modulus (GPa) = 135.58197 22.31648 78.94923
#
# Velocity S-wave (km/s) = 8.48463 3.44227 6.47450
# Velocity P-wave (km/s) = 10.48546 7.48877 9.11116
#
# Compressibility (1/GPa) = 0.03803591
#
# Stress axis : x y z
#
# Youngs Moduli (GPa) = 23.65393 66.34974 150.60643
#
# Poissons Ratio (x) = 0.21788 0.64336
# Poissons Ratio (y) = 0.07768 0.81632
# Poissons Ratio (z) = 0.10105 0.35963
#
# Static dielectric constant tensor:
#      x y z
#    x 1.645360 0.000000 0.000000 
#    y 0.000000 1.592290 0.000000 
#    z 0.000000 0.000000 1.722400 
# 
# From -- ./inp_files/6808.got.cif
#   From: 2010.05.17/outbox.cif.g08.bks.cpg/sg28_4_cif.got.tgz:6808.got - 2010.06.04 01:15:21.
