data_PCOD9339796
_publ_section_title
;
Structure prediction by ZEFSAII (Michael W. Deem and Ramdas Pophale) SiO2 
 PCOD9339796
Probable space group: P M A 2
;
_chemical_formula_sum "Si O2"
_cell_formula_units_Z 20
_cell_length_a 8.632443
_cell_length_b 9.309983
_cell_length_c 12.988816
_cell_angle_alpha 90.000000
_cell_angle_beta 90.000000
_cell_angle_gamma 90.000000
_cell_volume 1043.883834
_symmetry_space_group_name_H-M "P M A 2"
_symmetry_group_IT_number 28
_symmetry_cell_setting 'orthorhombic'
loop_
_space_group_symop_operation_xyz
x,y,z
-x,-y,z
1/2-x,y,z
1/2+x,-y,z
loop_
_atom_site_type_symbol
_atom_site_label
_atom_site_fract_x
_atom_site_fract_y
_atom_site_fract_z
Si Si1 0.564519 0.341652 0.382940
Si Si2 0.564744 0.660871 0.159476
Si Si3 0.064409 0.839329 0.585625
Si Si4 0.435343 0.839296 0.970084
Si Si5 0.435170 0.338905 0.777272
O O1 0.500000 0.500000 0.408757
O O2 0.750000 0.351067 0.369681
O O3 0.488647 0.298282 0.274599
O O4 0.529831 0.233625 0.475597
O O5 0.500000 0.500000 0.140873
O O6 0.750000 0.658646 0.153085
O O7 0.495293 0.767042 0.075041
O O8 0.250000 0.840395 0.599366
O O9 0.989241 0.744788 0.675471
O O10 0.000000 0.000000 0.589984
O O11 0.250000 0.841458 0.968579
O O12 0.497707 0.744609 0.875613
O O13 0.500000 0.000000 0.960686
O O14 0.500000 0.500000 0.775287
O O15 0.250000 0.341919 0.783017
#
# Coordination Sequence:
#
# PCOD9339796 Si02
#       5
#     4   4   4   4   4
#     4  10  21  38  61  89 121 159 205 253 302 357
#     4  11  22  39  63  91 123 161 205 251 301 356
#     4  11  24  41  62  90 124 162 203 249 303 360
#     4  12  25  43  64  90 124 160 201 248 303 361
#     4  12  25  43  66  92 122 158 202 249 300 358
#
# _framework density 19.159219
#
# number of rings (size 3 to 8) (size 9 to 14) (size 15 to 20)
#    0.000    0.800    0.000    9.600    0.000    5.600 
#    0.000    2.000    0.000    0.000    0.000    0.000 
#    0.000    0.000    0.000    0.000    0.000    0.000 
#
# Total GULP energy -111973.854353 kJ/mol
# GULP energy per Si atom -5598.692718 kJ/mol
# Density = 1.911561 g / cm^3
# Si number density = 19.159219 Si / 1000 Ang^3
#
#
#
# Elastic Constant Matrix: (Units=GPa)
#
#
# Indices 1 2 3 4 5 6 
#
# 1 193.9097 99.3225 97.9102 0.0000 0.0000 0.0000
# 2 99.3225 182.8531 126.8011 0.0000 0.0000 0.0000
# 3 97.9102 126.8011 144.0028 0.0000 0.0000 0.0000
# 4 0.0000 0.0000 0.0000 -183.5392 0.0000 0.0000
# 5 0.0000 0.0000 0.0000 0.0000 59.6606 0.0000
# 6 0.0000 0.0000 0.0000 0.0000 0.0000 14.8957
#
#
#
# Elastic Compliance Matrix: (Units=1/GPa)
#
#
# Indices 1 2 3 4 5 6 
#
# 1 0.008005 -0.001474 -0.004145 0.000000 0.000000 0.000000
# 2 -0.001474 0.014316 -0.011604 0.000000 0.000000 0.000000
# 3 -0.004145 -0.011604 0.019981 0.000000 0.000000 0.000000
# 4 0.000000 0.000000 0.000000 -0.005448 0.000000 0.000000
# 5 0.000000 0.000000 0.000000 0.000000 0.016761 0.000000
# 6 0.000000 0.000000 0.000000 0.000000 0.000000 0.067133
#
#
# Mechanical properties :
#
#
# Convention : Reuss Voigt Hill
#
# Bulk Modulus (GPa) = 127.29117 129.87035 128.58076
# Shear Modulus (GPa) = 31.68308 -8.68112 11.50098
#
# Velocity S-wave (km/s) = 4.07095 -2.13093 2.45273
# Velocity P-wave (km/s) = 9.41699 7.86622 8.67632
#
# Compressibility (1/GPa) = 0.00785600
#
# Stress axis : x y z
#
# Youngs Moduli (GPa) = 124.92543 69.84968 50.04847
#
# Poissons Ratio (x) = 0.10294 0.20745
# Poissons Ratio (y) = 0.18410 0.58078
# Poissons Ratio (z) = 0.51781 0.81056
#
# Static dielectric constant tensor:
#      x y z
#    x 1.639450 0.000000 0.000000 
#    y 0.000000 1.635670 0.000000 
#    z 0.000000 0.000000 1.645230 
# 
# From -- ./inp_files/4573.got.cif
#   From: 2010.05.17/outbox.cif.g08.bks.cpg/sg28_3_cif.got.tgz:4573.got - 2010.06.04 01:15:21.
