data_PCOD9339918
_publ_section_title
;
Structure prediction by ZEFSAII (Michael W. Deem and Ramdas Pophale) SiO2 
 PCOD9339918
Probable space group: P M A 2
;
_chemical_formula_sum "Si O2"
_cell_formula_units_Z 18
_cell_length_a 9.261634
_cell_length_b 12.915932
_cell_length_c 6.396345
_cell_angle_alpha 90.000000
_cell_angle_beta 90.000000
_cell_angle_gamma 90.000000
_cell_volume 765.147643
_symmetry_space_group_name_H-M "P M A 2"
_symmetry_group_IT_number 28
_symmetry_cell_setting 'orthorhombic'
loop_
_space_group_symop_operation_xyz
x,y,z
-x,-y,z
1/2-x,y,z
1/2+x,-y,z
loop_
_atom_site_type_symbol
_atom_site_label
_atom_site_fract_x
_atom_site_fract_y
_atom_site_fract_z
Si Si1 0.250000 0.221383 0.343850
Si Si2 0.750000 0.177715 0.932632
Si Si3 0.750000 0.566897 0.091473
Si Si4 0.007309 0.168680 0.665076
Si Si5 0.500000 0.500000 0.786239
Si Si6 0.750000 0.414092 0.493595
Si Si7 0.750000 0.930123 0.949099
Si Si8 0.250000 0.829470 0.415286
O O1 0.250000 0.323115 0.204486
O O2 0.112882 0.223652 0.500354
O O3 0.250000 0.122706 0.181764
O O4 0.750000 0.187132 0.174412
O O5 0.605746 0.221325 0.825961
O O6 0.750000 0.052782 0.924307
O O7 0.750000 0.477259 0.272177
O O8 0.609498 0.559268 0.942548
O O9 0.111001 0.107759 0.820295
O O10 0.890375 0.115125 0.510488
O O11 0.609241 0.443132 0.628559
O O12 0.750000 0.291467 0.473506
#
# Coordination Sequence:
#
# PCOD9339918 Si02
#       8
#     2   2   2   4   2   2   2   2
#     4  11  26  44  73 104 145 189 239 291 352 428
#     4  11  24  46  69 105 143 188 238 296 352 424
#     4  11  26  46  75 109 147 188 237 289 354 424
#     4  10  25  44  66 103 136 185 232 297 349 418
#     4  10  26  46  74 104 142 192 232 294 352 418
#     4  11  26  47  70 108 146 188 237 290 353 424
#     4  11  24  43  73 102 143 185 241 292 360 421
#     4  11  26  44  74 102 144 186 244 290 353 427
#
# _framework density 23.524874000000001
#
# number of rings (size 3 to 8) (size 9 to 14) (size 15 to 20)
#    0.000    1.333    0.000    2.667    9.333   10.667 
#    0.000    0.000    0.000    0.000    0.000    0.000 
#    0.000    0.000    0.000    0.000    0.000    0.000 
#
# Total GULP energy -100474.355017 kJ/mol
# GULP energy per Si atom -5581.908612 kJ/mol
# Density = 2.347133 g / cm^3
# Si number density = 23.524874 Si / 1000 Ang^3
#
#
#
# Elastic Constant Matrix: (Units=GPa)
#
#
# Indices 1 2 3 4 5 6 
#
# 1 215.8275 23.7715 81.1962 0.0000 0.0000 0.0000
# 2 23.7715 52.2675 27.8739 0.0000 0.0000 0.0000
# 3 81.1962 27.8739 197.3560 0.0000 0.0000 0.0000
# 4 0.0000 0.0000 0.0000 39.2327 0.0000 0.0000
# 5 0.0000 0.0000 0.0000 0.0000 28.7068 0.0000
# 6 0.0000 0.0000 0.0000 0.0000 0.0000 7.0012
#
#
#
# Elastic Compliance Matrix: (Units=1/GPa)
#
#
# Indices 1 2 3 4 5 6 
#
# 1 0.005578 -0.001420 -0.002094 0.000000 0.000000 0.000000
# 2 -0.001420 0.021052 -0.002389 0.000000 0.000000 0.000000
# 3 -0.002094 -0.002389 0.006266 0.000000 0.000000 0.000000
# 4 0.000000 0.000000 0.000000 0.025489 0.000000 0.000000
# 5 0.000000 0.000000 0.000000 0.000000 0.034835 0.000000
# 6 0.000000 0.000000 0.000000 0.000000 0.000000 0.142832
#
#
# Mechanical properties :
#
#
# Convention : Reuss Voigt Hill
#
# Bulk Modulus (GPa) = 47.41738 81.23715 64.32726
# Shear Modulus (GPa) = 19.61647 37.16211 28.38929
#
# Velocity S-wave (km/s) = 2.89080 3.97885 3.47764
# Velocity P-wave (km/s) = 5.59842 7.46430 6.59765
#
# Compressibility (1/GPa) = 0.02108932
#
# Stress axis : x y z
#
# Youngs Moduli (GPa) = 179.28966 47.50089 159.59107
#
# Poissons Ratio (x) = 0.06745 0.33421
# Poissons Ratio (y) = 0.25457 0.38129
# Poissons Ratio (z) = 0.37547 0.11349
#
# Static dielectric constant tensor:
#      x y z
#    x 1.965380 0.000000 0.000000 
#    y 0.000000 1.945690 0.000000 
#    z 0.000000 0.000000 1.949110 
# 
# From -- ./inp_files/169.got.cif
#   From: 2010.05.17/outbox.cif.g08.bks.cpg/sg28_1_cif.got.tgz:169.got - 2010.06.04 01:15:21.
