data_PCOD9339968
_publ_section_title
;
Structure prediction by ZEFSAII (Michael W. Deem and Ramdas Pophale) SiO2 
 PCOD9339968
Probable space group: P M A 2
;
_chemical_formula_sum "Si O2"
_cell_formula_units_Z 32
_cell_length_a 13.408215
_cell_length_b 15.176653
_cell_length_c 8.475528
_cell_angle_alpha 90.000000
_cell_angle_beta 90.000000
_cell_angle_gamma 90.000000
_cell_volume 1724.700672
_symmetry_space_group_name_H-M "P M A 2"
_symmetry_group_IT_number 28
_symmetry_cell_setting 'orthorhombic'
loop_
_space_group_symop_operation_xyz
x,y,z
-x,-y,z
1/2-x,y,z
1/2+x,-y,z
loop_
_atom_site_type_symbol
_atom_site_label
_atom_site_fract_x
_atom_site_fract_y
_atom_site_fract_z
Si Si1 0.504616 0.792352 0.860610
Si Si2 0.867548 0.656779 0.073609
Si Si3 0.495384 0.292352 0.360610
Si Si4 0.942204 0.132942 0.163874
Si Si5 0.139620 0.044161 0.280992
Si Si6 0.360380 0.455839 0.780992
Si Si7 0.442204 0.632942 0.663874
Si Si8 0.632452 0.843221 0.573609
O O1 0.438812 0.723182 0.761188
O O2 0.571430 0.845865 0.735960
O O3 0.579980 0.733672 0.969071
O O4 0.436282 0.848156 0.978739
O O5 0.750000 0.674387 0.098800
O O6 0.928569 0.654135 0.235960
O O7 0.876087 0.569547 0.964475
O O8 0.561188 0.223182 0.261188
O O9 0.563718 0.348156 0.478739
O O10 0.420020 0.233672 0.469071
O O11 0.054476 0.095854 0.188474
O O12 0.873415 0.057746 0.237706
O O13 0.250000 0.075573 0.239130
O O14 0.123913 0.069547 0.464475
O O15 0.250000 0.424427 0.739130
O O16 0.373415 0.557746 0.737706
O O17 0.445524 0.404146 0.688474
O O18 0.750000 0.825613 0.598800
#
# Coordination Sequence:
#
# PCOD9339968 Si02
#       8
#     4   4   4   4   4   4   4   4
#     4   9  17  29  48  71  98 129 161 201 245 291
#     4   9  16  27  48  76 101 126 159 204 254 297
#     4   9  17  29  48  71  98 129 161 201 245 291
#     4   9  18  33  49  70  98 129 164 200 242 289
#     4   9  18  33  51  70  97 130 161 200 248 292
#     4   9  18  33  51  70  97 130 161 200 248 292
#     4   9  18  33  49  70  98 129 164 200 242 289
#     4   9  16  27  48  76 101 126 159 204 254 297
#
# _framework density 18.553944000000001
#
# number of rings (size 3 to 8) (size 9 to 14) (size 15 to 20)
#    0.000    3.000    0.000    0.750    0.000    7.000 
#    0.000   16.250    0.000    0.000    0.000    0.000 
#    0.000    0.000    0.000    0.000    0.000    0.000 
#
# Total GULP energy -178211.481083 kJ/mol
# GULP energy per Si atom -5569.108784 kJ/mol
# Density = 1.851171 g / cm^3
# Si number density = 18.553944 Si / 1000 Ang^3
#
#
#
# Elastic Constant Matrix: (Units=GPa)
#
#
# Indices 1 2 3 4 5 6 
#
# 1 21.7498 2.8488 4.8876 0.0000 0.0000 0.0000
# 2 2.8488 58.1878 39.5661 0.0000 0.0000 0.0000
# 3 4.8876 39.5661 108.7008 0.0000 0.0000 0.0000
# 4 0.0000 0.0000 0.0000 26.2109 0.0000 0.0000
# 5 0.0000 0.0000 0.0000 0.0000 16.9809 0.0000
# 6 0.0000 0.0000 0.0000 0.0000 0.0000 6.0420
#
#
#
# Elastic Compliance Matrix: (Units=1/GPa)
#
#
# Indices 1 2 3 4 5 6 
#
# 1 0.046503 -0.001136 -0.001677 0.000000 0.000000 0.000000
# 2 -0.001136 0.022866 -0.008272 0.000000 0.000000 0.000000
# 3 -0.001677 -0.008272 0.012286 0.000000 0.000000 0.000000
# 4 0.000000 0.000000 0.000000 0.038152 0.000000 0.000000
# 5 0.000000 0.000000 0.000000 0.000000 0.058890 0.000000
# 6 0.000000 0.000000 0.000000 0.000000 0.000000 0.165509
#
#
# Mechanical properties :
#
#
# Convention : Reuss Voigt Hill
#
# Bulk Modulus (GPa) = 16.81120 31.47146 24.14133
# Shear Modulus (GPa) = 12.94649 19.26915 16.10782
#
# Velocity S-wave (km/s) = 2.64441 3.22615 2.94965
# Velocity P-wave (km/s) = 4.29002 5.55665 4.96390
#
# Compressibility (1/GPa) = 0.05948415
#
# Stress axis : x y z
#
# Youngs Moduli (GPa) = 21.50392 43.73295 81.39416
#
# Poissons Ratio (x) = 0.04969 0.13653
# Poissons Ratio (y) = 0.02443 0.67329
# Poissons Ratio (z) = 0.03607 0.36176
#
# Static dielectric constant tensor:
#      x y z
#    x 1.622880 0.000000 0.000000 
#    y 0.000000 1.689540 0.000000 
#    z 0.000000 0.000000 1.660670 
# 
# From -- ./inp_files/3599.got.cif
#   From: 2010.05.17/outbox.cif.g08.bks.cpg/sg28_2_cif.got.tgz:3599.got - 2010.06.04 01:15:21.
