data_PCOD9339636
_publ_section_title
;
Structure prediction by ZEFSAII (Michael W. Deem and Ramdas Pophale) SiO2 
 PCOD9339636
Probable space group: P M A 2
;
_chemical_formula_sum "Si O2"
_cell_formula_units_Z 28
_cell_length_a 8.591578
_cell_length_b 9.976714
_cell_length_c 18.145570
_cell_angle_alpha 90.000000
_cell_angle_beta 90.000000
_cell_angle_gamma 90.000000
_cell_volume 1555.360534
_symmetry_space_group_name_H-M "P M A 2"
_symmetry_group_IT_number 28
_symmetry_cell_setting 'orthorhombic'
loop_
_space_group_symop_operation_xyz
x,y,z
-x,-y,z
1/2-x,y,z
1/2+x,-y,z
loop_
_atom_site_type_symbol
_atom_site_label
_atom_site_fract_x
_atom_site_fract_y
_atom_site_fract_z
Si Si1 0.435656 0.349768 0.101360
Si Si2 0.937702 0.146915 0.815874
Si Si3 0.937259 0.350011 0.942930
Si Si4 0.937494 0.147067 0.392245
Si Si5 0.562065 0.147682 0.647373
Si Si6 0.061742 0.650761 0.519396
Si Si7 0.563000 0.147623 0.222281
O O1 0.500000 0.500000 0.112072
O O2 0.250000 0.353756 0.099150
O O3 0.494068 0.254990 0.166402
O O4 0.499462 0.302147 0.021990
O O5 0.750000 0.143768 0.816336
O O6 0.988123 0.255126 0.876006
O O7 0.987296 0.176815 0.731674
O O8 0.000000 0.000000 0.834812
O O9 0.750000 0.353255 0.945835
O O10 0.000000 0.500000 0.931890
O O11 0.750000 0.140873 0.394949
O O12 0.988765 0.262939 0.448073
O O13 0.983217 0.174455 0.307481
O O14 0.000000 0.000000 0.413188
O O15 0.750000 0.141974 0.645514
O O16 0.511903 0.262275 0.590563
O O17 0.500000 0.000000 0.627194
O O18 0.250000 0.645636 0.519278
O O19 0.000000 0.500000 0.519628
O O20 0.750000 0.148772 0.218040
O O21 0.500000 0.000000 0.203761
#
# Coordination Sequence:
#
# PCOD9339636 Si02
#       7
#     4   4   4   4   4   4   4
#     4  11  22  37  56  78 105 139 177 216 263 315
#     4   9  19  34  53  77 104 134 170 213 257 304
#     4  10  20  35  53  75 104 137 174 214 258 309
#     4   9  19  35  55  78 104 136 173 213 256 306
#     4   9  18  34  54  76 103 135 172 212 255 304
#     4  10  21  35  51  76 108 138 172 213 255 301
#     4  10  20  36  56  80 108 137 174 217 262 311
#
# _framework density 18.002255000000002
#
# number of rings (size 3 to 8) (size 9 to 14) (size 15 to 20)
#    0.000    2.286    0.000    3.429    0.000    4.571 
#    0.000    2.857    0.000    0.000    0.000    0.000 
#    0.000    0.000    0.000    0.000    0.000    0.000 
#
# Total GULP energy -156283.848098 kJ/mol
# GULP energy per Si atom -5581.566004 kJ/mol
# Density = 1.796128 g / cm^3
# Si number density = 18.002255 Si / 1000 Ang^3
#
#
#
# Elastic Constant Matrix: (Units=GPa)
#
#
# Indices 1 2 3 4 5 6 
#
# 1 45.1689 32.6879 36.7951 0.0000 0.0000 0.0000
# 2 32.6879 143.7829 119.0272 0.0000 0.0000 0.0000
# 3 36.7951 119.0272 139.4587 0.0000 0.0000 0.0000
# 4 0.0000 0.0000 0.0000 48.2728 0.0000 0.0000
# 5 0.0000 0.0000 0.0000 0.0000 -16.2521 0.0000
# 6 0.0000 0.0000 0.0000 0.0000 0.0000 35.5268
#
#
#
# Elastic Compliance Matrix: (Units=1/GPa)
#
#
# Indices 1 2 3 4 5 6 
#
# 1 0.028231 -0.000859 -0.006716 0.000000 0.000000 0.000000
# 2 -0.000859 0.023726 -0.020024 0.000000 0.000000 0.000000
# 3 -0.006716 -0.020024 0.026033 0.000000 0.000000 0.000000
# 4 0.000000 0.000000 0.000000 0.020716 0.000000 0.000000
# 5 0.000000 0.000000 0.000000 0.000000 -0.061530 0.000000
# 6 0.000000 0.000000 0.000000 0.000000 0.000000 0.028148
#
#
# Mechanical properties :
#
#
# Convention : Reuss Voigt Hill
#
# Bulk Modulus (GPa) = 43.87137 78.38120 61.12629
# Shear Modulus (GPa) = 39.02679 22.83618 30.93148
#
# Velocity S-wave (km/s) = 4.66110 3.56549 4.14962
# Velocity P-wave (km/s) = 7.30689 7.78360 7.54901
#
# Compressibility (1/GPa) = 0.02279391
#
# Stress axis : x y z
#
# Youngs Moduli (GPa) = 35.42176 42.14735 38.41348
#
# Poissons Ratio (x) = 0.03620 0.25797
# Poissons Ratio (y) = 0.03042 0.76918
# Poissons Ratio (z) = 0.23788 0.84394
#
# Static dielectric constant tensor:
#      x y z
#    x 1.607280 0.000000 0.000000 
#    y 0.000000 1.575250 0.000000 
#    z 0.000000 0.000000 1.627810 
# 
# From -- ./inp_files/6814.got.cif
#   From: 2010.05.17/outbox.cif.g08.bks.cpg/sg28_4_cif.got.tgz:6814.got - 2010.06.04 01:15:21.
