data_PCOD9339357
_publ_section_title
;
Structure prediction by ZEFSAII (Michael W. Deem and Ramdas Pophale) SiO2 
 PCOD9339357
Probable space group: P M A 2
;
_chemical_formula_sum "Si O2"
_cell_formula_units_Z 18
_cell_length_a 10.053080
_cell_length_b 12.233850
_cell_length_c 5.931416
_cell_angle_alpha 90.000000
_cell_angle_beta 90.000000
_cell_angle_gamma 90.000000
_cell_volume 729.492236
_symmetry_space_group_name_H-M "P M A 2"
_symmetry_group_IT_number 28
_symmetry_cell_setting 'orthorhombic'
loop_
_space_group_symop_operation_xyz
x,y,z
-x,-y,z
1/2-x,y,z
1/2+x,-y,z
loop_
_atom_site_type_symbol
_atom_site_label
_atom_site_fract_x
_atom_site_fract_y
_atom_site_fract_z
Si Si1 0.250000 0.345334 0.190450
Si Si2 0.976197 0.141955 0.708732
Si Si3 0.008831 0.619123 0.491021
Si Si4 0.750000 0.422942 0.145017
Si Si5 0.750000 0.204269 0.011383
Si Si6 0.750000 0.890400 0.965345
Si Si7 0.750000 0.064596 0.385302
O O1 0.123076 0.356202 0.348807
O O2 0.250000 0.455984 0.044622
O O3 0.250000 0.232444 0.061592
O O4 0.879268 0.145043 0.922130
O O5 0.887662 0.073884 0.526653
O O6 0.978213 0.269034 0.630695
O O7 0.119125 0.104488 0.804829
O O8 0.000000 0.500000 0.613643
O O9 0.123571 0.597969 0.305648
O O10 0.750000 0.330822 0.955307
O O11 0.750000 0.184406 0.273455
O O12 0.750000 0.970733 0.188832
#
# Coordination Sequence:
#
# PCOD9339357 Si02
#       7
#     2   4   4   2   2   2   2
#     4  10  23  40  66 112 156 193 235 316 388 433
#     4  11  25  49  78 113 147 203 261 307 392 456
#     4  10  20  40  71 109 155 199 241 304 384 453
#     4  10  18  38  74 106 151 203 238 296 384 460
#     4  11  22  46  76 111 144 201 260 296 373 475
#     4  12  28  50  76 119 152 197 268 320 387 453
#     4  11  27  56  76 104 155 202 255 332 364 453
#
# _framework density 24.674697999999999
#
# number of rings (size 3 to 8) (size 9 to 14) (size 15 to 20)
#    0.000    1.333    2.222    2.667    0.000    2.667 
#   12.000    2.222    0.000    0.000    0.000    0.000 
#    0.000    0.000    0.000    0.000    0.000    0.000 
#
# Total GULP energy -100492.180107 kJ/mol
# GULP energy per Si atom -5582.898895 kJ/mol
# Density = 2.461854 g / cm^3
# Si number density = 24.674698 Si / 1000 Ang^3
#
#
#
# Elastic Constant Matrix: (Units=GPa)
#
#
# Indices 1 2 3 4 5 6 
#
# 1 226.0916 54.2938 64.5966 0.0000 0.0000 0.0000
# 2 54.2938 243.4544 77.7626 0.0000 0.0000 0.0000
# 3 64.5966 77.7626 82.0375 0.0000 0.0000 0.0000
# 4 0.0000 0.0000 0.0000 56.0995 0.0000 0.0000
# 5 0.0000 0.0000 0.0000 0.0000 67.6838 0.0000
# 6 0.0000 0.0000 0.0000 0.0000 0.0000 164.3771
#
#
#
# Elastic Compliance Matrix: (Units=1/GPa)
#
#
# Indices 1 2 3 4 5 6 
#
# 1 0.005716 0.000234 -0.004722 0.000000 0.000000 0.000000
# 2 0.000234 0.005901 -0.005777 0.000000 0.000000 0.000000
# 3 -0.004722 -0.005777 0.021384 0.000000 0.000000 0.000000
# 4 0.000000 0.000000 0.000000 0.017825 0.000000 0.000000
# 5 0.000000 0.000000 0.000000 0.000000 0.014775 0.000000
# 6 0.000000 0.000000 0.000000 0.000000 0.000000 0.006084
#
#
# Mechanical properties :
#
#
# Convention : Reuss Voigt Hill
#
# Bulk Modulus (GPa) = 80.19822 104.98770 92.59296
# Shear Modulus (GPa) = 51.88187 81.29413 66.58800
#
# Velocity S-wave (km/s) = 4.59042 5.74612 5.20047
# Velocity P-wave (km/s) = 7.78902 9.30940 8.58294
#
# Compressibility (1/GPa) = 0.01246910
#
# Stress axis : x y z
#
# Youngs Moduli (GPa) = 174.94457 169.46930 46.76375
#
# Poissons Ratio (x) = -0.03959 0.22083
# Poissons Ratio (y) = -0.04087 0.27016
# Poissons Ratio (z) = 0.82614 0.97906
#
# Static dielectric constant tensor:
#      x y z
#    x 1.944100 0.000000 0.000000 
#    y 0.000000 2.081870 0.000000 
#    z 0.000000 0.000000 1.956870 
# 
# From -- ./inp_files/407.got.cif
#   From: 2010.05.17/outbox.cif.g08.bks.cpg/sg28_1_cif.got.tgz:407.got - 2010.06.04 01:15:21.
