data_PCOD9339291
_publ_section_title
;
Structure prediction by ZEFSAII (Michael W. Deem and Ramdas Pophale) SiO2 
 PCOD9339291
Probable space group: P M A 2
;
_chemical_formula_sum "Si O2"
_cell_formula_units_Z 24
_cell_length_a 19.290068
_cell_length_b 9.891852
_cell_length_c 7.432501
_cell_angle_alpha 90.000000
_cell_angle_beta 90.000000
_cell_angle_gamma 90.000000
_cell_volume 1418.228945
_symmetry_space_group_name_H-M "P M A 2"
_symmetry_group_IT_number 28
_symmetry_cell_setting 'orthorhombic'
loop_
_space_group_symop_operation_xyz
x,y,z
-x,-y,z
1/2-x,y,z
1/2+x,-y,z
loop_
_atom_site_type_symbol
_atom_site_label
_atom_site_fract_x
_atom_site_fract_y
_atom_site_fract_z
Si Si1 0.524473 0.207645 0.029240
Si Si2 0.974664 0.643405 0.348936
Si Si3 0.329115 0.010676 0.663962
Si Si4 0.461282 0.854802 0.624280
Si Si5 0.383398 0.034303 0.066643
Si Si6 0.670925 0.771983 0.367130
O O1 0.509915 0.335394 0.153514
O O2 0.453866 0.121124 0.049423
O O3 0.588171 0.116562 0.102569
O O4 0.535165 0.221101 0.816047
O O5 0.891597 0.665771 0.341276
O O6 0.000000 0.500000 0.421808
O O7 0.003911 0.765444 0.471528
O O8 0.250000 0.969020 0.640201
O O9 0.338968 0.150778 0.556682
O O10 0.382566 0.899798 0.590007
O O11 0.346271 0.031970 0.873868
O O12 0.500000 0.000000 0.643001
O O13 0.339678 0.109236 0.218856
O O14 0.750000 0.720355 0.355782
#
# Coordination Sequence:
#
# PCOD9339291 Si02
#       6
#     4   4   4   4   4   4
#     4   9  17  30  52  77 103 132 173 214 257 300
#     4  11  23  35  52  77 107 145 180 211 254 315
#     4  10  18  29  50  83 108 127 165 219 273 309
#     4  11  18  34  57  79 102 135 173 221 262 305
#     4   9  15  28  49  77 102 128 161 216 263 301
#     4  10  19  31  50  74 103 134 171 217 260 306
#
# _framework density 16.922515000000001
#
# number of rings (size 3 to 8) (size 9 to 14) (size 15 to 20)
#    0.000    2.000    5.000    1.500    2.333    0.667 
#    0.000    0.833    0.000    5.000    0.000    0.000 
#    0.000    0.000    0.000    0.000    0.000    0.000 
#
# Total GULP energy -133710.515086 kJ/mol
# GULP energy per Si atom -5571.271462 kJ/mol
# Density = 1.688400 g / cm^3
# Si number density = 16.922515 Si / 1000 Ang^3
#
#
#
# Elastic Constant Matrix: (Units=GPa)
#
#
# Indices 1 2 3 4 5 6 
#
# 1 112.2594 29.5215 22.3210 0.0000 0.0000 0.0000
# 2 29.5215 44.0466 21.4431 0.0000 0.0000 0.0000
# 3 22.3210 21.4431 55.0661 0.0000 0.0000 0.0000
# 4 0.0000 0.0000 0.0000 11.4075 0.0000 0.0000
# 5 0.0000 0.0000 0.0000 0.0000 17.2212 0.0000
# 6 0.0000 0.0000 0.0000 0.0000 0.0000 13.7340
#
#
#
# Elastic Compliance Matrix: (Units=1/GPa)
#
#
# Indices 1 2 3 4 5 6 
#
# 1 0.010982 -0.006408 -0.001956 0.000000 0.000000 0.000000
# 2 -0.006408 0.031753 -0.009767 0.000000 0.000000 0.000000
# 3 -0.001956 -0.009767 0.022756 0.000000 0.000000 0.000000
# 4 0.000000 0.000000 0.000000 0.087662 0.000000 0.000000
# 5 0.000000 0.000000 0.000000 0.000000 0.058068 0.000000
# 6 0.000000 0.000000 0.000000 0.000000 0.000000 0.072812
#
#
# Mechanical properties :
#
#
# Convention : Reuss Voigt Hill
#
# Bulk Modulus (GPa) = 34.21349 39.77146 36.99248
# Shear Modulus (GPa) = 15.14971 17.67832 16.41401
#
# Velocity S-wave (km/s) = 2.99530 3.23563 3.11778
# Velocity P-wave (km/s) = 5.67662 6.12472 5.90492
#
# Compressibility (1/GPa) = 0.02922823
#
# Stress axis : x y z
#
# Youngs Moduli (GPa) = 91.05718 31.49281 43.94372
#
# Poissons Ratio (x) = 0.20181 0.08596
# Poissons Ratio (y) = 0.58352 0.42921
# Poissons Ratio (z) = 0.17812 0.30760
#
# Static dielectric constant tensor:
#      x y z
#    x 1.592110 0.000000 0.000000 
#    y 0.000000 1.558030 0.000000 
#    z 0.000000 0.000000 1.611660 
# 
# From -- ./inp_files/3799.got.cif
#   From: 2010.05.17/outbox.cif.g08.bks.cpg/sg28_2_cif.got.tgz:3799.got - 2010.06.04 01:15:21.
