data_PCOD9339685
_publ_section_title
;
Structure prediction by ZEFSAII (Michael W. Deem and Ramdas Pophale) SiO2 
 PCOD9339685
Probable space group: P M A 2
;
_chemical_formula_sum "Si O2"
_cell_formula_units_Z 28
_cell_length_a 8.703163
_cell_length_b 9.302099
_cell_length_c 18.352325
_cell_angle_alpha 90.000000
_cell_angle_beta 90.000000
_cell_angle_gamma 90.000000
_cell_volume 1485.761725
_symmetry_space_group_name_H-M "P M A 2"
_symmetry_group_IT_number 28
_symmetry_cell_setting 'orthorhombic'
loop_
_space_group_symop_operation_xyz
x,y,z
-x,-y,z
1/2-x,y,z
1/2+x,-y,z
loop_
_atom_site_type_symbol
_atom_site_label
_atom_site_fract_x
_atom_site_fract_y
_atom_site_fract_z
Si Si1 0.434794 0.160847 0.208450
Si Si2 0.564905 0.658192 0.785710
Si Si3 0.435734 0.159155 0.923647
Si Si4 0.065523 0.660674 0.344073
Si Si5 0.065993 0.841066 0.488019
Si Si6 0.565468 0.659325 0.619333
Si Si7 0.935153 0.660038 0.064900
O O1 0.250000 0.155483 0.211924
O O2 0.498417 0.248287 0.277250
O O3 0.480290 0.245225 0.134855
O O4 0.500000 0.000000 0.208012
O O5 0.500000 0.500000 0.801504
O O6 0.750000 0.650425 0.787991
O O7 0.514104 0.769440 0.847404
O O8 0.520981 0.696813 0.702760
O O9 0.250000 0.152929 0.924126
O O10 0.500000 0.000000 0.932182
O O11 0.484442 0.259971 0.990907
O O12 0.250000 0.655729 0.338411
O O13 0.024346 0.740619 0.419381
O O14 0.000000 0.500000 0.343121
O O15 0.250000 0.847996 0.492372
O O16 0.000297 0.769894 0.561099
O O17 0.000000 0.000000 0.477430
O O18 0.500000 0.500000 0.604294
O O19 0.750000 0.655420 0.614631
O O20 0.750000 0.651611 0.064290
O O21 0.000000 0.500000 0.069455
#
# Coordination Sequence:
#
# PCOD9339685 Si02
#       7
#     4   4   4   4   4   4   4
#     4  11  23  39  60  87 118 151 188 231 281 334
#     4   9  19  35  56  82 111 145 186 230 276 330
#     4  10  21  37  55  80 113 147 186 230 278 330
#     4  11  24  41  62  87 115 149 189 232 279 333
#     4  11  24  40  59  84 114 149 188 232 283 336
#     4  10  20  36  58  84 114 148 188 233 281 335
#     4  10  22  38  58  84 113 147 188 232 277 330
#
# _framework density 18.845552999999999
#
# number of rings (size 3 to 8) (size 9 to 14) (size 15 to 20)
#    0.000    1.714    0.000    3.857    0.000    9.143 
#    0.000    1.429    0.000    0.000    0.000    0.000 
#    0.000    0.000    0.000    0.000    0.000    0.000 
#
# Total GULP energy -156516.118543 kJ/mol
# GULP energy per Si atom -5589.861377 kJ/mol
# Density = 1.880266 g / cm^3
# Si number density = 18.845553 Si / 1000 Ang^3
#
#
#
# Elastic Constant Matrix: (Units=GPa)
#
#
# Indices 1 2 3 4 5 6 
#
# 1 33.9409 48.0079 46.4171 0.0000 0.0000 0.0000
# 2 48.0079 196.1701 114.8119 0.0000 0.0000 0.0000
# 3 46.4171 114.8119 145.5871 0.0000 0.0000 0.0000
# 4 0.0000 0.0000 0.0000 -183.3811 0.0000 0.0000
# 5 0.0000 0.0000 0.0000 0.0000 -28.6785 0.0000
# 6 0.0000 0.0000 0.0000 0.0000 0.0000 41.1571
#
#
#
# Elastic Compliance Matrix: (Units=1/GPa)
#
#
# Indices 1 2 3 4 5 6 
#
# 1 0.055832 -0.006027 -0.013048 0.000000 0.000000 0.000000
# 2 -0.006027 0.010118 -0.006057 0.000000 0.000000 0.000000
# 3 -0.013048 -0.006057 0.015806 0.000000 0.000000 0.000000
# 4 0.000000 0.000000 0.000000 -0.005453 0.000000 0.000000
# 5 0.000000 0.000000 0.000000 0.000000 -0.034869 0.000000
# 6 0.000000 0.000000 0.000000 0.000000 0.000000 0.024297
#
#
# Mechanical properties :
#
#
# Convention : Reuss Voigt Hill
#
# Bulk Modulus (GPa) = 31.75513 88.24130 59.99821
# Shear Modulus (GPa) = 39.52830 -23.08311 8.22259
#
# Velocity S-wave (km/s) = 4.58480 -3.50359 2.09108
# Velocity P-wave (km/s) = 6.70179 5.52795 6.14297
#
# Compressibility (1/GPa) = 0.03149098
#
# Stress axis : x y z
#
# Youngs Moduli (GPa) = 17.91089 98.83533 63.26851
#
# Poissons Ratio (x) = 0.59570 0.82550
# Poissons Ratio (y) = 0.10795 0.38325
# Poissons Ratio (z) = 0.23369 0.59869
#
# Static dielectric constant tensor:
#      x y z
#    x 1.635760 0.000000 0.000000 
#    y 0.000000 1.608790 0.000000 
#    z 0.000000 0.000000 1.650190 
# 
# From -- ./inp_files/6789.got.cif
#   From: 2010.05.17/outbox.cif.g08.bks.cpg/sg28_4_cif.got.tgz:6789.got - 2010.06.04 01:15:21.
