data_PCOD9339253
_publ_section_title
;
Structure prediction by ZEFSAII (Michael W. Deem and Ramdas Pophale) SiO2 
 PCOD9339253
Probable space group: P M A 2
;
_chemical_formula_sum "Si O2"
_cell_formula_units_Z 24
_cell_length_a 8.656167
_cell_length_b 9.098882
_cell_length_c 16.419379
_cell_angle_alpha 90.000000
_cell_angle_beta 90.000000
_cell_angle_gamma 90.000000
_cell_volume 1293.213969
_symmetry_space_group_name_H-M "P M A 2"
_symmetry_group_IT_number 28
_symmetry_cell_setting 'orthorhombic'
loop_
_space_group_symop_operation_xyz
x,y,z
-x,-y,z
1/2-x,y,z
1/2+x,-y,z
loop_
_atom_site_type_symbol
_atom_site_label
_atom_site_fract_x
_atom_site_fract_y
_atom_site_fract_z
Si Si1 0.065104 0.166727 0.662420
Si Si2 0.565393 0.165076 0.829649
Si Si3 0.434629 0.165641 0.149265
Si Si4 0.065538 0.832612 0.318045
Si Si5 0.935419 0.832802 0.484593
Si Si6 0.435764 0.663612 0.994064
O O1 0.250000 0.160487 0.668228
O O2 0.025319 0.232871 0.573601
O O3 0.997954 0.233177 0.745291
O O4 0.000000 0.000000 0.661504
O O5 0.750000 0.156990 0.824288
O O6 0.521986 0.254459 0.910092
O O7 0.500000 0.000000 0.837153
O O8 0.250000 0.160455 0.152884
O O9 0.499844 0.231559 0.234027
O O10 0.500000 0.000000 0.142259
O O11 0.492363 0.254054 0.071341
O O12 0.250000 0.836813 0.316264
O O13 0.006957 0.764065 0.402973
O O14 0.000000 0.000000 0.318554
O O15 0.750000 0.838308 0.476630
O O16 0.000000 0.000000 0.487403
O O17 0.500000 0.500000 0.991590
O O18 0.250000 0.664205 0.001140
#
# Coordination Sequence:
#
# PCOD9339253 Si02
#       6
#     4   4   4   4   4   4
#     4   9  16  25  41  65  96 131 166 203 246 294
#     4  10  20  33  52  76 103 133 169 209 252 301
#     4  11  21  35  55  78 105 137 172 214 257 305
#     4  10  17  26  42  66  97 132 167 205 248 298
#     4   9  15  23  36  60  94 130 164 200 244 294
#     4  11  24  40  56  77 102 133 171 213 261 312
#
# _framework density 18.558413999999999
#
# number of rings (size 3 to 8) (size 9 to 14) (size 15 to 20)
#    0.000    2.000    0.000    8.500    0.000    6.000 
#    0.000    0.000    0.000    0.000    0.000    1.167 
#    0.000    5.333    0.000    0.000    0.000    0.000 
#
# Total GULP energy -133841.373724 kJ/mol
# GULP energy per Si atom -5576.723905 kJ/mol
# Density = 1.851617 g / cm^3
# Si number density = 18.558414 Si / 1000 Ang^3
#
#
#
# Elastic Constant Matrix: (Units=GPa)
#
#
# Indices 1 2 3 4 5 6 
#
# 1 121.5127 22.5308 87.9698 0.0000 0.0000 0.0000
# 2 22.5308 35.8266 51.4140 0.0000 0.0000 0.0000
# 3 87.9698 51.4140 247.7529 0.0000 0.0000 0.0000
# 4 0.0000 0.0000 0.0000 5.0979 0.0000 0.0000
# 5 0.0000 0.0000 0.0000 0.0000 35.0111 0.0000
# 6 0.0000 0.0000 0.0000 0.0000 0.0000 12.9465
#
#
#
# Elastic Compliance Matrix: (Units=1/GPa)
#
#
# Indices 1 2 3 4 5 6 
#
# 1 0.011167 -0.001898 -0.003571 0.000000 0.000000 0.000000
# 2 -0.001898 0.040073 -0.007642 0.000000 0.000000 0.000000
# 3 -0.003571 -0.007642 0.006890 0.000000 0.000000 0.000000
# 4 0.000000 0.000000 0.000000 0.196160 0.000000 0.000000
# 5 0.000000 0.000000 0.000000 0.000000 0.028562 0.000000
# 6 0.000000 0.000000 0.000000 0.000000 0.000000 0.077241
#
#
# Mechanical properties :
#
#
# Convention : Reuss Voigt Hill
#
# Bulk Modulus (GPa) = 31.34040 80.99127 56.16583
# Shear Modulus (GPa) = 12.59602 26.82294 19.70948
#
# Velocity S-wave (km/s) = 2.60806 3.80587 3.26241
# Velocity P-wave (km/s) = 5.09837 7.94033 6.67241
#
# Compressibility (1/GPa) = 0.03190770
#
# Stress axis : x y z
#
# Youngs Moduli (GPa) = 89.55059 24.95466 145.13337
#
# Poissons Ratio (x) = 0.04736 0.51830
# Poissons Ratio (y) = 0.16994 1.10913
# Poissons Ratio (z) = 0.31980 0.19071
#
# Static dielectric constant tensor:
#      x y z
#    x 1.618280 0.000000 0.000000 
#    y 0.000000 1.562370 0.000000 
#    z 0.000000 0.000000 1.725710 
# 
# From -- ./inp_files/6689.got.cif
#   From: 2010.05.17/outbox.cif.g08.bks.cpg/sg28_4_cif.got.tgz:6689.got - 2010.06.04 01:15:21.
