data_PCOD9339141
_publ_section_title
;
Structure prediction by ZEFSAII (Michael W. Deem and Ramdas Pophale) SiO2 
 PCOD9339141
Probable space group: P C C 2
;
_chemical_formula_sum "Si O2"
_cell_formula_units_Z 14
_cell_length_a 5.039084
_cell_length_b 10.209781
_cell_length_c 11.560807
_cell_angle_alpha 90.000000
_cell_angle_beta 90.000000
_cell_angle_gamma 90.000000
_cell_volume 594.779752
_symmetry_space_group_name_H-M "P C C 2"
_symmetry_group_IT_number 27
_symmetry_cell_setting 'orthorhombic'
loop_
_space_group_symop_operation_xyz
x,y,z
-x,-y,z
-x,y,1/2+z
x,-y,1/2+z
loop_
_atom_site_type_symbol
_atom_site_label
_atom_site_fract_x
_atom_site_fract_y
_atom_site_fract_z
Si Si1 0.500000 0.500000 0.388240
Si Si2 0.749069 0.910225 0.381629
Si Si3 0.664125 0.708836 0.198301
Si Si4 0.829348 0.663786 0.542793
O O1 0.533479 0.619303 0.299210
O O2 0.745703 0.531099 0.473350
O O3 0.861284 0.785370 0.455075
O O4 0.500000 0.000000 0.423683
O O5 0.682079 0.150416 0.756749
O O6 0.000000 0.000000 0.370094
O O7 0.451138 0.701938 0.098747
O O8 0.945080 0.663241 0.142472
#
# Coordination Sequence:
#
# PCOD9339141 Si02
#       4
#     2   4   4   4
#     4  10  26  46  68 100 140 180 236 294 348 428
#     4  11  24  43  68 100 138 178 231 293 348 423
#     4  11  25  44  69 100 137 184 232 287 357 422
#     4  11  25  44  69 100 137 184 232 287 357 422
#
# _framework density 23.538122999999999
#
# number of rings (size 3 to 8) (size 9 to 14) (size 15 to 20)
#    0.000    1.143    0.000    4.286    0.000   20.571 
#    0.000    0.000    0.000    0.000    0.000    0.000 
#    0.000    0.000    0.000    0.000    0.000    0.000 
#
# Total GULP energy -78060.117553 kJ/mol
# GULP energy per Si atom -5575.722682 kJ/mol
# Density = 2.348455 g / cm^3
# Si number density = 23.538123 Si / 1000 Ang^3
#
#
#
# Elastic Constant Matrix: (Units=GPa)
#
#
# Indices 1 2 3 4 5 6 
#
# 1 148.5394 54.6138 25.1791 0.0000 0.0000 0.0000
# 2 54.6138 112.1615 36.9316 0.0000 0.0000 0.0000
# 3 25.1791 36.9316 70.0626 0.0000 0.0000 0.0000
# 4 0.0000 0.0000 0.0000 9743.7966 0.0000 0.0000
# 5 0.0000 0.0000 0.0000 0.0000 -67.3426 0.0000
# 6 0.0000 0.0000 0.0000 0.0000 0.0000 37.0073
#
#
#
# Elastic Compliance Matrix: (Units=1/GPa)
#
#
# Indices 1 2 3 4 5 6 
#
# 1 0.008261 -0.003684 -0.001027 0.000000 0.000000 0.000000
# 2 -0.003684 0.012431 -0.005229 0.000000 0.000000 0.000000
# 3 -0.001027 -0.005229 0.017398 0.000000 0.000000 0.000000
# 4 0.000000 0.000000 0.000000 0.000103 0.000000 0.000000
# 5 0.000000 0.000000 0.000000 0.000000 -0.014849 0.000000
# 6 0.000000 0.000000 0.000000 0.000000 0.000000 0.027022
#
#
# Mechanical properties :
#
#
# Convention : Reuss Voigt Hill
#
# Bulk Modulus (GPa) = 54.91262 62.69030 58.80146
# Shear Modulus (GPa) = 65.51771 1956.96152 1011.23961
#
# Velocity S-wave (km/s) = 5.28159 28.86530 20.74971
# Velocity P-wave (km/s) = 7.78289 33.72881 24.47658
#
# Compressibility (1/GPa) = 0.01821075
#
# Stress axis : x y z
#
# Youngs Moduli (GPa) = 121.05234 80.44143 57.47741
#
# Poissons Ratio (x) = 0.29637 0.05901
# Poissons Ratio (y) = 0.44600 0.30054
# Poissons Ratio (z) = 0.12428 0.42061
#
# Static dielectric constant tensor:
#      x y z
#    x 2.201600 0.000000 0.000000 
#    y 0.000000 -37.973420 0.000000 
#    z 0.000000 0.000000 1.922530 
# 
# From -- ./inp_files/2883.got.cif
#   From: 2010.05.17/outbox.cif.g08.bks.cpg/sg27_2_cif.got.tgz:2883.got - 2010.06.04 01:11:05.
