data_PCOD9339284
_publ_section_title
;
Structure prediction by ZEFSAII (Michael W. Deem and Ramdas Pophale) SiO2 
 PCOD9339284
Probable space group: P M A 2
;
_chemical_formula_sum "Si O2"
_cell_formula_units_Z 32
_cell_length_a 8.600283
_cell_length_b 14.656378
_cell_length_c 16.082140
_cell_angle_alpha 90.000000
_cell_angle_beta 90.000000
_cell_angle_gamma 90.000000
_cell_volume 2027.137642
_symmetry_space_group_name_H-M "P M A 2"
_symmetry_group_IT_number 28
_symmetry_cell_setting 'orthorhombic'
loop_
_space_group_symop_operation_xyz
x,y,z
-x,-y,z
1/2-x,y,z
1/2+x,-y,z
loop_
_atom_site_type_symbol
_atom_site_label
_atom_site_fract_x
_atom_site_fract_y
_atom_site_fract_z
Si Si1 0.436604 0.896550 0.475260
Si Si2 0.563101 0.401813 0.240733
Si Si3 0.060651 0.788706 0.311952
Si Si4 0.063380 0.781057 0.985823
Si Si5 0.435374 0.401809 0.053767
Si Si6 0.063258 0.103545 0.832929
Si Si7 0.062342 0.897851 0.147625
Si Si8 0.435942 0.103190 0.648018
O O1 0.250000 0.901203 0.475569
O O2 0.490016 0.835818 0.397325
O O3 0.492999 0.856746 0.563747
O O4 0.500000 0.000000 0.466448
O O5 0.500000 0.500000 0.268481
O O6 0.750000 0.404791 0.237590
O O7 0.513670 0.315918 0.296615
O O8 0.502601 0.386158 0.146792
O O9 0.250000 0.789694 0.312128
O O10 0.010164 0.847734 0.232041
O O11 0.250000 0.774538 0.986145
O O12 0.014871 0.840152 0.066766
O O13 0.991645 0.681098 0.996878
O O14 0.006727 0.833408 0.904204
O O15 0.500000 0.500000 0.026119
O O16 0.250000 0.405069 0.058281
O O17 0.250000 0.100348 0.839982
O O18 0.023893 0.139463 0.739827
O O19 0.000000 0.000000 0.841245
O O20 0.250000 0.900391 0.148535
O O21 0.000000 0.000000 0.143478
O O22 0.250000 0.101583 0.640296
O O23 0.500000 0.000000 0.649323
#
# Coordination Sequence:
#
# PCOD9339284 Si02
#       8
#     4   4   4   4   4   4   4   4
#     4  10  18  29  47  69  94 127 161 197 238 283
#     4  10  18  33  51  69  94 123 160 202 247 289
#     4   9  18  32  47  65  95 129 158 194 241 286
#     4  11  21  34  51  70  97 131 164 202 244 287
#     4  11  21  34  52  73  96 124 162 204 247 291
#     4  10  20  33  49  71  99 131 165 202 245 291
#     4  10  20  33  45  62  93 131 163 193 230 275
#     4   9  17  30  47  67  94 125 158 201 244 283
#
# _framework density 15.785805
#
# number of rings (size 3 to 8) (size 9 to 14) (size 15 to 20)
#    0.000    2.000    1.250    5.250    0.000    3.500 
#    0.000    3.125    0.000    0.000    0.000    0.875 
#    0.000    4.000    0.000    0.000    0.000    0.000 
#
# Total GULP energy -178502.118219 kJ/mol
# GULP energy per Si atom -5578.191194 kJ/mol
# Density = 1.574988 g / cm^3
# Si number density = 15.785805 Si / 1000 Ang^3
#
#
#
# Elastic Constant Matrix: (Units=GPa)
#
#
# Indices 1 2 3 4 5 6 
#
# 1 59.8396 33.8735 39.0295 0.0000 0.0000 0.0000
# 2 33.8735 117.9489 72.2193 0.0000 0.0000 0.0000
# 3 39.0295 72.2193 142.2840 0.0000 0.0000 0.0000
# 4 0.0000 0.0000 0.0000 7.9486 0.0000 0.0000
# 5 0.0000 0.0000 0.0000 0.0000 28.2460 0.0000
# 6 0.0000 0.0000 0.0000 0.0000 0.0000 21.8392
#
#
#
# Elastic Compliance Matrix: (Units=1/GPa)
#
#
# Indices 1 2 3 4 5 6 
#
# 1 0.021413 -0.003704 -0.003994 0.000000 0.000000 0.000000
# 2 -0.003704 0.012942 -0.005553 0.000000 0.000000 0.000000
# 3 -0.003994 -0.005553 0.010942 0.000000 0.000000 0.000000
# 4 0.000000 0.000000 0.000000 0.125809 0.000000 0.000000
# 5 0.000000 0.000000 0.000000 0.000000 0.035403 0.000000
# 6 0.000000 0.000000 0.000000 0.000000 0.000000 0.045789
#
#
# Mechanical properties :
#
#
# Convention : Reuss Voigt Hill
#
# Bulk Modulus (GPa) = 53.20369 67.81301 60.50835
# Shear Modulus (GPa) = 17.53983 23.27010 20.40497
#
# Velocity S-wave (km/s) = 3.33695 3.84359 3.59920
# Velocity P-wave (km/s) = 6.97307 7.92143 7.46233
#
# Compressibility (1/GPa) = 0.01879569
#
# Stress axis : x y z
#
# Youngs Moduli (GPa) = 46.70062 77.26713 91.38972
#
# Poissons Ratio (x) = 0.28622 0.36497
# Poissons Ratio (y) = 0.17300 0.50748
# Poissons Ratio (z) = 0.18650 0.42906
#
# Static dielectric constant tensor:
#      x y z
#    x 1.535350 0.000000 0.000000 
#    y 0.000000 1.508450 0.000000 
#    z 0.000000 0.000000 1.541090 
# 
# From -- ./inp_files/6439.got.cif
#   From: 2010.05.17/outbox.cif.g08.bks.cpg/sg28_4_cif.got.tgz:6439.got - 2010.06.04 01:15:21.
