data_PCOD9339470
_publ_section_title
;
Structure prediction by ZEFSAII (Michael W. Deem and Ramdas Pophale) SiO2 
 PCOD9339470
Probable space group: P M A 2
;
_chemical_formula_sum "Si O2"
_cell_formula_units_Z 28
_cell_length_a 8.408644
_cell_length_b 9.241017
_cell_length_c 19.121313
_cell_angle_alpha 90.000000
_cell_angle_beta 90.000000
_cell_angle_gamma 90.000000
_cell_volume 1485.810577
_symmetry_space_group_name_H-M "P M A 2"
_symmetry_group_IT_number 28
_symmetry_cell_setting 'orthorhombic'
loop_
_space_group_symop_operation_xyz
x,y,z
-x,-y,z
1/2-x,y,z
1/2+x,-y,z
loop_
_atom_site_type_symbol
_atom_site_label
_atom_site_fract_x
_atom_site_fract_y
_atom_site_fract_z
Si Si1 0.438880 0.836420 0.567410
Si Si2 0.557501 0.665530 0.977084
Si Si3 0.057938 0.333631 0.279715
Si Si4 0.942181 0.666551 0.129628
Si Si5 0.058735 0.334122 0.432766
Si Si6 0.059573 0.336207 0.702278
Si Si7 0.557608 0.836273 0.840019
O O1 0.250000 0.836329 0.570064
O O2 0.494237 0.760132 0.496088
O O3 0.503031 0.747372 0.633521
O O4 0.500000 0.000000 0.570388
O O5 0.500000 0.500000 0.970096
O O6 0.750000 0.663742 0.976192
O O7 0.502095 0.759869 0.911577
O O8 0.505642 0.724332 0.053731
O O9 0.250000 0.332451 0.279674
O O10 0.004307 0.269201 0.204698
O O11 0.006957 0.276213 0.355730
O O12 0.000000 0.500000 0.279407
O O13 0.750000 0.668130 0.129826
O O14 0.000000 0.500000 0.129706
O O15 0.250000 0.334701 0.435433
O O16 0.000000 0.500000 0.439435
O O17 0.250000 0.336934 0.702766
O O18 0.003513 0.253808 0.772245
O O19 0.000000 0.500000 0.701724
O O20 0.750000 0.835435 0.840270
O O21 0.500000 0.000000 0.835813
#
# Coordination Sequence:
#
# PCOD9339470 Si02
#       7
#     4   4   4   4   4   4   4
#     4  12  25  41  59  80 107 139 175 215 262 314
#     4   9  17  30  49  75 104 135 173 216 260 306
#     4   8  14  24  42  69 100 134 170 211 258 305
#     4   8  13  23  41  67  99 132 167 210 258 303
#     4  10  19  33  53  79 109 141 179 220 264 312
#     4  11  23  40  61  85 110 137 172 213 259 309
#     4  10  22  37  54  77 106 140 176 213 256 307
#
# _framework density 18.844933000000001
#
# number of rings (size 3 to 8) (size 9 to 14) (size 15 to 20)
#    0.000    2.286    0.000    3.429    0.000    3.429 
#    0.000    0.000    0.000    0.857    0.000    2.000 
#    0.000    0.000    0.000    0.000    0.000    0.000 
#
# Total GULP energy -156106.899638 kJ/mol
# GULP energy per Si atom -5575.246416 kJ/mol
# Density = 1.880204 g / cm^3
# Si number density = 18.844933 Si / 1000 Ang^3
#
#
#
# Elastic Constant Matrix: (Units=GPa)
#
#
# Indices 1 2 3 4 5 6 
#
# 1 38.2588 20.2030 36.3759 0.0000 0.0000 0.0000
# 2 20.2030 105.3137 97.5885 0.0000 0.0000 0.0000
# 3 36.3759 97.5885 251.0602 0.0000 0.0000 0.0000
# 4 0.0000 0.0000 0.0000 -8.7924 0.0000 0.0000
# 5 0.0000 0.0000 0.0000 0.0000 4.3471 0.0000
# 6 0.0000 0.0000 0.0000 0.0000 0.0000 27.2412
#
#
#
# Elastic Compliance Matrix: (Units=1/GPa)
#
#
# Indices 1 2 3 4 5 6 
#
# 1 0.030824 -0.002774 -0.003388 0.000000 0.000000 0.000000
# 2 -0.002774 0.015091 -0.005464 0.000000 0.000000 0.000000
# 3 -0.003388 -0.005464 0.006598 0.000000 0.000000 0.000000
# 4 0.000000 0.000000 0.000000 -0.113734 0.000000 0.000000
# 5 0.000000 0.000000 0.000000 0.000000 0.230036 0.000000
# 6 0.000000 0.000000 0.000000 0.000000 0.000000 0.036709
#
#
# Mechanical properties :
#
#
# Convention : Reuss Voigt Hill
#
# Bulk Modulus (GPa) = 34.17515 78.10751 56.14133
# Shear Modulus (GPa) = 20.96188 20.59019 20.77604
#
# Velocity S-wave (km/s) = 3.33879 3.30905 3.32395
# Velocity P-wave (km/s) = 5.74784 7.49248 6.67738
#
# Compressibility (1/GPa) = 0.02926103
#
# Stress axis : x y z
#
# Youngs Moduli (GPa) = 32.44267 66.26597 151.56490
#
# Poissons Ratio (x) = 0.18381 0.51348
# Poissons Ratio (y) = 0.08999 0.82814
# Poissons Ratio (z) = 0.10991 0.36207
#
# Static dielectric constant tensor:
#      x y z
#    x 1.636400 0.000000 0.000000 
#    y 0.000000 1.588820 0.000000 
#    z 0.000000 0.000000 1.721750 
# 
# From -- ./inp_files/6843.got.cif
#   From: 2010.05.17/outbox.cif.g08.bks.cpg/sg28_4_cif.got.tgz:6843.got - 2010.06.04 01:15:21.
