data_PCOD9339219
_publ_section_title
;
Structure prediction by ZEFSAII (Michael W. Deem and Ramdas Pophale) SiO2 
 PCOD9339219
Probable space group: P C C 2
;
_chemical_formula_sum "Si O2"
_cell_formula_units_Z 20
_cell_length_a 4.985458
_cell_length_b 13.577506
_cell_length_c 11.730243
_cell_angle_alpha 90.000000
_cell_angle_beta 90.000000
_cell_angle_gamma 90.000000
_cell_volume 794.021156
_symmetry_space_group_name_H-M "P C C 2"
_symmetry_group_IT_number 27
_symmetry_cell_setting 'orthorhombic'
loop_
_space_group_symop_operation_xyz
x,y,z
-x,-y,z
-x,y,1/2+z
x,-y,1/2+z
loop_
_atom_site_type_symbol
_atom_site_label
_atom_site_fract_x
_atom_site_fract_y
_atom_site_fract_z
Si Si1 0.500000 0.500000 0.677731
Si Si2 0.000000 0.500000 0.340727
Si Si3 0.925647 0.286474 0.938569
Si Si4 0.425647 0.713526 0.579888
Si Si5 0.500000 0.000000 0.923085
Si Si6 0.749999 0.839971 0.759229
Si Si7 0.000000 0.000000 0.595373
O O1 0.750000 0.520767 0.759229
O O2 0.443761 0.597462 0.605752
O O3 0.056238 0.402538 0.412706
O O4 0.623302 0.264178 0.974161
O O5 0.123302 0.264178 0.044297
O O6 0.050277 0.226685 0.834296
O O7 0.550277 0.773314 0.684162
O O8 0.750000 1.000000 0.009229
O O9 0.569293 0.910240 0.838907
O O10 0.930704 0.910241 0.679551
#
# Coordination Sequence:
#
# PCOD9339219 Si02
#       7
#     2   2   4   4   2   4   2
#     4  12  24  48  76 110 160 206 250 312 378 448
#     4  12  24  48  76 110 160 206 250 312 378 448
#     4  12  27  47  77 114 155 204 255 310 382 456
#     4  12  27  47  77 114 155 204 255 310 382 456
#     4  12  28  52  80 112 150 200 256 324 398 460
#     4  12  28  52  82 112 158 198 262 326 386 462
#     4  12  28  52  80 112 150 200 256 324 398 460
#
# _framework density 25.188247
#
# number of rings (size 3 to 8) (size 9 to 14) (size 15 to 20)
#    0.000    0.000    2.000    7.200    0.000    6.400 
#    0.000    0.000    0.000    0.000    0.000    0.000 
#    0.000    0.000    0.000    0.000    0.000    0.000 
#
# Total GULP energy -112366.522892 kJ/mol
# GULP energy per Si atom -5618.326145 kJ/mol
# Density = 2.513092 g / cm^3
# Si number density = 25.188247 Si / 1000 Ang^3
#
#
#
# Elastic Constant Matrix: (Units=GPa)
#
#
# Indices 1 2 3 4 5 6 
#
# 1 111.5483 3.7324 11.7859 0.0000 0.0000 0.0000
# 2 3.7324 162.9063 65.0789 0.0000 0.0000 0.0000
# 3 11.7859 65.0789 109.2235 0.0000 0.0000 0.0000
# 4 0.0000 0.0000 0.0000 72.4924 0.0000 0.0000
# 5 0.0000 0.0000 0.0000 0.0000 38.2122 0.0000
# 6 0.0000 0.0000 0.0000 0.0000 0.0000 35.7691
#
#
#
# Elastic Compliance Matrix: (Units=1/GPa)
#
#
# Indices 1 2 3 4 5 6 
#
# 1 0.009075 0.000241 -0.001123 0.000000 0.000000 0.000000
# 2 0.000241 0.008062 -0.004830 0.000000 0.000000 0.000000
# 3 -0.001123 -0.004830 0.012154 0.000000 0.000000 0.000000
# 4 0.000000 0.000000 0.000000 0.013795 0.000000 0.000000
# 5 0.000000 0.000000 0.000000 0.000000 0.026170 0.000000
# 6 0.000000 0.000000 0.000000 0.000000 0.000000 0.027957
#
#
# Mechanical properties :
#
#
# Convention : Reuss Voigt Hill
#
# Bulk Modulus (GPa) = 55.96473 60.54140 58.25306
# Shear Modulus (GPa) = 43.63255 49.50013 46.56634
#
# Velocity S-wave (km/s) = 4.16656 4.43788 4.30435
# Velocity P-wave (km/s) = 6.73897 7.09559 6.91958
#
# Compressibility (1/GPa) = 0.01786840
#
# Stress axis : x y z
#
# Youngs Moduli (GPa) = 110.18932 124.03199 82.27451
#
# Poissons Ratio (x) = -0.02983 0.09236
# Poissons Ratio (y) = -0.02650 0.39737
# Poissons Ratio (z) = 0.12370 0.59905
#
# Static dielectric constant tensor:
#      x y z
#    x 1.910600 0.000000 0.000000 
#    y 0.000000 1.970840 0.000000 
#    z 0.000000 0.000000 1.981050 
# 
# From -- ./inp_files/2026.got.cif
#   From: 2010.05.17/outbox.cif.g08.bks.cpg/sg27_2_cif.got.tgz:2026.got - 2010.06.04 01:11:05.
