data_PCOD9339369
_publ_section_title
;
Structure prediction by ZEFSAII (Michael W. Deem and Ramdas Pophale) SiO2 
 PCOD9339369
Probable space group: P M A 2
;
_chemical_formula_sum "Si O2"
_cell_formula_units_Z 32
_cell_length_a 9.118842
_cell_length_b 19.776516
_cell_length_c 10.463094
_cell_angle_alpha 90.000000
_cell_angle_beta 90.000000
_cell_angle_gamma 90.000000
_cell_volume 1886.903121
_symmetry_space_group_name_H-M "P M A 2"
_symmetry_group_IT_number 28
_symmetry_cell_setting 'orthorhombic'
loop_
_space_group_symop_operation_xyz
x,y,z
-x,-y,z
1/2-x,y,z
1/2+x,-y,z
loop_
_atom_site_type_symbol
_atom_site_label
_atom_site_fract_x
_atom_site_fract_y
_atom_site_fract_z
Si Si1 0.573626 0.659571 0.644050
Si Si2 0.081104 0.068110 0.550473
Si Si3 0.925156 0.207956 0.546769
Si Si4 0.574844 0.207956 0.243211
Si Si5 0.573626 0.659570 0.145934
Si Si6 0.418896 0.068110 0.239508
Si Si7 0.074620 0.427653 0.394992
Si Si8 0.926415 0.573566 0.894992
O O1 0.750000 0.670210 0.643974
O O2 0.493763 0.730857 0.626608
O O3 0.534835 0.614537 0.520723
O O4 0.534316 0.617337 0.770079
O O5 0.250000 0.069979 0.592378
O O6 0.081519 0.066123 0.394990
O O7 0.995683 0.136364 0.585249
O O8 0.000000 0.000000 0.594163
O O9 0.750000 0.205667 0.559325
O O10 0.959233 0.218782 0.394990
O O11 0.750000 0.205667 0.230655
O O12 0.506237 0.269143 0.163373
O O13 0.504317 0.136364 0.204731
O O14 0.750000 0.670210 0.146011
O O15 0.534833 0.614538 0.269262
O O16 0.534317 0.617335 0.019906
O O17 0.250000 0.069979 0.197603
O O18 0.500000 0.000000 0.195817
O O19 0.250000 0.436344 0.394991
O O20 0.000000 0.500000 0.394991
O O21 0.750000 0.564522 0.894991
O O22 0.000000 0.500000 0.894991
#
# Coordination Sequence:
#
# PCOD9339369 Si02
#       8
#     4   4   4   4   4   4   4   4
#     4  10  20  35  52  73 100 133 168 207 256 307
#     4   9  16  26  42  66 100 139 173 208 251 300
#     4  10  19  30  47  73 102 133 171 214 256 301
#     4  10  19  30  47  73 102 133 171 214 256 301
#     4  10  20  35  52  73 100 133 168 207 256 307
#     4   9  16  26  42  66 100 139 173 208 251 300
#     4  10  20  32  50  72  97 126 161 202 250 304
#     4  10  22  38  56  76 101 132 169 212 258 310
#
# _framework density 16.959005000000001
#
# number of rings (size 3 to 8) (size 9 to 14) (size 15 to 20)
#    0.000    2.250    1.250    2.250    0.000    6.000 
#    0.000    0.000    0.000    0.000    0.000    0.875 
#    0.000    0.000    0.000    0.000    0.000    0.000 
#
# Total GULP energy -178541.176498 kJ/mol
# GULP energy per Si atom -5579.411766 kJ/mol
# Density = 1.692041 g / cm^3
# Si number density = 16.959005 Si / 1000 Ang^3
#
#
#
# Elastic Constant Matrix: (Units=GPa)
#
#
# Indices 1 2 3 4 5 6 
#
# 1 68.1881 83.1528 39.1650 0.0000 0.0000 0.0000
# 2 83.1528 204.6170 70.4073 0.0000 0.0000 0.0000
# 3 39.1650 70.4073 95.0019 0.0000 0.0000 0.0000
# 4 0.0000 0.0000 0.0000 17.9575 0.0000 0.0000
# 5 0.0000 0.0000 0.0000 0.0000 6.9697 0.0000
# 6 0.0000 0.0000 0.0000 0.0000 0.0000 41.7548
#
#
#
# Elastic Compliance Matrix: (Units=1/GPa)
#
#
# Indices 1 2 3 4 5 6 
#
# 1 0.030467 -0.010818 -0.004543 0.000000 0.000000 0.000000
# 2 -0.010818 0.010401 -0.003249 0.000000 0.000000 0.000000
# 3 -0.004543 -0.003249 0.014807 0.000000 0.000000 0.000000
# 4 0.000000 0.000000 0.000000 0.055687 0.000000 0.000000
# 5 0.000000 0.000000 0.000000 0.000000 0.143478 0.000000
# 6 0.000000 0.000000 0.000000 0.000000 0.000000 0.023949
#
#
# Mechanical properties :
#
#
# Convention : Reuss Voigt Hill
#
# Bulk Modulus (GPa) = 54.18397 83.69523 68.93960
# Shear Modulus (GPa) = 15.52023 25.00851 20.26437
#
# Velocity S-wave (km/s) = 3.02845 3.84428 3.46049
# Velocity P-wave (km/s) = 6.65192 8.31644 7.53031
#
# Compressibility (1/GPa) = 0.01845564
#
# Stress axis : x y z
#
# Youngs Moduli (GPa) = 32.82279 96.14148 67.53770
#
# Poissons Ratio (x) = 1.04006 0.30680
# Poissons Ratio (y) = 0.35508 0.21942
# Poissons Ratio (z) = 0.14910 0.31234
#
# Static dielectric constant tensor:
#      x y z
#    x 1.565720 0.000000 0.000000 
#    y 0.000000 1.548640 0.000000 
#    z 0.000000 0.000000 1.563500 
# 
# From -- ./inp_files/5174.got.cif
#   From: 2010.05.17/outbox.cif.g08.bks.cpg/sg28_3_cif.got.tgz:5174.got - 2010.06.04 01:15:21.
