data_PCOD9339456
_publ_section_title
;
Structure prediction by ZEFSAII (Michael W. Deem and Ramdas Pophale) SiO2 
 PCOD9339456
Probable space group: P M A 2
;
_chemical_formula_sum "Si O2"
_cell_formula_units_Z 32
_cell_length_a 17.844926
_cell_length_b 9.073734
_cell_length_c 10.053813
_cell_angle_alpha 90.000000
_cell_angle_beta 90.000000
_cell_angle_gamma 90.000000
_cell_volume 1627.914525
_symmetry_space_group_name_H-M "P M A 2"
_symmetry_group_IT_number 28
_symmetry_cell_setting 'orthorhombic'
loop_
_space_group_symop_operation_xyz
x,y,z
-x,-y,z
1/2-x,y,z
1/2+x,-y,z
loop_
_atom_site_type_symbol
_atom_site_label
_atom_site_fract_x
_atom_site_fract_y
_atom_site_fract_z
Si Si1 0.580915 0.073475 0.861390
Si Si2 0.966526 0.643797 0.144286
Si Si3 0.009171 0.339273 0.845345
Si Si4 0.335366 0.316121 0.469779
Si Si5 0.661469 0.473550 0.239591
Si Si6 0.840343 0.144162 0.141942
Si Si7 0.663014 0.791814 0.768332
Si Si8 0.432193 0.086248 0.314644
O O1 0.550196 0.221371 0.790078
O O2 0.500000 0.000000 0.898309
O O3 0.631166 0.960547 0.774430
O O4 0.626765 0.113168 0.994625
O O5 0.879881 0.592971 0.146144
O O6 0.970052 0.802596 0.208891
O O7 0.000000 0.500000 0.219704
O O8 0.006226 0.650045 0.002852
O O9 0.095555 0.288963 0.844643
O O10 0.000000 0.500000 0.784043
O O11 0.250000 0.281910 0.430094
O O12 0.353233 0.468633 0.391404
O O13 0.338289 0.294002 0.627443
O O14 0.389036 0.192158 0.412751
O O15 0.750000 0.480996 0.218625
O O16 0.639865 0.307083 0.199492
O O17 0.750000 0.132586 0.138551
O O18 0.876151 0.022725 0.239183
O O19 0.750000 0.789813 0.814911
O O20 0.500000 0.000000 0.381858
#
# Coordination Sequence:
#
# PCOD9339456 Si02
#       8
#     4   4   4   4   4   4   4   4
#     4  10  20  35  56  82 114 149 186 232 289 349
#     4  10  19  33  52  75 107 144 177 215 275 343
#     4  10  20  35  56  81 113 146 182 235 294 351
#     4   9  20  39  56  73 102 145 189 227 273 333
#     4   9  19  34  53  76 106 141 176 221 275 337
#     4  11  20  32  53  84 116 142 177 229 292 353
#     4  10  21  39  59  77 106 150 198 243 288 343
#     4  11  20  31  52  80 107 137 179 228 279 335
#
# _framework density 19.657052
#
# number of rings (size 3 to 8) (size 9 to 14) (size 15 to 20)
#    0.000    2.000    0.000    5.625    0.000    2.500 
#    0.000    6.250    0.000    3.000    0.000    0.000 
#    0.000    0.000    0.000    0.000    0.000    0.000 
#
# Total GULP energy -178137.826960 kJ/mol
# GULP energy per Si atom -5566.807092 kJ/mol
# Density = 1.961231 g / cm^3
# Si number density = 19.657052 Si / 1000 Ang^3
#
#
#
# Elastic Constant Matrix: (Units=GPa)
#
#
# Indices 1 2 3 4 5 6 
#
# 1 98.9933 34.6862 9.8656 0.0000 0.0000 0.0000
# 2 34.6862 94.8154 3.5265 0.0000 0.0000 0.0000
# 3 9.8656 3.5265 23.8780 0.0000 0.0000 0.0000
# 4 0.0000 0.0000 0.0000 21.3404 0.0000 0.0000
# 5 0.0000 0.0000 0.0000 0.0000 17.7532 0.0000
# 6 0.0000 0.0000 0.0000 0.0000 0.0000 37.1765
#
#
#
# Elastic Compliance Matrix: (Units=1/GPa)
#
#
# Indices 1 2 3 4 5 6 
#
# 1 0.012018 -0.004235 -0.004340 0.000000 0.000000 0.000000
# 2 -0.004235 0.012098 -0.000037 0.000000 0.000000 0.000000
# 3 -0.004340 -0.000037 0.043678 0.000000 0.000000 0.000000
# 4 0.000000 0.000000 0.000000 0.046860 0.000000 0.000000
# 5 0.000000 0.000000 0.000000 0.000000 0.056328 0.000000
# 6 0.000000 0.000000 0.000000 0.000000 0.000000 0.026899
#
#
# Mechanical properties :
#
#
# Convention : Reuss Voigt Hill
#
# Bulk Modulus (GPa) = 19.77466 34.87148 27.32307
# Shear Modulus (GPa) = 21.55537 26.56123 24.05830
#
# Velocity S-wave (km/s) = 3.31505 3.67990 3.50223
# Velocity P-wave (km/s) = 4.97337 5.98615 5.50311
#
# Compressibility (1/GPa) = 0.05056978
#
# Stress axis : x y z
#
# Youngs Moduli (GPa) = 83.20732 82.66147 22.89476
#
# Poissons Ratio (x) = 0.35009 0.09936
# Poissons Ratio (y) = 0.35240 0.00084
# Poissons Ratio (z) = 0.36112 0.00305
#
# Static dielectric constant tensor:
#      x y z
#    x 1.756260 0.000000 0.000000 
#    y 0.000000 1.756540 0.000000 
#    z 0.000000 0.000000 1.700390 
# 
# From -- ./inp_files/5544.got.cif
#   From: 2010.05.17/outbox.cif.g08.bks.cpg/sg28_3_cif.got.tgz:5544.got - 2010.06.04 01:15:21.
