data_PCOD9339478
_publ_section_title
;
Structure prediction by ZEFSAII (Michael W. Deem and Ramdas Pophale) SiO2 
 PCOD9339478
Probable space group: P M A 2
;
_chemical_formula_sum "Si O2"
_cell_formula_units_Z 28
_cell_length_a 8.628459
_cell_length_b 14.785862
_cell_length_c 13.172404
_cell_angle_alpha 90.000000
_cell_angle_beta 90.000000
_cell_angle_gamma 90.000000
_cell_volume 1680.524818
_symmetry_space_group_name_H-M "P M A 2"
_symmetry_group_IT_number 28
_symmetry_cell_setting 'orthorhombic'
loop_
_space_group_symop_operation_xyz
x,y,z
-x,-y,z
1/2-x,y,z
1/2+x,-y,z
loop_
_atom_site_type_symbol
_atom_site_label
_atom_site_fract_x
_atom_site_fract_y
_atom_site_fract_z
Si Si1 0.063641 0.398534 0.524630
Si Si2 0.564339 0.902687 0.643410
Si Si3 0.561249 0.712624 0.324456
Si Si4 0.935763 0.283621 0.713338
Si Si5 0.063485 0.399209 0.129199
Si Si6 0.063474 0.096711 0.405546
Si Si7 0.436028 0.600449 0.908846
O O1 0.250000 0.400339 0.527265
O O2 0.014492 0.348787 0.420493
O O3 0.000000 0.500000 0.528329
O O4 0.003897 0.341065 0.619925
O O5 0.750000 0.902278 0.648796
O O6 0.497036 0.818191 0.704004
O O7 0.519452 0.890964 0.524256
O O8 0.500000 0.000000 0.676352
O O9 0.750000 0.713757 0.324538
O O10 0.512271 0.667393 0.219168
O O11 0.509417 0.815437 0.343906
O O12 0.750000 0.284048 0.706103
O O13 0.980316 0.332159 0.818473
O O14 0.250000 0.402696 0.127074
O O15 0.000000 0.500000 0.149608
O O16 0.002171 0.371988 0.018399
O O17 0.250000 0.093801 0.401993
O O18 0.000000 0.000000 0.370937
O O19 0.500000 0.500000 0.886675
O O20 0.250000 0.595647 0.914835
#
# Coordination Sequence:
#
# PCOD9339478 Si02
#       7
#     4   4   4   4   4   4   4
#     4  11  21  34  49  72 106 140 169 207 257 311
#     4  10  19  33  54  77 106 139 171 213 257 308
#     4   9  18  33  51  73 104 136 167 206 256 306
#     4  11  22  35  52  76 104 137 175 215 258 308
#     4  10  19  33  54  75  99 133 173 214 254 305
#     4   9  17  32  50  73 102 134 167 204 249 300
#     4  10  21  36  53  74 102 134 174 220 258 303
#
# _framework density 16.661460999999999
#
# number of rings (size 3 to 8) (size 9 to 14) (size 15 to 20)
#    0.000    2.000    1.429    3.857    0.000    4.000 
#    0.000    3.571    0.000    0.857    0.000    4.000 
#    0.000    0.000    0.000    0.000    0.000    0.000 
#
# Total GULP energy -156293.884377 kJ/mol
# GULP energy per Si atom -5581.924442 kJ/mol
# Density = 1.662354 g / cm^3
# Si number density = 16.661461 Si / 1000 Ang^3
#
#
#
# Elastic Constant Matrix: (Units=GPa)
#
#
# Indices 1 2 3 4 5 6 
#
# 1 41.2272 40.3447 39.6269 0.0000 0.0000 0.0000
# 2 40.3447 166.9899 104.7725 0.0000 0.0000 0.0000
# 3 39.6269 104.7725 132.6854 0.0000 0.0000 0.0000
# 4 0.0000 0.0000 0.0000 17.5381 0.0000 0.0000
# 5 0.0000 0.0000 0.0000 0.0000 -12.6821 0.0000
# 6 0.0000 0.0000 0.0000 0.0000 0.0000 29.0194
#
#
#
# Elastic Compliance Matrix: (Units=1/GPa)
#
#
# Indices 1 2 3 4 5 6 
#
# 1 0.035187 -0.003781 -0.007523 0.000000 0.000000 0.000000
# 2 -0.003781 0.012275 -0.008563 0.000000 0.000000 0.000000
# 3 -0.007523 -0.008563 0.016545 0.000000 0.000000 0.000000
# 4 0.000000 0.000000 0.000000 0.057019 0.000000 0.000000
# 5 0.000000 0.000000 0.000000 0.000000 -0.078851 0.000000
# 6 0.000000 0.000000 0.000000 0.000000 0.000000 0.034460
#
#
# Mechanical properties :
#
#
# Convention : Reuss Voigt Hill
#
# Bulk Modulus (GPa) = 41.19949 78.93228 60.06588
# Shear Modulus (GPa) = 40.17390 17.18565 28.67977
#
# Velocity S-wave (km/s) = 4.91571 3.21512 4.15339
# Velocity P-wave (km/s) = 7.54984 7.82686 7.68959
#
# Compressibility (1/GPa) = 0.02427215
#
# Stress axis : x y z
#
# Youngs Moduli (GPa) = 28.41962 81.46927 60.44076
#
# Poissons Ratio (x) = 0.30804 0.45470
# Poissons Ratio (y) = 0.10746 0.51756
# Poissons Ratio (z) = 0.21380 0.69763
#
# Static dielectric constant tensor:
#      x y z
#    x 1.564860 0.000000 0.000000 
#    y 0.000000 1.548710 0.000000 
#    z 0.000000 0.000000 1.548590 
# 
# From -- ./inp_files/4850.got.cif
#   From: 2010.05.17/outbox.cif.g08.bks.cpg/sg28_3_cif.got.tgz:4850.got - 2010.06.04 01:15:21.
