data_PCOD9339236
_publ_section_title
;
Structure prediction by ZEFSAII (Michael W. Deem and Ramdas Pophale) SiO2 
 PCOD9339236
Probable space group: P M A 2
;
_chemical_formula_sum "Si O2"
_cell_formula_units_Z 32
_cell_length_a 9.090581
_cell_length_b 21.989378
_cell_length_c 7.418657
_cell_angle_alpha 90.000000
_cell_angle_beta 90.000000
_cell_angle_gamma 90.000000
_cell_volume 1482.961505
_symmetry_space_group_name_H-M "P M A 2"
_symmetry_group_IT_number 28
_symmetry_cell_setting 'orthorhombic'
loop_
_space_group_symop_operation_xyz
x,y,z
-x,-y,z
1/2-x,y,z
1/2+x,-y,z
loop_
_atom_site_type_symbol
_atom_site_label
_atom_site_fract_x
_atom_site_fract_y
_atom_site_fract_z
Si Si1 0.071376 0.940570 0.285230
Si Si2 0.581503 0.694619 0.723751
Si Si3 0.583197 0.559828 0.797122
Si Si4 0.926957 0.938965 0.685581
Si Si5 0.419904 0.816131 0.710725
Si Si6 0.415561 0.310196 0.293008
Si Si7 0.416684 0.441195 0.228481
Si Si8 0.417812 0.807672 0.269688
O O1 0.250000 0.945835 0.304205
O O2 0.038839 0.874576 0.201236
O O3 0.991719 0.938068 0.480765
O O4 0.000000 0.000000 0.195612
O O5 0.750000 0.697919 0.792954
O O6 0.519562 0.627284 0.763847
O O7 0.486738 0.752787 0.780725
O O8 0.590524 0.698389 0.507346
O O9 0.500000 0.500000 0.728788
O O10 0.750000 0.560855 0.725874
O O11 0.590940 0.553385 0.012804
O O12 0.750000 0.942673 0.685381
O O13 0.984770 0.875044 0.762984
O O14 0.000000 0.000000 0.766330
O O15 0.250000 0.824323 0.762820
O O16 0.422275 0.811973 0.489984
O O17 0.250000 0.315195 0.220975
O O18 0.489002 0.375714 0.264046
O O19 0.488968 0.250332 0.214618
O O20 0.500000 0.500000 0.298998
O O21 0.250000 0.440308 0.299982
O O22 0.250000 0.796863 0.218580
#
# Coordination Sequence:
#
# PCOD9339236 Si02
#       8
#     4   4   4   4   4   4   4   4
#     4   9  15  22  32  49  74 106 143 178 211 252
#     4   9  17  29  44  63  85 112 142 175 212 255
#     4   9  18  32  48  64  86 112 140 172 211 254
#     4  10  16  22  33  50  75 109 146 180 213 253
#     4   9  16  26  38  55  80 109 140 176 215 257
#     4   9  17  28  43  62  84 109 141 174 208 249
#     4   9  18  32  47  64  85 111 139 172 210 252
#     4   8  15  25  36  53  79 108 138 171 210 250
#
# _framework density 21.578443
#
# number of rings (size 3 to 8) (size 9 to 14) (size 15 to 20)
#    0.000    3.000    0.000    3.375    0.000    5.000 
#    0.000    0.000    0.000    0.000    0.000    0.000 
#    0.000    1.000    0.000    4.250    0.000    4.875 
#
# Total GULP energy -178391.553694 kJ/mol
# GULP energy per Si atom -5574.736053 kJ/mol
# Density = 2.152933 g / cm^3
# Si number density = 21.578443 Si / 1000 Ang^3
#
#
#
# Elastic Constant Matrix: (Units=GPa)
#
#
# Indices 1 2 3 4 5 6 
#
# 1 105.8546 108.6763 6.5414 0.0000 0.0000 0.0000
# 2 108.6763 260.2211 -2.6966 0.0000 0.0000 0.0000
# 3 6.5414 -2.6966 62.6068 0.0000 0.0000 0.0000
# 4 0.0000 0.0000 0.0000 48.0873 0.0000 0.0000
# 5 0.0000 0.0000 0.0000 0.0000 -2.2633 0.0000
# 6 0.0000 0.0000 0.0000 0.0000 0.0000 39.4429
#
#
#
# Elastic Compliance Matrix: (Units=1/GPa)
#
#
# Indices 1 2 3 4 5 6 
#
# 1 0.016799 -0.007037 -0.002058 0.000000 0.000000 0.000000
# 2 -0.007037 0.006792 0.001028 0.000000 0.000000 0.000000
# 3 -0.002058 0.001028 0.016232 0.000000 0.000000 0.000000
# 4 0.000000 0.000000 0.000000 0.020796 0.000000 0.000000
# 5 0.000000 0.000000 0.000000 0.000000 -0.441826 0.000000
# 6 0.000000 0.000000 0.000000 0.000000 0.000000 0.025353
#
#
# Mechanical properties :
#
#
# Convention : Reuss Voigt Hill
#
# Bulk Modulus (GPa) = 42.21512 72.63607 57.42559
# Shear Modulus (GPa) = -15.06827 38.13081 11.53127
#
# Velocity S-wave (km/s) = -2.64541 4.20822 2.31419
# Velocity P-wave (km/s) = 3.20548 7.57276 5.81471
#
# Compressibility (1/GPa) = 0.02368820
#
# Stress axis : x y z
#
# Youngs Moduli (GPa) = 59.52856 147.22364 61.60661
#
# Poissons Ratio (x) = 1.03601 0.12680
# Poissons Ratio (y) = 0.41890 -0.06332
# Poissons Ratio (z) = 0.12253 -0.15132
#
# Static dielectric constant tensor:
#      x y z
#    x 1.749560 0.000000 0.000000 
#    y 0.000000 1.832810 0.000000 
#    z 0.000000 0.000000 1.828580 
# 
# From -- ./inp_files/5184.got.cif
#   From: 2010.05.17/outbox.cif.g08.bks.cpg/sg28_3_cif.got.tgz:5184.got - 2010.06.04 01:15:21.
