data_PCOD9339999
_publ_section_title
;
Structure prediction by ZEFSAII (Michael W. Deem and Ramdas Pophale) SiO2 
 PCOD9339999
Probable space group: P C A 21
;
_chemical_formula_sum "Si O2"
_cell_formula_units_Z 24
_cell_length_a 26.510944
_cell_length_b 7.003466
_cell_length_c 5.352472
_cell_angle_alpha 90.000000
_cell_angle_beta 90.000000
_cell_angle_gamma 90.000000
_cell_volume 993.785420
_symmetry_space_group_name_H-M "P C A 21"
_symmetry_group_IT_number 29
_symmetry_cell_setting 'orthorhombic'
loop_
_space_group_symop_operation_xyz
x,y,z
-x,-y,1/2+z
1/2-x,y,1/2+z
1/2+x,-y,z
loop_
_atom_site_type_symbol
_atom_site_label
_atom_site_fract_x
_atom_site_fract_y
_atom_site_fract_z
Si Si1 0.730903 0.462626 0.156020
Si Si2 0.068205 0.122949 0.871239
Si Si3 0.482407 0.610852 0.808209
Si Si4 0.769365 0.032649 0.766711
Si Si5 0.117037 0.051067 0.370523
Si Si6 0.118407 0.451928 0.148178
O O1 0.738539 0.551672 0.428479
O O2 0.749627 0.247259 0.209738
O O3 0.672184 0.461261 0.089173
O O4 0.089443 0.016306 0.630703
O O5 0.095858 0.329325 0.916971
O O6 0.010481 0.187364 0.843331
O O7 0.083485 0.014482 0.123825
O O8 0.493515 0.490698 0.061528
O O9 0.422988 0.597195 0.752619
O O10 0.763643 0.945289 0.490303
O O11 0.827493 0.035809 0.848127
O O12 0.124794 0.281163 0.348781
#
# Coordination Sequence:
#
# PCOD9339999 Si02
#       6
#     4   4   4   4   4   4
#     4  10  23  37  52  71 103 134 170 209 252 301
#     4   9  18  31  49  81 103 127 161 209 252 293
#     4  10  16  30  50  75 106 131 160 194 251 310
#     4  10  21  38  52  69  96 141 174 202 252 309
#     4  10  19  31  52  74 101 127 167 210 247 292
#     4   9  21  31  55  78 101 132 166 208 252 291
#
# _framework density 24.150082999999999
#
# number of rings (size 3 to 8) (size 9 to 14) (size 15 to 20)
#    1.000    1.333    1.667    1.000    2.333    1.333 
#    0.000    0.000    0.000    2.000    0.000    0.000 
#    0.000    0.000    0.000    0.000    0.000    0.000 
#
# Total GULP energy -133890.133852 kJ/mol
# GULP energy per Si atom -5578.755577 kJ/mol
# Density = 2.409512 g / cm^3
# Si number density = 24.150083 Si / 1000 Ang^3
#
#
#
# Elastic Constant Matrix: (Units=GPa)
#
#
# Indices 1 2 3 4 5 6 
#
# 1 130.7993 -7.7247 44.8536 0.0000 0.0000 0.0000
# 2 -7.7247 51.6715 4.7639 0.0000 0.0000 0.0000
# 3 44.8536 4.7639 187.9314 0.0000 0.0000 0.0000
# 4 0.0000 0.0000 0.0000 4.2549 0.0000 0.0000
# 5 0.0000 0.0000 0.0000 0.0000 34.6373 0.0000
# 6 0.0000 0.0000 0.0000 0.0000 0.0000 34.0770
#
#
#
# Elastic Compliance Matrix: (Units=1/GPa)
#
#
# Indices 1 2 3 4 5 6 
#
# 1 0.008434 0.001450 -0.002050 0.000000 0.000000 0.000000
# 2 0.001450 0.019648 -0.000844 0.000000 0.000000 0.000000
# 3 -0.002050 -0.000844 0.005832 0.000000 0.000000 0.000000
# 4 0.000000 0.000000 0.000000 0.235021 0.000000 0.000000
# 5 0.000000 0.000000 0.000000 0.000000 0.028871 0.000000
# 6 0.000000 0.000000 0.000000 0.000000 0.000000 0.029345
#
#
# Mechanical properties :
#
#
# Convention : Reuss Voigt Hill
#
# Bulk Modulus (GPa) = 32.23189 50.46532 41.34860
# Shear Modulus (GPa) = 14.68951 36.49449 25.59200
#
# Velocity S-wave (km/s) = 2.46897 3.89157 3.25884
# Velocity P-wave (km/s) = 4.63715 6.41361 5.59632
#
# Compressibility (1/GPa) = 0.03102518
#
# Stress axis : x y z
#
# Youngs Moduli (GPa) = 118.57074 50.89687 171.47735
#
# Poissons Ratio (x) = -0.07379 0.35147
# Poissons Ratio (y) = -0.17190 0.14474
# Poissons Ratio (z) = 0.24303 0.04296
#
# Static dielectric constant tensor:
#      x y z
#    x 1.874950 0.000000 0.000000 
#    y 0.000000 1.941760 0.000000 
#    z 0.000000 0.000000 1.973410 
# 
# From -- ./inp_files/633.got.cif
#   From: 2010.05.17/outbox.cif.g08.bks.cpg/sg29_1_cif.got.tgz:633.got - 2010.06.04 01:19:37.
