data_PCOD9339647
_publ_section_title
;
Structure prediction by ZEFSAII (Michael W. Deem and Ramdas Pophale) SiO2 
 PCOD9339647
Probable space group: P M A 2
;
_chemical_formula_sum "Si O2"
_cell_formula_units_Z 28
_cell_length_a 8.700725
_cell_length_b 14.648436
_cell_length_c 13.110215
_cell_angle_alpha 90.000000
_cell_angle_beta 90.000000
_cell_angle_gamma 90.000000
_cell_volume 1670.923297
_symmetry_space_group_name_H-M "P M A 2"
_symmetry_group_IT_number 28
_symmetry_cell_setting 'orthorhombic'
loop_
_space_group_symop_operation_xyz
x,y,z
-x,-y,z
1/2-x,y,z
1/2+x,-y,z
loop_
_atom_site_type_symbol
_atom_site_label
_atom_site_fract_x
_atom_site_fract_y
_atom_site_fract_z
Si Si1 0.434126 0.600638 0.670470
Si Si2 0.434529 0.397966 0.056441
Si Si3 0.565610 0.600838 0.450477
Si Si4 0.066906 0.903274 0.173218
Si Si5 0.934356 0.281968 0.867963
Si Si6 0.434785 0.278534 0.256394
Si Si7 0.933652 0.902480 0.945114
O O1 0.500000 0.500000 0.693610
O O2 0.250000 0.594242 0.663110
O O3 0.501390 0.628635 0.560917
O O4 0.473838 0.669111 0.761619
O O5 0.500000 0.500000 0.060346
O O6 0.250000 0.401005 0.047169
O O7 0.473064 0.342935 0.159774
O O8 0.503461 0.343777 0.960592
O O9 0.500000 0.500000 0.428391
O O10 0.750000 0.595030 0.455164
O O11 0.522814 0.669709 0.360209
O O12 0.250000 0.908946 0.164337
O O13 0.016355 0.818060 0.241203
O O14 0.000000 0.000000 0.210153
O O15 0.995761 0.888054 0.060420
O O16 0.750000 0.275484 0.875874
O O17 0.007210 0.182208 0.879453
O O18 0.250000 0.264989 0.255296
O O19 0.750000 0.905196 0.947691
O O20 0.000000 0.000000 0.910627
#
# Coordination Sequence:
#
# PCOD9339647 Si02
#       7
#     4   4   4   4   4   4   4
#     4  10  21  36  55  78 107 141 183 228 266 315
#     4  11  22  34  50  74 109 145 176 215 265 321
#     4  10  20  35  56  79 107 142 183 226 266 315
#     4  11  21  34  55  79 108 143 179 220 265 318
#     4  11  22  36  54  79 108 141 181 222 270 321
#     4  10  21  36  53  78 109 142 179 221 268 318
#     4  11  21  35  55  79 109 142 178 220 266 320
#
# _framework density 16.757203000000001
#
# number of rings (size 3 to 8) (size 9 to 14) (size 15 to 20)
#    0.000    1.429    1.429    6.857    0.000    5.143 
#    0.000    0.000    0.000    0.857    0.000    6.000 
#    0.000    0.000    0.000    0.000    0.000    0.000 
#
# Total GULP energy -156466.379290 kJ/mol
# GULP energy per Si atom -5588.084975 kJ/mol
# Density = 1.671906 g / cm^3
# Si number density = 16.757203 Si / 1000 Ang^3
#
#
#
# Elastic Constant Matrix: (Units=GPa)
#
#
# Indices 1 2 3 4 5 6 
#
# 1 98.3001 73.0700 66.8858 0.0000 0.0000 0.0000
# 2 73.0700 160.8985 101.4724 0.0000 0.0000 0.0000
# 3 66.8858 101.4724 126.6192 0.0000 0.0000 0.0000
# 4 0.0000 0.0000 0.0000 17.9059 0.0000 0.0000
# 5 0.0000 0.0000 0.0000 0.0000 69.5482 0.0000
# 6 0.0000 0.0000 0.0000 0.0000 0.0000 30.3299
#
#
#
# Elastic Compliance Matrix: (Units=1/GPa)
#
#
# Indices 1 2 3 4 5 6 
#
# 1 0.017181 -0.004203 -0.005707 0.000000 0.000000 0.000000
# 2 -0.004203 0.013594 -0.008674 0.000000 0.000000 0.000000
# 3 -0.005707 -0.008674 0.017864 0.000000 0.000000 0.000000
# 4 0.000000 0.000000 0.000000 0.055848 0.000000 0.000000
# 5 0.000000 0.000000 0.000000 0.000000 0.014379 0.000000
# 6 0.000000 0.000000 0.000000 0.000000 0.000000 0.032971
#
#
# Mechanical properties :
#
#
# Convention : Reuss Voigt Hill
#
# Bulk Modulus (GPa) = 87.18460 96.51936 91.85198
# Shear Modulus (GPa) = 25.92981 33.18276 29.55628
#
# Velocity S-wave (km/s) = 3.93795 4.45478 4.20431
# Velocity P-wave (km/s) = 8.53333 9.17518 8.86007
#
# Compressibility (1/GPa) = 0.01146992
#
# Stress axis : x y z
#
# Youngs Moduli (GPa) = 58.20549 73.55985 55.97819
#
# Poissons Ratio (x) = 0.30917 0.31948
# Poissons Ratio (y) = 0.24464 0.48557
# Poissons Ratio (z) = 0.33219 0.63808
#
# Static dielectric constant tensor:
#      x y z
#    x 1.561320 0.000000 0.000000 
#    y 0.000000 1.553100 0.000000 
#    z 0.000000 0.000000 1.546710 
# 
# From -- ./inp_files/4826.got.cif
#   From: 2010.05.17/outbox.cif.g08.bks.cpg/sg28_3_cif.got.tgz:4826.got - 2010.06.04 01:15:21.
