data_PCOD9339937
_publ_section_title
;
Structure prediction by ZEFSAII (Michael W. Deem and Ramdas Pophale) SiO2 
 PCOD9339937
Probable space group: P M A 2
;
_chemical_formula_sum "Si O2"
_cell_formula_units_Z 12
_cell_length_a 17.579117
_cell_length_b 5.362127
_cell_length_c 4.880951
_cell_angle_alpha 90.000000
_cell_angle_beta 90.000000
_cell_angle_gamma 90.000000
_cell_volume 460.085557
_symmetry_space_group_name_H-M "P M A 2"
_symmetry_group_IT_number 28
_symmetry_cell_setting 'orthorhombic'
loop_
_space_group_symop_operation_xyz
x,y,z
-x,-y,z
1/2-x,y,z
1/2+x,-y,z
loop_
_atom_site_type_symbol
_atom_site_label
_atom_site_fract_x
_atom_site_fract_y
_atom_site_fract_z
Si Si1 0.750000 0.959147 0.209680
Si Si2 0.126139 0.418503 0.043164
Si Si3 0.250000 0.669961 0.707841
Si Si4 0.481602 0.745068 0.306769
O O1 0.750000 0.182881 0.426170
O O2 0.750000 0.100753 0.921247
O O3 0.820375 0.766156 0.216116
O O4 0.176107 0.501034 0.783085
O O5 0.045023 0.275830 0.062667
O O6 0.100016 0.680752 0.183526
O O7 0.500000 0.500000 0.484462
O O8 0.500000 0.000000 0.449526
#
# Coordination Sequence:
#
# PCOD9339937 Si02
#       4
#     2   4   2   4
#     4  11  22  39  64  94 135 172 219 274 339 402
#     4   8  20  34  62  96 128 176 224 278 334 406
#     4  11  22  39  64  94 135 172 219 274 339 402
#     4   8  16  34  64  92 130 174 224 278 332 398
#
# _framework density 26.082108000000002
#
# number of rings (size 3 to 8) (size 9 to 14) (size 15 to 20)
#    2.000    0.667    0.000    2.000    0.000    5.333 
#    0.000    0.000    0.000   82.000    0.000    0.000 
#    0.000    0.000    0.000    0.000    0.000    0.000 
#
# Total GULP energy -66814.965606 kJ/mol
# GULP energy per Si atom -5567.913800 kJ/mol
# Density = 2.602274 g / cm^3
# Si number density = 26.082108 Si / 1000 Ang^3
#
#
#
# Elastic Constant Matrix: (Units=GPa)
#
#
# Indices 1 2 3 4 5 6 
#
# 1 171.6392 24.1151 40.7202 0.0000 0.0000 0.0000
# 2 24.1151 165.9266 23.8996 0.0000 0.0000 0.0000
# 3 40.7202 23.8996 61.7427 0.0000 0.0000 0.0000
# 4 0.0000 0.0000 0.0000 46.3729 0.0000 0.0000
# 5 0.0000 0.0000 0.0000 0.0000 -7.7531 0.0000
# 6 0.0000 0.0000 0.0000 0.0000 0.0000 51.4625
#
#
#
# Elastic Compliance Matrix: (Units=1/GPa)
#
#
# Indices 1 2 3 4 5 6 
#
# 1 0.006928 -0.000369 -0.004426 0.000000 0.000000 0.000000
# 2 -0.000369 0.006402 -0.002235 0.000000 0.000000 0.000000
# 3 -0.004426 -0.002235 0.019980 0.000000 0.000000 0.000000
# 4 0.000000 0.000000 0.000000 0.021564 0.000000 0.000000
# 5 0.000000 0.000000 0.000000 0.000000 -0.128981 0.000000
# 6 0.000000 0.000000 0.000000 0.000000 0.000000 0.019432
#
#
# Mechanical properties :
#
#
# Convention : Reuss Voigt Hill
#
# Bulk Modulus (GPa) = 51.94697 64.08647 58.01672
# Shear Modulus (GPa) = -146.21207 38.72137 -53.74535
#
# Velocity S-wave (km/s) = -7.49534 3.85722 -4.54433
# Velocity P-wave (km/s) = 7.41261 6.66798 2.28964
#
# Compressibility (1/GPa) = 0.01925040
#
# Stress axis : x y z
#
# Youngs Moduli (GPa) = 144.33834 156.19355 50.04906
#
# Poissons Ratio (x) = 0.05769 0.22153
# Poissons Ratio (y) = 0.05331 0.11184
# Poissons Ratio (z) = 0.63888 0.34903
#
# Static dielectric constant tensor:
#      x y z
#    x 2.121900 0.000000 0.000000 
#    y 0.000000 2.134780 0.000000 
#    z 0.000000 0.000000 1.990290 
# 
# From -- ./inp_files/920.got.cif
#   From: 2010.05.17/outbox.cif.g08.bks.cpg/sg28_1_cif.got.tgz:920.got - 2010.06.04 01:15:21.
