data_PCOD9339859
_publ_section_title
;
Structure prediction by ZEFSAII (Michael W. Deem and Ramdas Pophale) SiO2 
 PCOD9339859
Probable space group: P M A 2
;
_chemical_formula_sum "Si O2"
_cell_formula_units_Z 20
_cell_length_a 10.206528
_cell_length_b 7.674208
_cell_length_c 12.715956
_cell_angle_alpha 90.000000
_cell_angle_beta 90.000000
_cell_angle_gamma 90.000000
_cell_volume 996.002925
_symmetry_space_group_name_H-M "P M A 2"
_symmetry_group_IT_number 28
_symmetry_cell_setting 'orthorhombic'
loop_
_space_group_symop_operation_xyz
x,y,z
-x,-y,z
1/2-x,y,z
1/2+x,-y,z
loop_
_atom_site_type_symbol
_atom_site_label
_atom_site_fract_x
_atom_site_fract_y
_atom_site_fract_z
Si Si1 0.016316 0.800495 0.720530
Si Si2 0.900735 0.342006 0.931998
Si Si3 0.750000 0.988152 0.450764
Si Si4 0.000000 0.000000 0.310956
Si Si5 0.094646 0.668166 0.176973
Si Si6 0.750000 0.704053 0.629072
Si Si7 0.250000 0.671087 0.575483
O O1 0.878366 0.707091 0.701227
O O2 0.064446 0.792711 0.840492
O O3 0.123943 0.713499 0.646395
O O4 0.000000 0.000000 0.688237
O O5 0.750000 0.397140 0.918108
O O6 0.000000 0.500000 0.915910
O O7 0.915649 0.284535 0.052770
O O8 0.750000 0.875066 0.556615
O O9 0.621281 0.946867 0.384262
O O10 0.750000 0.193496 0.479928
O O11 0.953414 0.165516 0.242738
O O12 0.250000 0.631138 0.197839
O O13 0.000000 0.500000 0.195064
O O14 0.750000 0.534211 0.555018
#
# Coordination Sequence:
#
# PCOD9339859 Si02
#       7
#     4   4   2   2   4   2   2
#     4  12  23  41  65 100 138 175 219 269 326 397
#     4  10  22  41  66 101 139 175 219 265 324 404
#     4  12  26  46  68 100 132 170 234 292 340 398
#     4  12  26  46  72  98 138 172 228 294 346 398
#     4  10  24  46  72 103 137 178 226 278 341 407
#     4  12  26  44  71  95 132 181 221 274 333 394
#     4  12  24  46  67  93 132 175 225 272 331 398
#
# _framework density 20.080262000000001
#
# number of rings (size 3 to 8) (size 9 to 14) (size 15 to 20)
#    0.000    0.800    4.000    3.000    4.200    1.600 
#    0.000    0.000    0.000    0.000    0.000    0.000 
#    0.000    0.000    0.000    0.000    0.000    0.000 
#
# Total GULP energy -111792.675076 kJ/mol
# GULP energy per Si atom -5589.633754 kJ/mol
# Density = 2.003456 g / cm^3
# Si number density = 20.080262 Si / 1000 Ang^3
#
#
#
# Elastic Constant Matrix: (Units=GPa)
#
#
# Indices 1 2 3 4 5 6 
#
# 1 177.3397 25.9011 52.2891 0.0000 0.0000 0.0000
# 2 25.9011 71.6297 17.2730 0.0000 0.0000 0.0000
# 3 52.2891 17.2730 70.2241 0.0000 0.0000 0.0000
# 4 0.0000 0.0000 0.0000 32.4747 0.0000 0.0000
# 5 0.0000 0.0000 0.0000 0.0000 36.0831 0.0000
# 6 0.0000 0.0000 0.0000 0.0000 0.0000 169.1722
#
#
#
# Elastic Compliance Matrix: (Units=1/GPa)
#
#
# Indices 1 2 3 4 5 6 
#
# 1 0.007359 -0.001424 -0.005129 0.000000 0.000000 0.000000
# 2 -0.001424 0.015117 -0.002658 0.000000 0.000000 0.000000
# 3 -0.005129 -0.002658 0.018713 0.000000 0.000000 0.000000
# 4 0.000000 0.000000 0.000000 0.030793 0.000000 0.000000
# 5 0.000000 0.000000 0.000000 0.000000 0.027714 0.000000
# 6 0.000000 0.000000 0.000000 0.000000 0.000000 0.005911
#
#
# Mechanical properties :
#
#
# Convention : Reuss Voigt Hill
#
# Bulk Modulus (GPa) = 43.92455 56.68002 50.30228
# Shear Modulus (GPa) = 37.98844 62.46135 50.22490
#
# Velocity S-wave (km/s) = 4.35424 5.58331 5.00663
# Velocity P-wave (km/s) = 6.87031 8.35778 7.65028
#
# Compressibility (1/GPa) = 0.02276631
#
# Stress axis : x y z
#
# Youngs Moduli (GPa) = 135.88160 66.15259 53.43797
#
# Poissons Ratio (x) = 0.09421 0.27411
# Poissons Ratio (y) = 0.19352 0.14203
# Poissons Ratio (z) = 0.69700 0.17582
#
# Static dielectric constant tensor:
#      x y z
#    x 1.694760 0.000000 0.000000 
#    y 0.000000 1.683900 0.000000 
#    z 0.000000 0.000000 1.698650 
# 
# From -- ./inp_files/4626.got.cif
#   From: 2010.05.17/outbox.cif.g08.bks.cpg/sg28_3_cif.got.tgz:4626.got - 2010.06.04 01:15:21.
