data_PCOD9339381
_publ_section_title
;
Structure prediction by ZEFSAII (Michael W. Deem and Ramdas Pophale) SiO2 
 PCOD9339381
Probable space group: P M A 2
;
_chemical_formula_sum "Si O2"
_cell_formula_units_Z 32
_cell_length_a 9.156485
_cell_length_b 17.560917
_cell_length_c 11.812405
_cell_angle_alpha 90.000000
_cell_angle_beta 90.000000
_cell_angle_gamma 90.000000
_cell_volume 1899.390700
_symmetry_space_group_name_H-M "P M A 2"
_symmetry_group_IT_number 28
_symmetry_cell_setting 'orthorhombic'
loop_
_space_group_symop_operation_xyz
x,y,z
-x,-y,z
1/2-x,y,z
1/2+x,-y,z
loop_
_atom_site_type_symbol
_atom_site_label
_atom_site_fract_x
_atom_site_fract_y
_atom_site_fract_z
Si Si1 0.083838 0.192915 0.695760
Si Si2 0.074711 0.276857 0.476894
Si Si3 0.575417 0.422768 0.584584
Si Si4 0.923395 0.924460 0.113215
Si Si5 0.417478 0.364192 0.800995
Si Si6 0.582795 0.307065 0.008944
Si Si7 0.584049 0.136734 0.900429
Si Si8 0.576172 0.760982 0.216674
O O1 0.250000 0.163876 0.699078
O O2 0.038968 0.209846 0.566694
O O3 0.085926 0.277534 0.752122
O O4 0.980332 0.142815 0.774556
O O5 0.250000 0.291276 0.490452
O O6 0.046100 0.255234 0.347650
O O7 0.985550 0.351130 0.514055
O O8 0.500000 0.500000 0.542593
O O9 0.750000 0.426825 0.581289
O O10 0.517629 0.409156 0.712643
O O11 0.750000 0.933728 0.111683
O O12 0.959482 0.848221 0.183733
O O13 0.000000 0.000000 0.158642
O O14 0.983269 0.909391 0.986700
O O15 0.250000 0.391810 0.801279
O O16 0.487346 0.358910 0.925094
O O17 0.750000 0.333206 0.016760
O O18 0.510484 0.293360 0.130770
O O19 0.584912 0.223078 0.950437
O O20 0.750000 0.108400 0.902237
O O21 0.750000 0.751253 0.196642
#
# Coordination Sequence:
#
# PCOD9339381 Si02
#       8
#     4   4   4   4   4   4   4   4
#     4   8  14  25  43  66  91 118 149 189 234 278
#     4   9  18  33  51  72  98 131 172 211 247 293
#     4  11  21  33  50  73 100 129 162 203 252 302
#     4  10  19  31  48  70  96 126 160 201 250 301
#     4   9  16  28  46  68  94 123 154 189 234 286
#     4   9  16  26  43  69  97 122 152 193 238 282
#     4   9  16  26  42  65  92 119 149 187 232 284
#     4   9  18  32  50  71  97 132 172 209 248 296
#
# _framework density 16.847508000000001
#
# number of rings (size 3 to 8) (size 9 to 14) (size 15 to 20)
#    0.000    2.750    0.000    3.375    0.000    7.000 
#    0.000    0.000    0.000    1.500    0.000    3.500 
#    0.000    0.000    0.000    0.000    0.000    0.000 
#
# Total GULP energy -178318.662000 kJ/mol
# GULP energy per Si atom -5572.458187 kJ/mol
# Density = 1.680916 g / cm^3
# Si number density = 16.847508 Si / 1000 Ang^3
#
#
#
# Elastic Constant Matrix: (Units=GPa)
#
#
# Indices 1 2 3 4 5 6 
#
# 1 99.8084 36.7453 60.8160 0.0000 0.0000 0.0000
# 2 36.7453 42.8075 26.6164 0.0000 0.0000 0.0000
# 3 60.8160 26.6164 129.8562 0.0000 0.0000 0.0000
# 4 0.0000 0.0000 0.0000 9.6106 0.0000 0.0000
# 5 0.0000 0.0000 0.0000 0.0000 22.2500 0.0000
# 6 0.0000 0.0000 0.0000 0.0000 0.0000 19.0217
#
#
#
# Elastic Compliance Matrix: (Units=1/GPa)
#
#
# Indices 1 2 3 4 5 6 
#
# 1 0.018004 -0.011703 -0.006033 0.000000 0.000000 0.000000
# 2 -0.011703 0.034380 -0.001566 0.000000 0.000000 0.000000
# 3 -0.006033 -0.001566 0.010847 0.000000 0.000000 0.000000
# 4 0.000000 0.000000 0.000000 0.104052 0.000000 0.000000
# 5 0.000000 0.000000 0.000000 0.000000 0.044944 0.000000
# 6 0.000000 0.000000 0.000000 0.000000 0.000000 0.052571
#
#
# Mechanical properties :
#
#
# Convention : Reuss Voigt Hill
#
# Bulk Modulus (GPa) = 40.60589 57.86971 49.23780
# Shear Modulus (GPa) = 16.04563 20.06275 18.05419
#
# Velocity S-wave (km/s) = 3.08945 3.45460 3.27712
# Velocity P-wave (km/s) = 6.07294 7.09479 6.60366
#
# Compressibility (1/GPa) = 0.02462697
#
# Stress axis : x y z
#
# Youngs Moduli (GPa) = 55.54346 29.08688 92.18918
#
# Poissons Ratio (x) = 0.34041 0.55618
# Poissons Ratio (y) = 0.65003 0.14435
# Poissons Ratio (z) = 0.33510 0.04554
#
# Static dielectric constant tensor:
#      x y z
#    x 1.567190 0.000000 0.000000 
#    y 0.000000 1.578570 0.000000 
#    z 0.000000 0.000000 1.564440 
# 
# From -- ./inp_files/5181.got.cif
#   From: 2010.05.17/outbox.cif.g08.bks.cpg/sg28_3_cif.got.tgz:5181.got - 2010.06.04 01:15:21.
