data_PCOD9339655
_publ_section_title
;
Structure prediction by ZEFSAII (Michael W. Deem and Ramdas Pophale) SiO2 
 PCOD9339655
Probable space group: P M A 2
;
_chemical_formula_sum "Si O2"
_cell_formula_units_Z 24
_cell_length_a 8.375060
_cell_length_b 19.672196
_cell_length_c 7.789698
_cell_angle_alpha 90.000000
_cell_angle_beta 90.000000
_cell_angle_gamma 90.000000
_cell_volume 1283.398096
_symmetry_space_group_name_H-M "P M A 2"
_symmetry_group_IT_number 28
_symmetry_cell_setting 'orthorhombic'
loop_
_space_group_symop_operation_xyz
x,y,z
-x,-y,z
1/2-x,y,z
1/2+x,-y,z
loop_
_atom_site_type_symbol
_atom_site_label
_atom_site_fract_x
_atom_site_fract_y
_atom_site_fract_z
Si Si1 0.442830 0.575347 0.484560
Si Si2 0.560216 0.923947 0.484701
Si Si3 0.445354 0.673572 0.180690
Si Si4 0.942829 0.424657 0.876737
Si Si5 0.443036 0.829370 0.180155
Si Si6 0.058373 0.924147 0.868569
O O1 0.500000 0.500000 0.434845
O O2 0.250000 0.575088 0.484147
O O3 0.496703 0.631637 0.348784
O O4 0.496444 0.588346 0.680648
O O5 0.750000 0.924762 0.482324
O O6 0.496615 0.870393 0.347451
O O7 0.502116 0.908160 0.677509
O O8 0.500000 0.000000 0.442019
O O9 0.250000 0.674155 0.180626
O O10 0.498952 0.751472 0.180670
O O11 0.496582 0.631617 0.012588
O O12 0.750000 0.424919 0.877050
O O13 0.000000 0.500000 0.926455
O O14 0.250000 0.828636 0.177722
O O15 0.496618 0.870613 0.011366
O O16 0.250000 0.924742 0.864856
O O17 0.000000 0.000000 0.913154
#
# Coordination Sequence:
#
# PCOD9339655 Si02
#       6
#     4   4   4   4   4   4
#     4   9  17  30  50  73  98 129 167 210 251 297
#     4  11  22  37  58  81 107 139 176 218 262 312
#     4   9  18  32  50  73 100 132 169 206 250 306
#     4   9  17  30  49  72  96 127 167 209 252 297
#     4  10  21  36  55  80 109 141 177 218 264 314
#     4  10  20  35  57  81 105 136 175 219 263 310
#
# _framework density 18.700354000000001
#
# number of rings (size 3 to 8) (size 9 to 14) (size 15 to 20)
#    0.000    2.333    0.000    4.000    0.000    4.000 
#    0.000    6.667    0.000    4.000    0.000    0.000 
#    0.000    0.000    0.000    0.000    0.000    0.000 
#
# Total GULP energy -133982.295920 kJ/mol
# GULP energy per Si atom -5582.595663 kJ/mol
# Density = 1.865779 g / cm^3
# Si number density = 18.700354 Si / 1000 Ang^3
#
#
#
# Elastic Constant Matrix: (Units=GPa)
#
#
# Indices 1 2 3 4 5 6 
#
# 1 17.1172 21.7152 17.7239 0.0000 0.0000 0.0000
# 2 21.7152 198.8725 144.6606 0.0000 0.0000 0.0000
# 3 17.7239 144.6606 142.0494 0.0000 0.0000 0.0000
# 4 0.0000 0.0000 0.0000 3.0949 0.0000 0.0000
# 5 0.0000 0.0000 0.0000 0.0000 15.1386 0.0000
# 6 0.0000 0.0000 0.0000 0.0000 0.0000 25.4840
#
#
#
# Elastic Compliance Matrix: (Units=1/GPa)
#
#
# Indices 1 2 3 4 5 6 
#
# 1 0.068282 -0.004855 -0.003576 0.000000 0.000000 0.000000
# 2 -0.004855 0.019743 -0.019500 0.000000 0.000000 0.000000
# 3 -0.003576 -0.019500 0.027344 0.000000 0.000000 0.000000
# 4 0.000000 0.000000 0.000000 0.323112 0.000000 0.000000
# 5 0.000000 0.000000 0.000000 0.000000 0.066056 0.000000
# 6 0.000000 0.000000 0.000000 0.000000 0.000000 0.039240
#
#
# Mechanical properties :
#
#
# Convention : Reuss Voigt Hill
#
# Bulk Modulus (GPa) = 16.80440 80.69318 48.74879
# Shear Modulus (GPa) = 8.07135 20.33946 14.20541
#
# Velocity S-wave (km/s) = 2.07979 3.30153 2.75913
# Velocity P-wave (km/s) = 3.84357 7.60117 6.02291
#
# Compressibility (1/GPa) = 0.05950824
#
# Stress axis : x y z
#
# Youngs Moduli (GPa) = 14.64515 50.65122 36.57053
#
# Poissons Ratio (x) = 0.24591 0.13076
# Poissons Ratio (y) = 0.07110 0.71313
# Poissons Ratio (z) = 0.05236 0.98770
#
# Static dielectric constant tensor:
#      x y z
#    x 1.644290 0.000000 0.000000 
#    y 0.000000 1.617590 0.000000 
#    z 0.000000 0.000000 1.646210 
# 
# From -- ./inp_files/2557.got.cif
#   From: 2010.05.17/outbox.cif.g08.bks.cpg/sg28_2_cif.got.tgz:2557.got - 2010.06.04 01:15:21.
