data_PCOD9339997
_publ_section_title
;
Structure prediction by ZEFSAII (Michael W. Deem and Ramdas Pophale) SiO2 
 PCOD9339997
Probable space group: P C A 21
;
_chemical_formula_sum "Si O2"
_cell_formula_units_Z 28
_cell_length_a 5.126514
_cell_length_b 6.520536
_cell_length_c 35.670651
_cell_angle_alpha 90.000000
_cell_angle_beta 90.000000
_cell_angle_gamma 90.000000
_cell_volume 1192.384934
_symmetry_space_group_name_H-M "P C A 21"
_symmetry_group_IT_number 29
_symmetry_cell_setting 'orthorhombic'
loop_
_space_group_symop_operation_xyz
x,y,z
-x,-y,1/2+z
1/2-x,y,1/2+z
1/2+x,-y,z
loop_
_atom_site_type_symbol
_atom_site_label
_atom_site_fract_x
_atom_site_fract_y
_atom_site_fract_z
Si Si1 0.873248 0.795931 0.873400
Si Si2 0.129488 0.745047 0.403909
Si Si3 0.564660 0.365223 0.638382
Si Si4 0.457498 0.644296 0.296687
Si Si5 0.946784 0.858417 0.482266
Si Si6 0.560478 0.641700 0.216737
Si Si7 0.067855 0.866733 0.561308
O O1 0.073065 0.675625 0.900374
O O2 0.992844 0.790471 0.832081
O O3 0.589347 0.693418 0.873231
O O4 0.820224 0.014991 0.892205
O O5 0.012605 0.731848 0.445198
O O6 0.360239 0.554084 0.638977
O O7 0.499096 0.248483 0.677287
O O8 0.517808 0.248643 0.599840
O O9 0.677113 0.464761 0.298085
O O10 0.502434 0.749836 0.256200
O O11 0.000948 0.752561 0.522290
O O12 0.157903 0.046095 0.481098
O O13 0.851409 0.548186 0.216724
O O14 0.365504 0.942896 0.560495
#
# Coordination Sequence:
#
# PCOD9339997 Si02
#       7
#     4   4   4   4   4   4   4
#     4  10  18  28  49  68  95 118 161 214 235 280
#     4  10  17  30  48  73  87 124 167 200 242 286
#     4  10  19  35  58  80 106 141 181 217 259 319
#     4  10  19  32  48  71  98 130 167 203 248 298
#     4  10  16  30  49  75  91 124 170 212 239 299
#     4   8  16  30  51  72  92 129 175 204 235 304
#     4  10  21  33  55  83 109 136 177 220 272 312
#
# _framework density 23.482348000000002
#
# number of rings (size 3 to 8) (size 9 to 14) (size 15 to 20)
#    0.000    2.286    2.857    1.714    0.000    0.000 
#    0.000    0.000    6.286    5.143    0.000    0.000 
#    0.000    0.000    0.000    0.000    0.000    0.000 
#
# Total GULP energy -156135.122411 kJ/mol
# GULP energy per Si atom -5576.254372 kJ/mol
# Density = 2.342890 g / cm^3
# Si number density = 23.482348 Si / 1000 Ang^3
#
#
#
# Elastic Constant Matrix: (Units=GPa)
#
#
# Indices 1 2 3 4 5 6 
#
# 1 127.6747 -20.4115 -9.2391 0.0000 0.0000 0.0000
# 2 -20.4115 24.9677 1.7688 0.0000 0.0000 0.0000
# 3 -9.2391 1.7688 216.0950 0.0000 0.0000 0.0000
# 4 0.0000 0.0000 0.0000 30.5098 0.0000 0.0000
# 5 0.0000 0.0000 0.0000 0.0000 37.6612 0.0000
# 6 0.0000 0.0000 0.0000 0.0000 0.0000 -17.4671
#
#
#
# Elastic Compliance Matrix: (Units=1/GPa)
#
#
# Indices 1 2 3 4 5 6 
#
# 1 0.009033 0.007361 0.000326 0.000000 0.000000 0.000000
# 2 0.007361 0.046074 -0.000062 0.000000 0.000000 0.000000
# 3 0.000326 -0.000062 0.004642 0.000000 0.000000 0.000000
# 4 0.000000 0.000000 0.000000 0.032776 0.000000 0.000000
# 5 0.000000 0.000000 0.000000 0.000000 0.026553 0.000000
# 6 0.000000 0.000000 0.000000 0.000000 0.000000 -0.057251
#
#
# Mechanical properties :
#
#
# Convention : Reuss Voigt Hill
#
# Bulk Modulus (GPa) = 13.33347 34.77485 24.05416
# Shear Modulus (GPa) = 69.85450 36.58206 53.21828
#
# Velocity S-wave (km/s) = 5.46006 3.95125 4.76574
# Velocity P-wave (km/s) = 6.74092 5.97139 6.36779
#
# Compressibility (1/GPa) = 0.07499922
#
# Stress axis : x y z
#
# Youngs Moduli (GPa) = 110.70674 21.70407 215.42247
#
# Poissons Ratio (x) = -0.15977 -0.07022
# Poissons Ratio (y) = -0.81496 0.01344
# Poissons Ratio (z) = -0.03608 0.00135
#
# Static dielectric constant tensor:
#      x y z
#    x 1.938480 0.000000 0.000000 
#    y 0.000000 2.742250 0.000000 
#    z 0.000000 0.000000 1.957830 
# 
# From -- ./inp_files/5752.got.cif
#   From: 2010.05.17/outbox.cif.g08.bks.cpg/sg29_3_cif.got.tgz:5752.got - 2010.06.04 01:19:37.
