data_PCOD9339901
_publ_section_title
;
Structure prediction by ZEFSAII (Michael W. Deem and Ramdas Pophale) SiO2 
 PCOD9339901
Probable space group: P M A 2
;
_chemical_formula_sum "Si O2"
_cell_formula_units_Z 30
_cell_length_a 19.976009
_cell_length_b 11.336182
_cell_length_c 5.551726
_cell_angle_alpha 90.000000
_cell_angle_beta 90.000000
_cell_angle_gamma 90.000000
_cell_volume 1257.197644
_symmetry_space_group_name_H-M "P M A 2"
_symmetry_group_IT_number 28
_symmetry_cell_setting 'orthorhombic'
loop_
_space_group_symop_operation_xyz
x,y,z
-x,-y,z
1/2-x,y,z
1/2+x,-y,z
loop_
_atom_site_type_symbol
_atom_site_label
_atom_site_fract_x
_atom_site_fract_y
_atom_site_fract_z
Si Si1 0.327997 0.707256 0.081310
Si Si2 0.561748 0.575464 0.504316
Si Si3 0.872626 0.938404 0.422890
Si Si4 0.375092 0.818325 0.574358
Si Si5 0.825093 0.707169 0.204140
Si Si6 0.675354 0.523257 0.828500
Si Si7 0.020469 0.194538 0.731116
Si Si8 0.500000 0.000000 0.117043
O O1 0.250000 0.737902 0.081230
O O2 0.356402 0.746273 0.336470
O O3 0.334340 0.566294 0.048965
O O4 0.357551 0.762888 0.834637
O O5 0.500000 0.500000 0.403146
O O6 0.608184 0.651006 0.323764
O O7 0.531603 0.666131 0.704257
O O8 0.616883 0.499234 0.642861
O O9 0.830994 0.845114 0.266276
O O10 0.913301 0.867113 0.626756
O O11 0.930159 0.990972 0.252790
O O12 0.840840 0.053074 0.544843
O O13 0.455448 0.830251 0.570900
O O14 0.750000 0.669924 0.291405
O O15 0.827113 0.656524 0.932209
O O16 0.750000 0.499792 0.732780
O O17 0.002115 0.122775 0.968893
#
# Coordination Sequence:
#
# PCOD9339901 Si02
#       8
#     4   4   4   4   4   4   4   2
#     4  11  27  44  71 100 137 185 242 297 360 440
#     4  11  24  41  65 103 135 175 236 300 367 430
#     4  11  23  39  68  98 137 187 235 297 359 442
#     4  12  23  45  70 103 141 185 235 298 371 430
#     4  10  24  45  68  98 138 189 242 300 368 446
#     4  10  23  46  69  94 134 192 242 299 372 447
#     4  11  23  38  64  99 136 178 226 285 363 432
#     4  12  18  40  64  98 136 184 234 286 368 430
#
# _framework density 23.862594999999999
#
# number of rings (size 3 to 8) (size 9 to 14) (size 15 to 20)
#    0.000    1.067    2.667    3.200    3.733    1.600 
#    2.400    0.000    0.000    0.000    0.000    0.000 
#    0.000    0.000    0.000    0.000    0.000    0.000 
#
# Total GULP energy -167522.255134 kJ/mol
# GULP energy per Si atom -5584.075171 kJ/mol
# Density = 2.380828 g / cm^3
# Si number density = 23.862595 Si / 1000 Ang^3
#
#
#
# Elastic Constant Matrix: (Units=GPa)
#
#
# Indices 1 2 3 4 5 6 
#
# 1 101.0112 20.8057 22.5483 0.0000 0.0000 0.0000
# 2 20.8057 83.5182 22.4576 0.0000 0.0000 0.0000
# 3 22.5483 22.4576 74.8040 0.0000 0.0000 0.0000
# 4 0.0000 0.0000 0.0000 5.4636 0.0000 0.0000
# 5 0.0000 0.0000 0.0000 0.0000 25.1839 0.0000
# 6 0.0000 0.0000 0.0000 0.0000 0.0000 44.8918
#
#
#
# Elastic Compliance Matrix: (Units=1/GPa)
#
#
# Indices 1 2 3 4 5 6 
#
# 1 0.010911 -0.001995 -0.002690 0.000000 0.000000 0.000000
# 2 -0.001995 0.013390 -0.003419 0.000000 0.000000 0.000000
# 3 -0.002690 -0.003419 0.015205 0.000000 0.000000 0.000000
# 4 0.000000 0.000000 0.000000 0.183029 0.000000 0.000000
# 5 0.000000 0.000000 0.000000 0.000000 0.039708 0.000000
# 6 0.000000 0.000000 0.000000 0.000000 0.000000 0.022276
#
#
# Mechanical properties :
#
#
# Convention : Reuss Voigt Hill
#
# Bulk Modulus (GPa) = 42.91950 43.43963 43.17956
# Shear Modulus (GPa) = 16.20784 28.00931 22.10858
#
# Velocity S-wave (km/s) = 2.60900 3.42976 3.04714
# Velocity P-wave (km/s) = 5.20586 5.82477 5.52399
#
# Compressibility (1/GPa) = 0.02329943
#
# Stress axis : x y z
#
# Youngs Moduli (GPa) = 91.64829 74.68483 65.76582
#
# Poissons Ratio (x) = 0.14898 0.17692
# Poissons Ratio (y) = 0.18282 0.22482
# Poissons Ratio (z) = 0.24655 0.25531
#
# Static dielectric constant tensor:
#      x y z
#    x 1.896800 0.000000 0.000000 
#    y 0.000000 2.100120 0.000000 
#    z 0.000000 0.000000 1.963150 
# 
# From -- ./inp_files/1416.got.cif
#   From: 2010.05.17/outbox.cif.g08.bks.cpg/sg28_1_cif.got.tgz:1416.got - 2010.06.04 01:15:21.
