data_PCOD9339592
_publ_section_title
;
Structure prediction by ZEFSAII (Michael W. Deem and Ramdas Pophale) SiO2 
 PCOD9339592
Probable space group: P M A 2
;
_chemical_formula_sum "Si O2"
_cell_formula_units_Z 20
_cell_length_a 8.654432
_cell_length_b 9.741430
_cell_length_c 13.480096
_cell_angle_alpha 90.000000
_cell_angle_beta 90.000000
_cell_angle_gamma 90.000000
_cell_volume 1136.460300
_symmetry_space_group_name_H-M "P M A 2"
_symmetry_group_IT_number 28
_symmetry_cell_setting 'orthorhombic'
loop_
_space_group_symop_operation_xyz
x,y,z
-x,-y,z
1/2-x,y,z
1/2+x,-y,z
loop_
_atom_site_type_symbol
_atom_site_label
_atom_site_fract_x
_atom_site_fract_y
_atom_site_fract_z
Si Si1 0.435224 0.155338 0.853870
Si Si2 0.435969 0.346645 0.454895
Si Si3 0.563733 0.845922 0.635679
Si Si4 0.434953 0.845593 0.058883
Si Si5 0.564335 0.346755 0.242441
O O1 0.250000 0.152797 0.861805
O O2 0.478876 0.211799 0.745158
O O3 0.500000 0.000000 0.852215
O O4 0.504022 0.216067 0.954754
O O5 0.500000 0.500000 0.469602
O O6 0.250000 0.351088 0.451961
O O7 0.486562 0.249300 0.544997
O O8 0.498298 0.298036 0.348210
O O9 0.750000 0.853836 0.633583
O O10 0.500000 0.000000 0.625955
O O11 0.250000 0.853593 0.054261
O O12 0.480113 0.752748 0.152387
O O13 0.500000 0.000000 0.069469
O O14 0.500000 0.500000 0.225998
O O15 0.750000 0.352782 0.248350
#
# Coordination Sequence:
#
# PCOD9339592 Si02
#       5
#     4   4   4   4   4
#     4   9  16  29  49  72 100 131 162 198 243 290
#     4  10  20  35  53  73  99 131 166 202 245 294
#     4   9  19  33  51  76 102 129 163 203 244 289
#     4  10  20  33  51  76 102 129 164 203 244 291
#     4  10  21  36  53  73  98 130 167 204 246 294
#
# _framework density 17.598503999999998
#
# number of rings (size 3 to 8) (size 9 to 14) (size 15 to 20)
#    0.000    2.400    0.000    4.800    0.000    6.400 
#    0.000    5.000    0.000    4.800    0.000    0.000 
#    0.000    0.000    0.000    0.000    0.000    0.000 
#
# Total GULP energy -111496.291215 kJ/mol
# GULP energy per Si atom -5574.814561 kJ/mol
# Density = 1.755845 g / cm^3
# Si number density = 17.598504 Si / 1000 Ang^3
#
#
#
# Elastic Constant Matrix: (Units=GPa)
#
#
# Indices 1 2 3 4 5 6 
#
# 1 46.1054 21.6317 51.7101 0.0000 0.0000 0.0000
# 2 21.6317 50.2942 84.9446 0.0000 0.0000 0.0000
# 3 51.7101 84.9446 225.8863 0.0000 0.0000 0.0000
# 4 0.0000 0.0000 0.0000 4.6076 0.0000 0.0000
# 5 0.0000 0.0000 0.0000 0.0000 17.6975 0.0000
# 6 0.0000 0.0000 0.0000 0.0000 0.0000 5.6890
#
#
#
# Elastic Compliance Matrix: (Units=1/GPa)
#
#
# Indices 1 2 3 4 5 6 
#
# 1 0.029405 -0.003503 -0.005414 0.000000 0.000000 0.000000
# 2 -0.003503 0.054911 -0.019847 0.000000 0.000000 0.000000
# 3 -0.005414 -0.019847 0.013130 0.000000 0.000000 0.000000
# 4 0.000000 0.000000 0.000000 0.217035 0.000000 0.000000
# 5 0.000000 0.000000 0.000000 0.000000 0.056505 0.000000
# 6 0.000000 0.000000 0.000000 0.000000 0.000000 0.175779
#
#
# Mechanical properties :
#
#
# Convention : Reuss Voigt Hill
#
# Bulk Modulus (GPa) = 25.05190 70.98431 48.01810
# Shear Modulus (GPa) = 8.09586 16.53211 12.31399
#
# Velocity S-wave (km/s) = 2.14716 3.06830 2.64809
# Velocity P-wave (km/s) = 4.51810 7.27843 6.05759
#
# Compressibility (1/GPa) = 0.03991714
#
# Stress axis : x y z
#
# Youngs Moduli (GPa) = 34.00743 18.21131 76.16134
#
# Poissons Ratio (x) = 0.06380 0.41235
# Poissons Ratio (y) = 0.11913 1.51160
# Poissons Ratio (z) = 0.18412 0.36145
#
# Static dielectric constant tensor:
#      x y z
#    x 1.593940 0.000000 0.000000 
#    y 0.000000 1.534590 0.000000 
#    z 0.000000 0.000000 1.644750 
# 
# From -- ./inp_files/5946.got.cif
#   From: 2010.05.17/outbox.cif.g08.bks.cpg/sg28_3_cif.got.tgz:5946.got - 2010.06.04 01:15:21.
