data_PCOD9339473
_publ_section_title
;
Structure prediction by ZEFSAII (Michael W. Deem and Ramdas Pophale) SiO2 
 PCOD9339473
Probable space group: P M A 2
;
_chemical_formula_sum "Si O2"
_cell_formula_units_Z 32
_cell_length_a 8.591222
_cell_length_b 15.088891
_cell_length_c 12.705094
_cell_angle_alpha 90.000000
_cell_angle_beta 90.000000
_cell_angle_gamma 90.000000
_cell_volume 1646.986902
_symmetry_space_group_name_H-M "P M A 2"
_symmetry_group_IT_number 28
_symmetry_cell_setting 'orthorhombic'
loop_
_space_group_symop_operation_xyz
x,y,z
-x,-y,z
1/2-x,y,z
1/2+x,-y,z
loop_
_atom_site_type_symbol
_atom_site_label
_atom_site_fract_x
_atom_site_fract_y
_atom_site_fract_z
Si Si1 0.937485 0.409186 0.066790
Si Si2 0.061787 0.905674 0.160186
Si Si3 0.565648 0.907073 0.696679
Si Si4 0.936424 0.399621 0.441561
Si Si5 0.930037 0.336398 0.854694
Si Si6 0.929474 0.132743 0.921433
Si Si7 0.065153 0.288399 0.635456
Si Si8 0.060471 0.722159 0.247067
O O1 0.750000 0.409920 0.063350
O O2 0.985327 0.328778 0.140826
O O3 0.000000 0.500000 0.113243
O O4 0.993842 0.397698 0.947365
O O5 0.250000 0.905403 0.158687
O O6 0.009440 0.823553 0.232693
O O7 0.012066 0.891290 0.037797
O O8 0.000000 0.000000 0.196565
O O9 0.750000 0.908058 0.685958
O O10 0.523066 0.901429 0.820722
O O11 0.508172 0.814566 0.644298
O O12 0.500000 0.000000 0.654809
O O13 0.750000 0.405265 0.436077
O O14 0.992535 0.337163 0.345044
O O15 0.000000 0.500000 0.437705
O O16 0.985407 0.347296 0.546553
O O17 0.750000 0.358963 0.829303
O O18 0.927723 0.238755 0.907225
O O19 0.027491 0.330736 0.748930
O O20 0.750000 0.101645 0.911829
O O21 0.250000 0.287307 0.617859
O O22 0.250000 0.723277 0.251309
#
# Coordination Sequence:
#
# PCOD9339473 Si02
#       8
#     4   4   4   4   4   4   4   4
#     4  10  19  33  54  81 112 146 181 222 275 335
#     4  10  19  33  53  80 113 150 189 227 273 330
#     4  10  20  33  52  80 115 153 191 234 279 331
#     4  11  23  41  66  88 108 142 189 239 289 344
#     4   9  17  32  54  79 111 153 189 222 275 338
#     4   9  16  29  51  76 109 152 192 228 268 327
#     4  10  22  39  58  83 116 148 188 240 286 333
#     4   9  19  38  60  81 111 148 186 228 278 336
#
# _framework density 19.42942
#
# number of rings (size 3 to 8) (size 9 to 14) (size 15 to 20)
#    0.000    2.250    1.250    1.875    0.000    4.000 
#    0.000    4.375    0.000    3.000    0.000    0.000 
#    0.000    0.000    0.000    0.000    0.000    0.000 
#
# Total GULP energy -178496.629069 kJ/mol
# GULP energy per Si atom -5578.019658 kJ/mol
# Density = 1.938520 g / cm^3
# Si number density = 19.429420 Si / 1000 Ang^3
#
#
#
# Elastic Constant Matrix: (Units=GPa)
#
#
# Indices 1 2 3 4 5 6 
#
# 1 22.5371 25.3358 17.5072 0.0000 0.0000 0.0000
# 2 25.3358 160.5672 72.4742 0.0000 0.0000 0.0000
# 3 17.5072 72.4742 96.7063 0.0000 0.0000 0.0000
# 4 0.0000 0.0000 0.0000 17.3006 0.0000 0.0000
# 5 0.0000 0.0000 0.0000 0.0000 5.1003 0.0000
# 6 0.0000 0.0000 0.0000 0.0000 0.0000 27.2758
#
#
#
# Elastic Compliance Matrix: (Units=1/GPa)
#
#
# Indices 1 2 3 4 5 6 
#
# 1 0.055669 -0.006400 -0.005282 0.000000 0.000000 0.000000
# 2 -0.006400 0.010147 -0.006446 0.000000 0.000000 0.000000
# 3 -0.005282 -0.006446 0.016128 0.000000 0.000000 0.000000
# 4 0.000000 0.000000 0.000000 0.057801 0.000000 0.000000
# 5 0.000000 0.000000 0.000000 0.000000 0.196069 0.000000
# 6 0.000000 0.000000 0.000000 0.000000 0.000000 0.036662
#
#
# Mechanical properties :
#
#
# Convention : Reuss Voigt Hill
#
# Bulk Modulus (GPa) = 21.88738 56.71609 39.30173
# Shear Modulus (GPa) = 11.79353 20.90157 16.34755
#
# Velocity S-wave (km/s) = 2.46640 3.28345 2.90380
# Velocity P-wave (km/s) = 4.40458 6.60522 5.61379
#
# Compressibility (1/GPa) = 0.04568843
#
# Stress axis : x y z
#
# Youngs Moduli (GPa) = 17.96332 98.54871 62.00574
#
# Poissons Ratio (x) = 0.63072 0.32749
# Poissons Ratio (y) = 0.11497 0.39969
# Poissons Ratio (z) = 0.09488 0.63524
#
# Static dielectric constant tensor:
#      x y z
#    x 1.673820 0.000000 0.000000 
#    y 0.000000 1.716980 0.000000 
#    z 0.000000 0.000000 1.670300 
# 
# From -- ./inp_files/5107.got.cif
#   From: 2010.05.17/outbox.cif.g08.bks.cpg/sg28_3_cif.got.tgz:5107.got - 2010.06.04 01:15:21.
