data_PCOD9339251
_publ_section_title
;
Structure prediction by ZEFSAII (Michael W. Deem and Ramdas Pophale) SiO2 
 PCOD9339251
Probable space group: P M A 2
;
_chemical_formula_sum "Si O2"
_cell_formula_units_Z 28
_cell_length_a 8.750277
_cell_length_b 15.769618
_cell_length_c 13.006024
_cell_angle_alpha 90.000000
_cell_angle_beta 90.000000
_cell_angle_gamma 90.000000
_cell_volume 1794.682077
_symmetry_space_group_name_H-M "P M A 2"
_symmetry_group_IT_number 28
_symmetry_cell_setting 'orthorhombic'
loop_
_space_group_symop_operation_xyz
x,y,z
-x,-y,z
1/2-x,y,z
1/2+x,-y,z
loop_
_atom_site_type_symbol
_atom_site_label
_atom_site_fract_x
_atom_site_fract_y
_atom_site_fract_z
Si Si1 0.934458 0.736622 0.294030
Si Si2 0.067964 0.913692 0.298919
Si Si3 0.566191 0.594355 0.133352
Si Si4 0.566850 0.725343 0.535380
Si Si5 0.066805 0.404817 0.905632
Si Si6 0.933026 0.914911 0.530310
Si Si7 0.931540 0.405232 0.694378
O O1 0.750000 0.745305 0.289950
O O2 0.982262 0.658568 0.222446
O O3 0.974153 0.721470 0.414077
O O4 0.007882 0.824549 0.256087
O O5 0.250000 0.917365 0.298847
O O6 0.005459 0.912550 0.416253
O O7 0.000000 0.000000 0.251391
O O8 0.500000 0.500000 0.145493
O O9 0.750000 0.587273 0.137078
O O10 0.527437 0.629455 0.019054
O O11 0.750000 0.712880 0.542788
O O12 0.533007 0.821420 0.573947
O O13 0.483105 0.655043 0.601988
O O14 0.250000 0.406864 0.895236
O O15 0.000000 0.500000 0.908086
O O16 0.995456 0.367489 0.802062
O O17 0.750000 0.922573 0.520983
O O18 0.000000 0.000000 0.581383
O O19 0.750000 0.412162 0.700080
O O20 0.000000 0.500000 0.681586
#
# Coordination Sequence:
#
# PCOD9339251 Si02
#       7
#     4   4   4   4   4   4   4
#     4   9  18  32  46  65  94 123 150 181 221 267
#     4  10  17  26  42  63  87 117 151 186 222 260
#     4   9  18  31  48  68  91 119 149 184 223 264
#     4   9  18  31  45  64  93 124 151 181 218 264
#     4   9  16  29  48  67  86 110 145 187 228 265
#     4   9  16  27  44  64  88 117 147 183 222 261
#     4  11  21  32  47  65  88 118 152 190 226 263
#
# _framework density 15.601649999999999
#
# number of rings (size 3 to 8) (size 9 to 14) (size 15 to 20)
#    0.000    2.571    0.000    6.000    0.000    4.571 
#    0.000    1.429    0.000    0.000    0.000    1.000 
#    0.000    4.571    0.000    0.000    0.000    0.000 
#
# Total GULP energy -155880.216610 kJ/mol
# GULP energy per Si atom -5567.150593 kJ/mol
# Density = 1.556614 g / cm^3
# Si number density = 15.601650 Si / 1000 Ang^3
#
#
#
# Elastic Constant Matrix: (Units=GPa)
#
#
# Indices 1 2 3 4 5 6 
#
# 1 69.4212 47.5147 35.6782 0.0000 0.0000 0.0000
# 2 47.5147 114.1689 58.5152 0.0000 0.0000 0.0000
# 3 35.6782 58.5152 78.1565 0.0000 0.0000 0.0000
# 4 0.0000 0.0000 0.0000 -0.5671 0.0000 0.0000
# 5 0.0000 0.0000 0.0000 0.0000 17.2600 0.0000
# 6 0.0000 0.0000 0.0000 0.0000 0.0000 22.9264
#
#
#
# Elastic Compliance Matrix: (Units=1/GPa)
#
#
# Indices 1 2 3 4 5 6 
#
# 1 0.021284 -0.006293 -0.005005 0.000000 0.000000 0.000000
# 2 -0.006293 0.016073 -0.009161 0.000000 0.000000 0.000000
# 3 -0.005005 -0.009161 0.021938 0.000000 0.000000 0.000000
# 4 0.000000 0.000000 0.000000 -1.763489 0.000000 0.000000
# 5 0.000000 0.000000 0.000000 0.000000 0.057937 0.000000
# 6 0.000000 0.000000 0.000000 0.000000 0.000000 0.043618
#
#
# Mechanical properties :
#
#
# Convention : Reuss Voigt Hill
#
# Bulk Modulus (GPa) = 54.41256 60.57365 57.49310
# Shear Modulus (GPa) = -3.21421 15.92644 6.35611
#
# Velocity S-wave (km/s) = -1.43689 3.19849 2.02061
# Velocity P-wave (km/s) = 5.67442 7.24913 6.50957
#
# Compressibility (1/GPa) = 0.01837811
#
# Stress axis : x y z
#
# Youngs Moduli (GPa) = 46.98355 62.21444 45.58198
#
# Poissons Ratio (x) = 0.39151 0.22812
# Poissons Ratio (y) = 0.29566 0.41759
# Poissons Ratio (z) = 0.23514 0.56997
#
# Static dielectric constant tensor:
#      x y z
#    x 1.519410 0.000000 0.000000 
#    y 0.000000 1.526520 0.000000 
#    z 0.000000 0.000000 1.528970 
# 
# From -- ./inp_files/6371.got.cif
#   From: 2010.05.17/outbox.cif.g08.bks.cpg/sg28_4_cif.got.tgz:6371.got - 2010.06.04 01:15:21.
