data_PCOD9339572
_publ_section_title
;
Structure prediction by ZEFSAII (Michael W. Deem and Ramdas Pophale) SiO2 
 PCOD9339572
Probable space group: P M A 2
;
_chemical_formula_sum "Si O2"
_cell_formula_units_Z 32
_cell_length_a 20.419193
_cell_length_b 9.182715
_cell_length_c 8.320304
_cell_angle_alpha 90.000000
_cell_angle_beta 90.000000
_cell_angle_gamma 90.000000
_cell_volume 1560.087201
_symmetry_space_group_name_H-M "P M A 2"
_symmetry_group_IT_number 28
_symmetry_cell_setting 'orthorhombic'
loop_
_space_group_symop_operation_xyz
x,y,z
-x,-y,z
1/2-x,y,z
1/2+x,-y,z
loop_
_atom_site_type_symbol
_atom_site_label
_atom_site_fract_x
_atom_site_fract_y
_atom_site_fract_z
Si Si1 0.559873 0.599295 0.022040
Si Si2 0.821380 0.255336 0.172656
Si Si3 0.511190 0.170604 0.824374
Si Si4 0.980356 0.275689 0.493963
Si Si5 0.851501 0.446593 0.489893
Si Si6 0.635851 0.365893 0.836008
Si Si7 0.926002 0.035168 0.282656
Si Si8 0.887813 0.715000 0.322679
O O1 0.500000 0.500000 0.085501
O O2 0.615660 0.638712 0.149486
O O3 0.526925 0.747767 0.964663
O O4 0.590359 0.505322 0.877367
O O5 0.750000 0.182953 0.181710
O O6 0.827592 0.356330 0.333051
O O7 0.882164 0.143602 0.177636
O O8 0.825959 0.337899 0.002093
O O9 0.483972 0.237575 0.658487
O O10 0.586138 0.228439 0.818168
O O11 0.500000 0.000000 0.829525
O O12 0.928504 0.404135 0.503089
O O13 0.941103 0.129514 0.442495
O O14 0.035431 0.303849 0.364641
O O15 0.827963 0.396713 0.666894
O O16 0.846581 0.617145 0.446154
O O17 0.884295 0.889258 0.314615
O O18 0.000000 0.000000 0.221371
#
# Coordination Sequence:
#
# PCOD9339572 Si02
#       8
#     4   4   4   4   4   4   4   4
#     4  10  20  29  47  84 120 152 193 241 298 355
#     4  11  24  43  63  85 117 155 202 256 309 377
#     4  10  20  30  50  83 124 161 200 249 300 364
#     4   9  18  32  49  83 123 160 199 241 299 358
#     4  10  20  37  60  83 113 156 200 244 299 357
#     4  10  22  37  56  85 115 154 204 248 301 363
#     4   9  21  34  62  91 121 163 204 250 315 375
#     4  11  18  30  57  84 119 159 195 246 298 360
#
# _framework density 20.511673999999999
#
# number of rings (size 3 to 8) (size 9 to 14) (size 15 to 20)
#    0.000    2.000    1.250    3.000   10.500    2.500 
#    0.000    0.625    0.000    0.000    0.000    0.000 
#    0.000    0.000    0.000    0.000    0.000    0.000 
#
# Total GULP energy -178316.156413 kJ/mol
# GULP energy per Si atom -5572.379888 kJ/mol
# Density = 2.046499 g / cm^3
# Si number density = 20.511674 Si / 1000 Ang^3
#
#
#
# Elastic Constant Matrix: (Units=GPa)
#
#
# Indices 1 2 3 4 5 6 
#
# 1 53.7150 19.5356 14.9138 0.0000 0.0000 0.0000
# 2 19.5356 122.1854 40.4840 0.0000 0.0000 0.0000
# 3 14.9138 40.4840 131.0422 0.0000 0.0000 0.0000
# 4 0.0000 0.0000 0.0000 24.4715 0.0000 0.0000
# 5 0.0000 0.0000 0.0000 0.0000 -9.4142 0.0000
# 6 0.0000 0.0000 0.0000 0.0000 0.0000 6.0262
#
#
#
# Elastic Compliance Matrix: (Units=1/GPa)
#
#
# Indices 1 2 3 4 5 6 
#
# 1 0.020006 -0.002723 -0.001436 0.000000 0.000000 0.000000
# 2 -0.002723 0.009488 -0.002621 0.000000 0.000000 0.000000
# 3 -0.001436 -0.002621 0.008604 0.000000 0.000000 0.000000
# 4 0.000000 0.000000 0.000000 0.040864 0.000000 0.000000
# 5 0.000000 0.000000 0.000000 0.000000 -0.106223 0.000000
# 6 0.000000 0.000000 0.000000 0.000000 0.000000 0.165943
#
#
# Mechanical properties :
#
#
# Convention : Reuss Voigt Hill
#
# Bulk Modulus (GPa) = 40.75250 50.75662 45.75456
# Shear Modulus (GPa) = 31.16795 19.68398 25.42597
#
# Velocity S-wave (km/s) = 3.90233 3.10118 3.52459
# Velocity P-wave (km/s) = 6.34156 6.13368 6.23849
#
# Compressibility (1/GPa) = 0.02453837
#
# Stress axis : x y z
#
# Youngs Moduli (GPa) = 49.98578 105.39420 116.22018
#
# Poissons Ratio (x) = 0.28698 0.16685
# Poissons Ratio (y) = 0.13611 0.30466
# Poissons Ratio (z) = 0.07176 0.27628
#
# Static dielectric constant tensor:
#      x y z
#    x 1.748120 0.000000 0.000000 
#    y 0.000000 1.739910 0.000000 
#    z 0.000000 0.000000 1.804840 
# 
# From -- ./inp_files/4231.got.cif
#   From: 2010.05.17/outbox.cif.g08.bks.cpg/sg28_3_cif.got.tgz:4231.got - 2010.06.04 01:15:21.
