data_PCOD9339835
_publ_section_title
;
Structure prediction by ZEFSAII (Michael W. Deem and Ramdas Pophale) SiO2 
 PCOD9339835
Probable space group: P M A 2
;
_chemical_formula_sum "Si O2"
_cell_formula_units_Z 24
_cell_length_a 17.576861
_cell_length_b 7.134508
_cell_length_c 7.185713
_cell_angle_alpha 90.000000
_cell_angle_beta 90.000000
_cell_angle_gamma 90.000000
_cell_volume 901.104617
_symmetry_space_group_name_H-M "P M A 2"
_symmetry_group_IT_number 28
_symmetry_cell_setting 'orthorhombic'
loop_
_space_group_symop_operation_xyz
x,y,z
-x,-y,z
1/2-x,y,z
1/2+x,-y,z
loop_
_atom_site_type_symbol
_atom_site_label
_atom_site_fract_x
_atom_site_fract_y
_atom_site_fract_z
Si Si1 0.335513 0.882026 0.858520
Si Si2 0.551578 0.840827 0.930556
Si Si3 0.664488 0.617973 0.324611
Si Si4 0.839297 0.036401 0.427168
Si Si5 0.339297 0.463600 0.755963
Si Si6 0.551578 0.340827 0.252576
O O1 0.250000 0.873295 0.926092
O O2 0.360949 0.670181 0.825819
O O3 0.381450 0.017636 0.992928
O O4 0.337019 0.970212 0.651917
O O5 0.596042 0.682214 0.817957
O O6 0.500000 0.000000 0.825850
O O7 0.500000 0.750000 0.091566
O O8 0.750000 0.626703 0.257039
O O9 0.639051 0.829819 0.357311
O O10 0.662981 0.529788 0.531214
O O11 0.596042 0.182213 0.365174
O O12 0.750000 0.082010 0.375258
O O13 0.881450 0.482365 0.190204
O O14 0.250000 0.417992 0.807873
O O15 0.500000 0.500000 0.357282
#
# Coordination Sequence:
#
# PCOD9339835 Si02
#       6
#     4   4   4   4   4   4
#     4  10  21  45  81 114 143 188 260 330 381 443
#     4  12  29  46  69 105 166 209 241 304 393 484
#     4  10  21  45  81 114 143 188 260 330 381 443
#     4  10  21  45  81 114 145 191 265 335 377 441
#     4  10  21  45  81 114 145 191 265 335 377 441
#     4  12  29  46  69 105 166 209 241 304 393 484
#
# _framework density 26.633979
#
# number of rings (size 3 to 8) (size 9 to 14) (size 15 to 20)
#    0.000    1.333    3.333    1.000    4.667    1.333 
#    0.000    6.667    0.000    0.000    0.000    0.000 
#    0.000    0.000    0.000    0.000    0.000    0.000 
#
# Total GULP energy -134304.053208 kJ/mol
# GULP energy per Si atom -5596.002217 kJ/mol
# Density = 2.657336 g / cm^3
# Si number density = 26.633979 Si / 1000 Ang^3
#
#
#
# Elastic Constant Matrix: (Units=GPa)
#
#
# Indices 1 2 3 4 5 6 
#
# 1 107.7778 102.7430 45.6655 0.0000 0.0000 0.0000
# 2 102.7430 188.8671 53.9830 0.0000 0.0000 0.0000
# 3 45.6655 53.9830 123.8612 0.0000 0.0000 0.0000
# 4 0.0000 0.0000 0.0000 27.4202 0.0000 0.0000
# 5 0.0000 0.0000 0.0000 0.0000 52.7843 0.0000
# 6 0.0000 0.0000 0.0000 0.0000 0.0000 79.3021
#
#
#
# Elastic Compliance Matrix: (Units=1/GPa)
#
#
# Indices 1 2 3 4 5 6 
#
# 1 0.020228 -0.010135 -0.003041 0.000000 0.000000 0.000000
# 2 -0.010135 0.011126 -0.001113 0.000000 0.000000 0.000000
# 3 -0.003041 -0.001113 0.009679 0.000000 0.000000 0.000000
# 4 0.000000 0.000000 0.000000 0.036469 0.000000 0.000000
# 5 0.000000 0.000000 0.000000 0.000000 0.018945 0.000000
# 6 0.000000 0.000000 0.000000 0.000000 0.000000 0.012610
#
#
# Mechanical properties :
#
#
# Convention : Reuss Voigt Hill
#
# Bulk Modulus (GPa) = 80.27303 91.69880 85.98591
# Shear Modulus (GPa) = 35.26415 46.44229 40.85322
#
# Velocity S-wave (km/s) = 3.64267 4.18032 3.92072
# Velocity P-wave (km/s) = 6.92075 7.60290 7.26983
#
# Compressibility (1/GPa) = 0.01245748
#
# Stress axis : x y z
#
# Youngs Moduli (GPa) = 49.43595 89.87857 103.31146
#
# Poissons Ratio (x) = 0.91092 0.31413
# Poissons Ratio (y) = 0.50103 0.11494
# Poissons Ratio (z) = 0.15032 0.10000
#
# Static dielectric constant tensor:
#      x y z
#    x 2.210720 0.000000 0.000000 
#    y 0.000000 2.082970 0.000000 
#    z 0.000000 0.000000 2.084450 
# 
# From -- ./inp_files/3815.got.cif
#   From: 2010.05.17/outbox.cif.g08.bks.cpg/sg28_2_cif.got.tgz:3815.got - 2010.06.04 01:15:21.
