data_PCOD9339931
_publ_section_title
;
Structure prediction by ZEFSAII (Michael W. Deem and Ramdas Pophale) SiO2 
 PCOD9339931
Probable space group: P M A 2
;
_chemical_formula_sum "Si O2"
_cell_formula_units_Z 20
_cell_length_a 10.235801
_cell_length_b 8.540370
_cell_length_c 11.997435
_cell_angle_alpha 90.000000
_cell_angle_beta 90.000000
_cell_angle_gamma 90.000000
_cell_volume 1048.786107
_symmetry_space_group_name_H-M "P M A 2"
_symmetry_group_IT_number 28
_symmetry_cell_setting 'orthorhombic'
loop_
_space_group_symop_operation_xyz
x,y,z
-x,-y,z
1/2-x,y,z
1/2+x,-y,z
loop_
_atom_site_type_symbol
_atom_site_label
_atom_site_fract_x
_atom_site_fract_y
_atom_site_fract_z
Si Si1 0.411426 0.842020 0.842260
Si Si2 0.750000 0.807675 0.198594
Si Si3 0.495667 0.808717 0.599465
Si Si4 0.250000 0.816049 0.205754
Si Si5 0.750000 0.801814 0.461837
Si Si6 0.506470 0.314167 0.072370
Si Si7 0.250000 0.815997 0.458342
O O1 0.250000 0.865494 0.840577
O O2 0.459911 0.765337 0.726086
O O3 0.500000 0.000000 0.851052
O O4 0.456965 0.742868 0.948379
O O5 0.750000 0.754966 0.330212
O O6 0.624926 0.751827 0.128466
O O7 0.750000 0.996041 0.200614
O O8 0.625447 0.754467 0.536232
O O9 0.376438 0.760758 0.522501
O O10 0.500000 0.000000 0.601072
O O11 0.376674 0.750518 0.146786
O O12 0.250000 0.763996 0.332601
O O13 0.750000 0.993051 0.458845
O O14 0.500000 0.500000 0.074079
#
# Coordination Sequence:
#
# PCOD9339931 Si02
#       7
#     4   2   4   2   2   4   2
#     4  11  23  39  64  95 125 161 210 260 308 371
#     4  11  23  40  67  96 124 165 210 261 302 373
#     4   9  17  30  54  89 126 151 190 253 314 360
#     4  11  21  40  65  92 122 161 212 257 306 369
#     4   9  18  32  55  92 126 149 198 251 312 361
#     4  12  26  42  61  88 130 169 208 259 319 370
#     4   9  16  30  55  88 118 153 188 253 310 355
#
# _framework density 19.069666999999999
#
# number of rings (size 3 to 8) (size 9 to 14) (size 15 to 20)
#    0.000    1.600    2.000    3.600    5.600    3.200 
#    0.000    0.000    0.000    7.200    0.000    0.000 
#    0.000    0.000    0.000    0.000    0.000    0.000 
#
# Total GULP energy -111533.607886 kJ/mol
# GULP energy per Si atom -5576.680394 kJ/mol
# Density = 1.902626 g / cm^3
# Si number density = 19.069667 Si / 1000 Ang^3
#
#
#
# Elastic Constant Matrix: (Units=GPa)
#
#
# Indices 1 2 3 4 5 6 
#
# 1 224.1826 39.7962 122.4845 0.0000 0.0000 0.0000
# 2 39.7962 55.8662 51.2286 0.0000 0.0000 0.0000
# 3 122.4845 51.2286 237.0349 0.0000 0.0000 0.0000
# 4 0.0000 0.0000 0.0000 -15.4740 0.0000 0.0000
# 5 0.0000 0.0000 0.0000 0.0000 41.1497 0.0000
# 6 0.0000 0.0000 0.0000 0.0000 0.0000 14.2017
#
#
#
# Elastic Compliance Matrix: (Units=1/GPa)
#
#
# Indices 1 2 3 4 5 6 
#
# 1 0.006372 -0.001896 -0.002883 0.000000 0.000000 0.000000
# 2 -0.001896 0.022888 -0.003967 0.000000 0.000000 0.000000
# 3 -0.002883 -0.003967 0.006566 0.000000 0.000000 0.000000
# 4 0.000000 0.000000 0.000000 -0.064624 0.000000 0.000000
# 5 0.000000 0.000000 0.000000 0.000000 0.024302 0.000000
# 6 0.000000 0.000000 0.000000 0.000000 0.000000 0.070414
#
#
# Mechanical properties :
#
#
# Convention : Reuss Voigt Hill
#
# Bulk Modulus (GPa) = 54.54128 104.90023 79.72075
# Shear Modulus (GPa) = 55.85284 28.21377 42.03330
#
# Velocity S-wave (km/s) = 5.41779 3.85061 4.69998
# Velocity P-wave (km/s) = 8.23406 8.65436 8.44683
#
# Compressibility (1/GPa) = 0.01833474
#
# Stress axis : x y z
#
# Youngs Moduli (GPa) = 156.92695 43.69107 152.29939
#
# Poissons Ratio (x) = 0.08282 0.43911
# Poissons Ratio (y) = 0.29746 0.60419
# Poissons Ratio (z) = 0.45245 0.17333
#
# Static dielectric constant tensor:
#      x y z
#    x 0.716560 0.000000 0.000000 
#    y 0.000000 1.638000 0.000000 
#    z 0.000000 0.000000 1.668530 
# 
# From -- ./inp_files/4625.got.cif
#   From: 2010.05.17/outbox.cif.g08.bks.cpg/sg28_3_cif.got.tgz:4625.got - 2010.06.04 01:15:21.
