data_PCOD9339949
_publ_section_title
;
Structure prediction by ZEFSAII (Michael W. Deem and Ramdas Pophale) SiO2 
 PCOD9339949
Probable space group: P M A 2
;
_chemical_formula_sum "Si O2"
_cell_formula_units_Z 16
_cell_length_a 14.495001
_cell_length_b 7.450520
_cell_length_c 6.801469
_cell_angle_alpha 90.000000
_cell_angle_beta 90.000000
_cell_angle_gamma 90.000000
_cell_volume 734.526650
_symmetry_space_group_name_H-M "P M A 2"
_symmetry_group_IT_number 28
_symmetry_cell_setting 'orthorhombic'
loop_
_space_group_symop_operation_xyz
x,y,z
-x,-y,z
1/2-x,y,z
1/2+x,-y,z
loop_
_atom_site_type_symbol
_atom_site_label
_atom_site_fract_x
_atom_site_fract_y
_atom_site_fract_z
Si Si1 0.609605 0.977176 0.830140
Si Si2 0.395147 0.628884 0.885260
Si Si3 0.910760 0.690072 0.116875
Si Si4 0.143009 0.354772 0.548527
O O1 0.352921 0.821407 0.837060
O O2 0.626915 0.878850 0.038728
O O3 0.500000 0.000000 0.792450
O O4 0.586742 0.673953 0.348782
O O5 0.490746 0.676478 0.002066
O O6 0.354154 0.479535 0.032088
O O7 0.397469 0.514320 0.683713
O O8 0.858268 0.830882 0.671831
O O9 0.250000 0.396261 0.503375
#
# Coordination Sequence:
#
# PCOD9339949 Si02
#       4
#     4   4   4   4
#     4   9  20  39  63  89 119 161 209 255 307 376
#     4   9  20  39  62  88 122 165 208 250 306 379
#     4   9  20  37  61  92 122 158 208 258 305 372
#     4  11  24  40  61  93 130 162 204 267 323 362
#
# _framework density 21.782737000000001
#
# number of rings (size 3 to 8) (size 9 to 14) (size 15 to 20)
#    0.000    2.500    0.000    1.500    0.000   22.000 
#    0.000    0.000    0.000    0.000    0.000    0.000 
#    0.000    0.000    0.000    0.000    0.000    0.000 
#
# Total GULP energy -89074.929376 kJ/mol
# GULP energy per Si atom -5567.183086 kJ/mol
# Density = 2.173316 g / cm^3
# Si number density = 21.782737 Si / 1000 Ang^3
#
#
#
# Elastic Constant Matrix: (Units=GPa)
#
#
# Indices 1 2 3 4 5 6 
#
# 1 111.0903 11.8282 20.3426 0.0000 0.0000 0.0000
# 2 11.8282 219.4804 79.2553 0.0000 0.0000 0.0000
# 3 20.3426 79.2553 182.9220 0.0000 0.0000 0.0000
# 4 0.0000 0.0000 0.0000 14.8962 0.0000 0.0000
# 5 0.0000 0.0000 0.0000 0.0000 137.2665 0.0000
# 6 0.0000 0.0000 0.0000 0.0000 0.0000 -1.9585
#
#
#
# Elastic Compliance Matrix: (Units=1/GPa)
#
#
# Indices 1 2 3 4 5 6 
#
# 1 0.009193 -0.000150 -0.000957 0.000000 0.000000 0.000000
# 2 -0.000150 0.005404 -0.002325 0.000000 0.000000 0.000000
# 3 -0.000957 -0.002325 0.006580 0.000000 0.000000 0.000000
# 4 0.000000 0.000000 0.000000 0.067131 0.000000 0.000000
# 5 0.000000 0.000000 0.000000 0.000000 0.007285 0.000000
# 6 0.000000 0.000000 0.000000 0.000000 0.000000 -0.510584
#
#
# Mechanical properties :
#
#
# Convention : Reuss Voigt Hill
#
# Bulk Modulus (GPa) = 69.86382 81.81610 75.83996
# Shear Modulus (GPa) = -12.39602 56.84526 22.22462
#
# Velocity S-wave (km/s) = -2.38812 5.11401 3.19766
# Velocity P-wave (km/s) = 4.95364 8.51542 6.96602
#
# Compressibility (1/GPa) = 0.01431356
#
# Stress axis : x y z
#
# Youngs Moduli (GPa) = 108.77896 185.05768 151.96414
#
# Poissons Ratio (x) = 0.02770 0.14550
# Poissons Ratio (y) = 0.01628 0.35326
# Poissons Ratio (z) = 0.10416 0.43019
#
# Static dielectric constant tensor:
#      x y z
#    x 1.755660 0.000000 0.000000 
#    y 0.000000 1.857850 0.000000 
#    z 0.000000 0.000000 1.750500 
# 
# From -- ./inp_files/988.got.cif
#   From: 2010.05.17/outbox.cif.g08.bks.cpg/sg28_1_cif.got.tgz:988.got - 2010.06.04 01:15:21.
