data_PCOD9339671
_publ_section_title
;
Structure prediction by ZEFSAII (Michael W. Deem and Ramdas Pophale) SiO2 
 PCOD9339671
Probable space group: P M A 2
;
_chemical_formula_sum "Si O2"
_cell_formula_units_Z 16
_cell_length_a 8.612766
_cell_length_b 10.434569
_cell_length_c 10.034373
_cell_angle_alpha 90.000000
_cell_angle_beta 90.000000
_cell_angle_gamma 90.000000
_cell_volume 901.794130
_symmetry_space_group_name_H-M "P M A 2"
_symmetry_group_IT_number 28
_symmetry_cell_setting 'orthorhombic'
loop_
_space_group_symop_operation_xyz
x,y,z
-x,-y,z
1/2-x,y,z
1/2+x,-y,z
loop_
_atom_site_type_symbol
_atom_site_label
_atom_site_fract_x
_atom_site_fract_y
_atom_site_fract_z
Si Si1 0.436785 0.138887 0.632430
Si Si2 0.564405 0.359815 0.131794
Si Si3 0.062896 0.360486 0.835046
Si Si4 0.936767 0.859505 0.323830
O O1 0.250000 0.134123 0.635467
O O2 0.486976 0.251369 0.731313
O O3 0.482975 0.162348 0.478636
O O4 0.500000 0.000000 0.672787
O O5 0.500000 0.500000 0.170959
O O6 0.750000 0.363957 0.129392
O O7 0.505134 0.250563 0.230842
O O8 0.501410 0.333934 0.982799
O O9 0.250000 0.364453 0.840554
O O10 0.000000 0.500000 0.794765
O O11 0.750000 0.859122 0.315381
O O12 0.000000 0.000000 0.285866
#
# Coordination Sequence:
#
# PCOD9339671 Si02
#       4
#     4   4   4   4
#     4   9  20  36  56  80 108 139 176 218 264 315
#     4  11  22  37  56  80 108 143 181 223 269 318
#     4  10  20  36  55  79 108 140 177 221 266 317
#     4  10  20  37  57  81 110 142 179 222 267 318
#
# _framework density 17.74241
#
# number of rings (size 3 to 8) (size 9 to 14) (size 15 to 20)
#    0.000    2.000    0.000    5.250    0.000    5.000 
#    0.000    5.000    0.000    0.000    0.000    0.000 
#    0.000    0.000    0.000    0.000    0.000    0.000 
#
# Total GULP energy -89349.437214 kJ/mol
# GULP energy per Si atom -5584.339826 kJ/mol
# Density = 1.770203 g / cm^3
# Si number density = 17.742410 Si / 1000 Ang^3
#
#
#
# Elastic Constant Matrix: (Units=GPa)
#
#
# Indices 1 2 3 4 5 6 
#
# 1 89.1392 61.6602 44.7373 0.0000 0.0000 0.0000
# 2 61.6602 201.7331 132.8085 0.0000 0.0000 0.0000
# 3 44.7373 132.8085 101.8608 0.0000 0.0000 0.0000
# 4 0.0000 0.0000 0.0000 45.4237 0.0000 0.0000
# 5 0.0000 0.0000 0.0000 0.0000 -48.6406 0.0000
# 6 0.0000 0.0000 0.0000 0.0000 0.0000 36.2106
#
#
#
# Elastic Compliance Matrix: (Units=1/GPa)
#
#
# Indices 1 2 3 4 5 6 
#
# 1 0.014471 -0.001687 -0.004156 0.000000 0.000000 0.000000
# 2 -0.001687 0.035193 -0.045145 0.000000 0.000000 0.000000
# 3 -0.004156 -0.045145 0.070504 0.000000 0.000000 0.000000
# 4 0.000000 0.000000 0.000000 0.022015 0.000000 0.000000
# 5 0.000000 0.000000 0.000000 0.000000 -0.020559 0.000000
# 6 0.000000 0.000000 0.000000 0.000000 0.000000 0.027616
#
#
# Mechanical properties :
#
#
# Convention : Reuss Voigt Hill
#
# Bulk Modulus (GPa) = 54.96943 96.79388 75.88165
# Shear Modulus (GPa) = 19.43403 16.83387 18.13395
#
# Velocity S-wave (km/s) = 3.31319 3.08359 3.20045
# Velocity P-wave (km/s) = 6.75910 8.20680 7.51788
#
# Compressibility (1/GPa) = 0.01819193
#
# Stress axis : x y z
#
# Youngs Moduli (GPa) = 69.10240 28.41461 14.18364
#
# Poissons Ratio (x) = 0.04793 0.05895
# Poissons Ratio (y) = 0.11656 0.64032
# Poissons Ratio (z) = 0.28722 1.28277
#
# Static dielectric constant tensor:
#      x y z
#    x 1.595840 0.000000 0.000000 
#    y 0.000000 1.577190 0.000000 
#    z 0.000000 0.000000 1.592340 
# 
# From -- ./inp_files/2090.got.cif
#   From: 2010.05.17/outbox.cif.g08.bks.cpg/sg28_2_cif.got.tgz:2090.got - 2010.06.04 01:15:21.
