data_PCOD9339617
_publ_section_title
;
Structure prediction by ZEFSAII (Michael W. Deem and Ramdas Pophale) SiO2 
 PCOD9339617
Probable space group: P M A 2
;
_chemical_formula_sum "Si O2"
_cell_formula_units_Z 24
_cell_length_a 9.307115
_cell_length_b 11.742799
_cell_length_c 9.747787
_cell_angle_alpha 90.000000
_cell_angle_beta 90.000000
_cell_angle_gamma 90.000000
_cell_volume 1065.351050
_symmetry_space_group_name_H-M "P M A 2"
_symmetry_group_IT_number 28
_symmetry_cell_setting 'orthorhombic'
loop_
_space_group_symop_operation_xyz
x,y,z
-x,-y,z
1/2-x,y,z
1/2+x,-y,z
loop_
_atom_site_type_symbol
_atom_site_label
_atom_site_fract_x
_atom_site_fract_y
_atom_site_fract_z
Si Si1 0.085546 0.831352 0.072130
Si Si2 0.579580 0.382465 0.452277
Si Si3 0.915400 0.115479 0.383571
Si Si4 0.413068 0.096821 0.804463
Si Si5 0.916042 0.609221 0.038503
Si Si6 0.090233 0.350263 0.712933
O O1 0.250000 0.812655 0.028163
O O2 0.087386 0.892889 0.217321
O O3 0.996396 0.883144 0.946923
O O4 0.003849 0.713899 0.095863
O O5 0.500000 0.500000 0.399825
O O6 0.750000 0.391288 0.425263
O O7 0.536603 0.249347 0.412272
O O8 0.538098 0.384685 0.614100
O O9 0.750000 0.109127 0.434401
O O10 0.000000 0.000000 0.427191
O O11 0.250000 0.063459 0.833790
O O12 0.412088 0.213585 0.722696
O O13 0.500000 0.000000 0.728773
O O14 0.750000 0.612548 0.077837
O O15 0.921712 0.613388 0.871637
O O16 0.000000 0.500000 0.084852
O O17 0.250000 0.384853 0.661499
#
# Coordination Sequence:
#
# PCOD9339617 Si02
#       6
#     4   4   4   4   4   4
#     4  10  20  36  57  82 114 150 192 239 290 350
#     4  11  24  42  63  88 118 155 201 249 299 354
#     4  10  24  43  63  89 119 155 200 249 300 355
#     4  10  20  34  54  83 117 151 190 235 289 350
#     4  10  20  34  54  83 117 151 190 236 290 350
#     4   9  20  37  56  81 113 150 191 236 289 349
#
# _framework density 22.527785000000002
#
# number of rings (size 3 to 8) (size 9 to 14) (size 15 to 20)
#    0.000    2.000    0.000    4.000    0.000   10.667 
#    0.000    5.000    0.000    0.000    0.000    0.000 
#    0.000    0.000    0.000    0.000    0.000    0.000 
#
# Total GULP energy -133842.214752 kJ/mol
# GULP energy per Si atom -5576.758948 kJ/mol
# Density = 2.247651 g / cm^3
# Si number density = 22.527785 Si / 1000 Ang^3
#
#
#
# Elastic Constant Matrix: (Units=GPa)
#
#
# Indices 1 2 3 4 5 6 
#
# 1 152.0253 83.6489 26.4817 0.0000 0.0000 0.0000
# 2 83.6489 180.5277 3.3472 0.0000 0.0000 0.0000
# 3 26.4817 3.3472 70.4866 0.0000 0.0000 0.0000
# 4 0.0000 0.0000 0.0000 -8.9201 0.0000 0.0000
# 5 0.0000 0.0000 0.0000 0.0000 7.3224 0.0000
# 6 0.0000 0.0000 0.0000 0.0000 0.0000 34.2036
#
#
#
# Elastic Compliance Matrix: (Units=1/GPa)
#
#
# Indices 1 2 3 4 5 6 
#
# 1 0.009575 -0.004374 -0.003390 0.000000 0.000000 0.000000
# 2 -0.004374 0.007542 0.001285 0.000000 0.000000 0.000000
# 3 -0.003390 0.001285 0.015400 0.000000 0.000000 0.000000
# 4 0.000000 0.000000 0.000000 -0.112106 0.000000 0.000000
# 5 0.000000 0.000000 0.000000 0.000000 0.136567 0.000000
# 6 0.000000 0.000000 0.000000 0.000000 0.000000 0.029237
#
#
# Mechanical properties :
#
#
# Convention : Reuss Voigt Hill
#
# Bulk Modulus (GPa) = 51.12481 69.99949 60.56215
# Shear Modulus (GPa) = 47.30817 25.82531 36.56674
#
# Velocity S-wave (km/s) = 4.58754 3.38949 4.03325
# Velocity P-wave (km/s) = 7.12770 6.81602 6.97360
#
# Compressibility (1/GPa) = 0.01955997
#
# Stress axis : x y z
#
# Youngs Moduli (GPa) = 104.44032 132.58923 64.93711
#
# Poissons Ratio (x) = 0.57991 0.22011
# Poissons Ratio (y) = 0.45679 -0.08345
# Poissons Ratio (z) = 0.35401 -0.17038
#
# Static dielectric constant tensor:
#      x y z
#    x 1.781210 0.000000 0.000000 
#    y 0.000000 1.993980 0.000000 
#    z 0.000000 0.000000 1.836730 
# 
# From -- ./inp_files/4697.got.cif
#   From: 2010.05.17/outbox.cif.g08.bks.cpg/sg28_3_cif.got.tgz:4697.got - 2010.06.04 01:15:21.
