data_PCOD9339196
_publ_section_title
;
Structure prediction by ZEFSAII (Michael W. Deem and Ramdas Pophale) SiO2 
 PCOD9339196
Probable space group: P C C 2
;
_chemical_formula_sum "Si O2"
_cell_formula_units_Z 24
_cell_length_a 8.451477
_cell_length_b 8.694271
_cell_length_c 14.123678
_cell_angle_alpha 90.000000
_cell_angle_beta 90.000000
_cell_angle_gamma 90.000000
_cell_volume 1037.799829
_symmetry_space_group_name_H-M "P C C 2"
_symmetry_group_IT_number 27
_symmetry_cell_setting 'orthorhombic'
loop_
_space_group_symop_operation_xyz
x,y,z
-x,-y,z
-x,y,1/2+z
x,-y,1/2+z
loop_
_atom_site_type_symbol
_atom_site_label
_atom_site_fract_x
_atom_site_fract_y
_atom_site_fract_z
Si Si1 0.252076 0.234766 0.972700
Si Si2 0.000000 0.000000 0.057434
Si Si3 0.816716 0.486495 0.854907
Si Si4 0.817456 0.526950 0.134665
Si Si5 0.731111 0.817840 0.619945
Si Si6 0.388191 0.200445 0.420556
Si Si7 0.500000 0.000000 0.756245
O O1 0.232462 0.339621 0.878592
O O2 0.432066 0.185636 0.957567
O O3 0.250465 0.346567 0.064412
O O4 0.110186 0.114955 0.993880
O O5 0.095527 0.888748 0.129691
O O6 0.816033 0.437117 0.745739
O O7 0.694171 0.367162 0.903126
O O8 0.000000 0.500000 0.887636
O O9 0.728126 0.364969 0.126258
O O10 0.000000 0.500000 0.107143
O O11 0.703567 0.862003 0.510720
O O12 0.607287 0.893960 0.689857
O O13 0.389109 0.103530 0.324173
#
# Coordination Sequence:
#
# PCOD9339196 Si02
#       7
#     4   2   4   4   4   4   2
#     4  12  24  48  75 113 152 201 266 320 398 484
#     4  12  26  44  82 104 146 210 252 320 412 462
#     4  11  25  44  75 111 152 198 260 318 386 477
#     4  11  24  46  76 111 150 200 259 322 389 474
#     4  12  26  47  74 105 150 200 250 324 391 477
#     4  12  27  48  73 114 151 207 253 326 403 472
#     4  12  28  48  72 112 164 192 268 324 408 486
#
# _framework density 23.125848999999999
#
# number of rings (size 3 to 8) (size 9 to 14) (size 15 to 20)
#    0.000    0.333    3.333    5.500    4.667    0.000 
#    0.000    4.167    0.000    0.000    0.000    0.000 
#    0.000    0.000    0.000    0.000    0.000    0.000 
#
# Total GULP energy -134030.106538 kJ/mol
# GULP energy per Si atom -5584.587772 kJ/mol
# Density = 2.307321 g / cm^3
# Si number density = 23.125849 Si / 1000 Ang^3
#
#
#
# Elastic Constant Matrix: (Units=GPa)
#
#
# Indices 1 2 3 4 5 6 
#
# 1 72.5713 58.6500 22.2596 0.0000 0.0000 0.0000
# 2 58.6500 128.9314 33.9830 0.0000 0.0000 0.0000
# 3 22.2596 33.9830 115.3246 0.0000 0.0000 0.0000
# 4 0.0000 0.0000 0.0000 18.5675 0.0000 0.0000
# 5 0.0000 0.0000 0.0000 0.0000 37.2325 0.0000
# 6 0.0000 0.0000 0.0000 0.0000 0.0000 56.4121
#
#
#
# Elastic Compliance Matrix: (Units=1/GPa)
#
#
# Indices 1 2 3 4 5 6 
#
# 1 0.021999 -0.009636 -0.001407 0.000000 0.000000 0.000000
# 2 -0.009636 0.012630 -0.001862 0.000000 0.000000 0.000000
# 3 -0.001407 -0.001862 0.009491 0.000000 0.000000 0.000000
# 4 0.000000 0.000000 0.000000 0.053858 0.000000 0.000000
# 5 0.000000 0.000000 0.000000 0.000000 0.026858 0.000000
# 6 0.000000 0.000000 0.000000 0.000000 0.000000 0.017727
#
#
# Mechanical properties :
#
#
# Convention : Reuss Voigt Hill
#
# Bulk Modulus (GPa) = 54.61231 60.73474 57.67353
# Shear Modulus (GPa) = 28.65721 35.90473 32.28097
#
# Velocity S-wave (km/s) = 3.52403 3.94455 3.74020
# Velocity P-wave (km/s) = 6.34231 6.86045 6.60646
#
# Compressibility (1/GPa) = 0.01831089
#
# Stress axis : x y z
#
# Youngs Moduli (GPa) = 45.45702 79.17465 105.35965
#
# Poissons Ratio (x) = 0.76296 0.14820
# Poissons Ratio (y) = 0.43804 0.19616
# Poissons Ratio (z) = 0.06394 0.14741
#
# Static dielectric constant tensor:
#      x y z
#    x 1.961340 0.000000 0.000000 
#    y 0.000000 1.925370 0.000000 
#    z 0.000000 0.000000 1.860770 
# 
# From -- ./inp_files/3331.got.cif
#   From: 2010.05.17/outbox.cif.g08.bks.cpg/sg27_2_cif.got.tgz:3331.got - 2010.06.04 01:11:05.
