data_PCOD9339437
_publ_section_title
;
Structure prediction by ZEFSAII (Michael W. Deem and Ramdas Pophale) SiO2 
 PCOD9339437
Probable space group: P M A 2
;
_chemical_formula_sum "Si O2"
_cell_formula_units_Z 24
_cell_length_a 8.691089
_cell_length_b 9.249921
_cell_length_c 16.091471
_cell_angle_alpha 90.000000
_cell_angle_beta 90.000000
_cell_angle_gamma 90.000000
_cell_volume 1293.623713
_symmetry_space_group_name_H-M "P M A 2"
_symmetry_group_IT_number 28
_symmetry_cell_setting 'orthorhombic'
loop_
_space_group_symop_operation_xyz
x,y,z
-x,-y,z
1/2-x,y,z
1/2+x,-y,z
loop_
_atom_site_type_symbol
_atom_site_label
_atom_site_fract_x
_atom_site_fract_y
_atom_site_fract_z
Si Si1 0.934780 0.839028 0.930130
Si Si2 0.565924 0.337002 0.591332
Si Si3 0.065497 0.337228 0.420553
Si Si4 0.564222 0.838949 0.256898
Si Si5 0.064319 0.338798 0.094102
Si Si6 0.434690 0.663032 0.775647
O O1 0.750000 0.843849 0.927741
O O2 0.996505 0.760307 0.848015
O O3 0.982425 0.747210 0.011225
O O4 0.000000 0.000000 0.935834
O O5 0.500000 0.500000 0.593031
O O6 0.750000 0.341510 0.583119
O O7 0.494688 0.271943 0.507720
O O8 0.527563 0.277691 0.682905
O O9 0.250000 0.345935 0.423354
O O10 0.017715 0.243108 0.341265
O O11 0.000000 0.500000 0.412173
O O12 0.750000 0.845076 0.255840
O O13 0.514075 0.747803 0.176285
O O14 0.500000 0.000000 0.253944
O O15 0.250000 0.345755 0.095031
O O16 0.000000 0.500000 0.093783
O O17 0.500000 0.500000 0.782579
O O18 0.250000 0.656519 0.782614
#
# Coordination Sequence:
#
# PCOD9339437 Si02
#       6
#     4   4   4   4   4   4
#     4  11  23  38  57  81 111 146 182 223 272 325
#     4   9  17  30  51  78 107 140 178 222 270 316
#     4  10  19  32  53  80 108 140 180 224 267 315
#     4  10  22  38  55  79 110 143 179 218 265 319
#     4  10  22  39  59  84 110 139 178 221 266 318
#     4  10  20  35  56  82 111 144 184 228 273 323
#
# _framework density 18.552536
#
# number of rings (size 3 to 8) (size 9 to 14) (size 15 to 20)
#    0.000    2.000    0.000    4.500    0.000    6.667 
#    0.000    0.833    0.000    2.000    0.000    0.000 
#    0.000    0.000    0.000    0.000    0.000    0.000 
#
# Total GULP energy -133989.350680 kJ/mol
# GULP energy per Si atom -5582.889612 kJ/mol
# Density = 1.851031 g / cm^3
# Si number density = 18.552536 Si / 1000 Ang^3
#
#
#
# Elastic Constant Matrix: (Units=GPa)
#
#
# Indices 1 2 3 4 5 6 
#
# 1 46.8788 35.1122 58.2934 0.0000 0.0000 0.0000
# 2 35.1122 131.5798 106.1934 0.0000 0.0000 0.0000
# 3 58.2934 106.1934 230.5919 0.0000 0.0000 0.0000
# 4 0.0000 0.0000 0.0000 -6.1022 0.0000 0.0000
# 5 0.0000 0.0000 0.0000 0.0000 23.3260 0.0000
# 6 0.0000 0.0000 0.0000 0.0000 0.0000 31.5076
#
#
#
# Elastic Compliance Matrix: (Units=1/GPa)
#
#
# Indices 1 2 3 4 5 6 
#
# 1 0.031933 -0.003193 -0.006602 0.000000 0.000000 0.000000
# 2 -0.003193 0.012415 -0.004910 0.000000 0.000000 0.000000
# 3 -0.006602 -0.004910 0.008267 0.000000 0.000000 0.000000
# 4 0.000000 0.000000 0.000000 -0.163875 0.000000 0.000000
# 5 0.000000 0.000000 0.000000 0.000000 0.042871 0.000000
# 6 0.000000 0.000000 0.000000 0.000000 0.000000 0.031738
#
#
# Mechanical properties :
#
#
# Convention : Reuss Voigt Hill
#
# Bulk Modulus (GPa) = 43.09586 89.80537 66.45061
# Shear Modulus (GPa) = 10116.77910 23.70970 5070.24440
#
# Velocity S-wave (km/s) = 73.92484 3.57876 52.33397
# Velocity P-wave (km/s) = 85.49730 8.09863 60.72634
#
# Compressibility (1/GPa) = 0.02320409
#
# Stress axis : x y z
#
# Youngs Moduli (GPa) = 31.31568 80.54896 120.96371
#
# Poissons Ratio (x) = 0.25719 0.79862
# Poissons Ratio (y) = 0.09999 0.59395
# Poissons Ratio (z) = 0.20675 0.39551
#
# Static dielectric constant tensor:
#      x y z
#    x 1.627450 0.000000 0.000000 
#    y 0.000000 1.587800 0.000000 
#    z 0.000000 0.000000 1.671190 
# 
# From -- ./inp_files/6032.got.cif
#   From: 2010.05.17/outbox.cif.g08.bks.cpg/sg28_4_cif.got.tgz:6032.got - 2010.06.04 01:15:21.
