data_PCOD9339498
_publ_section_title
;
Structure prediction by ZEFSAII (Michael W. Deem and Ramdas Pophale) SiO2 
 PCOD9339498
Probable space group: P M A 2
;
_chemical_formula_sum "Si O2"
_cell_formula_units_Z 32
_cell_length_a 8.747429
_cell_length_b 15.048531
_cell_length_c 12.615867
_cell_angle_alpha 90.000000
_cell_angle_beta 90.000000
_cell_angle_gamma 90.000000
_cell_volume 1660.701719
_symmetry_space_group_name_H-M "P M A 2"
_symmetry_group_IT_number 28
_symmetry_cell_setting 'orthorhombic'
loop_
_space_group_symop_operation_xyz
x,y,z
-x,-y,z
1/2-x,y,z
1/2+x,-y,z
loop_
_atom_site_type_symbol
_atom_site_label
_atom_site_fract_x
_atom_site_fract_y
_atom_site_fract_z
Si Si1 0.931877 0.405912 0.469950
Si Si2 0.930898 0.407561 0.942795
Si Si3 0.069695 0.165247 0.780892
Si Si4 0.932211 0.345884 0.707350
Si Si5 0.932803 0.208983 0.001232
Si Si6 0.066407 0.089446 0.567034
Si Si7 0.433490 0.099814 0.197314
Si Si8 0.434183 0.226907 0.393561
O O1 0.750000 0.408107 0.462569
O O2 0.971070 0.389466 0.594810
O O3 0.000000 0.500000 0.436951
O O4 0.994753 0.324151 0.401130
O O5 0.750000 0.410223 0.960322
O O6 0.955266 0.401486 0.815296
O O7 0.000000 0.500000 0.982715
O O8 0.985552 0.312896 0.991617
O O9 0.250000 0.154720 0.801929
O O10 0.018125 0.098740 0.688945
O O11 0.036493 0.260389 0.727113
O O12 0.976882 0.164595 0.889192
O O13 0.750000 0.322121 0.705343
O O14 0.750000 0.209136 0.013878
O O15 0.009100 0.152241 0.093692
O O16 0.250000 0.086692 0.564139
O O17 0.016669 0.173771 0.498910
O O18 0.000000 0.000000 0.519013
O O19 0.250000 0.092824 0.196076
O O20 0.477731 0.163354 0.295972
O O21 0.500000 0.000000 0.204034
O O22 0.250000 0.235151 0.393272
#
# Coordination Sequence:
#
# PCOD9339498 Si02
#       8
#     4   4   4   4   4   4   4   4
#     4  11  22  35  57  87 121 162 204 247 297 354
#     4   9  18  32  52  81 117 156 195 238 287 342
#     4  10  19  33  55  83 118 158 197 240 296 354
#     4   9  18  32  50  79 117 159 201 240 290 346
#     4  10  22  40  60  85 121 156 198 251 298 353
#     4  10  21  35  55  84 117 153 190 235 294 357
#     4  11  24  43  69  93 115 149 197 250 304 361
#     4  10  22  42  62  86 120 153 195 249 300 355
#
# _framework density 19.268961999999998
#
# number of rings (size 3 to 8) (size 9 to 14) (size 15 to 20)
#    0.000    2.000    1.250    3.000    0.000    6.000 
#    0.000    1.875    0.000    1.500    0.000    0.000 
#    0.000    0.000    0.000    0.000    0.000    0.000 
#
# Total GULP energy -178537.730877 kJ/mol
# GULP energy per Si atom -5579.304090 kJ/mol
# Density = 1.922510 g / cm^3
# Si number density = 19.268962 Si / 1000 Ang^3
#
#
#
# Elastic Constant Matrix: (Units=GPa)
#
#
# Indices 1 2 3 4 5 6 
#
# 1 20.4948 44.9025 32.6640 0.0000 0.0000 0.0000
# 2 44.9025 158.9101 70.9369 0.0000 0.0000 0.0000
# 3 32.6640 70.9369 102.6490 0.0000 0.0000 0.0000
# 4 0.0000 0.0000 0.0000 17.8143 0.0000 0.0000
# 5 0.0000 0.0000 0.0000 0.0000 24.6529 0.0000
# 6 0.0000 0.0000 0.0000 0.0000 0.0000 35.0822
#
#
#
# Elastic Compliance Matrix: (Units=1/GPa)
#
#
# Indices 1 2 3 4 5 6 
#
# 1 0.179747 -0.036525 -0.031956 0.000000 0.000000 0.000000
# 2 -0.036525 0.016522 0.000205 0.000000 0.000000 0.000000
# 3 -0.031956 0.000205 0.019769 0.000000 0.000000 0.000000
# 4 0.000000 0.000000 0.000000 0.056135 0.000000 0.000000
# 5 0.000000 0.000000 0.000000 0.000000 0.040563 0.000000
# 6 0.000000 0.000000 0.000000 0.000000 0.000000 0.028504
#
#
# Mechanical properties :
#
#
# Convention : Reuss Voigt Hill
#
# Bulk Modulus (GPa) = 12.58097 64.34007 38.46052
# Shear Modulus (GPa) = 9.91497 24.41327 17.16412
#
# Velocity S-wave (km/s) = 2.27085 3.56332 2.98781
# Velocity P-wave (km/s) = 3.66319 7.09878 5.64852
#
# Compressibility (1/GPa) = 0.07948515
#
# Stress axis : x y z
#
# Youngs Moduli (GPa) = 5.56339 60.52489 50.58377
#
# Poissons Ratio (x) = 2.21067 1.61646
# Poissons Ratio (y) = 0.20320 -0.01036
# Poissons Ratio (z) = 0.17778 -0.01240
#
# Static dielectric constant tensor:
#      x y z
#    x 1.641240 0.000000 0.000000 
#    y 0.000000 1.684780 0.000000 
#    z 0.000000 0.000000 1.686610 
# 
# From -- ./inp_files/5089.got.cif
#   From: 2010.05.17/outbox.cif.g08.bks.cpg/sg28_3_cif.got.tgz:5089.got - 2010.06.04 01:15:21.
