data_PCOD9339734
_publ_section_title
;
Structure prediction by ZEFSAII (Michael W. Deem and Ramdas Pophale) SiO2 
 PCOD9339734
Probable space group: P M A 2
;
_chemical_formula_sum "Si O2"
_cell_formula_units_Z 24
_cell_length_a 14.354985
_cell_length_b 11.590628
_cell_length_c 6.552746
_cell_angle_alpha 90.000000
_cell_angle_beta 90.000000
_cell_angle_gamma 90.000000
_cell_volume 1090.267445
_symmetry_space_group_name_H-M "P M A 2"
_symmetry_group_IT_number 28
_symmetry_cell_setting 'orthorhombic'
loop_
_space_group_symop_operation_xyz
x,y,z
-x,-y,z
1/2-x,y,z
1/2+x,-y,z
loop_
_atom_site_type_symbol
_atom_site_label
_atom_site_fract_x
_atom_site_fract_y
_atom_site_fract_z
Si Si1 0.149174 0.420138 0.114780
Si Si2 0.550397 0.179183 0.102796
Si Si3 0.143498 0.061199 0.041859
Si Si4 0.007265 0.658215 0.433180
Si Si5 0.852547 0.756805 0.730724
Si Si6 0.422704 0.598232 0.840378
O O1 0.250000 0.405483 0.218183
O O2 0.062414 0.404357 0.269927
O O3 0.144265 0.323391 0.934857
O O4 0.151210 0.541214 0.992172
O O5 0.617881 0.072578 0.060291
O O6 0.567904 0.252375 0.304862
O O7 0.445596 0.127978 0.136278
O O8 0.557558 0.273311 0.921619
O O9 0.250000 0.083841 0.114886
O O10 0.139654 0.112603 0.812333
O O11 0.932517 0.719548 0.579790
O O12 0.077587 0.597106 0.593892
O O13 0.750000 0.740924 0.640702
O O14 0.500000 0.500000 0.879108
#
# Coordination Sequence:
#
# PCOD9339734 Si02
#       6
#     4   4   4   4   4   4
#     4  11  24  41  64  96 136 175 219 283 344 400
#     4  11  24  41  67  96 131 177 222 274 342 400
#     4  10  21  45  66  90 133 172 215 278 339 394
#     4  12  21  39  66  99 126 174 234 269 330 411
#     4  10  20  38  64  95 126 165 220 277 328 394
#     4  12  23  41  64  96 134 174 219 273 337 403
#
# _framework density 22.012948999999999
#
# number of rings (size 3 to 8) (size 9 to 14) (size 15 to 20)
#    0.000    1.000    6.667    0.500    2.333    1.333 
#    6.000    0.833    0.000    0.000    0.000    0.000 
#    0.000    0.000    0.000    0.000    0.000    0.000 
#
# Total GULP energy -133641.207187 kJ/mol
# GULP energy per Si atom -5568.383633 kJ/mol
# Density = 2.196285 g / cm^3
# Si number density = 22.012949 Si / 1000 Ang^3
#
#
#
# Elastic Constant Matrix: (Units=GPa)
#
#
# Indices 1 2 3 4 5 6 
#
# 1 57.5423 33.7286 13.2709 0.0000 0.0000 0.0000
# 2 33.7286 124.9961 55.3087 0.0000 0.0000 0.0000
# 3 13.2709 55.3087 124.9413 0.0000 0.0000 0.0000
# 4 0.0000 0.0000 0.0000 34.9904 0.0000 0.0000
# 5 0.0000 0.0000 0.0000 0.0000 17.1546 0.0000
# 6 0.0000 0.0000 0.0000 0.0000 0.0000 13.6444
#
#
#
# Elastic Compliance Matrix: (Units=1/GPa)
#
#
# Indices 1 2 3 4 5 6 
#
# 1 0.020655 -0.005724 0.000340 0.000000 0.000000 0.000000
# 2 -0.005724 0.011535 -0.004498 0.000000 0.000000 0.000000
# 3 0.000340 -0.004498 0.009959 0.000000 0.000000 0.000000
# 4 0.000000 0.000000 0.000000 0.028579 0.000000 0.000000
# 5 0.000000 0.000000 0.000000 0.000000 0.058293 0.000000
# 6 0.000000 0.000000 0.000000 0.000000 0.000000 0.073290
#
#
# Mechanical properties :
#
#
# Convention : Reuss Voigt Hill
#
# Bulk Modulus (GPa) = 44.67358 56.89957 50.78658
# Shear Modulus (GPa) = 21.78282 26.83599 24.30941
#
# Velocity S-wave (km/s) = 3.14912 3.49535 3.32674
# Velocity P-wave (km/s) = 5.79317 6.49571 6.15448
#
# Compressibility (1/GPa) = 0.02238459
#
# Stress axis : x y z
#
# Youngs Moduli (GPa) = 48.41387 86.69075 100.41174
#
# Poissons Ratio (x) = 0.49622 -0.03413
# Poissons Ratio (y) = 0.27712 0.45169
# Poissons Ratio (z) = -0.01646 0.38997
#
# Static dielectric constant tensor:
#      x y z
#    x 1.934990 0.000000 0.000000 
#    y 0.000000 1.896830 0.000000 
#    z 0.000000 0.000000 1.831070 
# 
# From -- ./inp_files/1118.got.cif
#   From: 2010.05.17/outbox.cif.g08.bks.cpg/sg28_1_cif.got.tgz:1118.got - 2010.06.04 01:15:21.
