data_PCOD9339124
_publ_section_title
;
Structure prediction by ZEFSAII (Michael W. Deem and Ramdas Pophale) SiO2 
 PCOD9339124
Probable space group: P C C 2
;
_chemical_formula_sum "Si O2"
_cell_formula_units_Z 20
_cell_length_a 5.637023
_cell_length_b 10.908898
_cell_length_c 14.101620
_cell_angle_alpha 90.000000
_cell_angle_beta 90.000000
_cell_angle_gamma 90.000000
_cell_volume 867.160916
_symmetry_space_group_name_H-M "P C C 2"
_symmetry_group_IT_number 27
_symmetry_cell_setting 'orthorhombic'
loop_
_space_group_symop_operation_xyz
x,y,z
-x,-y,z
-x,y,1/2+z
x,-y,1/2+z
loop_
_atom_site_type_symbol
_atom_site_label
_atom_site_fract_x
_atom_site_fract_y
_atom_site_fract_z
Si Si1 0.000000 0.000000 0.947870
Si Si2 0.250437 0.440828 0.342911
Si Si3 0.217152 0.841149 0.786183
Si Si4 0.500000 0.000000 0.655960
Si Si5 0.249657 0.440971 0.569548
Si Si6 0.895363 0.834346 0.601189
O O1 0.178283 0.935366 0.872315
O O2 0.939662 0.877894 0.012788
O O3 0.500000 0.500000 0.309285
O O4 0.245910 0.297133 0.319743
O O5 0.251291 0.456583 0.456241
O O6 0.000000 0.500000 0.309911
O O7 0.012595 0.845121 0.704844
O O8 0.434807 0.888878 0.724864
O O9 0.297735 0.059049 0.593665
O O10 0.500000 0.500000 0.602776
O O11 0.221046 0.297336 0.589955
O O12 0.000000 0.500000 0.603195
#
# Coordination Sequence:
#
# PCOD9339124 Si02
#       6
#     2   4   4   2   4   4
#     4  12  22  50  72 102 150 196 234 310 380 440
#     4  10  24  47  75 107 144 195 248 303 372 443
#     4  12  26  48  72 109 147 188 253 307 374 453
#     4  12  26  46  70 110 146 180 254 308 366 456
#     4  10  24  47  75 107 144 195 248 303 372 443
#     4  12  26  48  72 109 147 188 253 307 374 453
#
# _framework density 23.063772
#
# number of rings (size 3 to 8) (size 9 to 14) (size 15 to 20)
#    0.000    0.800    6.000    0.000    5.600    1.600 
#    7.200    0.000    0.000    0.000    0.000    0.000 
#    0.000    0.000    0.000    0.000    0.000    0.000 
#
# Total GULP energy -111544.238078 kJ/mol
# GULP energy per Si atom -5577.211904 kJ/mol
# Density = 2.301128 g / cm^3
# Si number density = 23.063772 Si / 1000 Ang^3
#
#
#
# Elastic Constant Matrix: (Units=GPa)
#
#
# Indices 1 2 3 4 5 6 
#
# 1 126.1747 55.0917 28.6113 0.0000 0.0000 0.0000
# 2 55.0917 105.6322 29.5744 0.0000 0.0000 0.0000
# 3 28.6113 29.5744 113.4576 0.0000 0.0000 0.0000
# 4 0.0000 0.0000 0.0000 41.5620 0.0000 0.0000
# 5 0.0000 0.0000 0.0000 0.0000 -16.6268 0.0000
# 6 0.0000 0.0000 0.0000 0.0000 0.0000 46.8987
#
#
#
# Elastic Compliance Matrix: (Units=1/GPa)
#
#
# Indices 1 2 3 4 5 6 
#
# 1 0.010440 -0.005078 -0.001309 0.000000 0.000000 0.000000
# 2 -0.005078 0.012682 -0.002025 0.000000 0.000000 0.000000
# 3 -0.001309 -0.002025 0.009672 0.000000 0.000000 0.000000
# 4 0.000000 0.000000 0.000000 0.024060 0.000000 0.000000
# 5 0.000000 0.000000 0.000000 0.000000 -0.060144 0.000000
# 6 0.000000 0.000000 0.000000 0.000000 0.000000 0.021323
#
#
# Mechanical properties :
#
#
# Convention : Reuss Voigt Hill
#
# Bulk Modulus (GPa) = 62.62106 63.53545 63.07826
# Shear Modulus (GPa) = 124.43773 29.83261 77.13517
#
# Velocity S-wave (km/s) = 7.35329 3.60040 5.78938
# Velocity P-wave (km/s) = 9.96518 6.70011 8.49106
#
# Compressibility (1/GPa) = 0.01596907
#
# Stress axis : x y z
#
# Youngs Moduli (GPa) = 95.78875 78.84973 103.39289
#
# Poissons Ratio (x) = 0.40042 0.13533
# Poissons Ratio (y) = 0.48644 0.20939
# Poissons Ratio (z) = 0.12538 0.15969
#
# Static dielectric constant tensor:
#      x y z
#    x 1.927810 0.000000 0.000000 
#    y 0.000000 1.808590 0.000000 
#    z 0.000000 0.000000 1.860250 
# 
# From -- ./inp_files/3009.got.cif
#   From: 2010.05.17/outbox.cif.g08.bks.cpg/sg27_2_cif.got.tgz:3009.got - 2010.06.04 01:11:05.
