data_PCOD9339785
_publ_section_title
;
Structure prediction by ZEFSAII (Michael W. Deem and Ramdas Pophale) SiO2 
 PCOD9339785
Probable space group: P M A 2
;
_chemical_formula_sum "Si O2"
_cell_formula_units_Z 32
_cell_length_a 13.938182
_cell_length_b 16.320416
_cell_length_c 7.070303
_cell_angle_alpha 90.000000
_cell_angle_beta 90.000000
_cell_angle_gamma 90.000000
_cell_volume 1608.330810
_symmetry_space_group_name_H-M "P M A 2"
_symmetry_group_IT_number 28
_symmetry_cell_setting 'orthorhombic'
loop_
_space_group_symop_operation_xyz
x,y,z
-x,-y,z
1/2-x,y,z
1/2+x,-y,z
loop_
_atom_site_type_symbol
_atom_site_label
_atom_site_fract_x
_atom_site_fract_y
_atom_site_fract_z
Si Si1 0.015102 0.595261 0.842780
Si Si2 0.139302 0.336243 0.573971
Si Si3 0.509165 0.663503 0.243004
Si Si4 0.527121 0.837309 0.117291
Si Si5 0.640623 0.954906 0.836401
Si Si6 0.135578 0.707660 0.577182
Si Si7 0.864193 0.143950 0.851714
Si Si8 0.642845 0.853831 0.460419
O O1 0.101266 0.637325 0.724753
O O2 0.000000 0.500000 0.802995
O O3 0.921013 0.639564 0.757098
O O4 0.024833 0.609712 0.067158
O O5 0.250000 0.359413 0.586210
O O6 0.086308 0.373859 0.389247
O O7 0.132700 0.238042 0.542879
O O8 0.557532 0.743034 0.143910
O O9 0.424225 0.693765 0.384221
O O10 0.556989 0.873476 0.318304
O O11 0.581370 0.893314 0.966671
O O12 0.418871 0.832091 0.043529
O O13 0.750000 0.956442 0.909660
O O14 0.641285 0.916723 0.629935
O O15 0.609077 0.049100 0.821093
O O16 0.250000 0.706064 0.547282
O O17 0.108754 0.793381 0.683101
O O18 0.750000 0.150196 0.871824
O O19 0.750000 0.857030 0.369180
#
# Coordination Sequence:
#
# PCOD9339785 Si02
#       8
#     4   4   4   4   4   4   4   4
#     4  11  23  41  65  93 125 157 194 249 309 371
#     4   9  20  39  63  92 123 160 197 242 301 367
#     4  10  22  38  64  93 124 157 205 251 302 365
#     4  11  20  36  61  89 121 158 203 253 304 353
#     4  10  21  38  58  86 125 162 202 256 306 353
#     4  10  23  45  67  88 121 168 212 251 301 363
#     4  10  22  41  60  83 120 166 211 254 296 351
#     4   9  19  36  61  90 120 156 199 244 303 365
#
# _framework density 19.896405999999999
#
# number of rings (size 3 to 8) (size 9 to 14) (size 15 to 20)
#    0.000    2.000    1.250    1.500    3.500    4.500 
#    4.500    0.000    0.000    0.000    0.000    0.000 
#    0.000    0.000    0.000    0.000    0.000    0.000 
#
# Total GULP energy -178461.876412 kJ/mol
# GULP energy per Si atom -5576.933638 kJ/mol
# Density = 1.985112 g / cm^3
# Si number density = 19.896406 Si / 1000 Ang^3
#
#
#
# Elastic Constant Matrix: (Units=GPa)
#
#
# Indices 1 2 3 4 5 6 
#
# 1 97.7424 17.8554 51.5822 0.0000 0.0000 0.0000
# 2 17.8554 41.1784 31.6497 0.0000 0.0000 0.0000
# 3 51.5822 31.6497 110.3534 0.0000 0.0000 0.0000
# 4 0.0000 0.0000 0.0000 -6.9328 0.0000 0.0000
# 5 0.0000 0.0000 0.0000 0.0000 18.9159 0.0000
# 6 0.0000 0.0000 0.0000 0.0000 0.0000 6.6358
#
#
#
# Elastic Compliance Matrix: (Units=1/GPa)
#
#
# Indices 1 2 3 4 5 6 
#
# 1 0.013635 -0.001300 -0.006001 0.000000 0.000000 0.000000
# 2 -0.001300 0.031276 -0.008362 0.000000 0.000000 0.000000
# 3 -0.006001 -0.008362 0.014265 0.000000 0.000000 0.000000
# 4 0.000000 0.000000 0.000000 -0.144242 0.000000 0.000000
# 5 0.000000 0.000000 0.000000 0.000000 0.052866 0.000000
# 6 0.000000 0.000000 0.000000 0.000000 0.000000 0.150698
#
#
# Mechanical properties :
#
#
# Convention : Reuss Voigt Hill
#
# Bulk Modulus (GPa) = 35.90709 50.16098 43.03404
# Shear Modulus (GPa) = 31.42548 13.60290 22.51419
#
# Velocity S-wave (km/s) = 3.97855 2.61758 3.36753
# Velocity P-wave (km/s) = 6.26030 5.86527 6.06600
#
# Compressibility (1/GPa) = 0.02784965
#
# Stress axis : x y z
#
# Youngs Moduli (GPa) = 73.33950 31.97387 70.10228
#
# Poissons Ratio (x) = 0.04158 0.42065
# Poissons Ratio (y) = 0.09537 0.58620
# Poissons Ratio (z) = 0.44008 0.26737
#
# Static dielectric constant tensor:
#      x y z
#    x 1.744910 0.000000 0.000000 
#    y 0.000000 1.731390 0.000000 
#    z 0.000000 0.000000 1.707200 
# 
# From -- ./inp_files/849.got.cif
#   From: 2010.05.17/outbox.cif.g08.bks.cpg/sg28_1_cif.got.tgz:849.got - 2010.06.04 01:15:21.
