data_PCOD9339482
_publ_section_title
;
Structure prediction by ZEFSAII (Michael W. Deem and Ramdas Pophale) SiO2 
 PCOD9339482
Probable space group: P M A 2
;
_chemical_formula_sum "Si O2"
_cell_formula_units_Z 20
_cell_length_a 8.609563
_cell_length_b 9.265861
_cell_length_c 13.730357
_cell_angle_alpha 90.000000
_cell_angle_beta 90.000000
_cell_angle_gamma 90.000000
_cell_volume 1095.339422
_symmetry_space_group_name_H-M "P M A 2"
_symmetry_group_IT_number 28
_symmetry_cell_setting 'orthorhombic'
loop_
_space_group_symop_operation_xyz
x,y,z
-x,-y,z
1/2-x,y,z
1/2+x,-y,z
loop_
_atom_site_type_symbol
_atom_site_label
_atom_site_fract_x
_atom_site_fract_y
_atom_site_fract_z
Si Si1 0.562915 0.163587 0.515350
Si Si2 0.436636 0.835332 0.305063
Si Si3 0.936287 0.661126 0.911396
Si Si4 0.563132 0.163555 0.728494
Si Si5 0.436043 0.162903 0.102986
O O1 0.750000 0.158159 0.514643
O O2 0.516274 0.229450 0.410569
O O3 0.516358 0.223830 0.621042
O O4 0.500000 0.000000 0.515350
O O5 0.250000 0.838121 0.298746
O O6 0.503641 0.772269 0.205254
O O7 0.500000 0.000000 0.306477
O O8 0.750000 0.659324 0.908896
O O9 0.000000 0.500000 0.913306
O O10 0.997664 0.743484 0.816455
O O11 0.985160 0.745899 0.009157
O O12 0.750000 0.159915 0.733629
O O13 0.500000 0.000000 0.736066
O O14 0.250000 0.155999 0.106479
O O15 0.500000 0.000000 0.093749
#
# Coordination Sequence:
#
# PCOD9339482 Si02
#       5
#     4   4   4   4   4
#     4   8  15  26  43  71 103 132 161 198 243 290
#     4   9  15  25  44  71 102 132 162 198 243 291
#     4  11  24  39  54  73  99 133 172 214 261 308
#     4  10  19  33  54  79 107 136 170 210 251 298
#     4  10  20  33  51  76 103 131 166 206 249 297
#
# _framework density 18.259181000000002
#
# number of rings (size 3 to 8) (size 9 to 14) (size 15 to 20)
#    0.000    2.400    0.000    4.200    0.000    6.400 
#    0.000    0.000    0.000    1.200    0.000    2.800 
#    0.000    0.000    0.000    0.000    0.000    0.000 
#
# Total GULP energy -111432.056247 kJ/mol
# GULP energy per Si atom -5571.602812 kJ/mol
# Density = 1.821762 g / cm^3
# Si number density = 18.259181 Si / 1000 Ang^3
#
#
#
# Elastic Constant Matrix: (Units=GPa)
#
#
# Indices 1 2 3 4 5 6 
#
# 1 42.7609 18.3448 49.9813 0.0000 0.0000 0.0000
# 2 18.3448 54.2373 69.0028 0.0000 0.0000 0.0000
# 3 49.9813 69.0028 250.5247 0.0000 0.0000 0.0000
# 4 0.0000 0.0000 0.0000 -6.7565 0.0000 0.0000
# 5 0.0000 0.0000 0.0000 0.0000 26.4432 0.0000
# 6 0.0000 0.0000 0.0000 0.0000 0.0000 16.9826
#
#
#
# Elastic Compliance Matrix: (Units=1/GPa)
#
#
# Indices 1 2 3 4 5 6 
#
# 1 0.031061 -0.004036 -0.005085 0.000000 0.000000 0.000000
# 2 -0.004036 0.028908 -0.007157 0.000000 0.000000 0.000000
# 3 -0.005085 -0.007157 0.006977 0.000000 0.000000 0.000000
# 4 0.000000 0.000000 0.000000 -0.148005 0.000000 0.000000
# 5 0.000000 0.000000 0.000000 0.000000 0.037817 0.000000
# 6 0.000000 0.000000 0.000000 0.000000 0.000000 0.058884
#
#
# Mechanical properties :
#
#
# Convention : Reuss Voigt Hill
#
# Bulk Modulus (GPa) = 29.07836 69.13119 49.10477
# Shear Modulus (GPa) = 83.80407 21.34680 52.57543
#
# Velocity S-wave (km/s) = 6.78208 3.42292 5.37182
# Velocity P-wave (km/s) = 8.79140 7.31882 8.08869
#
# Compressibility (1/GPa) = 0.03438984
#
# Stress axis : x y z
#
# Youngs Moduli (GPa) = 32.19431 34.59244 143.31951
#
# Poissons Ratio (x) = 0.13963 0.72881
# Poissons Ratio (y) = 0.12995 1.02573
# Poissons Ratio (z) = 0.16371 0.24758
#
# Static dielectric constant tensor:
#      x y z
#    x 1.614240 0.000000 0.000000 
#    y 0.000000 1.571110 0.000000 
#    z 0.000000 0.000000 1.708810 
# 
# From -- ./inp_files/5945.got.cif
#   From: 2010.05.17/outbox.cif.g08.bks.cpg/sg28_3_cif.got.tgz:5945.got - 2010.06.04 01:15:21.
