data_PCOD9339152
_publ_section_title
;
Structure prediction by ZEFSAII (Michael W. Deem and Ramdas Pophale) SiO2 
 PCOD9339152
Probable space group: P C C 2
;
_chemical_formula_sum "Si O2"
_cell_formula_units_Z 32
_cell_length_a 11.039923
_cell_length_b 9.021554
_cell_length_c 13.979191
_cell_angle_alpha 90.000000
_cell_angle_beta 90.000000
_cell_angle_gamma 90.000000
_cell_volume 1392.289142
_symmetry_space_group_name_H-M "P C C 2"
_symmetry_group_IT_number 27
_symmetry_cell_setting 'orthorhombic'
loop_
_space_group_symop_operation_xyz
x,y,z
-x,-y,z
-x,y,1/2+z
x,-y,1/2+z
loop_
_atom_site_type_symbol
_atom_site_label
_atom_site_fract_x
_atom_site_fract_y
_atom_site_fract_z
Si Si1 0.194379 0.610572 0.349970
Si Si2 0.780400 0.840955 0.535855
Si Si3 0.392755 0.084813 0.395164
Si Si4 0.358113 0.538691 0.010397
Si Si5 0.673685 0.135738 0.231277
Si Si6 0.790122 0.614397 0.182642
Si Si7 0.540576 0.327746 0.765835
Si Si8 0.031552 0.327939 0.031805
O O1 0.298627 0.531687 0.414480
O O2 0.247847 0.750952 0.295114
O O3 0.157234 0.493954 0.265868
O O4 0.096155 0.661829 0.428385
O O5 0.734438 0.939159 0.448848
O O6 0.684927 0.707441 0.518297
O O7 0.749609 0.906902 0.638425
O O8 0.913272 0.773375 0.528378
O O9 0.453790 0.242714 0.366929
O O10 0.500000 0.000000 0.450639
O O11 0.370759 0.998612 0.295548
O O12 0.500000 0.500000 0.019419
O O13 0.281093 0.472784 0.099029
O O14 0.556538 0.236223 0.204599
O O15 0.677694 0.692919 0.232262
O O16 0.884963 0.711826 0.123013
O O17 0.500000 0.500000 0.766959
O O18 0.000000 0.500000 0.053022
#
# Coordination Sequence:
#
# PCOD9339152 Si02
#       8
#     4   4   4   4   4   4   4   4
#     4  11  22  38  66  97 144 186 231 299 364 429
#     4  12  23  47  71  96 143 196 239 294 364 441
#     4  10  27  45  69 107 144 188 236 298 373 441
#     4  11  23  35  64 109 140 169 227 303 369 428
#     4  11  24  46  69 102 143 187 235 299 372 441
#     4  11  21  40  63 106 141 184 225 298 367 421
#     4  11  21  40  72 110 141 176 240 300 370 445
#     4  11  24  42  63 107 143 182 246 298 356 434
#
# _framework density 22.983732
#
# number of rings (size 3 to 8) (size 9 to 14) (size 15 to 20)
#    0.000    1.000    5.000    1.875    5.250    3.000 
#    4.500    0.625    0.000    0.000    0.000    0.000 
#    0.000    0.000    0.000    0.000    0.000    0.000 
#
# Total GULP energy -178664.993413 kJ/mol
# GULP energy per Si atom -5583.281044 kJ/mol
# Density = 2.293142 g / cm^3
# Si number density = 22.983732 Si / 1000 Ang^3
#
#
#
# Elastic Constant Matrix: (Units=GPa)
#
#
# Indices 1 2 3 4 5 6 
#
# 1 160.4317 10.7304 67.0202 0.0000 0.0000 0.0000
# 2 10.7304 29.9716 25.9788 0.0000 0.0000 0.0000
# 3 67.0202 25.9788 123.5678 0.0000 0.0000 0.0000
# 4 0.0000 0.0000 0.0000 11.3134 0.0000 0.0000
# 5 0.0000 0.0000 0.0000 0.0000 39.0113 0.0000
# 6 0.0000 0.0000 0.0000 0.0000 0.0000 27.5236
#
#
#
# Elastic Compliance Matrix: (Units=1/GPa)
#
#
# Indices 1 2 3 4 5 6 
#
# 1 0.008089 0.001109 -0.004621 0.000000 0.000000 0.000000
# 2 0.001109 0.040952 -0.009211 0.000000 0.000000 0.000000
# 3 -0.004621 -0.009211 0.012535 0.000000 0.000000 0.000000
# 4 0.000000 0.000000 0.000000 0.088391 0.000000 0.000000
# 5 0.000000 0.000000 0.000000 0.000000 0.025634 0.000000
# 6 0.000000 0.000000 0.000000 0.000000 0.000000 0.036332
#
#
# Mechanical properties :
#
#
# Convention : Reuss Voigt Hill
#
# Bulk Modulus (GPa) = 27.67707 57.93664 42.80685
# Shear Modulus (GPa) = 20.04629 29.58577 24.81603
#
# Velocity S-wave (km/s) = 2.95650 3.59172 3.28948
# Velocity P-wave (km/s) = 4.87059 6.51636 5.75264
#
# Compressibility (1/GPa) = 0.03613100
#
# Stress axis : x y z
#
# Youngs Moduli (GPa) = 123.62090 24.41883 79.77439
#
# Poissons Ratio (x) = -0.02708 0.36860
# Poissons Ratio (y) = -0.13708 0.73481
# Poissons Ratio (z) = 0.57120 0.22493
#
# Static dielectric constant tensor:
#      x y z
#    x 1.889820 0.000000 0.000000 
#    y 0.000000 2.281630 0.000000 
#    z 0.000000 0.000000 2.010640 
# 
# From -- ./inp_files/3656.got.cif
#   From: 2010.05.17/outbox.cif.g08.bks.cpg/sg27_2_cif.got.tgz:3656.got - 2010.06.04 01:11:05.
