data_PCOD9339339
_publ_section_title
;
Structure prediction by ZEFSAII (Michael W. Deem and Ramdas Pophale) SiO2 
 PCOD9339339
Probable space group: P M A 2
;
_chemical_formula_sum "Si O2"
_cell_formula_units_Z 28
_cell_length_a 8.678485
_cell_length_b 18.702826
_cell_length_c 9.638259
_cell_angle_alpha 90.000000
_cell_angle_beta 90.000000
_cell_angle_gamma 90.000000
_cell_volume 1564.406973
_symmetry_space_group_name_H-M "P M A 2"
_symmetry_group_IT_number 28
_symmetry_cell_setting 'orthorhombic'
loop_
_space_group_symop_operation_xyz
x,y,z
-x,-y,z
1/2-x,y,z
1/2+x,-y,z
loop_
_atom_site_type_symbol
_atom_site_label
_atom_site_fract_x
_atom_site_fract_y
_atom_site_fract_z
Si Si1 0.077968 0.211174 0.767570
Si Si2 0.566662 0.079994 0.182349
Si Si3 0.565398 0.420519 0.749953
Si Si4 0.567984 0.076608 0.851957
Si Si5 0.926608 0.681515 0.519808
Si Si6 0.570869 0.308772 0.978979
Si Si7 0.065049 0.235579 0.250011
O O1 0.250000 0.219700 0.829035
O O2 0.077884 0.251122 0.623051
O O3 0.029617 0.130342 0.759920
O O4 0.950797 0.246673 0.865596
O O5 0.750000 0.077882 0.206459
O O6 0.499822 0.153861 0.247909
O O7 0.500000 0.000000 0.218187
O O8 0.540100 0.090048 0.016482
O O9 0.500000 0.500000 0.750425
O O10 0.750000 0.421100 0.752806
O O11 0.511945 0.378546 0.611140
O O12 0.513304 0.377142 0.889169
O O13 0.750000 0.081439 0.827421
O O14 0.500000 0.000000 0.823121
O O15 0.750000 0.656851 0.496368
O O16 0.990556 0.714145 0.377471
O O17 0.750000 0.318907 0.014377
O O18 0.481812 0.279429 0.112085
O O19 0.250000 0.230048 0.259496
#
# Coordination Sequence:
#
# PCOD9339339 Si02
#       7
#     4   4   4   4   4   4   4
#     4  10  18  32  53  75 102 137 177 223 270 319
#     4  10  20  33  51  76 109 145 186 234 280 329
#     4  10  21  38  62  87 113 144 180 223 271 328
#     4  10  19  30  47  73 104 136 178 229 278 326
#     4   9  21  38  56  81 112 147 185 221 267 329
#     4  10  20  34  54  82 110 139 178 221 267 320
#     4  11  21  35  56  82 113 148 186 229 275 325
#
# _framework density 17.898154999999999
#
# number of rings (size 3 to 8) (size 9 to 14) (size 15 to 20)
#    0.000    2.000    1.429    2.571    0.000    4.571 
#    0.000    1.429    0.000    1.714    0.000    0.000 
#    0.000    0.000    0.000    0.000    0.000    0.000 
#
# Total GULP energy -155958.160476 kJ/mol
# GULP energy per Si atom -5569.934303 kJ/mol
# Density = 1.785742 g / cm^3
# Si number density = 17.898155 Si / 1000 Ang^3
#
#
#
# Elastic Constant Matrix: (Units=GPa)
#
#
# Indices 1 2 3 4 5 6 
#
# 1 47.2978 34.2808 20.6283 0.0000 0.0000 0.0000
# 2 34.2808 137.2219 47.9892 0.0000 0.0000 0.0000
# 3 20.6283 47.9892 69.0443 0.0000 0.0000 0.0000
# 4 0.0000 0.0000 0.0000 16.6786 0.0000 0.0000
# 5 0.0000 0.0000 0.0000 0.0000 11.6219 0.0000
# 6 0.0000 0.0000 0.0000 0.0000 0.0000 27.0315
#
#
#
# Elastic Compliance Matrix: (Units=1/GPa)
#
#
# Indices 1 2 3 4 5 6 
#
# 1 0.026806 -0.005147 -0.004431 0.000000 0.000000 0.000000
# 2 -0.005147 0.010616 -0.005841 0.000000 0.000000 0.000000
# 3 -0.004431 -0.005841 0.019867 0.000000 0.000000 0.000000
# 4 0.000000 0.000000 0.000000 0.059957 0.000000 0.000000
# 5 0.000000 0.000000 0.000000 0.000000 0.086044 0.000000
# 6 0.000000 0.000000 0.000000 0.000000 0.000000 0.036994
#
#
# Mechanical properties :
#
#
# Convention : Reuss Voigt Hill
#
# Bulk Modulus (GPa) = 37.80649 51.04005 44.42327
# Shear Modulus (GPa) = 17.86105 21.11079 19.48592
#
# Velocity S-wave (km/s) = 3.16243 3.43810 3.30314
# Velocity P-wave (km/s) = 5.87397 6.65880 6.27866
#
# Compressibility (1/GPa) = 0.02645048
#
# Stress axis : x y z
#
# Youngs Moduli (GPa) = 37.30557 94.19816 50.33448
#
# Poissons Ratio (x) = 0.48482 0.22305
# Poissons Ratio (y) = 0.19201 0.29400
# Poissons Ratio (z) = 0.16532 0.55020
#
# Static dielectric constant tensor:
#      x y z
#    x 1.635310 0.000000 0.000000 
#    y 0.000000 1.601920 0.000000 
#    z 0.000000 0.000000 1.613350 
# 
# From -- ./inp_files/2634.got.cif
#   From: 2010.05.17/outbox.cif.g08.bks.cpg/sg28_2_cif.got.tgz:2634.got - 2010.06.04 01:15:21.
