data_PCOD9339181
_publ_section_title
;
Structure prediction by ZEFSAII (Michael W. Deem and Ramdas Pophale) SiO2 
 PCOD9339181
Probable space group: P C C 2
;
_chemical_formula_sum "Si O2"
_cell_formula_units_Z 18
_cell_length_a 5.200234
_cell_length_b 5.653768
_cell_length_c 25.175465
_cell_angle_alpha 90.000000
_cell_angle_beta 90.000000
_cell_angle_gamma 90.000000
_cell_volume 740.181746
_symmetry_space_group_name_H-M "P C C 2"
_symmetry_group_IT_number 27
_symmetry_cell_setting 'orthorhombic'
loop_
_space_group_symop_operation_xyz
x,y,z
-x,-y,z
-x,y,1/2+z
x,-y,1/2+z
loop_
_atom_site_type_symbol
_atom_site_label
_atom_site_fract_x
_atom_site_fract_y
_atom_site_fract_z
Si Si1 0.146195 0.246209 0.451000
Si Si2 0.000000 0.000000 0.641804
Si Si3 0.737620 0.349836 0.062268
Si Si4 0.761408 0.653505 0.218253
Si Si5 0.354573 0.753242 0.832349
O O1 0.331396 0.268873 0.502155
O O2 0.247109 0.216740 0.391362
O O3 0.000000 0.500000 0.448515
O O4 0.000000 0.000000 0.462302
O O5 0.792945 0.124355 0.680394
O O6 0.178041 0.149311 0.602222
O O7 0.500000 0.500000 0.083275
O O8 0.000000 0.500000 0.057393
O O9 0.500000 0.500000 0.216225
O O10 0.816013 0.724076 0.279590
O O11 0.000000 0.500000 0.198945
O O12 0.500000 0.500000 0.834725
O O13 0.500000 0.000000 0.821652
#
# Coordination Sequence:
#
# PCOD9339181 Si02
#       5
#     4   2   4   4   4
#     4  11  23  45  79 115 159 206 264 332 410 488
#     4  12  28  52  82 112 160 226 268 352 394 496
#     4  11  27  51  76 116 156 208 271 332 403 483
#     4  11  29  50  79 116 158 209 270 330 405 483
#     4  11  25  46  76 117 159 204 262 331 408 489
#
# _framework density 24.318351
#
# number of rings (size 3 to 8) (size 9 to 14) (size 15 to 20)
#    0.000    0.889    1.111    3.333    7.778    8.000 
#    0.000    0.000    0.000    0.000    0.000    0.000 
#    0.000    0.000    0.000    0.000    0.000    0.000 
#
# Total GULP energy -100594.782006 kJ/mol
# GULP energy per Si atom -5588.599000 kJ/mol
# Density = 2.426300 g / cm^3
# Si number density = 24.318351 Si / 1000 Ang^3
#
#
#
# Elastic Constant Matrix: (Units=GPa)
#
#
# Indices 1 2 3 4 5 6 
#
# 1 94.8967 36.8680 18.5911 0.0000 0.0000 0.0000
# 2 36.8680 133.1576 27.9642 0.0000 0.0000 0.0000
# 3 18.5911 27.9642 186.5322 0.0000 0.0000 0.0000
# 4 0.0000 0.0000 0.0000 119.5560 0.0000 0.0000
# 5 0.0000 0.0000 0.0000 0.0000 33.4054 0.0000
# 6 0.0000 0.0000 0.0000 0.0000 0.0000 48.0913
#
#
#
# Elastic Compliance Matrix: (Units=1/GPa)
#
#
# Indices 1 2 3 4 5 6 
#
# 1 0.011899 -0.003145 -0.000715 0.000000 0.000000 0.000000
# 2 -0.003145 0.008585 -0.000974 0.000000 0.000000 0.000000
# 3 -0.000715 -0.000974 0.005578 0.000000 0.000000 0.000000
# 4 0.000000 0.000000 0.000000 0.008364 0.000000 0.000000
# 5 0.000000 0.000000 0.000000 0.000000 0.029935 0.000000
# 6 0.000000 0.000000 0.000000 0.000000 0.000000 0.020794
#
#
# Mechanical properties :
#
#
# Convention : Reuss Voigt Hill
#
# Bulk Modulus (GPa) = 60.98632 64.60366 62.79499
# Shear Modulus (GPa) = 49.85677 62.28809 56.07243
#
# Velocity S-wave (km/s) = 4.53279 5.06648 4.80705
# Velocity P-wave (km/s) = 7.24760 7.80058 7.52917
#
# Compressibility (1/GPa) = 0.01639712
#
# Stress axis : x y z
#
# Youngs Moduli (GPa) = 84.03747 116.48191 179.26978
#
# Poissons Ratio (x) = 0.36629 0.12810
# Poissons Ratio (y) = 0.26426 0.17454
# Poissons Ratio (z) = 0.06005 0.11341
#
# Static dielectric constant tensor:
#      x y z
#    x 1.897420 0.000000 0.000000 
#    y 0.000000 1.847140 0.000000 
#    z 0.000000 0.000000 1.930730 
# 
# From -- ./inp_files/4908.got.cif
#   From: 2010.05.17/outbox.cif.g08.bks.cpg/sg27_3_cif.got.tgz:4908.got - 2010.06.04 01:11:05.
