data_PCOD9339269
_publ_section_title
;
Structure prediction by ZEFSAII (Michael W. Deem and Ramdas Pophale) SiO2 
 PCOD9339269
Probable space group: P M A 2
;
_chemical_formula_sum "Si O2"
_cell_formula_units_Z 20
_cell_length_a 8.112930
_cell_length_b 15.754298
_cell_length_c 7.492255
_cell_angle_alpha 90.000000
_cell_angle_beta 90.000000
_cell_angle_gamma 90.000000
_cell_volume 957.611461
_symmetry_space_group_name_H-M "P M A 2"
_symmetry_group_IT_number 28
_symmetry_cell_setting 'orthorhombic'
loop_
_space_group_symop_operation_xyz
x,y,z
-x,-y,z
1/2-x,y,z
1/2+x,-y,z
loop_
_atom_site_type_symbol
_atom_site_label
_atom_site_fract_x
_atom_site_fract_y
_atom_site_fract_z
Si Si1 0.452199 0.274851 0.363150
Si Si2 0.940010 0.908556 0.332097
Si Si3 0.448624 0.402888 0.065477
Si Si4 0.444457 0.912365 0.739888
Si Si5 0.949260 0.731518 0.774649
O O1 0.250000 0.272519 0.361727
O O2 0.512731 0.183919 0.285943
O O3 0.505133 0.353553 0.243210
O O4 0.502702 0.281675 0.569507
O O5 0.750000 0.905031 0.284475
O O6 0.961935 0.910197 0.548506
O O7 0.000000 0.000000 0.267321
O O8 0.500000 0.500000 0.056160
O O9 0.250000 0.400869 0.064705
O O10 0.505561 0.344738 0.900302
O O11 0.250000 0.915491 0.705528
O O12 0.489313 0.824399 0.833850
O O13 0.500000 0.000000 0.830344
O O14 0.750000 0.734071 0.778215
#
# Coordination Sequence:
#
# PCOD9339269 Si02
#       5
#     4   4   4   4   4
#     4   8  16  32  52  73  99 133 167 198 243 301
#     4   9  15  26  46  72 103 136 169 203 244 295
#     4  10  21  37  55  74  99 130 166 212 261 305
#     4  10  17  27  47  75 106 137 170 206 245 294
#     4   9  18  34  54  74 101 136 169 205 251 299
#
# _framework density 20.885297000000001
#
# number of rings (size 3 to 8) (size 9 to 14) (size 15 to 20)
#    0.000    2.800    0.000    4.800    0.000    1.600 
#    0.000    6.000    0.000    2.400    0.000    0.000 
#    0.000    0.000    0.000    0.000    0.000    0.000 
#
# Total GULP energy -111531.516072 kJ/mol
# GULP energy per Si atom -5576.575804 kJ/mol
# Density = 2.083776 g / cm^3
# Si number density = 20.885297 Si / 1000 Ang^3
#
#
#
# Elastic Constant Matrix: (Units=GPa)
#
#
# Indices 1 2 3 4 5 6 
#
# 1 11.6552 11.8192 3.3633 0.0000 0.0000 0.0000
# 2 11.8192 247.5958 79.0689 0.0000 0.0000 0.0000
# 3 3.3633 79.0689 87.1115 0.0000 0.0000 0.0000
# 4 0.0000 0.0000 0.0000 43.9700 0.0000 0.0000
# 5 0.0000 0.0000 0.0000 0.0000 8.9392 0.0000
# 6 0.0000 0.0000 0.0000 0.0000 0.0000 35.6369
#
#
#
# Elastic Compliance Matrix: (Units=1/GPa)
#
#
# Indices 1 2 3 4 5 6 
#
# 1 0.090186 -0.004496 0.000599 0.000000 0.000000 0.000000
# 2 -0.004496 0.005912 -0.005192 0.000000 0.000000 0.000000
# 3 0.000599 -0.005192 0.016169 0.000000 0.000000 0.000000
# 4 0.000000 0.000000 0.000000 0.022743 0.000000 0.000000
# 5 0.000000 0.000000 0.000000 0.000000 0.111867 0.000000
# 6 0.000000 0.000000 0.000000 0.000000 0.000000 0.028061
#
#
# Mechanical properties :
#
#
# Convention : Reuss Voigt Hill
#
# Bulk Modulus (GPa) = 10.62837 59.42945 35.02891
# Shear Modulus (GPa) = 15.40936 34.51662 24.96299
#
# Velocity S-wave (km/s) = 2.71921 4.06972 3.46098
# Velocity P-wave (km/s) = 3.86766 7.11340 5.72535
#
# Compressibility (1/GPa) = 0.09408781
#
# Stress axis : x y z
#
# Youngs Moduli (GPa) = 11.08825 169.15894 61.84580
#
# Poissons Ratio (x) = 0.76062 -0.03707
# Poissons Ratio (y) = 0.04986 0.32112
# Poissons Ratio (z) = -0.00665 0.87831
#
# Static dielectric constant tensor:
#      x y z
#    x 1.736600 0.000000 0.000000 
#    y 0.000000 1.773900 0.000000 
#    z 0.000000 0.000000 1.778250 
# 
# From -- ./inp_files/2338.got.cif
#   From: 2010.05.17/outbox.cif.g08.bks.cpg/sg28_2_cif.got.tgz:2338.got - 2010.06.04 01:15:21.
