data_PCOD9339277
_publ_section_title
;
Structure prediction by ZEFSAII (Michael W. Deem and Ramdas Pophale) SiO2 
 PCOD9339277
Probable space group: P M A 2
;
_chemical_formula_sum "Si O2"
_cell_formula_units_Z 28
_cell_length_a 8.717471
_cell_length_b 13.317422
_cell_length_c 14.838762
_cell_angle_alpha 90.000000
_cell_angle_beta 90.000000
_cell_angle_gamma 90.000000
_cell_volume 1722.694798
_symmetry_space_group_name_H-M "P M A 2"
_symmetry_group_IT_number 28
_symmetry_cell_setting 'orthorhombic'
loop_
_space_group_symop_operation_xyz
x,y,z
-x,-y,z
1/2-x,y,z
1/2+x,-y,z
loop_
_atom_site_type_symbol
_atom_site_label
_atom_site_fract_x
_atom_site_fract_y
_atom_site_fract_z
Si Si1 0.077455 0.235137 0.518230
Si Si2 0.566951 0.109855 0.365798
Si Si3 0.431060 0.717175 0.224391
Si Si4 0.434242 0.612955 0.865949
Si Si5 0.079137 0.407683 0.370720
Si Si6 0.933084 0.613474 0.054094
Si Si7 0.435894 0.385638 0.674910
O O1 0.250000 0.198824 0.540352
O O2 0.089838 0.318536 0.440538
O O3 0.016633 0.300715 0.602150
O O4 0.984763 0.150086 0.464554
O O5 0.750000 0.108044 0.364154
O O6 0.518996 0.186347 0.284643
O O7 0.500000 0.000000 0.350428
O O8 0.250000 0.724609 0.206730
O O9 0.468642 0.624410 0.290367
O O10 0.519927 0.689062 0.133802
O O11 0.500000 0.500000 0.868453
O O12 0.750000 0.386732 0.863339
O O13 0.503890 0.651446 0.772252
O O14 0.495928 0.654741 0.960447
O O15 0.250000 0.430069 0.337379
O O16 0.000000 0.500000 0.419493
O O17 0.750000 0.604458 0.046735
O O18 0.000000 0.500000 0.070395
O O19 0.500000 0.500000 0.659526
O O20 0.250000 0.392627 0.673379
#
# Coordination Sequence:
#
# PCOD9339277 Si02
#       7
#     4   4   4   4   4   4   4
#     4   9  19  32  47  67  93 123 158 194 232 277
#     4  10  21  36  55  73  94 120 152 195 241 287
#     4  10  20  33  47  67  91 120 155 191 231 279
#     4  10  18  29  44  64  93 129 165 200 232 272
#     4  10  18  28  41  61  90 124 155 187 224 268
#     4  11  20  31  47  68  96 130 163 198 233 274
#     4  10  18  29  45  68  98 132 165 199 233 273
#
# _framework density 16.253603999999999
#
# number of rings (size 3 to 8) (size 9 to 14) (size 15 to 20)
#    0.000    2.000    0.000    6.857    0.000    3.429 
#    0.000    0.000    0.000    0.000    0.000    1.000 
#    0.000    2.286    0.000    0.000    0.000    0.000 
#
# Total GULP energy -155887.893135 kJ/mol
# GULP energy per Si atom -5567.424755 kJ/mol
# Density = 1.621661 g / cm^3
# Si number density = 16.253604 Si / 1000 Ang^3
#
#
#
# Elastic Constant Matrix: (Units=GPa)
#
#
# Indices 1 2 3 4 5 6 
#
# 1 77.0122 33.6924 34.3383 0.0000 0.0000 0.0000
# 2 33.6924 65.5824 31.3525 0.0000 0.0000 0.0000
# 3 34.3383 31.3525 122.0214 0.0000 0.0000 0.0000
# 4 0.0000 0.0000 0.0000 98.1167 0.0000 0.0000
# 5 0.0000 0.0000 0.0000 0.0000 23.2775 0.0000
# 6 0.0000 0.0000 0.0000 0.0000 0.0000 19.9968
#
#
#
# Elastic Compliance Matrix: (Units=1/GPa)
#
#
# Indices 1 2 3 4 5 6 
#
# 1 0.017669 -0.007638 -0.003010 0.000000 0.000000 0.000000
# 2 -0.007638 0.020685 -0.003165 0.000000 0.000000 0.000000
# 3 -0.003010 -0.003165 0.009856 0.000000 0.000000 0.000000
# 4 0.000000 0.000000 0.000000 0.010192 0.000000 0.000000
# 5 0.000000 0.000000 0.000000 0.000000 0.042960 0.000000
# 6 0.000000 0.000000 0.000000 0.000000 0.000000 0.050008
#
#
# Mechanical properties :
#
#
# Convention : Reuss Voigt Hill
#
# Bulk Modulus (GPa) = 48.58404 51.48694 50.03549
# Shear Modulus (GPa) = 26.90239 39.29371 33.09805
#
# Velocity S-wave (km/s) = 4.07278 4.92218 4.51749
# Velocity P-wave (km/s) = 7.21616 8.00311 7.61980
#
# Compressibility (1/GPa) = 0.02058289
#
# Stress axis : x y z
#
# Youngs Moduli (GPa) = 56.59758 48.34326 101.46571
#
# Poissons Ratio (x) = 0.36926 0.30537
# Poissons Ratio (y) = 0.43231 0.32118
# Poissons Ratio (z) = 0.17033 0.15303
#
# Static dielectric constant tensor:
#      x y z
#    x 1.564270 0.000000 0.000000 
#    y 0.000000 -11.428520 0.000000 
#    z 0.000000 0.000000 1.592910 
# 
# From -- ./inp_files/6352.got.cif
#   From: 2010.05.17/outbox.cif.g08.bks.cpg/sg28_4_cif.got.tgz:6352.got - 2010.06.04 01:15:21.
