data_PCOD9339629
_publ_section_title
;
Structure prediction by ZEFSAII (Michael W. Deem and Ramdas Pophale) SiO2 
 PCOD9339629
Probable space group: P M A 2
;
_chemical_formula_sum "Si O2"
_cell_formula_units_Z 32
_cell_length_a 9.324247
_cell_length_b 24.602776
_cell_length_c 7.749861
_cell_angle_alpha 90.000000
_cell_angle_beta 90.000000
_cell_angle_gamma 90.000000
_cell_volume 1777.836405
_symmetry_space_group_name_H-M "P M A 2"
_symmetry_group_IT_number 28
_symmetry_cell_setting 'orthorhombic'
loop_
_space_group_symop_operation_xyz
x,y,z
-x,-y,z
1/2-x,y,z
1/2+x,-y,z
loop_
_atom_site_type_symbol
_atom_site_label
_atom_site_fract_x
_atom_site_fract_y
_atom_site_fract_z
Si Si1 0.084242 0.946030 0.088050
Si Si2 0.422473 0.639703 0.297350
Si Si3 0.081048 0.162957 0.600809
Si Si4 0.577796 0.754676 0.297354
Si Si5 0.078435 0.556318 0.597290
Si Si6 0.581049 0.837044 0.993896
Si Si7 0.078435 0.556318 0.997410
Si Si8 0.084241 0.946030 0.506655
O O1 0.250000 0.948381 0.034928
O O2 0.079579 0.944470 0.297353
O O3 0.000000 0.000000 0.031835
O O4 0.008151 0.891750 0.022406
O O5 0.250000 0.647085 0.297350
O O6 0.499363 0.697364 0.297350
O O7 0.461247 0.603860 0.465247
O O8 0.461247 0.603860 0.129452
O O9 0.250000 0.150536 0.571981
O O10 0.039611 0.208967 0.463980
O O11 0.063690 0.181810 0.797353
O O12 0.991852 0.108250 0.572296
O O13 0.750000 0.746713 0.297356
O O14 0.539615 0.791034 0.130729
O O15 0.250000 0.548211 0.583833
O O16 0.044970 0.569543 0.797350
O O17 0.000000 0.500000 0.553483
O O18 0.750000 0.849467 0.022722
O O19 0.250000 0.548211 0.010867
O O20 0.000000 0.500000 0.041216
O O21 0.250000 0.948379 0.559777
O O22 0.000000 0.000000 0.562870
#
# Coordination Sequence:
#
# PCOD9339629 Si02
#       8
#     4   4   4   4   4   4   4   4
#     4  10  20  34  56  84 112 142 176 217 269 327
#     4  10  21  35  53  77 107 142 179 218 262 314
#     4  10  21  38  59  80 105 140 180 224 274 323
#     4  10  22  39  56  77 107 140 180 228 269 312
#     4   9  18  33  53  79 110 141 174 215 262 311
#     4  10  21  38  59  80 105 140 180 224 274 323
#     4   9  18  33  53  79 110 141 174 215 262 311
#     4  10  20  34  56  84 112 142 176 217 269 327
#
# _framework density 17.999407000000001
#
# number of rings (size 3 to 8) (size 9 to 14) (size 15 to 20)
#    0.000    2.250    1.250    1.125    0.000    5.000 
#    0.000    0.000    0.000    0.000    0.000    0.000 
#    0.000    0.000    0.000    0.000    0.000    0.000 
#
# Total GULP energy -178673.488772 kJ/mol
# GULP energy per Si atom -5583.546524 kJ/mol
# Density = 1.795844 g / cm^3
# Si number density = 17.999407 Si / 1000 Ang^3
#
#
#
# Elastic Constant Matrix: (Units=GPa)
#
#
# Indices 1 2 3 4 5 6 
#
# 1 61.9294 79.1362 60.1012 0.0000 0.0000 0.0000
# 2 79.1362 188.3763 99.2518 0.0000 0.0000 0.0000
# 3 60.1012 99.2518 107.2195 0.0000 0.0000 0.0000
# 4 0.0000 0.0000 0.0000 -8.2926 0.0000 0.0000
# 5 0.0000 0.0000 0.0000 0.0000 14.8643 0.0000
# 6 0.0000 0.0000 0.0000 0.0000 0.0000 42.4578
#
#
#
# Elastic Compliance Matrix: (Units=1/GPa)
#
#
# Indices 1 2 3 4 5 6 
#
# 1 0.044412 -0.010816 -0.014882 0.000000 0.000000 0.000000
# 2 -0.010816 0.012997 -0.005968 0.000000 0.000000 0.000000
# 3 -0.014882 -0.005968 0.023194 0.000000 0.000000 0.000000
# 4 0.000000 0.000000 0.000000 -0.120590 0.000000 0.000000
# 5 0.000000 0.000000 0.000000 0.000000 0.067275 0.000000
# 6 0.000000 0.000000 0.000000 0.000000 0.000000 0.023553
#
#
# Mechanical properties :
#
#
# Convention : Reuss Voigt Hill
#
# Bulk Modulus (GPa) = 57.90767 92.72261 75.31514
# Shear Modulus (GPa) = 41.69112 17.74163 29.71638
#
# Velocity S-wave (km/s) = 4.81796 3.14296 4.06761
# Velocity P-wave (km/s) = 7.94935 8.04966 7.99966
#
# Compressibility (1/GPa) = 0.01726887
#
# Stress axis : x y z
#
# Youngs Moduli (GPa) = 22.51666 76.94235 43.11532
#
# Poissons Ratio (x) = 0.83220 0.64166
# Poissons Ratio (y) = 0.24354 0.25732
# Poissons Ratio (z) = 0.33510 0.45921
#
# Static dielectric constant tensor:
#      x y z
#    x 1.602220 0.000000 0.000000 
#    y 0.000000 1.556010 0.000000 
#    z 0.000000 0.000000 1.644100 
# 
# From -- ./inp_files/2747.got.cif
#   From: 2010.05.17/outbox.cif.g08.bks.cpg/sg28_2_cif.got.tgz:2747.got - 2010.06.04 01:15:21.
