data_PCOD9339486
_publ_section_title
;
Structure prediction by ZEFSAII (Michael W. Deem and Ramdas Pophale) SiO2 
 PCOD9339486
Probable space group: P M A 2
;
_chemical_formula_sum "Si O2"
_cell_formula_units_Z 32
_cell_length_a 8.945491
_cell_length_b 14.836562
_cell_length_c 12.622795
_cell_angle_alpha 90.000000
_cell_angle_beta 90.000000
_cell_angle_gamma 90.000000
_cell_volume 1675.301541
_symmetry_space_group_name_H-M "P M A 2"
_symmetry_group_IT_number 28
_symmetry_cell_setting 'orthorhombic'
loop_
_space_group_symop_operation_xyz
x,y,z
-x,-y,z
1/2-x,y,z
1/2+x,-y,z
loop_
_atom_site_type_symbol
_atom_site_label
_atom_site_fract_x
_atom_site_fract_y
_atom_site_fract_z
Si Si1 0.070026 0.593063 0.710220
Si Si2 0.928500 0.220126 0.615181
Si Si3 0.428695 0.099848 0.431929
Si Si4 0.070737 0.592936 0.162460
Si Si5 0.430394 0.219528 0.225524
Si Si6 0.080398 0.156818 0.997831
Si Si7 0.575393 0.087269 0.799326
Si Si8 0.922512 0.633647 0.937612
O O1 0.250000 0.588872 0.718431
O O2 0.030620 0.675770 0.632401
O O3 0.000000 0.500000 0.671358
O O4 0.001790 0.609919 0.827496
O O5 0.750000 0.214547 0.595579
O O6 0.959653 0.173274 0.728021
O O7 0.011940 0.162039 0.527367
O O8 0.250000 0.090094 0.439146
O O9 0.463958 0.156956 0.325610
O O10 0.500000 0.000000 0.432252
O O11 0.250000 0.590191 0.165288
O O12 0.000000 0.500000 0.205540
O O13 0.009692 0.682986 0.220773
O O14 0.012164 0.600529 0.040825
O O15 0.250000 0.234556 0.219768
O O16 0.473230 0.166636 0.118022
O O17 0.250000 0.121728 0.997101
O O18 0.082880 0.258677 0.952842
O O19 0.981336 0.101280 0.917677
O O20 0.750000 0.073558 0.799054
O O21 0.500000 0.000000 0.749703
O O22 0.750000 0.600301 0.938999
#
# Coordination Sequence:
#
# PCOD9339486 Si02
#       8
#     4   4   4   4   4   4   4   4
#     4  11  22  37  57  86 121 158 201 247 296 356
#     4  10  23  42  62  86 120 155 199 254 298 353
#     4  11  24  43  69  93 118 152 199 252 304 363
#     4  11  21  34  56  86 122 164 205 247 295 352
#     4   9  21  41  61  88 121 154 198 250 300 354
#     4   9  18  34  56  82 117 155 191 237 292 349
#     4  11  22  36  55  83 117 153 193 239 294 356
#     4  10  19  33  54  82 119 162 203 245 290 348
#
# _framework density 19.101039
#
# number of rings (size 3 to 8) (size 9 to 14) (size 15 to 20)
#    0.000    1.750    1.250    4.125    0.000    6.500 
#    0.000    1.875    0.000    1.500    0.000    0.000 
#    0.000    0.000    0.000    0.000    0.000    0.000 
#
# Total GULP energy -178687.134689 kJ/mol
# GULP energy per Si atom -5583.972959 kJ/mol
# Density = 1.905756 g / cm^3
# Si number density = 19.101039 Si / 1000 Ang^3
#
#
#
# Elastic Constant Matrix: (Units=GPa)
#
#
# Indices 1 2 3 4 5 6 
#
# 1 85.2535 70.0638 60.3224 0.0000 0.0000 0.0000
# 2 70.0638 150.2056 67.5603 0.0000 0.0000 0.0000
# 3 60.3224 67.5603 99.5157 0.0000 0.0000 0.0000
# 4 0.0000 0.0000 0.0000 16.6080 0.0000 0.0000
# 5 0.0000 0.0000 0.0000 0.0000 19.6898 0.0000
# 6 0.0000 0.0000 0.0000 0.0000 0.0000 21.8593
#
#
#
# Elastic Compliance Matrix: (Units=1/GPa)
#
#
# Indices 1 2 3 4 5 6 
#
# 1 0.024651 -0.006878 -0.010273 0.000000 0.000000 0.000000
# 2 -0.006878 0.011503 -0.003640 0.000000 0.000000 0.000000
# 3 -0.010273 -0.003640 0.018747 0.000000 0.000000 0.000000
# 4 0.000000 0.000000 0.000000 0.060212 0.000000 0.000000
# 5 0.000000 0.000000 0.000000 0.000000 0.050788 0.000000
# 6 0.000000 0.000000 0.000000 0.000000 0.000000 0.045747
#
#
# Mechanical properties :
#
#
# Convention : Reuss Voigt Hill
#
# Bulk Modulus (GPa) = 75.08199 81.20752 78.14476
# Shear Modulus (GPa) = 19.40464 20.76665 20.08564
#
# Velocity S-wave (km/s) = 3.19077 3.30085 3.24627
# Velocity P-wave (km/s) = 7.27790 7.55874 7.41965
#
# Compressibility (1/GPa) = 0.01331877
#
# Stress axis : x y z
#
# Youngs Moduli (GPa) = 40.56616 86.93342 53.34127
#
# Poissons Ratio (x) = 0.59791 0.54799
# Poissons Ratio (y) = 0.27901 0.19418
# Poissons Ratio (z) = 0.41674 0.31646
#
# Static dielectric constant tensor:
#      x y z
#    x 1.648670 0.000000 0.000000 
#    y 0.000000 1.692630 0.000000 
#    z 0.000000 0.000000 1.648050 
# 
# From -- ./inp_files/4979.got.cif
#   From: 2010.05.17/outbox.cif.g08.bks.cpg/sg28_3_cif.got.tgz:4979.got - 2010.06.04 01:15:21.
