data_PCOD9339442
_publ_section_title
;
Structure prediction by ZEFSAII (Michael W. Deem and Ramdas Pophale) SiO2 
 PCOD9339442
Probable space group: P M A 2
;
_chemical_formula_sum "Si O2"
_cell_formula_units_Z 32
_cell_length_a 7.910294
_cell_length_b 15.158411
_cell_length_c 12.754098
_cell_angle_alpha 90.000000
_cell_angle_beta 90.000000
_cell_angle_gamma 90.000000
_cell_volume 1529.311848
_symmetry_space_group_name_H-M "P M A 2"
_symmetry_group_IT_number 28
_symmetry_cell_setting 'orthorhombic'
loop_
_space_group_symop_operation_xyz
x,y,z
-x,-y,z
1/2-x,y,z
1/2+x,-y,z
loop_
_atom_site_type_symbol
_atom_site_label
_atom_site_fract_x
_atom_site_fract_y
_atom_site_fract_z
Si Si1 0.551573 0.225777 0.220800
Si Si2 0.048788 0.595509 0.776939
Si Si3 0.046487 0.596051 0.314665
Si Si4 0.947709 0.102175 0.039021
Si Si5 0.047168 0.094312 0.395730
Si Si6 0.048207 0.208428 0.833782
Si Si7 0.948731 0.839823 0.607124
Si Si8 0.044342 0.644804 0.546738
O O1 0.750000 0.238733 0.195955
O O2 0.479977 0.322697 0.245120
O O3 0.534610 0.171076 0.327847
O O4 0.473860 0.163545 0.130826
O O5 0.250000 0.600760 0.776253
O O6 0.988120 0.598799 0.655094
O O7 0.000000 0.500000 0.822180
O O8 0.987325 0.686238 0.830874
O O9 0.250000 0.603182 0.318153
O O10 0.987082 0.605250 0.435958
O O11 0.000000 0.500000 0.274189
O O12 0.750000 0.098164 0.061146
O O13 0.977266 0.154648 0.931290
O O14 0.000000 0.000000 0.034513
O O15 0.250000 0.105408 0.395041
O O16 0.981357 0.098501 0.515612
O O17 0.000000 0.000000 0.348759
O O18 0.250000 0.198342 0.834939
O O19 0.979344 0.167433 0.724166
O O20 0.750000 0.859711 0.618434
O O21 0.972540 0.742840 0.558362
O O22 0.250000 0.647915 0.546825
#
# Coordination Sequence:
#
# PCOD9339442 Si02
#       8
#     4   4   4   4   4   4   4   4
#     4  10  22  41  62  84 116 152 193 244 291 343
#     4  10  19  32  53  85 121 161 202 242 289 345
#     4  10  20  34  54  83 117 154 193 233 283 339
#     4  11  24  43  66  89 112 146 194 248 300 354
#     4  11  22  35  55  84 116 151 189 232 288 353
#     4  10  21  39  61  86 118 153 195 246 296 349
#     4   9  19  34  53  81 116 152 189 233 286 342
#     4   9  17  30  51  78 114 157 197 234 281 337
#
# _framework density 20.924444000000001
#
# number of rings (size 3 to 8) (size 9 to 14) (size 15 to 20)
#    0.000    2.000    1.250    2.250    0.000    5.000 
#    0.000    1.875    0.000    1.500    0.000    0.000 
#    0.000    0.000    0.000    0.000    0.000    0.000 
#
# Total GULP energy -178516.800576 kJ/mol
# GULP energy per Si atom -5578.650018 kJ/mol
# Density = 2.087682 g / cm^3
# Si number density = 20.924444 Si / 1000 Ang^3
#
#
#
# Elastic Constant Matrix: (Units=GPa)
#
#
# Indices 1 2 3 4 5 6 
#
# 1 15.1504 -6.9167 -11.1489 0.0000 0.0000 0.0000
# 2 -6.9167 161.4316 64.6401 0.0000 0.0000 0.0000
# 3 -11.1489 64.6401 97.5103 0.0000 0.0000 0.0000
# 4 0.0000 0.0000 0.0000 7.1238 0.0000 0.0000
# 5 0.0000 0.0000 0.0000 0.0000 10.1173 0.0000
# 6 0.0000 0.0000 0.0000 0.0000 0.0000 25.6529
#
#
#
# Elastic Compliance Matrix: (Units=1/GPa)
#
#
# Indices 1 2 3 4 5 6 
#
# 1 0.072078 -0.000288 0.008432 0.000000 0.000000 0.000000
# 2 -0.000288 0.008434 -0.005624 0.000000 0.000000 0.000000
# 3 0.008432 -0.005624 0.014948 0.000000 0.000000 0.000000
# 4 0.000000 0.000000 0.000000 0.140375 0.000000 0.000000
# 5 0.000000 0.000000 0.000000 0.000000 0.098840 0.000000
# 6 0.000000 0.000000 0.000000 0.000000 0.000000 0.038982
#
#
# Mechanical properties :
#
#
# Convention : Reuss Voigt Hill
#
# Bulk Modulus (GPa) = 9.95024 40.80457 25.37741
# Shear Modulus (GPa) = 12.43418 23.74667 18.09043
#
# Velocity S-wave (km/s) = 2.44035 3.37245 2.94353
# Velocity P-wave (km/s) = 3.56456 5.89133 4.86898
#
# Compressibility (1/GPa) = 0.10050009
#
# Stress axis : x y z
#
# Youngs Moduli (GPa) = 13.87381 118.56519 66.90041
#
# Poissons Ratio (x) = 0.03416 -0.56411
# Poissons Ratio (y) = 0.00400 0.37625
# Poissons Ratio (z) = -0.11699 0.66681
#
# Static dielectric constant tensor:
#      x y z
#    x 1.751320 0.000000 0.000000 
#    y 0.000000 1.822560 0.000000 
#    z 0.000000 0.000000 1.785980 
# 
# From -- ./inp_files/5035.got.cif
#   From: 2010.05.17/outbox.cif.g08.bks.cpg/sg28_3_cif.got.tgz:5035.got - 2010.06.04 01:15:21.
