data_PCOD9339692
_publ_section_title
;
Structure prediction by ZEFSAII (Michael W. Deem and Ramdas Pophale) SiO2 
 PCOD9339692
Probable space group: P M A 2
;
_chemical_formula_sum "Si O2"
_cell_formula_units_Z 24
_cell_length_a 8.705325
_cell_length_b 9.187875
_cell_length_c 15.945228
_cell_angle_alpha 90.000000
_cell_angle_beta 90.000000
_cell_angle_gamma 90.000000
_cell_volume 1275.354154
_symmetry_space_group_name_H-M "P M A 2"
_symmetry_group_IT_number 28
_symmetry_cell_setting 'orthorhombic'
loop_
_space_group_symop_operation_xyz
x,y,z
-x,-y,z
1/2-x,y,z
1/2+x,-y,z
loop_
_atom_site_type_symbol
_atom_site_label
_atom_site_fract_x
_atom_site_fract_y
_atom_site_fract_z
Si Si1 0.066475 0.837963 0.511490
Si Si2 0.065943 0.337964 0.668887
Si Si3 0.934427 0.664202 0.354780
Si Si4 0.433730 0.336169 0.168113
Si Si5 0.433295 0.664168 0.995804
Si Si6 0.566004 0.838273 0.838626
O O1 0.250000 0.842056 0.512076
O O2 0.006182 0.745124 0.590096
O O3 0.007023 0.761708 0.426861
O O4 0.000000 0.000000 0.517273
O O5 0.250000 0.343063 0.659161
O O6 0.029929 0.251688 0.754356
O O7 0.000000 0.500000 0.673625
O O8 0.750000 0.658136 0.364012
O O9 0.968574 0.723833 0.260836
O O10 0.000000 0.500000 0.361207
O O11 0.500000 0.500000 0.170845
O O12 0.250000 0.340872 0.157843
O O13 0.508514 0.270819 0.084683
O O14 0.500000 0.500000 0.988557
O O15 0.250000 0.656450 0.995773
O O16 0.493917 0.757663 0.918442
O O17 0.750000 0.843332 0.847848
O O18 0.500000 0.000000 0.831477
#
# Coordination Sequence:
#
# PCOD9339692 Si02
#       6
#     4   4   4   4   4   4
#     4  12  25  41  61  85 118 155 192 237 289 346
#     4  11  24  42  65  91 118 150 191 237 284 338
#     4  10  20  36  59  87 118 153 195 241 288 340
#     4   9  17  31  54  83 115 150 192 241 289 338
#     4  11  21  35  58  86 118 154 195 242 289 341
#     4  11  24  41  61  86 118 154 192 236 288 345
#
# _framework density 18.818304000000001
#
# number of rings (size 3 to 8) (size 9 to 14) (size 15 to 20)
#    0.000    1.333    0.000    7.500    0.000    7.333 
#    0.000    0.833    0.000    4.000    0.000    0.000 
#    0.000    0.000    0.000    0.000    0.000    0.000 
#
# Total GULP energy -134154.659457 kJ/mol
# GULP energy per Si atom -5589.777477 kJ/mol
# Density = 1.877547 g / cm^3
# Si number density = 18.818304 Si / 1000 Ang^3
#
#
#
# Elastic Constant Matrix: (Units=GPa)
#
#
# Indices 1 2 3 4 5 6 
#
# 1 137.4633 69.0864 112.6932 0.0000 0.0000 0.0000
# 2 69.0864 132.6568 100.7980 0.0000 0.0000 0.0000
# 3 112.6932 100.7980 217.3909 0.0000 0.0000 0.0000
# 4 0.0000 0.0000 0.0000 -59.1358 0.0000 0.0000
# 5 0.0000 0.0000 0.0000 0.0000 16.6682 0.0000
# 6 0.0000 0.0000 0.0000 0.0000 0.0000 31.3218
#
#
#
# Elastic Compliance Matrix: (Units=1/GPa)
#
#
# Indices 1 2 3 4 5 6 
#
# 1 0.013202 -0.002587 -0.005644 0.000000 0.000000 0.000000
# 2 -0.002587 0.012146 -0.004291 0.000000 0.000000 0.000000
# 3 -0.005644 -0.004291 0.009515 0.000000 0.000000 0.000000
# 4 0.000000 0.000000 0.000000 -0.016910 0.000000 0.000000
# 5 0.000000 0.000000 0.000000 0.000000 0.059994 0.000000
# 6 0.000000 0.000000 0.000000 0.000000 0.000000 0.031927
#
#
# Mechanical properties :
#
#
# Convention : Reuss Voigt Hill
#
# Bulk Modulus (GPa) = 101.83718 116.96292 109.40005
# Shear Modulus (GPa) = 36.18194 11.43309 23.80752
#
# Velocity S-wave (km/s) = 4.38962 2.46753 3.56072
# Velocity P-wave (km/s) = 8.94009 8.39089 8.66984
#
# Compressibility (1/GPa) = 0.00981960
#
# Stress axis : x y z
#
# Youngs Moduli (GPa) = 75.74613 82.33463 105.09171
#
# Poissons Ratio (x) = 0.21297 0.59318
# Poissons Ratio (y) = 0.19592 0.45092
# Poissons Ratio (z) = 0.42755 0.35327
#
# Static dielectric constant tensor:
#      x y z
#    x 1.625230 0.000000 0.000000 
#    y 0.000000 1.638240 0.000000 
#    z 0.000000 0.000000 1.665890 
# 
# From -- ./inp_files/6104.got.cif
#   From: 2010.05.17/outbox.cif.g08.bks.cpg/sg28_4_cif.got.tgz:6104.got - 2010.06.04 01:15:21.
