data_PCOD9339986
_publ_section_title
;
Structure prediction by ZEFSAII (Michael W. Deem and Ramdas Pophale) SiO2 
 PCOD9339986
Probable space group: P C A 21
;
_chemical_formula_sum "Si O2"
_cell_formula_units_Z 28
_cell_length_a 19.847199
_cell_length_b 11.302177
_cell_length_c 4.894321
_cell_angle_alpha 90.000000
_cell_angle_beta 90.000000
_cell_angle_gamma 90.000000
_cell_volume 1097.877231
_symmetry_space_group_name_H-M "P C A 21"
_symmetry_group_IT_number 29
_symmetry_cell_setting 'orthorhombic'
loop_
_space_group_symop_operation_xyz
x,y,z
-x,-y,1/2+z
1/2-x,y,1/2+z
1/2+x,-y,z
loop_
_atom_site_type_symbol
_atom_site_label
_atom_site_fract_x
_atom_site_fract_y
_atom_site_fract_z
Si Si1 0.074225 0.873962 0.475500
Si Si2 0.009478 0.656026 0.699611
Si Si3 0.121661 0.009615 0.013088
Si Si4 0.708866 0.497742 0.921302
Si Si5 0.205772 0.810298 0.197410
Si Si6 0.795289 0.772934 0.523471
Si Si7 0.579101 0.436838 0.201664
O O1 0.015615 0.788324 0.583583
O O2 0.133082 0.790203 0.340577
O O3 0.064923 0.970216 0.234357
O O4 0.105016 0.941527 0.734787
O O5 0.065428 0.586398 0.518386
O O6 0.945044 0.573317 0.657308
O O7 0.030025 0.645504 0.016246
O O8 0.140989 0.144300 0.967331
O O9 0.190239 0.950311 0.138365
O O10 0.724493 0.478875 0.605930
O O11 0.691254 0.635311 0.968520
O O12 0.651251 0.423650 0.065367
O O13 0.264319 0.774895 0.405706
O O14 0.768569 0.795942 0.827250
#
# Coordination Sequence:
#
# PCOD9339986 Si02
#       7
#     4   4   4   4   4   4   4
#     4  10  20  30  48  73 108 138 174 226 263 311
#     4  10  21  39  60  84 103 145 196 224 269 328
#     4  10  18  28  47  71 107 142 173 220 261 315
#     4  10  21  38  59  85 114 140 177 233 289 322
#     4  10  16  26  40  63  99 138 171 200 250 307
#     4  10  19  30  51  77 105 146 187 220 262 330
#     4  10  21  39  65  81 106 143 188 237 270 327
#
# _framework density 25.50376
#
# number of rings (size 3 to 8) (size 9 to 14) (size 15 to 20)
#    0.857    1.143    1.429    3.429    0.000    0.000 
#    0.000    4.286    0.000    1.714    0.000    0.000 
#    0.000    0.000    0.000    0.000    0.000    0.000 
#
# Total GULP energy -156281.245205 kJ/mol
# GULP energy per Si atom -5581.473043 kJ/mol
# Density = 2.544571 g / cm^3
# Si number density = 25.503760 Si / 1000 Ang^3
#
#
#
# Elastic Constant Matrix: (Units=GPa)
#
#
# Indices 1 2 3 4 5 6 
#
# 1 47.2125 5.2224 -4.4888 0.0000 0.0000 0.0000
# 2 5.2224 80.1194 10.2589 0.0000 0.0000 0.0000
# 3 -4.4888 10.2589 126.0352 0.0000 0.0000 0.0000
# 4 0.0000 0.0000 0.0000 21.6446 0.0000 0.0000
# 5 0.0000 0.0000 0.0000 0.0000 11.3106 0.0000
# 6 0.0000 0.0000 0.0000 0.0000 0.0000 35.8366
#
#
#
# Elastic Compliance Matrix: (Units=1/GPa)
#
#
# Indices 1 2 3 4 5 6 
#
# 1 0.021432 -0.001510 0.000886 0.000000 0.000000 0.000000
# 2 -0.001510 0.012719 -0.001089 0.000000 0.000000 0.000000
# 3 0.000886 -0.001089 0.008055 0.000000 0.000000 0.000000
# 4 0.000000 0.000000 0.000000 0.046201 0.000000 0.000000
# 5 0.000000 0.000000 0.000000 0.000000 0.088413 0.000000
# 6 0.000000 0.000000 0.000000 0.000000 0.000000 0.027904
#
#
# Mechanical properties :
#
#
# Convention : Reuss Voigt Hill
#
# Bulk Modulus (GPa) = 25.78696 30.59469 28.19083
# Shear Modulus (GPa) = 22.61652 29.91666 26.26659
#
# Velocity S-wave (km/s) = 2.98114 3.42867 3.21270
# Velocity P-wave (km/s) = 4.68856 5.26275 4.98393
#
# Compressibility (1/GPa) = 0.03877928
#
# Stress axis : x y z
#
# Youngs Moduli (GPa) = 46.65886 78.62075 124.15413
#
# Poissons Ratio (x) = 0.11876 -0.11003
# Poissons Ratio (y) = 0.07048 0.13522
# Poissons Ratio (z) = -0.04135 0.08563
#
# Static dielectric constant tensor:
#      x y z
#    x 2.036310 0.000000 0.000000 
#    y 0.000000 2.147770 0.000000 
#    z 0.000000 0.000000 1.899830 
# 
# From -- ./inp_files/387.got.cif
#   From: 2010.05.17/outbox.cif.g08.bks.cpg/sg29_1_cif.got.tgz:387.got - 2010.06.04 01:19:37.
