data_PCOD9339899
_publ_section_title
;
Structure prediction by ZEFSAII (Michael W. Deem and Ramdas Pophale) SiO2 
 PCOD9339899
Probable space group: P M A 2
;
_chemical_formula_sum "Si O2"
_cell_formula_units_Z 20
_cell_length_a 14.051465
_cell_length_b 11.234840
_cell_length_c 4.755558
_cell_angle_alpha 90.000000
_cell_angle_beta 90.000000
_cell_angle_gamma 90.000000
_cell_volume 750.740734
_symmetry_space_group_name_H-M "P M A 2"
_symmetry_group_IT_number 28
_symmetry_cell_setting 'orthorhombic'
loop_
_space_group_symop_operation_xyz
x,y,z
-x,-y,z
1/2-x,y,z
1/2+x,-y,z
loop_
_atom_site_type_symbol
_atom_site_label
_atom_site_fract_x
_atom_site_fract_y
_atom_site_fract_z
Si Si1 0.902947 0.042733 0.694310
Si Si2 0.358570 0.584778 0.494101
Si Si3 0.565590 0.668960 0.558690
Si Si4 0.647804 0.187518 0.154951
Si Si5 0.642031 0.810091 0.063065
O O1 0.864669 0.933438 0.883857
O O2 0.852184 0.109759 0.439531
O O3 0.000000 0.000000 0.560390
O O4 0.926625 0.140208 0.932065
O O5 0.250000 0.593474 0.613367
O O6 0.456790 0.633095 0.633891
O O7 0.383006 0.448169 0.434562
O O8 0.357274 0.674948 0.231068
O O9 0.621597 0.709508 0.832691
O O10 0.575850 0.774187 0.328325
O O11 0.750000 0.164511 0.011236
O O12 0.750000 0.806132 0.175064
#
# Coordination Sequence:
#
# PCOD9339899 Si02
#       5
#     4   4   4   4   4
#     4  12  24  41  64  93 129 168 214 266 319 378
#     4  10  23  44  69  96 131 171 214 268 326 384
#     4  11  25  44  67  98 130 168 219 268 320 387
#     4  11  23  40  62  91 125 165 211 257 314 379
#     4  12  24  42  67  96 133 174 216 266 323 382
#
# _framework density 26.640356000000001
#
# number of rings (size 3 to 8) (size 9 to 14) (size 15 to 20)
#    0.000    0.800    0.000    7.800    0.000    4.800 
#    0.000    7.000    0.000    0.000    0.000    0.000 
#    0.000    0.000    0.000    0.000    0.000    0.000 
#
# Total GULP energy -111836.962267 kJ/mol
# GULP energy per Si atom -5591.848113 kJ/mol
# Density = 2.657972 g / cm^3
# Si number density = 26.640356 Si / 1000 Ang^3
#
#
#
# Elastic Constant Matrix: (Units=GPa)
#
#
# Indices 1 2 3 4 5 6 
#
# 1 122.0807 50.6968 10.1570 0.0000 0.0000 0.0000
# 2 50.6968 172.6731 49.8961 0.0000 0.0000 0.0000
# 3 10.1570 49.8961 111.4991 0.0000 0.0000 0.0000
# 4 0.0000 0.0000 0.0000 20.1093 0.0000 0.0000
# 5 0.0000 0.0000 0.0000 0.0000 -11.6414 0.0000
# 6 0.0000 0.0000 0.0000 0.0000 0.0000 29.4248
#
#
#
# Elastic Compliance Matrix: (Units=1/GPa)
#
#
# Indices 1 2 3 4 5 6 
#
# 1 0.009347 -0.002869 0.000433 0.000000 0.000000 0.000000
# 2 -0.002869 0.007532 -0.003109 0.000000 0.000000 0.000000
# 3 0.000433 -0.003109 0.010321 0.000000 0.000000 0.000000
# 4 0.000000 0.000000 0.000000 0.049728 0.000000 0.000000
# 5 0.000000 0.000000 0.000000 0.000000 -0.085900 0.000000
# 6 0.000000 0.000000 0.000000 0.000000 0.000000 0.033985
#
#
# Mechanical properties :
#
#
# Convention : Reuss Voigt Hill
#
# Bulk Modulus (GPa) = 62.08197 69.75030 65.91614
# Shear Modulus (GPa) = 120.55869 27.27875 73.91872
#
# Velocity S-wave (km/s) = 6.73442 3.20341 5.27325
# Velocity P-wave (km/s) = 9.15556 6.31835 7.86593
#
# Compressibility (1/GPa) = 0.01610774
#
# Stress axis : x y z
#
# Youngs Moduli (GPa) = 106.98830 132.76407 96.89267
#
# Poissons Ratio (x) = 0.38093 -0.04191
# Poissons Ratio (y) = 0.30697 0.30127
# Poissons Ratio (z) = -0.04628 0.41280
#
# Static dielectric constant tensor:
#      x y z
#    x 2.554210 0.000000 0.000000 
#    y 0.000000 2.081020 0.000000 
#    z 0.000000 0.000000 1.960290 
# 
# From -- ./inp_files/711.got.cif
#   From: 2010.05.17/outbox.cif.g08.bks.cpg/sg28_1_cif.got.tgz:711.got - 2010.06.04 01:15:21.
