data_PCOD9339071
_publ_section_title
;
Structure prediction by ZEFSAII (Michael W. Deem and Ramdas Pophale) SiO2 
 PCOD9339071
Probable space group: P C C 2
;
_chemical_formula_sum "Si O2"
_cell_formula_units_Z 26
_cell_length_a 17.331924
_cell_length_b 5.456532
_cell_length_c 12.255156
_cell_angle_alpha 90.000000
_cell_angle_beta 90.000000
_cell_angle_gamma 90.000000
_cell_volume 1158.997039
_symmetry_space_group_name_H-M "P C C 2"
_symmetry_group_IT_number 27
_symmetry_cell_setting 'orthorhombic'
loop_
_space_group_symop_operation_xyz
x,y,z
-x,-y,z
-x,y,1/2+z
x,-y,1/2+z
loop_
_atom_site_type_symbol
_atom_site_label
_atom_site_fract_x
_atom_site_fract_y
_atom_site_fract_z
Si Si1 0.702131 0.214424 0.448860
Si Si2 0.855744 0.022046 0.944818
Si Si3 0.358130 0.414371 0.739172
Si Si4 0.000000 0.000000 0.786415
Si Si5 0.205994 0.433654 0.607843
Si Si6 0.585748 0.932347 0.127555
Si Si7 0.941085 0.336285 0.613337
O O1 0.772896 0.063461 0.394980
O O2 0.656253 0.396784 0.368715
O O3 0.750588 0.365897 0.536128
O O4 0.642712 0.060658 0.522915
O O5 0.899635 0.849593 0.032295
O O6 0.921876 0.037760 0.854117
O O7 0.829716 0.248236 0.020088
O O8 0.273467 0.362894 0.688761
O O9 0.396146 0.666735 0.689047
O O10 0.400934 0.162530 0.707860
O O11 0.997957 0.224305 0.702244
O O12 0.132190 0.538102 0.669854
O O13 0.500000 0.000000 0.087357
O O14 0.000000 0.500000 0.543288
#
# Coordination Sequence:
#
# PCOD9339071 Si02
#       7
#     4   4   4   2   4   4   4
#     4  10  25  42  73 104 143 194 244 299 367 453
#     4  11  24  44  63  95 137 186 235 303 365 436
#     4  11  25  44  75 112 144 196 248 294 370 445
#     4  12  26  36  66  92 130 184 248 298 364 426
#     4  10  23  43  66  96 142 182 243 304 368 431
#     4  11  25  49  74 111 156 189 236 308 369 444
#     4  11  25  42  58  91 131 182 233 303 364 423
#
# _framework density 22.43319
#
# number of rings (size 3 to 8) (size 9 to 14) (size 15 to 20)
#    0.000    1.231    1.538    2.769    8.615    2.462 
#    0.000    3.077    0.000    0.000    0.000    0.000 
#    0.000    0.000    0.000    0.000    0.000    0.000 
#
# Total GULP energy -144761.993880 kJ/mol
# GULP energy per Si atom -5567.768995 kJ/mol
# Density = 2.238213 g / cm^3
# Si number density = 22.433190 Si / 1000 Ang^3
#
#
#
# Elastic Constant Matrix: (Units=GPa)
#
#
# Indices 1 2 3 4 5 6 
#
# 1 150.1851 56.3148 34.4936 0.0000 0.0000 0.0000
# 2 56.3148 72.2906 6.7976 0.0000 0.0000 0.0000
# 3 34.4936 6.7976 51.1719 0.0000 0.0000 0.0000
# 4 0.0000 0.0000 0.0000 -218.1566 0.0000 0.0000
# 5 0.0000 0.0000 0.0000 0.0000 32.8703 0.0000
# 6 0.0000 0.0000 0.0000 0.0000 0.0000 34.1146
#
#
#
# Elastic Compliance Matrix: (Units=1/GPa)
#
#
# Indices 1 2 3 4 5 6 
#
# 1 0.011180 -0.008102 -0.006460 0.000000 0.000000 0.000000
# 2 -0.008102 0.019879 0.002821 0.000000 0.000000 0.000000
# 3 -0.006460 0.002821 0.023522 0.000000 0.000000 0.000000
# 4 0.000000 0.000000 0.000000 -0.004584 0.000000 0.000000
# 5 0.000000 0.000000 0.000000 0.000000 0.030423 0.000000
# 6 0.000000 0.000000 0.000000 0.000000 0.000000 0.029313
#
#
# Mechanical properties :
#
#
# Convention : Reuss Voigt Hill
#
# Bulk Modulus (GPa) = 32.15591 52.09551 42.12571
# Shear Modulus (GPa) = 34.82340 -18.49823 8.16259
#
# Velocity S-wave (km/s) = 3.94422 -2.87469 1.90959
# Velocity P-wave (km/s) = 5.92517 3.50064 4.86632
#
# Compressibility (1/GPa) = 0.03109848
#
# Stress axis : x y z
#
# Youngs Moduli (GPa) = 89.44468 50.30366 42.51383
#
# Poissons Ratio (x) = 0.40756 0.27464
# Poissons Ratio (y) = 0.72467 -0.11991
# Poissons Ratio (z) = 0.57781 -0.14188
#
# Static dielectric constant tensor:
#      x y z
#    x 1.792490 0.000000 0.000000 
#    y 0.000000 2.153050 0.000000 
#    z 0.000000 0.000000 1.866290 
# 
# From -- ./inp_files/2812.got.cif
#   From: 2010.05.17/outbox.cif.g08.bks.cpg/sg27_2_cif.got.tgz:2812.got - 2010.06.04 01:11:05.
