data_PCOD9339963
_publ_section_title
;
Structure prediction by ZEFSAII (Michael W. Deem and Ramdas Pophale) SiO2 
 PCOD9339963
Probable space group: P M A 2
;
_chemical_formula_sum "Si O2"
_cell_formula_units_Z 16
_cell_length_a 9.493910
_cell_length_b 8.485627
_cell_length_c 8.407439
_cell_angle_alpha 90.000000
_cell_angle_beta 90.000000
_cell_angle_gamma 90.000000
_cell_volume 677.318243
_symmetry_space_group_name_H-M "P M A 2"
_symmetry_group_IT_number 28
_symmetry_cell_setting 'orthorhombic'
loop_
_space_group_symop_operation_xyz
x,y,z
-x,-y,z
1/2-x,y,z
1/2+x,-y,z
loop_
_atom_site_type_symbol
_atom_site_label
_atom_site_fract_x
_atom_site_fract_y
_atom_site_fract_z
Si Si1 0.500000 0.000000 0.431950
Si Si2 0.250000 0.047481 0.640749
Si Si3 0.250000 0.581714 0.997452
Si Si4 0.250000 0.667100 0.629320
Si Si5 0.494266 0.751595 0.194082
Si Si6 0.750000 0.797969 0.988704
Si Si7 0.000000 0.500000 0.437380
O O1 0.610094 0.909771 0.543557
O O2 0.574458 0.123067 0.313961
O O3 0.250000 0.856857 0.633322
O O4 0.250000 0.123182 0.815251
O O5 0.250000 0.626193 0.813967
O O6 0.250000 0.392659 0.991510
O O7 0.383949 0.658183 0.085919
O O8 0.384587 0.588852 0.543120
O O9 0.565753 0.626860 0.314789
O O10 0.609173 0.837659 0.085427
#
# Coordination Sequence:
#
# PCOD9339963 Si02
#       7
#     2   2   2   2   4   2   2
#     4  12  28  50  78 108 156 202 256 316 386 452
#     4  12  30  50  72 116 160 199 253 314 391 462
#     4  12  28  47  74 112 152 197 255 317 383 449
#     4  12  30  47  78 114 154 200 254 322 386 455
#     4  12  26  49  78 109 147 201 257 316 376 454
#     4  12  28  46  76 112 152 198 252 315 388 458
#     4  12  24  52  80 108 150 204 260 318 374 454
#
# _framework density 23.622574
#
# number of rings (size 3 to 8) (size 9 to 14) (size 15 to 20)
#    0.000    0.000    5.000    3.000   14.000    0.000 
#    0.000    0.000    0.000    0.000    0.000    0.000 
#    0.000    0.000    0.000    0.000    0.000    0.000 
#
# Total GULP energy -89558.440538 kJ/mol
# GULP energy per Si atom -5597.402534 kJ/mol
# Density = 2.356881 g / cm^3
# Si number density = 23.622574 Si / 1000 Ang^3
#
#
#
# Elastic Constant Matrix: (Units=GPa)
#
#
# Indices 1 2 3 4 5 6 
#
# 1 145.1859 36.9094 93.2824 0.0000 0.0000 0.0000
# 2 36.9094 94.9466 80.9059 0.0000 0.0000 0.0000
# 3 93.2824 80.9059 232.7351 0.0000 0.0000 0.0000
# 4 0.0000 0.0000 0.0000 69.0361 0.0000 0.0000
# 5 0.0000 0.0000 0.0000 0.0000 29.1795 0.0000
# 6 0.0000 0.0000 0.0000 0.0000 0.0000 16.3641
#
#
#
# Elastic Compliance Matrix: (Units=1/GPa)
#
#
# Indices 1 2 3 4 5 6 
#
# 1 0.009303 -0.000624 -0.003512 0.000000 0.000000 0.000000
# 2 -0.000624 0.015007 -0.004967 0.000000 0.000000 0.000000
# 3 -0.003512 -0.004967 0.007431 0.000000 0.000000 0.000000
# 4 0.000000 0.000000 0.000000 0.014485 0.000000 0.000000
# 5 0.000000 0.000000 0.000000 0.000000 0.034271 0.000000
# 6 0.000000 0.000000 0.000000 0.000000 0.000000 0.061109
#
#
# Mechanical properties :
#
#
# Convention : Reuss Voigt Hill
#
# Bulk Modulus (GPa) = 73.87870 99.45145 86.66507
# Shear Modulus (GPa) = 30.42795 40.36727 35.39761
#
# Velocity S-wave (km/s) = 3.59289 4.13830 3.87520
# Velocity P-wave (km/s) = 6.96809 8.06385 7.53591
#
# Compressibility (1/GPa) = 0.01353570
#
# Stress axis : x y z
#
# Youngs Moduli (GPa) = 107.49687 66.63489 134.57350
#
# Poissons Ratio (x) = 0.04157 0.47258
# Poissons Ratio (y) = 0.06707 0.66841
# Poissons Ratio (z) = 0.37749 0.33097
#
# Static dielectric constant tensor:
#      x y z
#    x 1.889290 0.000000 0.000000 
#    y 0.000000 1.988400 0.000000 
#    z 0.000000 0.000000 1.829380 
# 
# From -- ./inp_files/2132.got.cif
#   From: 2010.05.17/outbox.cif.g08.bks.cpg/sg28_2_cif.got.tgz:2132.got - 2010.06.04 01:15:21.
