data_PCOD9339083
_publ_section_title
;
Structure prediction by ZEFSAII (Michael W. Deem and Ramdas Pophale) SiO2 
 PCOD9339083
Probable space group: P C C 2
;
_chemical_formula_sum "Si O2"
_cell_formula_units_Z 18
_cell_length_a 5.586661
_cell_length_b 5.170368
_cell_length_c 25.567235
_cell_angle_alpha 90.000000
_cell_angle_beta 90.000000
_cell_angle_gamma 90.000000
_cell_volume 738.511967
_symmetry_space_group_name_H-M "P C C 2"
_symmetry_group_IT_number 27
_symmetry_cell_setting 'orthorhombic'
loop_
_space_group_symop_operation_xyz
x,y,z
-x,-y,z
-x,y,1/2+z
x,-y,1/2+z
loop_
_atom_site_type_symbol
_atom_site_label
_atom_site_fract_x
_atom_site_fract_y
_atom_site_fract_z
Si Si1 0.830851 0.249151 0.852500
Si Si2 0.845046 0.762352 0.691372
Si Si3 0.256901 0.348269 0.579305
Si Si4 0.500000 0.000000 0.767202
Si Si5 0.168426 0.751625 0.965516
O O1 0.657563 0.177179 0.805759
O O2 0.701063 0.264116 0.909497
O O3 0.000000 0.500000 0.844361
O O4 0.000000 0.000000 0.856338
O O5 0.777453 0.822361 0.631005
O O6 0.000000 0.500000 0.693425
O O7 0.621259 0.789598 0.728983
O O8 0.000000 0.000000 0.711237
O O9 0.500000 0.500000 0.591813
O O10 0.301269 0.240155 0.521067
O O11 0.000000 0.500000 0.576089
O O12 0.000000 0.500000 0.965414
O O13 0.000000 0.000000 0.966182
#
# Coordination Sequence:
#
# PCOD9339083 Si02
#       5
#     4   4   4   2   4
#     4  10  24  48  72 107 147 192 254 312 378 456
#     4  11  28  49  74 108 149 196 254 315 382 458
#     4  10  23  47  76 111 151 193 248 316 388 463
#     4  12  28  48  78 108 148 216 254 324 380 466
#     4   9  19  44  74 103 145 189 239 310 383 454
#
# _framework density 24.373335000000001
#
# number of rings (size 3 to 8) (size 9 to 14) (size 15 to 20)
#    0.000    1.778    0.000    1.333    6.222    6.222 
#   20.000    0.000    0.000    0.000    0.000    0.000 
#    0.000    0.000    0.000    0.000    0.000    0.000 
#
# Total GULP energy -100543.953742 kJ/mol
# GULP energy per Si atom -5585.775208 kJ/mol
# Density = 2.431786 g / cm^3
# Si number density = 24.373335 Si / 1000 Ang^3
#
#
#
# Elastic Constant Matrix: (Units=GPa)
#
#
# Indices 1 2 3 4 5 6 
#
# 1 73.9820 26.0721 44.1279 0.0000 0.0000 0.0000
# 2 26.0721 145.1100 18.0844 0.0000 0.0000 0.0000
# 3 44.1279 18.0844 235.9414 0.0000 0.0000 0.0000
# 4 0.0000 0.0000 0.0000 32.9042 0.0000 0.0000
# 5 0.0000 0.0000 0.0000 0.0000 -474.3703 0.0000
# 6 0.0000 0.0000 0.0000 0.0000 0.0000 36.7799
#
#
#
# Elastic Compliance Matrix: (Units=1/GPa)
#
#
# Indices 1 2 3 4 5 6 
#
# 1 0.016091 -0.002540 -0.002815 0.000000 0.000000 0.000000
# 2 -0.002540 0.007359 -0.000089 0.000000 0.000000 0.000000
# 3 -0.002815 -0.000089 0.004772 0.000000 0.000000 0.000000
# 4 0.000000 0.000000 0.000000 0.030391 0.000000 0.000000
# 5 0.000000 0.000000 0.000000 0.000000 -0.002108 0.000000
# 6 0.000000 0.000000 0.000000 0.000000 0.000000 0.027189
#
#
# Mechanical properties :
#
#
# Convention : Reuss Voigt Hill
#
# Bulk Modulus (GPa) = 57.69207 70.17802 63.93505
# Shear Modulus (GPa) = 49.82108 -56.48731 -3.33312
#
# Velocity S-wave (km/s) = 4.52606 -4.81935 -1.17068
# Velocity P-wave (km/s) = 7.14389 1.45354 4.94582
#
# Compressibility (1/GPa) = 0.01733340
#
# Stress axis : x y z
#
# Youngs Moduli (GPa) = 62.14669 135.89131 209.57324
#
# Poissons Ratio (x) = 0.34520 0.58990
# Poissons Ratio (y) = 0.15787 0.01864
# Poissons Ratio (z) = 0.17493 0.01208
#
# Static dielectric constant tensor:
#      x y z
#    x 31.251870 0.000000 0.000000 
#    y 0.000000 1.885240 0.000000 
#    z 0.000000 0.000000 1.990120 
# 
# From -- ./inp_files/5164.got.cif
#   From: 2010.05.17/outbox.cif.g08.bks.cpg/sg27_3_cif.got.tgz:5164.got - 2010.06.04 01:11:05.
