data_PCOD9339961
_publ_section_title
;
Structure prediction by ZEFSAII (Michael W. Deem and Ramdas Pophale) SiO2 
 PCOD9339961
Probable space group: P M A 2
;
_chemical_formula_sum "Si O2"
_cell_formula_units_Z 16
_cell_length_a 22.569358
_cell_length_b 4.727758
_cell_length_c 6.121471
_cell_angle_alpha 90.000000
_cell_angle_beta 90.000000
_cell_angle_gamma 90.000000
_cell_volume 653.176032
_symmetry_space_group_name_H-M "P M A 2"
_symmetry_group_IT_number 28
_symmetry_cell_setting 'orthorhombic'
loop_
_space_group_symop_operation_xyz
x,y,z
-x,-y,z
1/2-x,y,z
1/2+x,-y,z
loop_
_atom_site_type_symbol
_atom_site_label
_atom_site_fract_x
_atom_site_fract_y
_atom_site_fract_z
Si Si1 0.460135 0.750579 0.914970
Si Si2 0.250000 0.941556 0.799167
Si Si3 0.875090 0.411098 0.289478
Si Si4 0.875120 0.914998 0.583528
Si Si5 0.250000 0.432553 0.088449
O O1 0.500000 0.500000 0.812491
O O2 0.500000 0.000000 0.022531
O O3 0.420398 0.935012 0.748700
O O4 0.420054 0.579322 0.088367
O O5 0.250000 0.611666 0.861348
O O6 0.190522 0.037266 0.678829
O O7 0.250000 0.104212 0.029559
O O8 0.888062 0.598149 0.504842
O O9 0.877009 0.087193 0.359363
O O10 0.809499 0.492358 0.214050
#
# Coordination Sequence:
#
# PCOD9339961 Si02
#       5
#     4   2   4   4   2
#     4  12  28  49  76 103 150 200 252 308 362 430
#     4  12  24  44  78 109 149 188 230 303 382 440
#     4  12  26  47  77 110 146 190 244 302 373 441
#     4  12  26  47  77 110 146 190 244 302 373 441
#     4  12  24  44  78 109 149 188 230 303 382 440
#
# _framework density 24.495692999999999
#
# number of rings (size 3 to 8) (size 9 to 14) (size 15 to 20)
#    0.000    0.000    2.500    7.500    3.500    4.000 
#    0.000    0.000    0.000    0.000    0.000    0.000 
#    0.000    0.000    0.000    0.000    0.000    0.000 
#
# Total GULP energy -89604.849204 kJ/mol
# GULP energy per Si atom -5600.303075 kJ/mol
# Density = 2.443994 g / cm^3
# Si number density = 24.495693 Si / 1000 Ang^3
#
#
#
# Elastic Constant Matrix: (Units=GPa)
#
#
# Indices 1 2 3 4 5 6 
#
# 1 159.5437 39.8328 56.0598 0.0000 0.0000 0.0000
# 2 39.8328 105.0255 7.3085 0.0000 0.0000 0.0000
# 3 56.0598 7.3085 67.1208 0.0000 0.0000 0.0000
# 4 0.0000 0.0000 0.0000 64.2354 0.0000 0.0000
# 5 0.0000 0.0000 0.0000 0.0000 -105.1095 0.0000
# 6 0.0000 0.0000 0.0000 0.0000 0.0000 -10.5811
#
#
#
# Elastic Compliance Matrix: (Units=1/GPa)
#
#
# Indices 1 2 3 4 5 6 
#
# 1 0.009822 -0.003179 -0.007858 0.000000 0.000000 0.000000
# 2 -0.003179 0.010623 0.001498 0.000000 0.000000 0.000000
# 3 -0.007858 0.001498 0.021298 0.000000 0.000000 0.000000
# 4 0.000000 0.000000 0.000000 0.015568 0.000000 0.000000
# 5 0.000000 0.000000 0.000000 0.000000 -0.009514 0.000000
# 6 0.000000 0.000000 0.000000 0.000000 0.000000 -0.094508
#
#
# Mechanical properties :
#
#
# Convention : Reuss Voigt Hill
#
# Bulk Modulus (GPa) = 44.11680 59.78802 51.95241
# Shear Modulus (GPa) = -249.02326 4.94156 -122.04085
#
# Velocity S-wave (km/s) = -10.09360 1.42186 -7.06608
# Velocity P-wave (km/s) = 10.85319 5.21116 6.73185
#
# Compressibility (1/GPa) = 0.02266710
#
# Stress axis : x y z
#
# Youngs Moduli (GPa) = 101.80747 94.13747 46.95230
#
# Poissons Ratio (x) = 0.29922 0.36894
# Poissons Ratio (y) = 0.32360 -0.07034
# Poissons Ratio (z) = 0.79997 -0.14103
#
# Static dielectric constant tensor:
#      x y z
#    x 2.018280 0.000000 0.000000 
#    y 0.000000 1.871360 0.000000 
#    z 0.000000 0.000000 1.956650 
# 
# From -- ./inp_files/1329.got.cif
#   From: 2010.05.17/outbox.cif.g08.bks.cpg/sg28_1_cif.got.tgz:1329.got - 2010.06.04 01:15:21.
