data_PCOD9339066
_publ_section_title
;
Structure prediction by ZEFSAII (Michael W. Deem and Ramdas Pophale) SiO2 
 PCOD9339066
Probable space group: P C C 2
;
_chemical_formula_sum "Si O2"
_cell_formula_units_Z 32
_cell_length_a 11.877439
_cell_length_b 13.566543
_cell_length_c 9.251494
_cell_angle_alpha 90.000000
_cell_angle_beta 90.000000
_cell_angle_gamma 90.000000
_cell_volume 1490.746766
_symmetry_space_group_name_H-M "P C C 2"
_symmetry_group_IT_number 27
_symmetry_cell_setting 'orthorhombic'
loop_
_space_group_symop_operation_xyz
x,y,z
-x,-y,z
-x,y,1/2+z
x,-y,1/2+z
loop_
_atom_site_type_symbol
_atom_site_label
_atom_site_fract_x
_atom_site_fract_y
_atom_site_fract_z
Si Si1 0.642165 0.789846 0.635930
Si Si2 0.050938 0.214057 0.370183
Si Si3 0.428879 0.097810 0.174725
Si Si4 0.762657 0.064461 0.913654
Si Si5 0.869805 0.483908 0.743082
Si Si6 0.873918 0.718673 0.076457
Si Si7 0.220387 0.374288 0.506223
Si Si8 0.284615 0.846953 0.439197
O O1 0.514562 0.810668 0.686365
O O2 0.692628 0.881572 0.542370
O O3 0.669782 0.690202 0.547219
O O4 0.706876 0.793888 0.787353
O O5 0.114646 0.113903 0.405772
O O6 0.055597 0.226493 0.199483
O O7 0.133372 0.294568 0.443322
O O8 0.931760 0.247638 0.429105
O O9 0.317468 0.088012 0.274506
O O10 0.500000 0.000000 0.204093
O O11 0.397578 0.105613 0.005342
O O12 0.784586 0.948142 0.927334
O O13 0.872156 0.393250 0.627933
O O14 0.826187 0.576041 0.651628
O O15 0.787761 0.454286 0.875831
O O16 0.000000 0.500000 0.792994
O O17 0.752777 0.767800 0.059300
#
# Coordination Sequence:
#
# PCOD9339066 Si02
#       8
#     4   4   4   4   4   4   4   4
#     4  11  25  38  65  98 136 173 227 289 349 403
#     4  10  23  42  60  94 140 173 225 268 342 413
#     4  12  22  43  69  99 129 177 241 290 331 397
#     4  11  22  42  62  99 134 179 229 284 337 415
#     4  11  22  42  72 101 132 176 232 290 352 417
#     4  11  25  40  64  97 134 178 221 284 341 412
#     4  10  24  40  65 101 130 169 221 288 345 412
#     4  12  24  40  66 100 136 178 231 281 346 410
#
# _framework density 21.465751000000001
#
# number of rings (size 3 to 8) (size 9 to 14) (size 15 to 20)
#    0.000    1.000    5.000    1.125    7.000    0.500 
#    0.000    1.250    0.000    0.750    3.250    0.000 
#    0.000    0.000    0.000    0.000    0.000    0.000 
#
# Total GULP energy -178404.199692 kJ/mol
# GULP energy per Si atom -5575.131240 kJ/mol
# Density = 2.141689 g / cm^3
# Si number density = 21.465751 Si / 1000 Ang^3
#
#
#
# Elastic Constant Matrix: (Units=GPa)
#
#
# Indices 1 2 3 4 5 6 
#
# 1 30.3054 6.4187 8.4095 0.0000 0.0000 0.0000
# 2 6.4187 55.4654 26.8646 0.0000 0.0000 0.0000
# 3 8.4095 26.8646 97.8219 0.0000 0.0000 0.0000
# 4 0.0000 0.0000 0.0000 27.4767 0.0000 0.0000
# 5 0.0000 0.0000 0.0000 0.0000 25.4836 0.0000
# 6 0.0000 0.0000 0.0000 0.0000 0.0000 21.4439
#
#
#
# Elastic Compliance Matrix: (Units=1/GPa)
#
#
# Indices 1 2 3 4 5 6 
#
# 1 0.034210 -0.002923 -0.002138 0.000000 0.000000 0.000000
# 2 -0.002923 0.021045 -0.005528 0.000000 0.000000 0.000000
# 3 -0.002138 -0.005528 0.011925 0.000000 0.000000 0.000000
# 4 0.000000 0.000000 0.000000 0.036394 0.000000 0.000000
# 5 0.000000 0.000000 0.000000 0.000000 0.039241 0.000000
# 6 0.000000 0.000000 0.000000 0.000000 0.000000 0.046633
#
#
# Mechanical properties :
#
#
# Convention : Reuss Voigt Hill
#
# Bulk Modulus (GPa) = 21.73895 29.66424 25.70160
# Shear Modulus (GPa) = 22.12768 24.34084 23.23426
#
# Velocity S-wave (km/s) = 3.21415 3.37105 3.29353
# Velocity P-wave (km/s) = 4.89117 5.38529 5.14417
#
# Compressibility (1/GPa) = 0.04600037
#
# Stress axis : x y z
#
# Youngs Moduli (GPa) = 29.23127 47.51682 83.85962
#
# Poissons Ratio (x) = 0.13891 0.17930
# Poissons Ratio (y) = 0.08545 0.46360
# Poissons Ratio (z) = 0.06250 0.26269
#
# Static dielectric constant tensor:
#      x y z
#    x 1.957720 0.000000 0.000000 
#    y 0.000000 1.830670 0.000000 
#    z 0.000000 0.000000 1.848280 
# 
# From -- ./inp_files/1479.got.cif
#   From: 2010.05.17/outbox.cif.g08.bks.cpg/sg27_1_cif.got.tgz:1479.got - 2010.06.04 01:11:05.
