data_PCOD9339443
_publ_section_title
;
Structure prediction by ZEFSAII (Michael W. Deem and Ramdas Pophale) SiO2 
 PCOD9339443
Probable space group: P M A 2
;
_chemical_formula_sum "Si O2"
_cell_formula_units_Z 24
_cell_length_a 9.358282
_cell_length_b 11.604862
_cell_length_c 10.074805
_cell_angle_alpha 90.000000
_cell_angle_beta 90.000000
_cell_angle_gamma 90.000000
_cell_volume 1094.139652
_symmetry_space_group_name_H-M "P M A 2"
_symmetry_group_IT_number 28
_symmetry_cell_setting 'orthorhombic'
loop_
_space_group_symop_operation_xyz
x,y,z
-x,-y,z
1/2-x,y,z
1/2+x,-y,z
loop_
_atom_site_type_symbol
_atom_site_label
_atom_site_fract_x
_atom_site_fract_y
_atom_site_fract_z
Si Si1 0.084099 0.662223 0.437190
Si Si2 0.910158 0.394198 0.130301
Si Si3 0.584923 0.890907 0.368648
Si Si4 0.406407 0.178290 0.072437
Si Si5 0.922257 0.615786 0.699909
Si Si6 0.084739 0.115370 0.775705
O O1 0.250000 0.665244 0.483306
O O2 0.085474 0.605161 0.291527
O O3 0.014733 0.785751 0.408639
O O4 0.977731 0.614740 0.548082
O O5 0.750000 0.405499 0.085466
O O6 0.000000 0.500000 0.079889
O O7 0.974503 0.274652 0.082976
O O8 0.750000 0.879999 0.412648
O O9 0.589613 0.893304 0.207907
O O10 0.500000 0.000000 0.419139
O O11 0.250000 0.237958 0.071903
O O12 0.417706 0.111166 0.936091
O O13 0.750000 0.604373 0.711188
O O14 0.959526 0.749565 0.744766
O O15 0.000000 0.500000 0.759237
O O16 0.250000 0.106021 0.731745
O O17 0.000000 0.000000 0.729405
#
# Coordination Sequence:
#
# PCOD9339443 Si02
#       6
#     4   4   4   4   4   4
#     4  10  21  37  57  82 113 150 193 240 294 353
#     4  10  20  33  53  82 114 149 188 234 289 349
#     4  10  19  32  54  83 116 152 190 236 290 350
#     4   9  19  36  56  81 114 150 190 237 288 346
#     4  11  24  42  63  88 119 157 203 252 302 357
#     4  10  23  42  64  90 120 156 200 249 300 355
#
# _framework density 21.935041999999999
#
# number of rings (size 3 to 8) (size 9 to 14) (size 15 to 20)
#    0.000    2.000    0.000    3.000    0.000    7.333 
#    0.000    3.333    0.000    0.000    0.000    0.000 
#    0.000    0.000    0.000    0.000    0.000    0.000 
#
# Total GULP energy -133799.652576 kJ/mol
# GULP energy per Si atom -5574.985524 kJ/mol
# Density = 2.188512 g / cm^3
# Si number density = 21.935042 Si / 1000 Ang^3
#
#
#
# Elastic Constant Matrix: (Units=GPa)
#
#
# Indices 1 2 3 4 5 6 
#
# 1 134.3032 68.9345 -3.0195 0.0000 0.0000 0.0000
# 2 68.9345 129.6851 9.1890 0.0000 0.0000 0.0000
# 3 -3.0195 9.1890 79.4766 0.0000 0.0000 0.0000
# 4 0.0000 0.0000 0.0000 -6.9756 0.0000 0.0000
# 5 0.0000 0.0000 0.0000 0.0000 6.7167 0.0000
# 6 0.0000 0.0000 0.0000 0.0000 0.0000 31.4847
#
#
#
# Elastic Compliance Matrix: (Units=1/GPa)
#
#
# Indices 1 2 3 4 5 6 
#
# 1 0.010323 -0.005561 0.001035 0.000000 0.000000 0.000000
# 2 -0.005561 0.010770 -0.001456 0.000000 0.000000 0.000000
# 3 0.001035 -0.001456 0.012790 0.000000 0.000000 0.000000
# 4 0.000000 0.000000 0.000000 -0.143358 0.000000 0.000000
# 5 0.000000 0.000000 0.000000 0.000000 0.148883 0.000000
# 6 0.000000 0.000000 0.000000 0.000000 0.000000 0.031761
#
#
# Mechanical properties :
#
#
# Convention : Reuss Voigt Hill
#
# Bulk Modulus (GPa) = 45.62211 54.85254 50.23733
# Shear Modulus (GPa) = 55.28502 24.13588 39.71045
#
# Velocity S-wave (km/s) = 5.02580 3.32073 4.25946
# Velocity P-wave (km/s) = 7.38391 6.30588 6.86608
#
# Compressibility (1/GPa) = 0.02191919
#
# Stress axis : x y z
#
# Youngs Moduli (GPa) = 96.86834 92.85046 78.18579
#
# Poissons Ratio (x) = 0.51632 -0.08093
# Poissons Ratio (y) = 0.53866 0.11388
# Poissons Ratio (z) = -0.10027 0.13524
#
# Static dielectric constant tensor:
#      x y z
#    x 1.764320 0.000000 0.000000 
#    y 0.000000 1.978860 0.000000 
#    z 0.000000 0.000000 1.852220 
# 
# From -- ./inp_files/4692.got.cif
#   From: 2010.05.17/outbox.cif.g08.bks.cpg/sg28_3_cif.got.tgz:4692.got - 2010.06.04 01:15:21.
