data_PCOD9339095
_publ_section_title
;
Structure prediction by ZEFSAII (Michael W. Deem and Ramdas Pophale) SiO2 
 PCOD9339095
Probable space group: P C C 2
;
_chemical_formula_sum "Si O2"
_cell_formula_units_Z 26
_cell_length_a 14.389058
_cell_length_b 9.184296
_cell_length_c 9.248204
_cell_angle_alpha 90.000000
_cell_angle_beta 90.000000
_cell_angle_gamma 90.000000
_cell_volume 1222.181305
_symmetry_space_group_name_H-M "P C C 2"
_symmetry_group_IT_number 27
_symmetry_cell_setting 'orthorhombic'
loop_
_space_group_symop_operation_xyz
x,y,z
-x,-y,z
-x,y,1/2+z
x,-y,1/2+z
loop_
_atom_site_type_symbol
_atom_site_label
_atom_site_fract_x
_atom_site_fract_y
_atom_site_fract_z
Si Si1 0.709892 0.987120 0.982580
Si Si2 0.217497 0.834532 0.747916
Si Si3 0.118732 0.619839 0.567529
Si Si4 0.288438 0.444134 0.415125
Si Si5 0.569173 0.772360 0.546744
Si Si6 0.000000 0.500000 0.826289
Si Si7 0.607736 0.271034 0.360045
O O1 0.790169 0.078773 0.899971
O O2 0.690775 0.835097 0.905313
O O3 0.617293 0.086475 0.975718
O O4 0.724354 0.946094 0.149517
O O5 0.142640 0.779476 0.629720
O O6 0.259287 0.678947 0.798619
O O7 0.203317 0.523729 0.499342
O O8 0.041816 0.617773 0.439222
O O9 0.079500 0.544535 0.713193
O O10 0.355631 0.355043 0.521320
O O11 0.349970 0.569634 0.344206
O O12 0.471010 0.731537 0.481114
O O13 0.560751 0.789522 0.716744
#
# Coordination Sequence:
#
# PCOD9339095 Si02
#       7
#     4   4   4   4   4   2   4
#     4  11  24  43  66  96 137 194 242 279 349 422
#     4  11  23  44  70 103 137 187 239 281 347 429
#     4  11  21  44  73 110 139 171 226 289 362 434
#     4  11  24  41  72  99 137 183 236 304 348 412
#     4  11  27  40  62  95 139 187 242 292 350 402
#     4  10  24  40  74 118 138 172 214 302 374 434
#     4  12  25  41  63  96 137 185 244 299 349 403
#
# _framework density 21.273439
#
# number of rings (size 3 to 8) (size 9 to 14) (size 15 to 20)
#    0.000    0.923    4.615    1.846    4.308    2.462 
#    0.000    0.000    0.000    2.769    0.000    0.000 
#    0.000    0.000    0.000    0.000    0.000    0.000 
#
# Total GULP energy -144899.711498 kJ/mol
# GULP energy per Si atom -5573.065827 kJ/mol
# Density = 2.122502 g / cm^3
# Si number density = 21.273439 Si / 1000 Ang^3
#
#
#
# Elastic Constant Matrix: (Units=GPa)
#
#
# Indices 1 2 3 4 5 6 
#
# 1 45.0888 12.5844 17.0607 0.0000 0.0000 0.0000
# 2 12.5844 77.0238 17.7065 0.0000 0.0000 0.0000
# 3 17.0607 17.7065 119.4423 0.0000 0.0000 0.0000
# 4 0.0000 0.0000 0.0000 36.1238 0.0000 0.0000
# 5 0.0000 0.0000 0.0000 0.0000 28.5603 0.0000
# 6 0.0000 0.0000 0.0000 0.0000 0.0000 17.3504
#
#
#
# Elastic Compliance Matrix: (Units=1/GPa)
#
#
# Indices 1 2 3 4 5 6 
#
# 1 0.024217 -0.003273 -0.002974 0.000000 0.000000 0.000000
# 2 -0.003273 0.013883 -0.001591 0.000000 0.000000 0.000000
# 3 -0.002974 -0.001591 0.009033 0.000000 0.000000 0.000000
# 4 0.000000 0.000000 0.000000 0.027683 0.000000 0.000000
# 5 0.000000 0.000000 0.000000 0.000000 0.035014 0.000000
# 6 0.000000 0.000000 0.000000 0.000000 0.000000 0.057636
#
#
# Mechanical properties :
#
#
# Convention : Reuss Voigt Hill
#
# Bulk Modulus (GPa) = 31.78803 37.36201 34.57502
# Shear Modulus (GPa) = 25.82292 29.35380 27.58836
#
# Velocity S-wave (km/s) = 3.48783 3.71864 3.60508
# Velocity P-wave (km/s) = 5.58524 6.00322 5.79800
#
# Compressibility (1/GPa) = 0.03145838
#
# Stress axis : x y z
#
# Youngs Moduli (GPa) = 41.29294 72.02845 110.70742
#
# Poissons Ratio (x) = 0.23575 0.32923
# Poissons Ratio (y) = 0.13515 0.17609
# Poissons Ratio (z) = 0.12280 0.11457
#
# Static dielectric constant tensor:
#      x y z
#    x 1.832120 0.000000 0.000000 
#    y 0.000000 1.793070 0.000000 
#    z 0.000000 0.000000 1.805820 
# 
# From -- ./inp_files/1194.got.cif
#   From: 2010.05.17/outbox.cif.g08.bks.cpg/sg27_1_cif.got.tgz:1194.got - 2010.06.04 01:11:05.
