data_PCOD9339151
_publ_section_title
;
Structure prediction by ZEFSAII (Michael W. Deem and Ramdas Pophale) SiO2 
 PCOD9339151
Probable space group: P C C 2
;
_chemical_formula_sum "Si O2"
_cell_formula_units_Z 22
_cell_length_a 5.959988
_cell_length_b 15.944565
_cell_length_c 9.302480
_cell_angle_alpha 90.000000
_cell_angle_beta 90.000000
_cell_angle_gamma 90.000000
_cell_volume 884.009242
_symmetry_space_group_name_H-M "P C C 2"
_symmetry_group_IT_number 27
_symmetry_cell_setting 'orthorhombic'
loop_
_space_group_symop_operation_xyz
x,y,z
-x,-y,z
-x,y,1/2+z
x,-y,1/2+z
loop_
_atom_site_type_symbol
_atom_site_label
_atom_site_fract_x
_atom_site_fract_y
_atom_site_fract_z
Si Si1 0.310266 0.929358 0.878660
Si Si2 0.343275 0.779343 0.431673
Si Si3 0.552495 0.322711 0.157179
Si Si4 0.834822 0.421958 0.657949
Si Si5 0.000000 0.000000 0.132546
Si Si6 0.045807 0.314744 0.429787
O O1 0.473739 0.849230 0.896195
O O2 0.144457 0.940140 0.740556
O O3 0.500000 0.000000 0.858962
O O4 0.168820 0.950910 0.024041
O O5 0.383137 0.707100 0.313639
O O6 0.388899 0.747960 0.591591
O O7 0.070655 0.777355 0.423378
O O8 0.435207 0.413122 0.161655
O O9 0.750401 0.316929 0.041773
O O10 0.892563 0.351309 0.776512
O O11 0.000000 0.500000 0.684059
O O12 0.891648 0.386504 0.501453
#
# Coordination Sequence:
#
# PCOD9339151 Si02
#       6
#     4   4   4   4   2   4
#     4  11  26  51  76 116 155 206 263 331 394 476
#     4  11  26  46  76 104 158 199 256 323 383 465
#     4  11  24  47  71 114 145 200 257 318 388 470
#     4  11  24  45  73 107 152 196 252 318 381 467
#     4  10  26  50  78 114 154 198 278 314 406 470
#     4  11  23  47  72 113 146 197 260 308 394 461
#
# _framework density 24.886617000000001
#
# number of rings (size 3 to 8) (size 9 to 14) (size 15 to 20)
#    0.000    1.091    3.636    1.091    5.091    3.636 
#    3.273    1.818    0.000    0.000    0.000    0.000 
#    0.000    0.000    0.000    0.000    0.000    0.000 
#
# Total GULP energy -122656.190451 kJ/mol
# GULP energy per Si atom -5575.281384 kJ/mol
# Density = 2.482997 g / cm^3
# Si number density = 24.886617 Si / 1000 Ang^3
#
#
#
# Elastic Constant Matrix: (Units=GPa)
#
#
# Indices 1 2 3 4 5 6 
#
# 1 147.8620 71.1342 45.1543 0.0000 0.0000 0.0000
# 2 71.1342 101.7716 35.4745 0.0000 0.0000 0.0000
# 3 45.1543 35.4745 155.8111 0.0000 0.0000 0.0000
# 4 0.0000 0.0000 0.0000 18.7534 0.0000 0.0000
# 5 0.0000 0.0000 0.0000 0.0000 37.5927 0.0000
# 6 0.0000 0.0000 0.0000 0.0000 0.0000 42.3105
#
#
#
# Elastic Compliance Matrix: (Units=1/GPa)
#
#
# Indices 1 2 3 4 5 6 
#
# 1 0.010498 -0.006819 -0.001490 0.000000 0.000000 0.000000
# 2 -0.006819 0.015102 -0.001462 0.000000 0.000000 0.000000
# 3 -0.001490 -0.001462 0.007183 0.000000 0.000000 0.000000
# 4 0.000000 0.000000 0.000000 0.053324 0.000000 0.000000
# 5 0.000000 0.000000 0.000000 0.000000 0.026601 0.000000
# 6 0.000000 0.000000 0.000000 0.000000 0.000000 0.023635
#
#
# Mechanical properties :
#
#
# Convention : Reuss Voigt Hill
#
# Bulk Modulus (GPa) = 75.52286 78.77451 77.14869
# Shear Modulus (GPa) = 31.19204 36.64344 33.91774
#
# Velocity S-wave (km/s) = 3.54413 3.84137 3.69574
# Velocity P-wave (km/s) = 6.86735 7.16916 7.01988
#
# Compressibility (1/GPa) = 0.01324102
#
# Stress axis : x y z
#
# Youngs Moduli (GPa) = 95.25248 66.21847 139.22234
#
# Poissons Ratio (x) = 0.45152 0.20745
# Poissons Ratio (y) = 0.64949 0.20357
# Poissons Ratio (z) = 0.14193 0.09683
#
# Static dielectric constant tensor:
#      x y z
#    x 2.556740 0.000000 0.000000 
#    y 0.000000 2.071390 0.000000 
#    z 0.000000 0.000000 1.843190 
# 
# From -- ./inp_files/1994.got.cif
#   From: 2010.05.17/outbox.cif.g08.bks.cpg/sg27_1_cif.got.tgz:1994.got - 2010.06.04 01:11:05.
