data_PCOD9339981
_publ_section_title
;
Structure prediction by ZEFSAII (Michael W. Deem and Ramdas Pophale) SiO2 
 PCOD9339981
Probable space group: P C A 21
;
_chemical_formula_sum "Si O2"
_cell_formula_units_Z 28
_cell_length_a 5.137995
_cell_length_b 6.525075
_cell_length_c 35.687271
_cell_angle_alpha 90.000000
_cell_angle_beta 90.000000
_cell_angle_gamma 90.000000
_cell_volume 1196.444407
_symmetry_space_group_name_H-M "P C A 21"
_symmetry_group_IT_number 29
_symmetry_cell_setting 'orthorhombic'
loop_
_space_group_symop_operation_xyz
x,y,z
-x,-y,1/2+z
1/2-x,y,1/2+z
1/2+x,-y,z
loop_
_atom_site_type_symbol
_atom_site_label
_atom_site_fract_x
_atom_site_fract_y
_atom_site_fract_z
Si Si1 0.442971 0.366423 0.535650
Si Si2 0.042880 0.355923 0.877872
Si Si3 0.071298 0.868692 0.611326
Si Si4 0.131578 0.243812 0.798065
Si Si5 0.934503 0.358148 0.956935
Si Si6 0.128839 0.702534 0.767586
Si Si7 0.961312 0.856252 0.691329
O O1 0.646363 0.556765 0.535090
O O2 0.505483 0.248533 0.573483
O O3 0.508181 0.250958 0.496568
O O4 0.822977 0.533234 0.876780
O O5 0.026445 0.227317 0.839948
O O6 0.993879 0.246623 0.917718
O O7 0.004209 0.756417 0.650422
O O8 0.870917 0.061104 0.611753
O O9 0.178596 0.485026 0.787040
O O10 0.428154 0.174771 0.793845
O O11 0.911767 0.195241 0.767563
O O12 0.144784 0.546981 0.956600
O O13 0.010718 0.706136 0.726166
O O14 0.682057 0.965728 0.693170
#
# Coordination Sequence:
#
# PCOD9339981 Si02
#       7
#     4   4   4   4   4   4   4
#     4  10  19  35  53  83 113 131 173 224 272 311
#     4  10  14  25  41  66 102 128 157 188 245 306
#     4  10  21  38  58  77 103 145 185 212 257 331
#     4  10  17  28  45  72 103 117 155 197 256 295
#     4   8  16  25  44  69 103 128 155 199 252 305
#     4  10  18  30  45  69  95 124 154 209 242 289
#     4  10  21  37  52  68  93 131 177 207 240 299
#
# _framework density 23.402674999999999
#
# number of rings (size 3 to 8) (size 9 to 14) (size 15 to 20)
#    0.000    2.286    2.857    1.714    0.000    0.000 
#    5.143    0.000    0.000    0.000    0.000    6.000 
#    0.000    0.000    0.000    0.000    0.000    0.000 
#
# Total GULP energy -156126.758183 kJ/mol
# GULP energy per Si atom -5575.955649 kJ/mol
# Density = 2.334941 g / cm^3
# Si number density = 23.402675 Si / 1000 Ang^3
#
#
#
# Elastic Constant Matrix: (Units=GPa)
#
#
# Indices 1 2 3 4 5 6 
#
# 1 130.6714 -20.3973 -8.1714 0.0000 0.0000 0.0000
# 2 -20.3973 24.3957 1.0403 0.0000 0.0000 0.0000
# 3 -8.1714 1.0403 213.9275 0.0000 0.0000 0.0000
# 4 0.0000 0.0000 0.0000 19.4305 0.0000 0.0000
# 5 0.0000 0.0000 0.0000 0.0000 37.0455 0.0000
# 6 0.0000 0.0000 0.0000 0.0000 0.0000 17.4829
#
#
#
# Elastic Compliance Matrix: (Units=1/GPa)
#
#
# Indices 1 2 3 4 5 6 
#
# 1 0.008821 0.007362 0.000301 0.000000 0.000000 0.000000
# 2 0.007362 0.047144 0.000052 0.000000 0.000000 0.000000
# 3 0.000301 0.000052 0.004686 0.000000 0.000000 0.000000
# 4 0.000000 0.000000 0.000000 0.051466 0.000000 0.000000
# 5 0.000000 0.000000 0.000000 0.000000 0.026994 0.000000
# 6 0.000000 0.000000 0.000000 0.000000 0.000000 0.057199
#
#
# Mechanical properties :
#
#
# Convention : Reuss Voigt Hill
#
# Bulk Modulus (GPa) = 13.14380 34.88199 24.01290
# Shear Modulus (GPa) = 24.24375 41.22664 32.73520
#
# Velocity S-wave (km/s) = 3.22209 4.20172 3.74408
# Velocity P-wave (km/s) = 4.41260 6.20296 5.38274
#
# Compressibility (1/GPa) = 0.07608150
#
# Stress axis : x y z
#
# Youngs Moduli (GPa) = 113.36789 21.21151 213.41391
#
# Poissons Ratio (x) = -0.15617 -0.06426
# Poissons Ratio (y) = -0.83465 -0.01109
# Poissons Ratio (z) = -0.03414 -0.00110
#
# Static dielectric constant tensor:
#      x y z
#    x 1.932690 0.000000 0.000000 
#    y 0.000000 1.217880 0.000000 
#    z 0.000000 0.000000 1.950370 
# 
# From -- ./inp_files/5746.got.cif
#   From: 2010.05.17/outbox.cif.g08.bks.cpg/sg29_3_cif.got.tgz:5746.got - 2010.06.04 01:19:37.
