data_PCOD9339888
_publ_section_title
;
Structure prediction by ZEFSAII (Michael W. Deem and Ramdas Pophale) SiO2 
 PCOD9339888
Probable space group: P M A 2
;
_chemical_formula_sum "Si O2"
_cell_formula_units_Z 14
_cell_length_a 17.894341
_cell_length_b 7.809468
_cell_length_c 4.990887
_cell_angle_alpha 90.000000
_cell_angle_beta 90.000000
_cell_angle_gamma 90.000000
_cell_volume 697.452918
_symmetry_space_group_name_H-M "P M A 2"
_symmetry_group_IT_number 28
_symmetry_cell_setting 'orthorhombic'
loop_
_space_group_symop_operation_xyz
x,y,z
-x,-y,z
1/2-x,y,z
1/2+x,-y,z
loop_
_atom_site_type_symbol
_atom_site_label
_atom_site_fract_x
_atom_site_fract_y
_atom_site_fract_z
Si Si1 0.838604 0.582148 0.721400
Si Si2 0.042620 0.666694 0.839765
Si Si3 0.000000 0.000000 0.504162
Si Si4 0.415269 0.255840 0.209525
O O1 0.750000 0.578538 0.709561
O O2 0.873460 0.402490 0.828057
O O3 0.873067 0.634571 0.434515
O O4 0.868471 0.721539 0.937618
O O5 0.026475 0.840499 0.683770
O O6 0.000000 0.500000 0.718867
O O7 0.999550 0.687547 0.122379
O O8 0.931278 0.931573 0.325536
#
# Coordination Sequence:
#
# PCOD9339888 Si02
#       4
#     4   4   2   4
#     4  11  25  44  68 101 142 184 223 283 359 408
#     4  10  23  41  72  99 132 177 235 280 334 403
#     4  12  22  42  70 110 126 174 244 286 330 398
#     4  11  23  41  70 103 132 178 231 287 328 405
#
# _framework density 20.073036999999999
#
# number of rings (size 3 to 8) (size 9 to 14) (size 15 to 20)
#    0.000    1.143    5.714    1.714   12.000    0.000 
#    0.000    2.857    0.000    0.000    0.000    0.000 
#    0.000    0.000    0.000    0.000    0.000    0.000 
#
# Total GULP energy -78005.542911 kJ/mol
# GULP energy per Si atom -5571.824494 kJ/mol
# Density = 2.002735 g / cm^3
# Si number density = 20.073037 Si / 1000 Ang^3
#
#
#
# Elastic Constant Matrix: (Units=GPa)
#
#
# Indices 1 2 3 4 5 6 
#
# 1 133.1567 43.2016 59.2522 0.0000 0.0000 0.0000
# 2 43.2016 134.9662 41.5359 0.0000 0.0000 0.0000
# 3 59.2522 41.5359 134.7497 0.0000 0.0000 0.0000
# 4 0.0000 0.0000 0.0000 32.9500 0.0000 0.0000
# 5 0.0000 0.0000 0.0000 0.0000 23.1476 0.0000
# 6 0.0000 0.0000 0.0000 0.0000 0.0000 14.3788
#
#
#
# Elastic Compliance Matrix: (Units=1/GPa)
#
#
# Indices 1 2 3 4 5 6 
#
# 1 0.009803 -0.002001 -0.003694 0.000000 0.000000 0.000000
# 2 -0.002001 0.008594 -0.001769 0.000000 0.000000 0.000000
# 3 -0.003694 -0.001769 0.009591 0.000000 0.000000 0.000000
# 4 0.000000 0.000000 0.000000 0.030349 0.000000 0.000000
# 5 0.000000 0.000000 0.000000 0.000000 0.043201 0.000000
# 6 0.000000 0.000000 0.000000 0.000000 0.000000 0.069547
#
#
# Mechanical properties :
#
#
# Convention : Reuss Voigt Hill
#
# Bulk Modulus (GPa) = 76.57066 76.76134 76.66600
# Shear Modulus (GPa) = 26.26522 31.35414 28.80968
#
# Velocity S-wave (km/s) = 3.62122 3.95651 3.79257
# Velocity P-wave (km/s) = 7.46412 7.69389 7.57988
#
# Compressibility (1/GPa) = 0.01305983
#
# Stress axis : x y z
#
# Youngs Moduli (GPa) = 102.01181 116.35660 104.26766
#
# Poissons Ratio (x) = 0.23284 0.38513
# Poissons Ratio (y) = 0.20413 0.18447
# Poissons Ratio (z) = 0.37680 0.20586
#
# Static dielectric constant tensor:
#      x y z
#    x 1.752160 0.000000 0.000000 
#    y 0.000000 1.750130 0.000000 
#    z 0.000000 0.000000 1.791770 
# 
# From -- ./inp_files/944.got.cif
#   From: 2010.05.17/outbox.cif.g08.bks.cpg/sg28_1_cif.got.tgz:944.got - 2010.06.04 01:15:21.
