data_PCOD9339741
_publ_section_title
;
Structure prediction by ZEFSAII (Michael W. Deem and Ramdas Pophale) SiO2 
 PCOD9339741
Probable space group: P M A 2
;
_chemical_formula_sum "Si O2"
_cell_formula_units_Z 32
_cell_length_a 17.579578
_cell_length_b 5.490525
_cell_length_c 15.745632
_cell_angle_alpha 90.000000
_cell_angle_beta 90.000000
_cell_angle_gamma 90.000000
_cell_volume 1519.785918
_symmetry_space_group_name_H-M "P M A 2"
_symmetry_group_IT_number 28
_symmetry_cell_setting 'orthorhombic'
loop_
_space_group_symop_operation_xyz
x,y,z
-x,-y,z
1/2-x,y,z
1/2+x,-y,z
loop_
_atom_site_type_symbol
_atom_site_label
_atom_site_fract_x
_atom_site_fract_y
_atom_site_fract_z
Si Si1 0.908437 0.507375 0.589170
Si Si2 0.843033 0.432369 0.777239
Si Si3 0.570430 0.317479 0.177211
Si Si4 0.840982 0.927511 0.867773
Si Si5 0.331365 0.301701 0.226160
Si Si6 0.920704 0.987342 0.343653
Si Si7 0.662117 0.046041 0.061401
Si Si8 0.660405 0.012032 0.511078
O O1 0.878718 0.485217 0.685558
O O2 0.875383 0.260091 0.547682
O O3 0.000000 0.500000 0.584387
O O4 0.877515 0.759584 0.546013
O O5 0.750000 0.427731 0.770919
O O6 0.867761 0.173162 0.818830
O O7 0.866897 0.666573 0.832983
O O8 0.500000 0.500000 0.171357
O O9 0.653613 0.433246 0.192299
O O10 0.564171 0.157812 0.262034
O O11 0.586844 0.196546 0.087153
O O12 0.750000 0.929401 0.854742
O O13 0.852723 0.940241 0.968672
O O14 0.250000 0.262173 0.265649
O O15 0.395341 0.257684 0.296453
O O16 0.337040 0.137150 0.142159
O O17 0.855238 0.038206 0.410282
O O18 0.000000 0.000000 0.392919
O O19 0.750000 0.146663 0.056299
O O20 0.750000 0.001665 0.530054
#
# Coordination Sequence:
#
# PCOD9339741 Si02
#       8
#     4   4   4   4   4   4   4   4
#     4  12  26  47  72 102 140 180 218 277 349 419
#     4  10  20  38  66  95 129 169 218 268 328 397
#     4  11  22  37  61  85 124 173 216 266 325 391
#     4   9  19  35  62  95 126 167 217 275 325 384
#     4  10  21  37  60  86 120 164 213 265 313 374
#     4  11  23  41  61  90 128 168 210 263 330 393
#     4   9  20  36  57  89 124 163 218 270 321 380
#     4  12  27  46  73 104 136 174 230 283 335 407
#
# _framework density 21.055598
#
# number of rings (size 3 to 8) (size 9 to 14) (size 15 to 20)
#    0.000    1.500    1.250    3.750    3.500    3.000 
#    0.000    0.625    2.750    0.000    0.000    0.000 
#    0.000    0.000    0.000    0.000    0.000    0.000 
#
# Total GULP energy -178175.676471 kJ/mol
# GULP energy per Si atom -5567.989890 kJ/mol
# Density = 2.100767 g / cm^3
# Si number density = 21.055598 Si / 1000 Ang^3
#
#
#
# Elastic Constant Matrix: (Units=GPa)
#
#
# Indices 1 2 3 4 5 6 
#
# 1 97.6363 38.2092 29.6057 0.0000 0.0000 0.0000
# 2 38.2092 93.8572 14.4471 0.0000 0.0000 0.0000
# 3 29.6057 14.4471 63.5319 0.0000 0.0000 0.0000
# 4 0.0000 0.0000 0.0000 4.4161 0.0000 0.0000
# 5 0.0000 0.0000 0.0000 0.0000 23.1989 0.0000
# 6 0.0000 0.0000 0.0000 0.0000 0.0000 39.0518
#
#
#
# Elastic Compliance Matrix: (Units=1/GPa)
#
#
# Indices 1 2 3 4 5 6 
#
# 1 0.013717 -0.004767 -0.005308 0.000000 0.000000 0.000000
# 2 -0.004767 0.012698 -0.000666 0.000000 0.000000 0.000000
# 3 -0.005308 -0.000666 0.018365 0.000000 0.000000 0.000000
# 4 0.000000 0.000000 0.000000 0.226442 0.000000 0.000000
# 5 0.000000 0.000000 0.000000 0.000000 0.043105 0.000000
# 6 0.000000 0.000000 0.000000 0.000000 0.000000 0.025607
#
#
# Mechanical properties :
#
#
# Convention : Reuss Voigt Hill
#
# Bulk Modulus (GPa) = 42.92304 46.61659 44.76982
# Shear Modulus (GPa) = 13.54341 24.85093 19.19717
#
# Velocity S-wave (km/s) = 2.53893 3.43921 3.02277
# Velocity P-wave (km/s) = 5.38746 6.16106 5.78720
#
# Compressibility (1/GPa) = 0.02329751
#
# Stress axis : x y z
#
# Youngs Moduli (GPa) = 72.90079 78.75428 54.45094
#
# Poissons Ratio (x) = 0.37544 0.28903
# Poissons Ratio (y) = 0.34753 0.03626
# Poissons Ratio (z) = 0.38697 0.05245
#
# Static dielectric constant tensor:
#      x y z
#    x 1.812430 0.000000 0.000000 
#    y 0.000000 1.855680 0.000000 
#    z 0.000000 0.000000 1.753690 
# 
# From -- ./inp_files/6609.got.cif
#   From: 2010.05.17/outbox.cif.g08.bks.cpg/sg28_4_cif.got.tgz:6609.got - 2010.06.04 01:15:21.
