data_PCOD9339184
_publ_section_title
;
Structure prediction by ZEFSAII (Michael W. Deem and Ramdas Pophale) SiO2 
 PCOD9339184
Probable space group: P C C 2
;
_chemical_formula_sum "Si O2"
_cell_formula_units_Z 22
_cell_length_a 10.082572
_cell_length_b 6.775447
_cell_length_c 13.863353
_cell_angle_alpha 90.000000
_cell_angle_beta 90.000000
_cell_angle_gamma 90.000000
_cell_volume 947.060157
_symmetry_space_group_name_H-M "P C C 2"
_symmetry_group_IT_number 27
_symmetry_cell_setting 'orthorhombic'
loop_
_space_group_symop_operation_xyz
x,y,z
-x,-y,z
-x,y,1/2+z
x,-y,1/2+z
loop_
_atom_site_type_symbol
_atom_site_label
_atom_site_fract_x
_atom_site_fract_y
_atom_site_fract_z
Si Si1 0.647150 0.932447 0.638290
Si Si2 0.000000 0.500000 0.506847
Si Si3 0.908647 0.823347 0.146208
Si Si4 0.646026 0.401918 0.295230
Si Si5 0.351020 0.965284 0.415574
Si Si6 0.143977 0.266689 0.341316
O O1 0.669211 0.734975 0.700636
O O2 0.500000 0.000000 0.665234
O O3 0.762189 0.089356 0.659062
O O4 0.647553 0.936551 0.521699
O O5 0.087473 0.637553 0.576291
O O6 0.078420 0.353094 0.436812
O O7 0.957681 0.769669 0.253836
O O8 0.000000 0.000000 0.106823
O O9 0.500000 0.500000 0.292829
O O10 0.664174 0.265801 0.391265
O O11 0.753789 0.571517 0.301777
O O12 0.500000 0.000000 0.376558
O O13 0.229032 0.073716 0.365453
#
# Coordination Sequence:
#
# PCOD9339184 Si02
#       6
#     4   2   4   4   4   4
#     4  11  25  47  76 110 151 197 249 310 385 449
#     4  12  30  48  74 114 150 206 260 318 370 476
#     4  12  28  50  76 104 153 199 252 317 386 458
#     4  12  24  46  77 111 152 197 252 315 380 459
#     4  11  23  46  71 111 154 195 239 311 382 446
#     4  12  27  45  77 109 146 197 256 309 382 458
#
# _framework density 23.229783000000001
#
# number of rings (size 3 to 8) (size 9 to 14) (size 15 to 20)
#    0.000    0.364    3.636    4.364    7.636    2.182 
#    6.545    0.000    0.000    0.000    0.000    0.000 
#    0.000    0.000    0.000    0.000    0.000    0.000 
#
# Total GULP energy -123024.908538 kJ/mol
# GULP energy per Si atom -5592.041297 kJ/mol
# Density = 2.317691 g / cm^3
# Si number density = 23.229783 Si / 1000 Ang^3
#
#
#
# Elastic Constant Matrix: (Units=GPa)
#
#
# Indices 1 2 3 4 5 6 
#
# 1 77.8992 36.2226 25.5732 0.0000 0.0000 0.0000
# 2 36.2226 105.1335 22.7513 0.0000 0.0000 0.0000
# 3 25.5732 22.7513 138.1910 0.0000 0.0000 0.0000
# 4 0.0000 0.0000 0.0000 37.4531 0.0000 0.0000
# 5 0.0000 0.0000 0.0000 0.0000 43.9262 0.0000
# 6 0.0000 0.0000 0.0000 0.0000 0.0000 46.1382
#
#
#
# Elastic Compliance Matrix: (Units=1/GPa)
#
#
# Indices 1 2 3 4 5 6 
#
# 1 0.015858 -0.005007 -0.002110 0.000000 0.000000 0.000000
# 2 -0.005007 0.011444 -0.000958 0.000000 0.000000 0.000000
# 3 -0.002110 -0.000958 0.007785 0.000000 0.000000 0.000000
# 4 0.000000 0.000000 0.000000 0.026700 0.000000 0.000000
# 5 0.000000 0.000000 0.000000 0.000000 0.022765 0.000000
# 6 0.000000 0.000000 0.000000 0.000000 0.000000 0.021674
#
#
# Mechanical properties :
#
#
# Convention : Reuss Voigt Hill
#
# Bulk Modulus (GPa) = 52.80686 54.47976 53.64331
# Shear Modulus (GPa) = 38.85357 41.28195 40.06776
#
# Velocity S-wave (km/s) = 4.09415 4.22016 4.15763
# Velocity P-wave (km/s) = 6.71797 6.87384 6.79636
#
# Compressibility (1/GPa) = 0.01893693
#
# Stress axis : x y z
#
# Youngs Moduli (GPa) = 63.05914 87.38166 128.45988
#
# Poissons Ratio (x) = 0.43753 0.27109
# Poissons Ratio (y) = 0.31574 0.12300
# Poissons Ratio (z) = 0.13307 0.08367
#
# Static dielectric constant tensor:
#      x y z
#    x 1.861690 0.000000 0.000000 
#    y 0.000000 1.860300 0.000000 
#    z 0.000000 0.000000 1.956360 
# 
# From -- ./inp_files/3553.got.cif
#   From: 2010.05.17/outbox.cif.g08.bks.cpg/sg27_2_cif.got.tgz:3553.got - 2010.06.04 01:11:05.
