data_PCOD9339150
_publ_section_title
;
Structure prediction by ZEFSAII (Michael W. Deem and Ramdas Pophale) SiO2 
 PCOD9339150
Probable space group: P C C 2
;
_chemical_formula_sum "Si O2"
_cell_formula_units_Z 14
_cell_length_a 4.927105
_cell_length_b 13.012400
_cell_length_c 8.825767
_cell_angle_alpha 90.000000
_cell_angle_beta 90.000000
_cell_angle_gamma 90.000000
_cell_volume 565.850469
_symmetry_space_group_name_H-M "P C C 2"
_symmetry_group_IT_number 27
_symmetry_cell_setting 'orthorhombic'
loop_
_space_group_symop_operation_xyz
x,y,z
-x,-y,z
-x,y,1/2+z
x,-y,1/2+z
loop_
_atom_site_type_symbol
_atom_site_label
_atom_site_fract_x
_atom_site_fract_y
_atom_site_fract_z
Si Si1 0.668591 0.596695 0.000000
Si Si2 0.123946 0.113518 0.186612
Si Si3 0.000000 0.500000 0.232548
Si Si4 0.625884 0.187307 0.004957
O O1 0.500000 0.500000 0.056881
O O2 0.497179 0.698944 0.987825
O O3 0.898748 0.593511 0.127071
O O4 0.792150 0.556762 0.844166
O O5 0.369957 0.120849 0.065430
O O6 0.249193 0.150018 0.345883
O O7 0.869856 0.179778 0.125842
O O8 0.000000 0.000000 0.200553
#
# Coordination Sequence:
#
# PCOD9339150 Si02
#       4
#     4   4   2   4
#     4  11  27  46  79 114 167 218 273 336 407 499
#     4  12  29  56  85 124 166 215 283 355 417 492
#     4  10  26  50  72 112 176 214 278 334 410 474
#     4  12  30  52  88 121 166 224 278 340 428 494
#
# _framework density 24.741520999999999
#
# number of rings (size 3 to 8) (size 9 to 14) (size 15 to 20)
#    0.000    0.571    0.000    4.286   16.000    2.286 
#    0.000    1.429    0.000    0.000    0.000    0.000 
#    0.000    0.000    0.000    0.000    0.000    0.000 
#
# Total GULP energy -78485.775167 kJ/mol
# GULP energy per Si atom -5606.126798 kJ/mol
# Density = 2.468521 g / cm^3
# Si number density = 24.741521 Si / 1000 Ang^3
#
#
#
# Elastic Constant Matrix: (Units=GPa)
#
#
# Indices 1 2 3 4 5 6 
#
# 1 179.5868 103.1934 94.0123 0.0000 0.0000 0.0000
# 2 103.1934 226.8146 98.7618 0.0000 0.0000 0.0000
# 3 94.0123 98.7618 178.6390 0.0000 0.0000 0.0000
# 4 0.0000 0.0000 0.0000 422.8247 0.0000 0.0000
# 5 0.0000 0.0000 0.0000 0.0000 61.5882 0.0000
# 6 0.0000 0.0000 0.0000 0.0000 0.0000 69.2377
#
#
#
# Elastic Compliance Matrix: (Units=1/GPa)
#
#
# Indices 1 2 3 4 5 6 
#
# 1 0.008705 -0.002589 -0.003150 0.000000 0.000000 0.000000
# 2 -0.002589 0.006577 -0.002274 0.000000 0.000000 0.000000
# 3 -0.003150 -0.002274 0.008512 0.000000 0.000000 0.000000
# 4 0.000000 0.000000 0.000000 0.002365 0.000000 0.000000
# 5 0.000000 0.000000 0.000000 0.000000 0.016237 0.000000
# 6 0.000000 0.000000 0.000000 0.000000 0.000000 0.014443
#
#
# Mechanical properties :
#
#
# Convention : Reuss Voigt Hill
#
# Bulk Modulus (GPa) = 128.70734 130.77504 129.74119
# Shear Modulus (GPa) = 66.26617 130.00166 98.13391
#
# Velocity S-wave (km/s) = 5.18088 7.25658 6.30474
# Velocity P-wave (km/s) = 9.37670 11.09873 10.27386
#
# Compressibility (1/GPa) = 0.00776956
#
# Stress axis : x y z
#
# Youngs Moduli (GPa) = 114.87824 152.05155 117.47487
#
# Poissons Ratio (x) = 0.39365 0.37002
# Poissons Ratio (y) = 0.29741 0.26708
# Poissons Ratio (z) = 0.36184 0.34569
#
# Static dielectric constant tensor:
#      x y z
#    x 1.745890 0.000000 0.000000 
#    y 0.000000 1.797980 0.000000 
#    z 0.000000 0.000000 1.927550 
# 
# From -- ./inp_files/808.got.cif
#   From: 2010.05.17/outbox.cif.g08.bks.cpg/sg27_1_cif.got.tgz:808.got - 2010.06.04 01:11:05.
