data_PCOD9339562
_publ_section_title
;
Structure prediction by ZEFSAII (Michael W. Deem and Ramdas Pophale) SiO2 
 PCOD9339562
Probable space group: P M A 2
;
_chemical_formula_sum "Si O2"
_cell_formula_units_Z 24
_cell_length_a 17.027370
_cell_length_b 7.554847
_cell_length_c 8.667091
_cell_angle_alpha 90.000000
_cell_angle_beta 90.000000
_cell_angle_gamma 90.000000
_cell_volume 1114.927437
_symmetry_space_group_name_H-M "P M A 2"
_symmetry_group_IT_number 28
_symmetry_cell_setting 'orthorhombic'
loop_
_space_group_symop_operation_xyz
x,y,z
-x,-y,z
1/2-x,y,z
1/2+x,-y,z
loop_
_atom_site_type_symbol
_atom_site_label
_atom_site_fract_x
_atom_site_fract_y
_atom_site_fract_z
Si Si1 0.663751 0.073589 0.562610
Si Si2 0.072435 0.269030 0.567475
Si Si3 0.417969 0.396095 0.231760
Si Si4 0.911833 0.368835 0.711935
Si Si5 0.982849 0.191644 0.000961
Si Si6 0.160945 0.762248 0.220219
O O1 0.750000 0.990198 0.565397
O O2 0.601336 0.924878 0.608196
O O3 0.658086 0.235218 0.681708
O O4 0.653214 0.159974 0.393003
O O5 0.096352 0.292550 0.389490
O O6 0.107214 0.429776 0.669950
O O7 0.979827 0.302532 0.592349
O O8 0.500000 0.500000 0.256772
O O9 0.441081 0.270398 0.089046
O O10 0.353664 0.549637 0.214217
O O11 0.950246 0.330576 0.876754
O O12 0.911543 0.163704 0.121405
O O13 0.000000 0.000000 0.930366
O O14 0.250000 0.801709 0.167271
#
# Coordination Sequence:
#
# PCOD9339562 Si02
#       6
#     4   4   4   4   4   4
#     4  11  23  40  63  91 126 166 210 258 319 384
#     4  11  21  38  65  94 120 164 213 265 311 377
#     4  10  19  37  62  90 122 163 215 266 320 374
#     4  11  23  40  62  94 129 160 211 266 317 372
#     4  11  23  39  65  93 127 172 219 269 321 389
#     4  10  22  40  61  91 129 167 212 268 322 380
#
# _framework density 21.526063000000001
#
# number of rings (size 3 to 8) (size 9 to 14) (size 15 to 20)
#    0.000    1.333    3.333    3.500    7.000    2.000 
#    0.000    0.833    0.000    0.000    0.000    0.000 
#    0.000    0.000    0.000    0.000    0.000    0.000 
#
# Total GULP energy -133954.158649 kJ/mol
# GULP energy per Si atom -5581.423277 kJ/mol
# Density = 2.147707 g / cm^3
# Si number density = 21.526063 Si / 1000 Ang^3
#
#
#
# Elastic Constant Matrix: (Units=GPa)
#
#
# Indices 1 2 3 4 5 6 
#
# 1 55.3392 19.2148 -3.9717 0.0000 0.0000 0.0000
# 2 19.2148 123.7373 28.7915 0.0000 0.0000 0.0000
# 3 -3.9717 28.7915 79.7551 0.0000 0.0000 0.0000
# 4 0.0000 0.0000 0.0000 9.5704 0.0000 0.0000
# 5 0.0000 0.0000 0.0000 0.0000 12.1487 0.0000
# 6 0.0000 0.0000 0.0000 0.0000 0.0000 18.8962
#
#
#
# Elastic Compliance Matrix: (Units=1/GPa)
#
#
# Indices 1 2 3 4 5 6 
#
# 1 0.019463 -0.003546 0.002249 0.000000 0.000000 0.000000
# 2 -0.003546 0.009469 -0.003595 0.000000 0.000000 0.000000
# 3 0.002249 -0.003595 0.013948 0.000000 0.000000 0.000000
# 4 0.000000 0.000000 0.000000 0.104488 0.000000 0.000000
# 5 0.000000 0.000000 0.000000 0.000000 0.082313 0.000000
# 6 0.000000 0.000000 0.000000 0.000000 0.000000 0.052921
#
#
# Mechanical properties :
#
#
# Convention : Reuss Voigt Hill
#
# Bulk Modulus (GPa) = 30.21399 38.54453 34.37926
# Shear Modulus (GPa) = 16.47899 22.44288 19.46094
#
# Velocity S-wave (km/s) = 2.76984 3.23242 3.01003
# Velocity P-wave (km/s) = 4.92908 5.64591 5.29962
#
# Compressibility (1/GPa) = 0.03309725
#
# Stress axis : x y z
#
# Youngs Moduli (GPa) = 51.37972 105.61137 71.69441
#
# Poissons Ratio (x) = 0.37447 -0.16126
# Poissons Ratio (y) = 0.18218 0.25772
# Poissons Ratio (z) = -0.11556 0.37965
#
# Static dielectric constant tensor:
#      x y z
#    x 1.815430 0.000000 0.000000 
#    y 0.000000 1.829720 0.000000 
#    z 0.000000 0.000000 1.831760 
# 
# From -- ./inp_files/3797.got.cif
#   From: 2010.05.17/outbox.cif.g08.bks.cpg/sg28_2_cif.got.tgz:3797.got - 2010.06.04 01:15:21.
