data_PCOD9339350
_publ_section_title
;
Structure prediction by ZEFSAII (Michael W. Deem and Ramdas Pophale) SiO2 
 PCOD9339350
Probable space group: P M A 2
;
_chemical_formula_sum "Si O2"
_cell_formula_units_Z 16
_cell_length_a 10.161560
_cell_length_b 9.010094
_cell_length_c 10.493143
_cell_angle_alpha 90.000000
_cell_angle_beta 90.000000
_cell_angle_gamma 90.000000
_cell_volume 960.716610
_symmetry_space_group_name_H-M "P M A 2"
_symmetry_group_IT_number 28
_symmetry_cell_setting 'orthorhombic'
loop_
_space_group_symop_operation_xyz
x,y,z
-x,-y,z
1/2-x,y,z
1/2+x,-y,z
loop_
_atom_site_type_symbol
_atom_site_label
_atom_site_fract_x
_atom_site_fract_y
_atom_site_fract_z
Si Si1 0.594916 0.370339 0.822130
Si Si2 0.750000 0.546897 0.239942
Si Si3 0.250000 0.669714 0.460304
Si Si4 0.000000 0.500000 0.068720
Si Si5 0.985677 0.175643 0.598750
Si Si6 0.750000 0.664951 0.511272
O O1 0.500000 0.500000 0.766465
O O2 0.750000 0.404550 0.817867
O O3 0.563904 0.226834 0.738411
O O4 0.551368 0.373536 0.970297
O O5 0.750000 0.389086 0.315847
O O6 0.620120 0.554333 0.154762
O O7 0.750000 0.664192 0.356257
O O8 0.122634 0.761141 0.500723
O O9 0.250000 0.512458 0.537154
O O10 0.122243 0.255796 0.566085
O O11 0.000000 0.000000 0.590338
#
# Coordination Sequence:
#
# PCOD9339350 Si02
#       6
#     4   2   2   2   4   2
#     4  10  21  36  60  87 117 147 194 240 288 340
#     4  10  20  34  60  88 110 144 204 244 270 332
#     4  10  21  38  59  84 119 151 196 240 290 344
#     4  10  18  34  58  94 106 146 196 252 274 324
#     4  12  23  37  57  89 125 150 186 240 303 351
#     4  10  23  36  61  86 117 151 192 242 286 348
#
# _framework density 16.654235
#
# number of rings (size 3 to 8) (size 9 to 14) (size 15 to 20)
#    1.500    0.000    2.500    4.500    1.750    0.000 
#    0.000    0.000    0.000    9.000    0.000    0.000 
#    0.000    0.000    0.000    0.000    0.000    0.000 
#
# Total GULP energy -89087.093417 kJ/mol
# GULP energy per Si atom -5567.943339 kJ/mol
# Density = 1.661633 g / cm^3
# Si number density = 16.654235 Si / 1000 Ang^3
#
#
#
# Elastic Constant Matrix: (Units=GPa)
#
#
# Indices 1 2 3 4 5 6 
#
# 1 170.7211 47.6319 48.4758 0.0000 0.0000 0.0000
# 2 47.6319 106.7970 18.8462 0.0000 0.0000 0.0000
# 3 48.4758 18.8462 104.1092 0.0000 0.0000 0.0000
# 4 0.0000 0.0000 0.0000 5.8171 0.0000 0.0000
# 5 0.0000 0.0000 0.0000 0.0000 28.9456 0.0000
# 6 0.0000 0.0000 0.0000 0.0000 0.0000 94.0291
#
#
#
# Elastic Compliance Matrix: (Units=1/GPa)
#
#
# Indices 1 2 3 4 5 6 
#
# 1 0.007488 -0.002814 -0.002977 0.000000 0.000000 0.000000
# 2 -0.002814 0.010730 -0.000632 0.000000 0.000000 0.000000
# 3 -0.002977 -0.000632 0.011106 0.000000 0.000000 0.000000
# 4 0.000000 0.000000 0.000000 0.171906 0.000000 0.000000
# 5 0.000000 0.000000 0.000000 0.000000 0.034548 0.000000
# 6 0.000000 0.000000 0.000000 0.000000 0.000000 0.010635
#
#
# Mechanical properties :
#
#
# Convention : Reuss Voigt Hill
#
# Bulk Modulus (GPa) = 60.68961 67.94834 64.31897
# Shear Modulus (GPa) = 18.88556 43.53659 31.21108
#
# Velocity S-wave (km/s) = 3.37111 5.11842 4.33374
# Velocity P-wave (km/s) = 7.18837 8.70741 7.98410
#
# Compressibility (1/GPa) = 0.01647729
#
# Stress axis : x y z
#
# Youngs Moduli (GPa) = 133.54557 93.19409 90.04180
#
# Poissons Ratio (x) = 0.26228 0.26807
# Poissons Ratio (y) = 0.37584 0.05691
# Poissons Ratio (z) = 0.39759 0.05890
#
# Static dielectric constant tensor:
#      x y z
#    x 1.523900 0.000000 0.000000 
#    y 0.000000 1.538930 0.000000 
#    z 0.000000 0.000000 1.585490 
# 
# From -- ./inp_files/4534.got.cif
#   From: 2010.05.17/outbox.cif.g08.bks.cpg/sg28_3_cif.got.tgz:4534.got - 2010.06.04 01:15:21.
