data_PCOD9339264
_publ_section_title
;
Structure prediction by ZEFSAII (Michael W. Deem and Ramdas Pophale) SiO2 
 PCOD9339264
Probable space group: P M A 2
;
_chemical_formula_sum "Si O2"
_cell_formula_units_Z 32
_cell_length_a 8.822021
_cell_length_b 15.506687
_cell_length_c 15.710239
_cell_angle_alpha 90.000000
_cell_angle_beta 90.000000
_cell_angle_gamma 90.000000
_cell_volume 2149.165697
_symmetry_space_group_name_H-M "P M A 2"
_symmetry_group_IT_number 28
_symmetry_cell_setting 'orthorhombic'
loop_
_space_group_symop_operation_xyz
x,y,z
-x,-y,z
1/2-x,y,z
1/2+x,-y,z
loop_
_atom_site_type_symbol
_atom_site_label
_atom_site_fract_x
_atom_site_fract_y
_atom_site_fract_z
Si Si1 0.930408 0.270013 0.735230
Si Si2 0.068442 0.403444 0.415244
Si Si3 0.430766 0.404300 0.604859
Si Si4 0.568460 0.596179 0.067862
Si Si5 0.431098 0.728332 0.935749
Si Si6 0.576089 0.911301 0.732447
Si Si7 0.568148 0.402710 0.243912
Si Si8 0.424689 0.089339 0.939374
O O1 0.750000 0.274132 0.727427
O O2 0.968181 0.282023 0.835354
O O3 0.005298 0.342215 0.676900
O O4 0.987993 0.175307 0.708742
O O5 0.250000 0.407652 0.403256
O O6 0.035742 0.367955 0.509598
O O7 0.000000 0.500000 0.419382
O O8 0.991984 0.361890 0.331994
O O9 0.500000 0.500000 0.612263
O O10 0.250000 0.411399 0.611854
O O11 0.500000 0.500000 0.056058
O O12 0.750000 0.590506 0.074196
O O13 0.498646 0.633332 0.156001
O O14 0.516392 0.657321 0.991404
O O15 0.250000 0.720055 0.945776
O O16 0.484280 0.824308 0.962126
O O17 0.750000 0.906254 0.704826
O O18 0.574806 0.913873 0.835922
O O19 0.500000 0.000000 0.702788
O O20 0.500000 0.500000 0.244664
O O21 0.750000 0.405420 0.242250
O O22 0.250000 0.095452 0.966771
O O23 0.500000 0.000000 0.968971
#
# Coordination Sequence:
#
# PCOD9339264 Si02
#       8
#     4   4   4   4   4   4   4   4
#     4  10  20  32  46  63  87 118 152 187 222 260
#     4   9  16  27  43  63  84 108 139 177 220 263
#     4  10  20  32  46  63  87 118 152 187 221 259
#     4  11  21  33  47  63  86 117 151 186 221 261
#     4  10  20  33  46  63  87 117 152 188 222 260
#     4   9  16  27  44  64  86 110 141 179 222 266
#     4  10  17  27  44  64  85 109 138 176 220 264
#     4   9  16  27  44  65  86 111 141 178 222 265
#
# _framework density 14.889499000000001
#
# number of rings (size 3 to 8) (size 9 to 14) (size 15 to 20)
#    0.000    2.250    0.000    6.000    0.000    6.500 
#    0.000    0.000    0.000    0.000    0.000    0.000 
#    0.000    1.000    0.000    5.500    0.000    6.125 
#
# Total GULP energy -178302.407755 kJ/mol
# GULP energy per Si atom -5571.950242 kJ/mol
# Density = 1.485561 g / cm^3
# Si number density = 14.889499 Si / 1000 Ang^3
#
#
#
# Elastic Constant Matrix: (Units=GPa)
#
#
# Indices 1 2 3 4 5 6 
#
# 1 111.0526 43.3943 56.5247 0.0000 0.0000 0.0000
# 2 43.3943 80.1304 51.8685 0.0000 0.0000 0.0000
# 3 56.5247 51.8685 83.1471 0.0000 0.0000 0.0000
# 4 0.0000 0.0000 0.0000 -1.2590 0.0000 0.0000
# 5 0.0000 0.0000 0.0000 0.0000 19.6609 0.0000
# 6 0.0000 0.0000 0.0000 0.0000 0.0000 26.2793
#
#
#
# Elastic Compliance Matrix: (Units=1/GPa)
#
#
# Indices 1 2 3 4 5 6 
#
# 1 0.014037 -0.002390 -0.008052 0.000000 0.000000 0.000000
# 2 -0.002390 0.021339 -0.011687 0.000000 0.000000 0.000000
# 3 -0.008052 -0.011687 0.024791 0.000000 0.000000 0.000000
# 4 0.000000 0.000000 0.000000 -0.794296 0.000000 0.000000
# 5 0.000000 0.000000 0.000000 0.000000 0.050862 0.000000
# 6 0.000000 0.000000 0.000000 0.000000 0.000000 0.038053
#
#
# Mechanical properties :
#
#
# Convention : Reuss Voigt Hill
#
# Bulk Modulus (GPa) = 62.85369 64.21168 63.53269
# Shear Modulus (GPa) = -8.39412 17.10575 4.35581
#
# Velocity S-wave (km/s) = -2.37694 3.39314 1.71224
# Velocity P-wave (km/s) = 5.89677 7.65312 6.83163
#
# Compressibility (1/GPa) = 0.01590996
#
# Stress axis : x y z
#
# Youngs Moduli (GPa) = 71.24148 46.86317 40.33720
#
# Poissons Ratio (x) = 0.11199 0.32478
# Poissons Ratio (y) = 0.17025 0.47142
# Poissons Ratio (z) = 0.57361 0.54768
#
# Static dielectric constant tensor:
#      x y z
#    x 1.498120 0.000000 0.000000 
#    y 0.000000 1.472170 0.000000 
#    z 0.000000 0.000000 1.523580 
# 
# From -- ./inp_files/6404.got.cif
#   From: 2010.05.17/outbox.cif.g08.bks.cpg/sg28_4_cif.got.tgz:6404.got - 2010.06.04 01:15:21.
