data_PCOD9339055
_publ_section_title
;
Structure prediction by ZEFSAII (Michael W. Deem and Ramdas Pophale) SiO2 
 PCOD9339055
Probable space group: P C C 2
;
_chemical_formula_sum "Si O2"
_cell_formula_units_Z 20
_cell_length_a 11.333243
_cell_length_b 8.218871
_cell_length_c 9.256798
_cell_angle_alpha 90.000000
_cell_angle_beta 90.000000
_cell_angle_gamma 90.000000
_cell_volume 862.237985
_symmetry_space_group_name_H-M "P C C 2"
_symmetry_group_IT_number 27
_symmetry_cell_setting 'orthorhombic'
loop_
_space_group_symop_operation_xyz
x,y,z
-x,-y,z
-x,y,1/2+z
x,-y,1/2+z
loop_
_atom_site_type_symbol
_atom_site_label
_atom_site_fract_x
_atom_site_fract_y
_atom_site_fract_z
Si Si1 0.913989 0.638565 0.254890
Si Si2 0.738977 0.358025 0.291965
Si Si3 0.935599 0.824697 0.974753
Si Si4 0.500000 0.500000 0.925150
Si Si5 0.500000 0.000000 0.829682
Si Si6 0.382321 0.198174 0.572647
O O1 0.798086 0.535313 0.281407
O O2 0.000000 0.500000 0.192222
O O3 0.971131 0.703302 0.400802
O O4 0.909654 0.784317 0.141295
O O5 0.813755 0.234785 0.394276
O O6 0.608285 0.413057 0.342474
O O7 0.739360 0.267218 0.136155
O O8 0.000000 0.000000 0.959672
O O9 0.550106 0.357476 0.023140
O O10 0.561876 0.881018 0.716030
O O11 0.402113 0.922725 0.937799
#
# Coordination Sequence:
#
# PCOD9339055 Si02
#       6
#     4   4   4   2   2   4
#     4  10  22  46  74 100 142 192 256 313 380 452
#     4  11  24  45  74 111 146 203 251 318 375 470
#     4  11  24  47  73 107 145 192 252 323 386 447
#     4  12  24  46  76 114 152 204 260 302 380 484
#     4  10  24  46  68  96 154 196 234 304 370 454
#     4  11  23  46  69 104 149 196 246 300 374 461
#
# _framework density 23.195454000000002
#
# number of rings (size 3 to 8) (size 9 to 14) (size 15 to 20)
#    0.000    1.200    2.000    4.200    0.000    1.600 
#   14.400    0.000    0.000    0.000    0.000    0.000 
#    0.000    0.000    0.000    0.000    0.000    0.000 
#
# Total GULP energy -111498.768871 kJ/mol
# GULP energy per Si atom -5574.938444 kJ/mol
# Density = 2.314266 g / cm^3
# Si number density = 23.195454 Si / 1000 Ang^3
#
#
#
# Elastic Constant Matrix: (Units=GPa)
#
#
# Indices 1 2 3 4 5 6 
#
# 1 64.6013 25.9824 21.7261 0.0000 0.0000 0.0000
# 2 25.9824 139.2848 42.7056 0.0000 0.0000 0.0000
# 3 21.7261 42.7056 110.8472 0.0000 0.0000 0.0000
# 4 0.0000 0.0000 0.0000 53.6089 0.0000 0.0000
# 5 0.0000 0.0000 0.0000 0.0000 30.9306 0.0000
# 6 0.0000 0.0000 0.0000 0.0000 0.0000 32.2394
#
#
#
# Elastic Compliance Matrix: (Units=1/GPa)
#
#
# Indices 1 2 3 4 5 6 
#
# 1 0.017296 -0.002480 -0.002435 0.000000 0.000000 0.000000
# 2 -0.002480 0.008497 -0.002787 0.000000 0.000000 0.000000
# 3 -0.002435 -0.002787 0.010573 0.000000 0.000000 0.000000
# 4 0.000000 0.000000 0.000000 0.018654 0.000000 0.000000
# 5 0.000000 0.000000 0.000000 0.000000 0.032330 0.000000
# 6 0.000000 0.000000 0.000000 0.000000 0.000000 0.031018
#
#
# Mechanical properties :
#
#
# Convention : Reuss Voigt Hill
#
# Bulk Modulus (GPa) = 47.70721 55.06239 51.38480
# Shear Modulus (GPa) = 35.52198 38.31040 36.91619
#
# Velocity S-wave (km/s) = 3.91758 4.06844 3.99372
# Velocity P-wave (km/s) = 6.40901 6.77197 6.59299
#
# Compressibility (1/GPa) = 0.02096119
#
# Stress axis : x y z
#
# Youngs Moduli (GPa) = 57.81772 117.69141 94.58492
#
# Poissons Ratio (x) = 0.29187 0.23027
# Poissons Ratio (y) = 0.14338 0.26365
# Poissons Ratio (z) = 0.14076 0.32806
#
# Static dielectric constant tensor:
#      x y z
#    x 2.005430 0.000000 0.000000 
#    y 0.000000 1.942990 0.000000 
#    z 0.000000 0.000000 1.902440 
# 
# From -- ./inp_files/1065.got.cif
#   From: 2010.05.17/outbox.cif.g08.bks.cpg/sg27_1_cif.got.tgz:1065.got - 2010.06.04 01:11:05.
