data_PCOD9339344
_publ_section_title
;
Structure prediction by ZEFSAII (Michael W. Deem and Ramdas Pophale) SiO2 
 PCOD9339344
Probable space group: P M A 2
;
_chemical_formula_sum "Si O2"
_cell_formula_units_Z 32
_cell_length_a 8.608261
_cell_length_b 19.858084
_cell_length_c 10.566107
_cell_angle_alpha 90.000000
_cell_angle_beta 90.000000
_cell_angle_gamma 90.000000
_cell_volume 1806.208052
_symmetry_space_group_name_H-M "P M A 2"
_symmetry_group_IT_number 28
_symmetry_cell_setting 'orthorhombic'
loop_
_space_group_symop_operation_xyz
x,y,z
-x,-y,z
1/2-x,y,z
1/2+x,-y,z
loop_
_atom_site_type_symbol
_atom_site_label
_atom_site_fract_x
_atom_site_fract_y
_atom_site_fract_z
Si Si1 0.436012 0.573071 0.208610
Si Si2 0.936719 0.927226 0.753703
Si Si3 0.064436 0.572500 0.502933
Si Si4 0.937338 0.707025 0.609494
Si Si5 0.934857 0.072222 0.469535
Si Si6 0.439349 0.213919 0.860414
Si Si7 0.062130 0.288637 0.115169
Si Si8 0.937548 0.794414 0.364580
O O1 0.500000 0.500000 0.169113
O O2 0.250000 0.571629 0.204920
O O3 0.485804 0.583559 0.355990
O O4 0.497936 0.636016 0.129216
O O5 0.750000 0.929668 0.750338
O O6 0.986532 0.863627 0.838470
O O7 0.995450 0.915384 0.610131
O O8 0.000000 0.000000 0.794734
O O9 0.250000 0.571513 0.505184
O O10 0.000000 0.500000 0.542108
O O11 0.001969 0.632784 0.587922
O O12 0.750000 0.704189 0.610500
O O13 0.988866 0.742995 0.738205
O O14 0.983936 0.751586 0.488226
O O15 0.750000 0.069360 0.479176
O O16 0.988789 0.132377 0.379591
O O17 0.000000 0.000000 0.427513
O O18 0.250000 0.213763 0.861205
O O19 0.490138 0.249583 0.989306
O O20 0.250000 0.292398 0.113895
O O21 0.016175 0.245842 0.239055
O O22 0.750000 0.800807 0.365186
#
# Coordination Sequence:
#
# PCOD9339344 Si02
#       8
#     4   4   4   4   4   4   4   4
#     4  10  20  34  54  80 109 140 177 224 267 318
#     4  10  18  33  54  79 108 140 179 220 267 318
#     4  10  20  33  52  80 110 139 176 222 271 316
#     4  10  18  33  55  79 106 139 175 216 263 312
#     4  11  21  33  53  80 110 141 179 225 272 317
#     4   9  19  35  55  78 109 144 178 216 263 320
#     4  10  20  36  57  80 107 144 182 218 265 320
#     4  10  19  33  55  80 107 139 176 217 265 318
#
# _framework density 17.716674000000001
#
# number of rings (size 3 to 8) (size 9 to 14) (size 15 to 20)
#    0.000    2.000    2.500    3.000    0.000    2.000 
#    0.000    3.125    0.000    1.500    0.000    0.000 
#    0.000    0.000    0.000    0.000    0.000    0.000 
#
# Total GULP energy -178617.040537 kJ/mol
# GULP energy per Si atom -5581.782517 kJ/mol
# Density = 1.767635 g / cm^3
# Si number density = 17.716674 Si / 1000 Ang^3
#
#
#
# Elastic Constant Matrix: (Units=GPa)
#
#
# Indices 1 2 3 4 5 6 
#
# 1 35.3442 38.2421 27.1762 0.0000 0.0000 0.0000
# 2 38.2421 191.5826 84.7362 0.0000 0.0000 0.0000
# 3 27.1762 84.7362 110.8878 0.0000 0.0000 0.0000
# 4 0.0000 0.0000 0.0000 28.6969 0.0000 0.0000
# 5 0.0000 0.0000 0.0000 0.0000 10.8622 0.0000
# 6 0.0000 0.0000 0.0000 0.0000 0.0000 33.7917
#
#
#
# Elastic Compliance Matrix: (Units=1/GPa)
#
#
# Indices 1 2 3 4 5 6 
#
# 1 0.038057 -0.005244 -0.005320 0.000000 0.000000 0.000000
# 2 -0.005244 0.008607 -0.005292 0.000000 0.000000 0.000000
# 3 -0.005320 -0.005292 0.014366 0.000000 0.000000 0.000000
# 4 0.000000 0.000000 0.000000 0.034847 0.000000 0.000000
# 5 0.000000 0.000000 0.000000 0.000000 0.092062 0.000000
# 6 0.000000 0.000000 0.000000 0.000000 0.000000 0.029593
#
#
# Mechanical properties :
#
#
# Convention : Reuss Voigt Hill
#
# Bulk Modulus (GPa) = 34.10778 70.90262 52.50520
# Shear Modulus (GPa) = 19.30373 27.18083 23.24228
#
# Velocity S-wave (km/s) = 3.30446 3.92113 3.62593
# Velocity P-wave (km/s) = 5.81832 7.78508 6.87242
#
# Compressibility (1/GPa) = 0.02931883
#
# Stress axis : x y z
#
# Youngs Moduli (GPa) = 26.27612 116.18406 69.60911
#
# Poissons Ratio (x) = 0.60923 0.37032
# Poissons Ratio (y) = 0.13778 0.36838
# Poissons Ratio (z) = 0.13979 0.61485
#
# Static dielectric constant tensor:
#      x y z
#    x 1.598010 0.000000 0.000000 
#    y 0.000000 1.598650 0.000000 
#    z 0.000000 0.000000 1.592180 
# 
# From -- ./inp_files/5158.got.cif
#   From: 2010.05.17/outbox.cif.g08.bks.cpg/sg28_3_cif.got.tgz:5158.got - 2010.06.04 01:15:21.
