data_PCOD9339566
_publ_section_title
;
Structure prediction by ZEFSAII (Michael W. Deem and Ramdas Pophale) SiO2 
 PCOD9339566
Probable space group: P M A 2
;
_chemical_formula_sum "Si O2"
_cell_formula_units_Z 32
_cell_length_a 23.578720
_cell_length_b 7.497630
_cell_length_c 8.664424
_cell_angle_alpha 90.000000
_cell_angle_beta 90.000000
_cell_angle_gamma 90.000000
_cell_volume 1531.736024
_symmetry_space_group_name_H-M "P M A 2"
_symmetry_group_IT_number 28
_symmetry_cell_setting 'orthorhombic'
loop_
_space_group_symop_operation_xyz
x,y,z
-x,-y,z
1/2-x,y,z
1/2+x,-y,z
loop_
_atom_site_type_symbol
_atom_site_label
_atom_site_fract_x
_atom_site_fract_y
_atom_site_fract_z
Si Si1 0.473505 0.673995 0.268020
Si Si2 0.183846 0.213358 0.023959
Si Si3 0.025235 0.196378 0.568871
Si Si4 0.812087 0.395967 0.147317
Si Si5 0.858696 0.380275 0.462693
Si Si6 0.099184 0.891964 0.045288
Si Si7 0.366440 0.348661 0.714482
Si Si8 0.918183 0.282943 0.740741
O O1 0.500000 0.500000 0.185478
O O2 0.519358 0.739154 0.392839
O O3 0.418074 0.610595 0.366662
O O4 0.451328 0.833644 0.159917
O O5 0.250000 0.155568 0.044447
O O6 0.172997 0.262053 0.843314
O O7 0.135404 0.070694 0.069800
O O8 0.175492 0.395653 0.120490
O O9 0.979624 0.306511 0.667427
O O10 0.085806 0.219546 0.645867
O O11 0.000000 0.000000 0.572306
O O12 0.750000 0.364301 0.081279
O O13 0.814767 0.346433 0.328095
O O14 0.856063 0.267975 0.066510
O O15 0.841681 0.554869 0.561164
O O16 0.874596 0.241400 0.599058
O O17 0.079362 0.866224 0.870287
O O18 0.397347 0.520919 0.793466
#
# Coordination Sequence:
#
# PCOD9339566 Si02
#       8
#     4   4   4   4   4   4   4   4
#     4  10  19  38  58  87 120 165 205 247 318 387
#     4  11  24  41  63  93 126 168 219 272 327 377
#     4  11  20  34  58  90 129 167 202 253 315 381
#     4  10  20  39  63  86 118 162 209 264 321 372
#     4   8  18  34  63  82 113 157 206 252 313 364
#     4  11  22  40  61  90 129 164 208 263 318 385
#     4  10  19  38  62  83 125 159 208 255 312 372
#     4   9  19  38  58  89 119 164 209 246 308 384
#
# _framework density 20.89133
#
# number of rings (size 3 to 8) (size 9 to 14) (size 15 to 20)
#    0.750    1.250    2.500    1.500    0.000    2.500 
#    0.000    3.125    0.000    0.000    0.000    0.000 
#    0.000    0.000    0.000    0.000    0.000    0.000 
#
# Total GULP energy -178147.542884 kJ/mol
# GULP energy per Si atom -5567.110715 kJ/mol
# Density = 2.084378 g / cm^3
# Si number density = 20.891330 Si / 1000 Ang^3
#
#
#
# Elastic Constant Matrix: (Units=GPa)
#
#
# Indices 1 2 3 4 5 6 
#
# 1 29.7876 4.9506 11.5764 0.0000 0.0000 0.0000
# 2 4.9506 47.2327 2.4719 0.0000 0.0000 0.0000
# 3 11.5764 2.4719 78.3423 0.0000 0.0000 0.0000
# 4 0.0000 0.0000 0.0000 18.2200 0.0000 0.0000
# 5 0.0000 0.0000 0.0000 0.0000 8.0202 0.0000
# 6 0.0000 0.0000 0.0000 0.0000 0.0000 30.2591
#
#
#
# Elastic Compliance Matrix: (Units=1/GPa)
#
#
# Indices 1 2 3 4 5 6 
#
# 1 0.036191 -0.003519 -0.005237 0.000000 0.000000 0.000000
# 2 -0.003519 0.021549 -0.000160 0.000000 0.000000 0.000000
# 3 -0.005237 -0.000160 0.013543 0.000000 0.000000 0.000000
# 4 0.000000 0.000000 0.000000 0.054885 0.000000 0.000000
# 5 0.000000 0.000000 0.000000 0.000000 0.124685 0.000000
# 6 0.000000 0.000000 0.000000 0.000000 0.000000 0.033048
#
#
# Mechanical properties :
#
#
# Convention : Reuss Voigt Hill
#
# Bulk Modulus (GPa) = 18.70850 21.48449 20.09650
# Shear Modulus (GPa) = 15.64701 20.39077 18.01889
#
# Velocity S-wave (km/s) = 2.73970 3.12755 2.94003
# Velocity P-wave (km/s) = 4.35690 4.83202 4.60059
#
# Compressibility (1/GPa) = 0.05345163
#
# Stress axis : x y z
#
# Youngs Moduli (GPa) = 27.63106 46.40582 73.83688
#
# Poissons Ratio (x) = 0.16331 0.38667
# Poissons Ratio (y) = 0.09724 0.01181
# Poissons Ratio (z) = 0.14470 0.00742
#
# Static dielectric constant tensor:
#      x y z
#    x 1.822250 0.000000 0.000000 
#    y 0.000000 1.809390 0.000000 
#    z 0.000000 0.000000 1.779810 
# 
# From -- ./inp_files/4223.got.cif
#   From: 2010.05.17/outbox.cif.g08.bks.cpg/sg28_3_cif.got.tgz:4223.got - 2010.06.04 01:15:21.
