data_PCOD9339367
_publ_section_title
;
Structure prediction by ZEFSAII (Michael W. Deem and Ramdas Pophale) SiO2 
 PCOD9339367
Probable space group: P M A 2
;
_chemical_formula_sum "Si O2"
_cell_formula_units_Z 24
_cell_length_a 8.677291
_cell_length_b 13.619889
_cell_length_c 11.685252
_cell_angle_alpha 90.000000
_cell_angle_beta 90.000000
_cell_angle_gamma 90.000000
_cell_volume 1381.006787
_symmetry_space_group_name_H-M "P M A 2"
_symmetry_group_IT_number 28
_symmetry_cell_setting 'orthorhombic'
loop_
_space_group_symop_operation_xyz
x,y,z
-x,-y,z
1/2-x,y,z
1/2+x,-y,z
loop_
_atom_site_type_symbol
_atom_site_label
_atom_site_fract_x
_atom_site_fract_y
_atom_site_fract_z
Si Si1 0.565807 0.394044 0.320630
Si Si2 0.933676 0.605258 0.064792
Si Si3 0.922898 0.403197 0.691592
Si Si4 0.936217 0.109037 0.691361
Si Si5 0.424047 0.755461 0.891794
Si Si6 0.430792 0.267190 0.514602
O O1 0.500000 0.500000 0.362316
O O2 0.750000 0.399003 0.321172
O O3 0.503364 0.382779 0.191653
O O4 0.508811 0.302720 0.397213
O O5 0.750000 0.596751 0.070056
O O6 0.000000 0.500000 0.021012
O O7 0.980750 0.699683 0.989189
O O8 0.750000 0.418390 0.645103
O O9 0.911831 0.325571 0.792282
O O10 0.000000 0.500000 0.737984
O O11 0.034820 0.359764 0.596379
O O12 0.750000 0.111677 0.690301
O O13 0.985971 0.153359 0.815929
O O14 0.995783 0.177354 0.586829
O O15 0.000000 0.000000 0.678173
O O16 0.250000 0.777620 0.933502
O O17 0.250000 0.250505 0.499163
#
# Coordination Sequence:
#
# PCOD9339367 Si02
#       6
#     4   4   4   4   4   4
#     4  11  21  35  53  75 107 144 181 217 257 306
#     4  11  21  33  51  76 107 143 181 216 255 304
#     4  10  19  30  45  69 101 135 170 208 254 307
#     4  10  21  38  59  82 106 134 171 216 268 319
#     4   9  19  34  51  73 102 135 171 211 256 307
#     4  11  21  34  52  75 103 135 173 214 260 311
#
# _framework density 17.378623999999999
#
# number of rings (size 3 to 8) (size 9 to 14) (size 15 to 20)
#    0.000    1.667    0.000    8.500    0.000    5.333 
#    0.000    0.000    0.000    1.000    0.000    4.667 
#    0.000    0.000    0.000    0.000    0.000    0.000 
#
# Total GULP energy -133812.908838 kJ/mol
# GULP energy per Si atom -5575.537868 kJ/mol
# Density = 1.733907 g / cm^3
# Si number density = 17.378624 Si / 1000 Ang^3
#
#
#
# Elastic Constant Matrix: (Units=GPa)
#
#
# Indices 1 2 3 4 5 6 
#
# 1 131.8543 47.9814 41.5157 0.0000 0.0000 0.0000
# 2 47.9814 95.1772 49.5190 0.0000 0.0000 0.0000
# 3 41.5157 49.5190 85.3682 0.0000 0.0000 0.0000
# 4 0.0000 0.0000 0.0000 23.3577 0.0000 0.0000
# 5 0.0000 0.0000 0.0000 0.0000 28.0659 0.0000
# 6 0.0000 0.0000 0.0000 0.0000 0.0000 5.2513
#
#
#
# Elastic Compliance Matrix: (Units=1/GPa)
#
#
# Indices 1 2 3 4 5 6 
#
# 1 0.009702 -0.003489 -0.002694 0.000000 0.000000 0.000000
# 2 -0.003489 0.016303 -0.007760 0.000000 0.000000 0.000000
# 3 -0.002694 -0.007760 0.017525 0.000000 0.000000 0.000000
# 4 0.000000 0.000000 0.000000 0.042813 0.000000 0.000000
# 5 0.000000 0.000000 0.000000 0.000000 0.035630 0.000000
# 6 0.000000 0.000000 0.000000 0.000000 0.000000 0.190428
#
#
# Mechanical properties :
#
#
# Convention : Reuss Voigt Hill
#
# Bulk Modulus (GPa) = 63.92348 65.60355 64.76352
# Shear Modulus (GPa) = 14.47165 22.89387 18.68276
#
# Velocity S-wave (km/s) = 2.88883 3.63348 3.28234
# Velocity P-wave (km/s) = 6.92747 7.44543 7.19111
#
# Compressibility (1/GPa) = 0.01564370
#
# Stress axis : x y z
#
# Youngs Moduli (GPa) = 103.06921 61.33768 57.05972
#
# Poissons Ratio (x) = 0.21403 0.15373
# Poissons Ratio (y) = 0.35965 0.44278
# Poissons Ratio (z) = 0.27769 0.47598
#
# Static dielectric constant tensor:
#      x y z
#    x 1.589880 0.000000 0.000000 
#    y 0.000000 1.633730 0.000000 
#    z 0.000000 0.000000 1.611130 
# 
# From -- ./inp_files/4685.got.cif
#   From: 2010.05.17/outbox.cif.g08.bks.cpg/sg28_3_cif.got.tgz:4685.got - 2010.06.04 01:15:21.
