data_PCOD9339010
_publ_section_title
;
Structure prediction by ZEFSAII (Michael W. Deem and Ramdas Pophale) SiO2 
 PCOD9339010
Probable space group: P C C 2
;
_chemical_formula_sum "Si O2"
_cell_formula_units_Z 30
_cell_length_a 21.458061
_cell_length_b 5.043334
_cell_length_c 11.070147
_cell_angle_alpha 90.000000
_cell_angle_beta 90.000000
_cell_angle_gamma 90.000000
_cell_volume 1198.013175
_symmetry_space_group_name_H-M "P C C 2"
_symmetry_group_IT_number 27
_symmetry_cell_setting 'orthorhombic'
loop_
_space_group_symop_operation_xyz
x,y,z
-x,-y,z
-x,y,1/2+z
x,-y,1/2+z
loop_
_atom_site_type_symbol
_atom_site_label
_atom_site_fract_x
_atom_site_fract_y
_atom_site_fract_z
Si Si1 0.138959 0.696017 0.579610
Si Si2 0.040708 0.741011 0.758777
Si Si3 0.157528 0.198514 0.425963
Si Si4 0.710687 0.071701 0.987620
Si Si5 0.417293 0.358730 0.477897
Si Si6 0.268129 0.425264 0.143439
Si Si7 0.395295 0.664053 0.725131
Si Si8 0.500000 0.000000 0.622105
O O1 0.072686 0.634097 0.636832
O O2 0.153095 0.502218 0.468388
O O3 0.195918 0.627429 0.670386
O O4 0.142320 0.999036 0.537616
O O5 0.100917 0.836755 0.834317
O O6 0.000000 0.500000 0.812675
O O7 0.000000 0.000000 0.737677
O O8 0.229863 0.126050 0.402073
O O9 0.638769 0.141271 0.958625
O O10 0.724127 0.270741 0.101494
O O11 0.717631 0.769034 0.029409
O O12 0.399114 0.527829 0.594147
O O13 0.421653 0.479631 0.344290
O O14 0.478711 0.223279 0.528751
O O15 0.320605 0.336280 0.237674
O O16 0.440635 0.915440 0.703060
#
# Coordination Sequence:
#
# PCOD9339010 Si02
#       8
#     4   4   4   4   4   4   4   2
#     4  10  22  41  66  92 130 175 224 275 339 403
#     4  12  26  40  62  98 134 171 225 271 345 410
#     4  10  22  41  66  92 130 175 224 275 339 403
#     4   9  19  41  66  98 130 174 230 285 345 413
#     4  11  25  44  69 101 140 186 238 299 363 434
#     4   9  19  41  66  98 130 174 230 285 345 413
#     4  11  25  44  69 101 140 186 238 299 363 434
#     4  12  24  44  68 100 142 184 240 290 372 424
#
# _framework density 25.041461999999999
#
# number of rings (size 3 to 8) (size 9 to 14) (size 15 to 20)
#    0.000    1.600    1.333    2.400    1.867    6.400 
#    0.000    0.000    2.933    0.000    0.000    0.000 
#    0.000    0.000    0.000    0.000    0.000    0.000 
#
# Total GULP energy -167433.881921 kJ/mol
# GULP energy per Si atom -5581.129397 kJ/mol
# Density = 2.498447 g / cm^3
# Si number density = 25.041462 Si / 1000 Ang^3
#
#
#
# Elastic Constant Matrix: (Units=GPa)
#
#
# Indices 1 2 3 4 5 6 
#
# 1 133.7894 16.2388 13.4426 0.0000 0.0000 0.0000
# 2 16.2388 75.2100 8.7810 0.0000 0.0000 0.0000
# 3 13.4426 8.7810 81.9783 0.0000 0.0000 0.0000
# 4 0.0000 0.0000 0.0000 12.0036 0.0000 0.0000
# 5 0.0000 0.0000 0.0000 0.0000 28.3288 0.0000
# 6 0.0000 0.0000 0.0000 0.0000 0.0000 46.7641
#
#
#
# Elastic Compliance Matrix: (Units=1/GPa)
#
#
# Indices 1 2 3 4 5 6 
#
# 1 0.007774 -0.001549 -0.001109 0.000000 0.000000 0.000000
# 2 -0.001549 0.013773 -0.001221 0.000000 0.000000 0.000000
# 3 -0.001109 -0.001221 0.012511 0.000000 0.000000 0.000000
# 4 0.000000 0.000000 0.000000 0.083308 0.000000 0.000000
# 5 0.000000 0.000000 0.000000 0.000000 0.035300 0.000000
# 6 0.000000 0.000000 0.000000 0.000000 0.000000 0.021384
#
#
# Mechanical properties :
#
#
# Convention : Reuss Voigt Hill
#
# Bulk Modulus (GPa) = 38.02319 40.87806 39.45063
# Shear Modulus (GPa) = 26.23645 34.25366 30.24506
#
# Velocity S-wave (km/s) = 3.24036 3.70250 3.47911
# Velocity P-wave (km/s) = 5.40527 5.88537 5.65042
#
# Compressibility (1/GPa) = 0.02629974
#
# Stress axis : x y z
#
# Youngs Moduli (GPa) = 128.63631 72.60509 79.92973
#
# Poissons Ratio (x) = 0.11247 0.08863
# Poissons Ratio (y) = 0.19926 0.09762
# Poissons Ratio (z) = 0.14263 0.08867
#
# Static dielectric constant tensor:
#      x y z
#    x 2.062600 0.000000 0.000000 
#    y 0.000000 1.953980 0.000000 
#    z 0.000000 0.000000 2.028730 
# 
# From -- ./inp_files/2860.got.cif
#   From: 2010.05.17/outbox.cif.g08.bks.cpg/sg27_2_cif.got.tgz:2860.got - 2010.06.04 01:11:05.
