data_PCOD9339950
_publ_section_title
;
Structure prediction by ZEFSAII (Michael W. Deem and Ramdas Pophale) SiO2 
 PCOD9339950
Probable space group: P M A 2
;
_chemical_formula_sum "Si O2"
_cell_formula_units_Z 18
_cell_length_a 25.144857
_cell_length_b 5.844824
_cell_length_c 5.044894
_cell_angle_alpha 90.000000
_cell_angle_beta 90.000000
_cell_angle_gamma 90.000000
_cell_volume 741.434267
_symmetry_space_group_name_H-M "P M A 2"
_symmetry_group_IT_number 28
_symmetry_cell_setting 'orthorhombic'
loop_
_space_group_symop_operation_xyz
x,y,z
-x,-y,z
1/2-x,y,z
1/2+x,-y,z
loop_
_atom_site_type_symbol
_atom_site_label
_atom_site_fract_x
_atom_site_fract_y
_atom_site_fract_z
Si Si1 0.548808 0.375495 0.669960
Si Si2 0.391536 0.980478 0.032531
Si Si3 0.309967 0.642268 0.200703
Si Si4 0.500000 0.000000 0.284129
Si Si5 0.347725 0.376085 0.682736
O O1 0.500000 0.500000 0.807444
O O2 0.592689 0.557854 0.587597
O O3 0.523294 0.211271 0.451618
O O4 0.581014 0.217331 0.865119
O O5 0.352502 0.849537 0.238243
O O6 0.446000 0.092877 0.142524
O O7 0.356691 0.138275 0.837465
O O8 0.250000 0.731029 0.210221
O O9 0.315902 0.439311 0.416977
O O10 0.322697 0.536418 0.912408
#
# Coordination Sequence:
#
# PCOD9339950 Si02
#       5
#     4   4   4   2   4
#     4  11  24  41  67 106 150 193 241 303 373 460
#     4  11  26  45  72 108 150 199 255 308 391 464
#     4  11  26  48  73 106 144 193 257 322 382 453
#     4  12  22  40  70 108 148 202 246 306 380 466
#     4  11  25  46  73 104 147 192 245 312 377 457
#
# _framework density 24.277269
#
# number of rings (size 3 to 8) (size 9 to 14) (size 15 to 20)
#    0.000    0.889    2.222    4.000    6.222    2.667 
#    0.000    0.000    0.000    0.000    0.000    0.000 
#    0.000    0.000    0.000    0.000    0.000    0.000 
#
# Total GULP energy -100491.102714 kJ/mol
# GULP energy per Si atom -5582.839040 kJ/mol
# Density = 2.422201 g / cm^3
# Si number density = 24.277269 Si / 1000 Ang^3
#
#
#
# Elastic Constant Matrix: (Units=GPa)
#
#
# Indices 1 2 3 4 5 6 
#
# 1 167.1922 26.9999 33.9271 0.0000 0.0000 0.0000
# 2 26.9999 62.9030 15.7540 0.0000 0.0000 0.0000
# 3 33.9271 15.7540 99.8531 0.0000 0.0000 0.0000
# 4 0.0000 0.0000 0.0000 -51.0120 0.0000 0.0000
# 5 0.0000 0.0000 0.0000 0.0000 33.4699 0.0000
# 6 0.0000 0.0000 0.0000 0.0000 0.0000 21.2828
#
#
#
# Elastic Compliance Matrix: (Units=1/GPa)
#
#
# Indices 1 2 3 4 5 6 
#
# 1 0.006761 -0.002422 -0.001915 0.000000 0.000000 0.000000
# 2 -0.002422 0.017419 -0.001925 0.000000 0.000000 0.000000
# 3 -0.001915 -0.001925 0.010969 0.000000 0.000000 0.000000
# 4 0.000000 0.000000 0.000000 -0.019603 0.000000 0.000000
# 5 0.000000 0.000000 0.000000 0.000000 0.029878 0.000000
# 6 0.000000 0.000000 0.000000 0.000000 0.000000 0.046986
#
#
# Mechanical properties :
#
#
# Convention : Reuss Voigt Hill
#
# Bulk Modulus (GPa) = 44.20035 53.70115 48.95075
# Shear Modulus (GPa) = 44.45366 17.63264 31.04315
#
# Velocity S-wave (km/s) = 4.28376 2.69792 3.57976
# Velocity P-wave (km/s) = 6.53555 5.64562 6.10682
#
# Compressibility (1/GPa) = 0.02262425
#
# Stress axis : x y z
#
# Youngs Moduli (GPa) = 147.90882 57.40719 91.16506
#
# Poissons Ratio (x) = 0.13906 0.17458
# Poissons Ratio (y) = 0.35829 0.17551
# Poissons Ratio (z) = 0.28324 0.11052
#
# Static dielectric constant tensor:
#      x y z
#    x 2.062490 0.000000 0.000000 
#    y 0.000000 2.054560 0.000000 
#    z 0.000000 0.000000 1.975620 
# 
# From -- ./inp_files/1668.got.cif
#   From: 2010.05.17/outbox.cif.g08.bks.cpg/sg28_1_cif.got.tgz:1668.got - 2010.06.04 01:15:21.
