data_PCOD9339177
_publ_section_title
;
Structure prediction by ZEFSAII (Michael W. Deem and Ramdas Pophale) SiO2 
 PCOD9339177
Probable space group: P C C 2
;
_chemical_formula_sum "Si O2"
_cell_formula_units_Z 24
_cell_length_a 9.872853
_cell_length_b 11.434941
_cell_length_c 8.736864
_cell_angle_alpha 90.000000
_cell_angle_beta 90.000000
_cell_angle_gamma 90.000000
_cell_volume 986.352556
_symmetry_space_group_name_H-M "P C C 2"
_symmetry_group_IT_number 27
_symmetry_cell_setting 'orthorhombic'
loop_
_space_group_symop_operation_xyz
x,y,z
-x,-y,z
-x,y,1/2+z
x,-y,1/2+z
loop_
_atom_site_type_symbol
_atom_site_label
_atom_site_fract_x
_atom_site_fract_y
_atom_site_fract_z
Si Si1 0.663342 0.464616 0.592270
Si Si2 0.230669 0.336040 0.399058
Si Si3 0.909083 0.887146 0.376031
Si Si4 0.321353 0.233691 0.923078
Si Si5 0.583183 0.167204 0.085069
Si Si6 0.229536 0.035539 0.087741
O O1 0.500000 0.500000 0.600119
O O2 0.758547 0.571860 0.539294
O O3 0.716564 0.402683 0.747271
O O4 0.688124 0.369534 0.457489
O O5 0.095107 0.255598 0.376183
O O6 0.342701 0.243951 0.456338
O O7 0.790141 0.913233 0.253479
O O8 0.869911 0.927011 0.547049
O O9 0.000000 0.000000 0.331641
O O10 0.372256 0.207772 0.753808
O O11 0.428616 0.193255 0.051732
O O12 0.202601 0.142606 0.968626
O O13 0.632660 0.035383 0.068465
#
# Coordination Sequence:
#
# PCOD9339177 Si02
#       6
#     4   4   4   4   4   4
#     4  12  23  38  64 100 150 193 229 268 339 433
#     4  11  24  41  66 104 140 190 233 282 348 417
#     4  11  24  46  71 101 127 178 244 307 366 409
#     4  12  23  38  61  97 143 189 226 277 341 430
#     4  11  24  37  60  98 145 184 234 275 350 425
#     4  11  23  41  67  98 132 179 229 305 360 414
#
# _framework density 24.332070999999999
#
# number of rings (size 3 to 8) (size 9 to 14) (size 15 to 20)
#    0.000    0.667    5.000    3.500    2.333    1.333 
#    0.000    0.000    0.000    1.000    0.000    0.000 
#    0.000    0.000    0.000    0.000    0.000    0.000 
#
# Total GULP energy -133618.202516 kJ/mol
# GULP energy per Si atom -5567.425105 kJ/mol
# Density = 2.427669 g / cm^3
# Si number density = 24.332071 Si / 1000 Ang^3
#
#
#
# Elastic Constant Matrix: (Units=GPa)
#
#
# Indices 1 2 3 4 5 6 
#
# 1 28.3933 38.2664 8.9072 0.0000 0.0000 0.0000
# 2 38.2664 189.8861 51.2442 0.0000 0.0000 0.0000
# 3 8.9072 51.2442 135.8663 0.0000 0.0000 0.0000
# 4 0.0000 0.0000 0.0000 18.4213 0.0000 0.0000
# 5 0.0000 0.0000 0.0000 0.0000 22.7167 0.0000
# 6 0.0000 0.0000 0.0000 0.0000 0.0000 46.0574
#
#
#
# Elastic Compliance Matrix: (Units=1/GPa)
#
#
# Indices 1 2 3 4 5 6 
#
# 1 0.048391 -0.009904 0.000563 0.000000 0.000000 0.000000
# 2 -0.009904 0.007890 -0.002327 0.000000 0.000000 0.000000
# 3 0.000563 -0.002327 0.008201 0.000000 0.000000 0.000000
# 4 0.000000 0.000000 0.000000 0.054285 0.000000 0.000000
# 5 0.000000 0.000000 0.000000 0.000000 0.044021 0.000000
# 6 0.000000 0.000000 0.000000 0.000000 0.000000 0.021712
#
#
# Mechanical properties :
#
#
# Convention : Reuss Voigt Hill
#
# Bulk Modulus (GPa) = 24.30331 61.22014 42.76173
# Shear Modulus (GPa) = 22.56834 34.48760 28.52797
#
# Velocity S-wave (km/s) = 3.04882 3.76888 3.42781
# Velocity P-wave (km/s) = 4.73324 6.64486 5.76879
#
# Compressibility (1/GPa) = 0.04114665
#
# Stress axis : x y z
#
# Youngs Moduli (GPa) = 20.66518 126.74250 121.93965
#
# Poissons Ratio (x) = 1.25522 -0.06865
# Poissons Ratio (y) = 0.20466 0.28370
# Poissons Ratio (z) = -0.01163 0.29488
#
# Static dielectric constant tensor:
#      x y z
#    x 2.238190 0.000000 0.000000 
#    y 0.000000 2.091390 0.000000 
#    z 0.000000 0.000000 1.879940 
# 
# From -- ./inp_files/1387.got.cif
#   From: 2010.05.17/outbox.cif.g08.bks.cpg/sg27_1_cif.got.tgz:1387.got - 2010.06.04 01:11:05.
