data_PCOD9339649
_publ_section_title
;
Structure prediction by ZEFSAII (Michael W. Deem and Ramdas Pophale) SiO2 
 PCOD9339649
Probable space group: P M A 2
;
_chemical_formula_sum "Si O2"
_cell_formula_units_Z 24
_cell_length_a 8.806401
_cell_length_b 9.583277
_cell_length_c 15.696875
_cell_angle_alpha 90.000000
_cell_angle_beta 90.000000
_cell_angle_gamma 90.000000
_cell_volume 1324.724897
_symmetry_space_group_name_H-M "P M A 2"
_symmetry_group_IT_number 28
_symmetry_cell_setting 'orthorhombic'
loop_
_space_group_symop_operation_xyz
x,y,z
-x,-y,z
1/2-x,y,z
1/2+x,-y,z
loop_
_atom_site_type_symbol
_atom_site_label
_atom_site_fract_x
_atom_site_fract_y
_atom_site_fract_z
Si Si1 0.932005 0.345051 0.674900
Si Si2 0.068807 0.653054 0.479067
Si Si3 0.432907 0.154268 0.141105
Si Si4 0.931836 0.846404 0.334109
Si Si5 0.067512 0.154935 0.821958
Si Si6 0.432998 0.345528 0.984474
O O1 0.750000 0.351072 0.685470
O O2 0.965641 0.304353 0.576765
O O3 0.000000 0.500000 0.689464
O O4 0.003491 0.235585 0.739889
O O5 0.250000 0.648715 0.470138
O O6 0.000000 0.500000 0.468009
O O7 0.998460 0.751100 0.407807
O O8 0.250000 0.142894 0.136380
O O9 0.472656 0.199398 0.237528
O O10 0.500000 0.000000 0.125968
O O11 0.482883 0.264482 0.069990
O O12 0.750000 0.850605 0.340096
O O13 0.000000 0.000000 0.344079
O O14 0.250000 0.146603 0.817572
O O15 0.025738 0.248803 0.904025
O O16 0.000000 0.000000 0.828694
O O17 0.500000 0.500000 0.977853
O O18 0.250000 0.356602 0.986052
#
# Coordination Sequence:
#
# PCOD9339649 Si02
#       6
#     4   4   4   4   4   4
#     4  10  21  38  59  82 110 144 182 225 273 325
#     4  10  21  37  57  81 110 145 183 225 274 325
#     4   9  19  36  56  80 109 142 181 223 269 320
#     4  10  20  35  56  81 111 146 184 227 273 323
#     4  11  23  38  58  83 111 144 182 225 272 323
#     4  10  22  38  56  81 111 143 180 221 268 322
#
# _framework density 18.116970999999999
#
# number of rings (size 3 to 8) (size 9 to 14) (size 15 to 20)
#    0.000    2.000    0.000    3.000    0.000    7.333 
#    0.000    1.667    0.000    0.000    0.000    0.000 
#    0.000    0.000    0.000    0.000    0.000    0.000 
#
# Total GULP energy -134034.966213 kJ/mol
# GULP energy per Si atom -5584.790259 kJ/mol
# Density = 1.807574 g / cm^3
# Si number density = 18.116971 Si / 1000 Ang^3
#
#
#
# Elastic Constant Matrix: (Units=GPa)
#
#
# Indices 1 2 3 4 5 6 
#
# 1 57.2394 59.5876 75.2012 0.0000 0.0000 0.0000
# 2 59.5876 151.8812 135.6401 0.0000 0.0000 0.0000
# 3 75.2012 135.6401 189.1109 0.0000 0.0000 0.0000
# 4 0.0000 0.0000 0.0000 42.8742 0.0000 0.0000
# 5 0.0000 0.0000 0.0000 0.0000 411.1336 0.0000
# 6 0.0000 0.0000 0.0000 0.0000 0.0000 39.4788
#
#
#
# Elastic Compliance Matrix: (Units=1/GPa)
#
#
# Indices 1 2 3 4 5 6 
#
# 1 0.037382 -0.003868 -0.012091 0.000000 0.000000 0.000000
# 2 -0.003868 0.018718 -0.011887 0.000000 0.000000 0.000000
# 3 -0.012091 -0.011887 0.018622 0.000000 0.000000 0.000000
# 4 0.000000 0.000000 0.000000 0.023324 0.000000 0.000000
# 5 0.000000 0.000000 0.000000 0.000000 0.002432 0.000000
# 6 0.000000 0.000000 0.000000 0.000000 0.000000 0.025330
#
#
# Mechanical properties :
#
#
# Convention : Reuss Voigt Hill
#
# Bulk Modulus (GPa) = 52.54961 104.34323 78.44642
# Shear Modulus (GPa) = 26.61790 107.21749 66.91769
#
# Velocity S-wave (km/s) = 3.83720 7.70124 6.08413
# Velocity P-wave (km/s) = 6.97860 11.69607 9.63065
#
# Compressibility (1/GPa) = 0.01902964
#
# Stress axis : x y z
#
# Youngs Moduli (GPa) = 26.75057 53.42559 53.70056
#
# Poissons Ratio (x) = 0.20667 0.64928
# Poissons Ratio (y) = 0.10348 0.63834
# Poissons Ratio (z) = 0.32343 0.63507
#
# Static dielectric constant tensor:
#      x y z
#    x 1.574880 0.000000 0.000000 
#    y 0.000000 1.567010 0.000000 
#    z 0.000000 0.000000 1.630990 
# 
# From -- ./inp_files/6013.got.cif
#   From: 2010.05.17/outbox.cif.g08.bks.cpg/sg28_4_cif.got.tgz:6013.got - 2010.06.04 01:15:21.
