data_PCOD9339509
_publ_section_title
;
Structure prediction by ZEFSAII (Michael W. Deem and Ramdas Pophale) SiO2 
 PCOD9339509
Probable space group: P M A 2
;
_chemical_formula_sum "Si O2"
_cell_formula_units_Z 28
_cell_length_a 8.772505
_cell_length_b 14.811900
_cell_length_c 13.044322
_cell_angle_alpha 90.000000
_cell_angle_beta 90.000000
_cell_angle_gamma 90.000000
_cell_volume 1694.946157
_symmetry_space_group_name_H-M "P M A 2"
_symmetry_group_IT_number 28
_symmetry_cell_setting 'orthorhombic'
loop_
_space_group_symop_operation_xyz
x,y,z
-x,-y,z
1/2-x,y,z
1/2+x,-y,z
loop_
_atom_site_type_symbol
_atom_site_label
_atom_site_fract_x
_atom_site_fract_y
_atom_site_fract_z
Si Si1 0.066595 0.399262 0.524630
Si Si2 0.567266 0.903881 0.643120
Si Si3 0.566207 0.712783 0.319274
Si Si4 0.933375 0.281864 0.711385
Si Si5 0.932653 0.401355 0.137415
Si Si6 0.066982 0.095289 0.401898
Si Si7 0.433279 0.597978 0.902691
O O1 0.250000 0.402207 0.533262
O O2 0.027676 0.348342 0.418449
O O3 0.000000 0.500000 0.525226
O O4 0.999689 0.341664 0.618537
O O5 0.750000 0.904059 0.651102
O O6 0.497839 0.818723 0.701160
O O7 0.526619 0.893147 0.522205
O O8 0.500000 0.000000 0.676879
O O9 0.750000 0.712081 0.310203
O O10 0.494136 0.670047 0.218555
O O11 0.516471 0.815447 0.341890
O O12 0.750000 0.280551 0.704544
O O13 0.978924 0.329156 0.818104
O O14 0.750000 0.405649 0.142410
O O15 0.000000 0.500000 0.162520
O O16 0.978604 0.380335 0.019777
O O17 0.250000 0.090795 0.396686
O O18 0.000000 0.000000 0.366202
O O19 0.500000 0.500000 0.876152
O O20 0.250000 0.591367 0.900767
#
# Coordination Sequence:
#
# PCOD9339509 Si02
#       7
#     4   4   4   4   4   4   4
#     4  11  22  35  48  71 107 140 170 209 256 310
#     4  10  19  34  53  77 106 138 172 213 258 307
#     4  10  20  35  52  74 105 136 169 211 256 305
#     4  11  21  34  53  77 104 138 174 213 259 309
#     4  10  20  35  54  76 101 134 175 217 258 304
#     4   9  18  33  51  74 103 134 167 207 251 301
#     4   9  20  36  53  75 103 134 174 218 258 302
#
# _framework density 16.5197
#
# number of rings (size 3 to 8) (size 9 to 14) (size 15 to 20)
#    0.000    2.000    1.429    2.571    0.000    6.286 
#    0.000    0.000    0.000    0.857    0.000    2.000 
#    0.000    0.000    0.000    0.000    0.000    0.000 
#
# Total GULP energy -156303.837202 kJ/mol
# GULP energy per Si atom -5582.279900 kJ/mol
# Density = 1.648210 g / cm^3
# Si number density = 16.519700 Si / 1000 Ang^3
#
#
#
# Elastic Constant Matrix: (Units=GPa)
#
#
# Indices 1 2 3 4 5 6 
#
# 1 36.5905 49.2101 36.7916 0.0000 0.0000 0.0000
# 2 49.2101 185.5927 94.5292 0.0000 0.0000 0.0000
# 3 36.7916 94.5292 97.2914 0.0000 0.0000 0.0000
# 4 0.0000 0.0000 0.0000 21.0815 0.0000 0.0000
# 5 0.0000 0.0000 0.0000 0.0000 33.6377 0.0000
# 6 0.0000 0.0000 0.0000 0.0000 0.0000 32.9962
#
#
#
# Elastic Compliance Matrix: (Units=1/GPa)
#
#
# Indices 1 2 3 4 5 6 
#
# 1 0.048207 -0.006923 -0.011503 0.000000 0.000000 0.000000
# 2 -0.006923 0.011661 -0.008712 0.000000 0.000000 0.000000
# 3 -0.011503 -0.008712 0.023093 0.000000 0.000000 0.000000
# 4 0.000000 0.000000 0.000000 0.047435 0.000000 0.000000
# 5 0.000000 0.000000 0.000000 0.000000 0.029729 0.000000
# 6 0.000000 0.000000 0.000000 0.000000 0.000000 0.030307
#
#
# Mechanical properties :
#
#
# Convention : Reuss Voigt Hill
#
# Bulk Modulus (GPa) = 34.86238 75.61516 55.23877
# Shear Modulus (GPa) = 19.66417 26.80599 23.23508
#
# Velocity S-wave (km/s) = 3.45388 4.03261 3.75441
# Velocity P-wave (km/s) = 6.08729 8.21916 7.23221
#
# Compressibility (1/GPa) = 0.02868422
#
# Stress axis : x y z
#
# Youngs Moduli (GPa) = 20.74402 85.75454 43.30264
#
# Poissons Ratio (x) = 0.59368 0.49813
# Poissons Ratio (y) = 0.14361 0.37726
# Poissons Ratio (z) = 0.23863 0.74710
#
# Static dielectric constant tensor:
#      x y z
#    x 1.553250 0.000000 0.000000 
#    y 0.000000 1.538100 0.000000 
#    z 0.000000 0.000000 1.544940 
# 
# From -- ./inp_files/4808.got.cif
#   From: 2010.05.17/outbox.cif.g08.bks.cpg/sg28_3_cif.got.tgz:4808.got - 2010.06.04 01:15:21.
