data_PCOD9339651
_publ_section_title
;
Structure prediction by ZEFSAII (Michael W. Deem and Ramdas Pophale) SiO2 
 PCOD9339651
Probable space group: P M A 2
;
_chemical_formula_sum "Si O2"
_cell_formula_units_Z 20
_cell_length_a 8.626879
_cell_length_b 9.638248
_cell_length_c 13.355487
_cell_angle_alpha 90.000000
_cell_angle_beta 90.000000
_cell_angle_gamma 90.000000
_cell_volume 1110.482023
_symmetry_space_group_name_H-M "P M A 2"
_symmetry_group_IT_number 28
_symmetry_cell_setting 'orthorhombic'
loop_
_space_group_symop_operation_xyz
x,y,z
-x,-y,z
1/2-x,y,z
1/2+x,-y,z
loop_
_atom_site_type_symbol
_atom_site_label
_atom_site_fract_x
_atom_site_fract_y
_atom_site_fract_z
Si Si1 0.936158 0.843158 0.620660
Si Si2 0.564409 0.843036 0.398461
Si Si3 0.935521 0.655841 0.012737
Si Si4 0.564816 0.344893 0.797655
Si Si5 0.564938 0.157145 0.190963
O O1 0.750000 0.846249 0.630500
O O2 0.972572 0.785243 0.508821
O O3 0.009835 0.751753 0.707502
O O4 0.000000 0.000000 0.626846
O O5 0.750000 0.845906 0.386745
O O6 0.489492 0.781599 0.298399
O O7 0.500000 0.000000 0.401859
O O8 0.750000 0.652866 0.012367
O O9 0.000000 0.500000 0.026690
O O10 0.997706 0.753132 0.100581
O O11 0.996717 0.704376 0.904219
O O12 0.500000 0.500000 0.781938
O O13 0.750000 0.349307 0.803736
O O14 0.750000 0.153016 0.187309
O O15 0.500000 0.000000 0.184226
#
# Coordination Sequence:
#
# PCOD9339651 Si02
#       5
#     4   4   4   4   4
#     4  10  20  35  56  83 112 143 181 223 267 317
#     4   9  17  31  52  78 109 143 178 218 267 319
#     4  11  22  39  59  80 108 142 180 221 270 324
#     4  11  22  38  58  80 108 143 181 221 270 323
#     4  11  21  35  56  83 112 143 181 223 268 317
#
# _framework density 18.010195
#
# number of rings (size 3 to 8) (size 9 to 14) (size 15 to 20)
#    0.000    1.600    0.000    9.000    0.000    3.200 
#    0.000    5.000    0.000    4.800    0.000    0.000 
#    0.000    0.000    0.000    0.000    0.000    0.000 
#
# Total GULP energy -111667.931020 kJ/mol
# GULP energy per Si atom -5583.396551 kJ/mol
# Density = 1.796920 g / cm^3
# Si number density = 18.010195 Si / 1000 Ang^3
#
#
#
# Elastic Constant Matrix: (Units=GPa)
#
#
# Indices 1 2 3 4 5 6 
#
# 1 181.0712 41.4870 97.9869 0.0000 0.0000 0.0000
# 2 41.4870 47.2598 78.5013 0.0000 0.0000 0.0000
# 3 97.9869 78.5013 213.8272 0.0000 0.0000 0.0000
# 4 0.0000 0.0000 0.0000 -491.0824 0.0000 0.0000
# 5 0.0000 0.0000 0.0000 0.0000 -539.5028 0.0000
# 6 0.0000 0.0000 0.0000 0.0000 0.0000 27.3078
#
#
#
# Elastic Compliance Matrix: (Units=1/GPa)
#
#
# Indices 1 2 3 4 5 6 
#
# 1 0.007434 -0.002223 -0.002591 0.000000 0.000000 0.000000
# 2 -0.002223 0.054894 -0.019135 0.000000 0.000000 0.000000
# 3 -0.002591 -0.019135 0.012889 0.000000 0.000000 0.000000
# 4 0.000000 0.000000 0.000000 -0.002036 0.000000 0.000000
# 5 0.000000 0.000000 0.000000 0.000000 -0.001854 0.000000
# 6 0.000000 0.000000 0.000000 0.000000 0.000000 0.036620
#
#
# Mechanical properties :
#
#
# Convention : Reuss Voigt Hill
#
# Bulk Modulus (GPa) = 36.60167 97.56762 67.08464
# Shear Modulus (GPa) = 30.31237 -185.70996 -77.69879
#
# Velocity S-wave (km/s) = 4.10697 -10.16551 -6.57535
# Velocity P-wave (km/s) = 6.54649 9.13742 4.50754
#
# Compressibility (1/GPa) = 0.02732116
#
# Stress axis : x y z
#
# Youngs Moduli (GPa) = 134.51984 18.21681 77.58814
#
# Poissons Ratio (x) = 0.04049 0.20100
# Poissons Ratio (y) = 0.29900 1.48461
# Poissons Ratio (z) = 0.34848 0.34857
#
# Static dielectric constant tensor:
#      x y z
#    x 1.596860 0.000000 0.000000 
#    y 0.000000 1.584060 0.000000 
#    z 0.000000 0.000000 1.645560 
# 
# From -- ./inp_files/5967.got.cif
#   From: 2010.05.17/outbox.cif.g08.bks.cpg/sg28_3_cif.got.tgz:5967.got - 2010.06.04 01:15:21.
