data_PCOD9339321
_publ_section_title
;
Structure prediction by ZEFSAII (Michael W. Deem and Ramdas Pophale) SiO2 
 PCOD9339321
Probable space group: P M A 2
;
_chemical_formula_sum "Si O2"
_cell_formula_units_Z 24
_cell_length_a 8.509159
_cell_length_b 16.834097
_cell_length_c 9.427534
_cell_angle_alpha 90.000000
_cell_angle_beta 90.000000
_cell_angle_gamma 90.000000
_cell_volume 1350.437756
_symmetry_space_group_name_H-M "P M A 2"
_symmetry_group_IT_number 28
_symmetry_cell_setting 'orthorhombic'
loop_
_space_group_symop_operation_xyz
x,y,z
-x,-y,z
1/2-x,y,z
1/2+x,-y,z
loop_
_atom_site_type_symbol
_atom_site_label
_atom_site_fract_x
_atom_site_fract_y
_atom_site_fract_z
Si Si1 0.436444 0.821960 0.357910
Si Si2 0.936450 0.235644 0.936771
Si Si3 0.562394 0.915272 0.112306
Si Si4 0.435762 0.327850 0.187003
Si Si5 0.439170 0.414838 0.457327
Si Si6 0.061517 0.254814 0.620888
O O1 0.250000 0.810026 0.340993
O O2 0.488945 0.897987 0.267986
O O3 0.531306 0.750878 0.280765
O O4 0.484543 0.812665 0.521128
O O5 0.750000 0.227700 0.928643
O O6 0.008673 0.247059 0.782147
O O7 0.005883 0.156680 0.011507
O O8 0.979084 0.309587 0.039902
O O9 0.750000 0.914587 0.120428
O O10 0.500000 0.000000 0.060718
O O11 0.250000 0.335615 0.161437
O O12 0.490718 0.396494 0.294647
O O13 0.500000 0.500000 0.504797
O O14 0.250000 0.415154 0.456885
O O15 0.488568 0.340588 0.555665
O O16 0.250000 0.249420 0.609944
#
# Coordination Sequence:
#
# PCOD9339321 Si02
#       6
#     4   4   4   4   4   4
#     4  10  18  31  52  78 102 131 171 213 251 301
#     4  11  21  34  54  81 106 137 177 218 261 313
#     4  11  21  36  56  79 107 140 174 216 262 309
#     4   9  17  32  51  73 100 135 171 208 253 307
#     4   9  19  33  53  77 103 134 174 218 265 312
#     4  10  20  36  54  76 106 143 177 213 262 318
#
# _framework density 17.772013999999999
#
# number of rings (size 3 to 8) (size 9 to 14) (size 15 to 20)
#    0.000    2.000    0.000    8.500    0.000    4.000 
#    0.000    1.667    0.000    0.000    0.000    0.000 
#    0.000    0.000    0.000    0.000    0.000    0.000 
#
# Total GULP energy -133816.176245 kJ/mol
# GULP energy per Si atom -5575.674010 kJ/mol
# Density = 1.773156 g / cm^3
# Si number density = 17.772014 Si / 1000 Ang^3
#
#
#
# Elastic Constant Matrix: (Units=GPa)
#
#
# Indices 1 2 3 4 5 6 
#
# 1 70.2809 23.3010 25.1135 0.0000 0.0000 0.0000
# 2 23.3010 77.1829 38.1434 0.0000 0.0000 0.0000
# 3 25.1135 38.1434 126.3643 0.0000 0.0000 0.0000
# 4 0.0000 0.0000 0.0000 17.6188 0.0000 0.0000
# 5 0.0000 0.0000 0.0000 0.0000 31.7654 0.0000
# 6 0.0000 0.0000 0.0000 0.0000 0.0000 21.5076
#
#
#
# Elastic Compliance Matrix: (Units=1/GPa)
#
#
# Indices 1 2 3 4 5 6 
#
# 1 0.016253 -0.003891 -0.002056 0.000000 0.000000 0.000000
# 2 -0.003891 0.016159 -0.004104 0.000000 0.000000 0.000000
# 3 -0.002056 -0.004104 0.009561 0.000000 0.000000 0.000000
# 4 0.000000 0.000000 0.000000 0.056757 0.000000 0.000000
# 5 0.000000 0.000000 0.000000 0.000000 0.031481 0.000000
# 6 0.000000 0.000000 0.000000 0.000000 0.000000 0.046495
#
#
# Mechanical properties :
#
#
# Convention : Reuss Voigt Hill
#
# Bulk Modulus (GPa) = 45.72140 49.66045 47.69093
# Shear Modulus (GPa) = 24.49786 26.66304 25.58045
#
# Velocity S-wave (km/s) = 3.71678 3.87755 3.79801
# Velocity P-wave (km/s) = 6.64844 6.93188 6.79164
#
# Compressibility (1/GPa) = 0.02187160
#
# Stress axis : x y z
#
# Youngs Moduli (GPa) = 61.52659 61.88409 104.59039
#
# Poissons Ratio (x) = 0.24078 0.21500
# Poissons Ratio (y) = 0.23939 0.42929
# Poissons Ratio (z) = 0.12648 0.25400
#
# Static dielectric constant tensor:
#      x y z
#    x 1.585010 0.000000 0.000000 
#    y 0.000000 1.632410 0.000000 
#    z 0.000000 0.000000 1.627330 
# 
# From -- ./inp_files/2481.got.cif
#   From: 2010.05.17/outbox.cif.g08.bks.cpg/sg28_2_cif.got.tgz:2481.got - 2010.06.04 01:15:21.
