data_PCOD9339819
_publ_section_title
;
Structure prediction by ZEFSAII (Michael W. Deem and Ramdas Pophale) SiO2 
 PCOD9339819
Probable space group: P M A 2
;
_chemical_formula_sum "Si O2"
_cell_formula_units_Z 32
_cell_length_a 31.381365
_cell_length_b 8.648114
_cell_length_c 5.155694
_cell_angle_alpha 90.000000
_cell_angle_beta 90.000000
_cell_angle_gamma 90.000000
_cell_volume 1399.201846
_symmetry_space_group_name_H-M "P M A 2"
_symmetry_group_IT_number 28
_symmetry_cell_setting 'orthorhombic'
loop_
_space_group_symop_operation_xyz
x,y,z
-x,-y,z
1/2-x,y,z
1/2+x,-y,z
loop_
_atom_site_type_symbol
_atom_site_label
_atom_site_fract_x
_atom_site_fract_y
_atom_site_fract_z
Si Si1 0.888424 0.990521 0.176170
Si Si2 0.298345 0.409124 0.245315
Si Si3 0.620889 0.452001 0.543532
Si Si4 0.470951 0.853235 0.921385
Si Si5 0.647538 0.118118 0.690539
Si Si6 0.796023 0.884506 0.573189
Si Si7 0.531409 0.356134 0.405443
Si Si8 0.862731 0.700972 0.895284
O O1 0.884531 0.806378 0.116638
O O2 0.929053 0.064694 0.038551
O O3 0.884589 0.039215 0.474896
O O4 0.852540 0.070305 0.993796
O O5 0.250000 0.468693 0.256434
O O6 0.335376 0.488596 0.412976
O O7 0.295596 0.226302 0.323693
O O8 0.322496 0.405887 0.974514
O O9 0.634427 0.295182 0.682586
O O10 0.580414 0.413979 0.361763
O O11 0.606626 0.588928 0.738059
O O12 0.484783 0.743440 0.160328
O O13 0.500000 0.000000 0.858722
O O14 0.466503 0.748848 0.665137
O O15 0.692647 0.064829 0.564696
O O16 0.750000 0.859880 0.700071
O O17 0.837665 0.821351 0.716859
O O18 0.500000 0.500000 0.445217
#
# Coordination Sequence:
#
# PCOD9339819 Si02
#       8
#     4   4   4   4   4   4   4   4
#     4  11  22  43  67  97 129 174 226 275 340 407
#     4  10  21  39  64  96 137 180 236 287 344 422
#     4  11  25  41  68  97 143 180 228 287 364 418
#     4  12  26  48  74 105 139 186 238 301 353 430
#     4  11  22  41  66  93 130 173 221 278 339 399
#     4   9  19  38  60  90 128 174 227 283 335 404
#     4  12  28  49  72 107 149 187 236 300 365 436
#     4  10  22  37  66  97 127 186 227 284 343 427
#
# _framework density 22.870180999999999
#
# number of rings (size 3 to 8) (size 9 to 14) (size 15 to 20)
#    0.000    1.250    3.750    1.125    5.250    2.000 
#    0.000    0.000    0.000    0.000    0.000    0.000 
#    0.000    0.000    0.000    0.000    0.000    0.000 
#
# Total GULP energy -178180.836472 kJ/mol
# GULP energy per Si atom -5568.151140 kJ/mol
# Density = 2.281813 g / cm^3
# Si number density = 22.870181 Si / 1000 Ang^3
#
#
#
# Elastic Constant Matrix: (Units=GPa)
#
#
# Indices 1 2 3 4 5 6 
#
# 1 59.8241 33.4885 13.5588 0.0000 0.0000 0.0000
# 2 33.4885 100.3668 22.8599 0.0000 0.0000 0.0000
# 3 13.5588 22.8599 88.9046 0.0000 0.0000 0.0000
# 4 0.0000 0.0000 0.0000 24.4198 0.0000 0.0000
# 5 0.0000 0.0000 0.0000 0.0000 18.6125 0.0000
# 6 0.0000 0.0000 0.0000 0.0000 0.0000 31.7135
#
#
#
# Elastic Compliance Matrix: (Units=1/GPa)
#
#
# Indices 1 2 3 4 5 6 
#
# 1 0.020734 -0.006583 -0.001469 0.000000 0.000000 0.000000
# 2 -0.006583 0.012674 -0.002255 0.000000 0.000000 0.000000
# 3 -0.001469 -0.002255 0.012052 0.000000 0.000000 0.000000
# 4 0.000000 0.000000 0.000000 0.040950 0.000000 0.000000
# 5 0.000000 0.000000 0.000000 0.000000 0.053727 0.000000
# 6 0.000000 0.000000 0.000000 0.000000 0.000000 0.031532
#
#
# Mechanical properties :
#
#
# Convention : Reuss Voigt Hill
#
# Bulk Modulus (GPa) = 40.25043 43.21221 41.73132
# Shear Modulus (GPa) = 24.92945 26.89505 25.91225
#
# Velocity S-wave (km/s) = 3.30516 3.43299 3.36968
# Velocity P-wave (km/s) = 5.67478 5.88638 5.78155
#
# Compressibility (1/GPa) = 0.02484446
#
# Stress axis : x y z
#
# Youngs Moduli (GPa) = 48.23000 78.90393 82.97484
#
# Poissons Ratio (x) = 0.51946 0.12192
# Poissons Ratio (y) = 0.31752 0.18708
# Poissons Ratio (z) = 0.07087 0.17791
#
# Static dielectric constant tensor:
#      x y z
#    x 1.933940 0.000000 0.000000 
#    y 0.000000 2.019390 0.000000 
#    z 0.000000 0.000000 1.922760 
# 
# From -- ./inp_files/1924.got.cif
#   From: 2010.05.17/outbox.cif.g08.bks.cpg/sg28_1_cif.got.tgz:1924.got - 2010.06.04 01:15:21.
