data_PCOD9339613
_publ_section_title
;
Structure prediction by ZEFSAII (Michael W. Deem and Ramdas Pophale) SiO2 
 PCOD9339613
Probable space group: P M A 2
;
_chemical_formula_sum "Si O2"
_cell_formula_units_Z 24
_cell_length_a 8.601963
_cell_length_b 9.503987
_cell_length_c 15.911518
_cell_angle_alpha 90.000000
_cell_angle_beta 90.000000
_cell_angle_gamma 90.000000
_cell_volume 1300.813448
_symmetry_space_group_name_H-M "P M A 2"
_symmetry_group_IT_number 28
_symmetry_cell_setting 'orthorhombic'
loop_
_space_group_symop_operation_xyz
x,y,z
-x,-y,z
1/2-x,y,z
1/2+x,-y,z
loop_
_atom_site_type_symbol
_atom_site_label
_atom_site_fract_x
_atom_site_fract_y
_atom_site_fract_z
Si Si1 0.936819 0.657518 0.251970
Si Si2 0.437575 0.156617 0.094796
Si Si3 0.936942 0.658086 0.747575
Si Si4 0.062384 0.157569 0.906069
Si Si5 0.563234 0.158429 0.593147
Si Si6 0.563597 0.341625 0.431098
O O1 0.750000 0.655585 0.254518
O O2 0.989735 0.746454 0.171541
O O3 0.000000 0.500000 0.243489
O O4 0.998985 0.710864 0.341657
O O5 0.250000 0.154324 0.095901
O O6 0.500000 0.000000 0.107118
O O7 0.486102 0.201517 0.000536
O O8 0.750000 0.654464 0.745340
O O9 0.987526 0.734678 0.833992
O O10 0.000000 0.500000 0.742146
O O11 0.997589 0.752096 0.670734
O O12 0.250000 0.150819 0.904404
O O13 0.000000 0.000000 0.890368
O O14 0.750000 0.155203 0.598352
O O15 0.519107 0.239723 0.507399
O O16 0.500000 0.000000 0.594467
O O17 0.500000 0.500000 0.444994
O O18 0.750000 0.349645 0.426654
#
# Coordination Sequence:
#
# PCOD9339613 Si02
#       6
#     4   4   4   4   4   4
#     4  10  20  34  54  79 108 142 179 221 267 317
#     4   9  19  35  54  78 108 142 180 221 267 318
#     4  11  23  38  58  83 112 145 182 225 271 323
#     4   9  19  36  56  79 108 142 180 222 268 319
#     4  11  24  40  59  83 111 144 181 223 272 325
#     4  10  21  37  57  80 107 141 180 222 269 320
#
# _framework density 18.449992999999999
#
# number of rings (size 3 to 8) (size 9 to 14) (size 15 to 20)
#    0.000    2.000    0.000    4.000    0.000    9.333 
#    0.000    3.333    0.000    0.000    0.000    0.000 
#    0.000    0.000    0.000    0.000    0.000    0.000 
#
# Total GULP energy -134020.385188 kJ/mol
# GULP energy per Si atom -5584.182716 kJ/mol
# Density = 1.840800 g / cm^3
# Si number density = 18.449993 Si / 1000 Ang^3
#
#
#
# Elastic Constant Matrix: (Units=GPa)
#
#
# Indices 1 2 3 4 5 6 
#
# 1 38.1493 34.3085 50.3496 0.0000 0.0000 0.0000
# 2 34.3085 127.8733 124.5511 0.0000 0.0000 0.0000
# 3 50.3496 124.5511 211.0898 0.0000 0.0000 0.0000
# 4 0.0000 0.0000 0.0000 42.3251 0.0000 0.0000
# 5 0.0000 0.0000 0.0000 0.0000 -42.7856 0.0000
# 6 0.0000 0.0000 0.0000 0.0000 0.0000 32.0545
#
#
#
# Elastic Compliance Matrix: (Units=1/GPa)
#
#
# Indices 1 2 3 4 5 6 
#
# 1 0.038834 -0.003285 -0.007324 0.000000 0.000000 0.000000
# 2 -0.003285 0.018666 -0.010230 0.000000 0.000000 0.000000
# 3 -0.007324 -0.010230 0.012520 0.000000 0.000000 0.000000
# 4 0.000000 0.000000 0.000000 0.023627 0.000000 0.000000
# 5 0.000000 0.000000 0.000000 0.000000 -0.023372 0.000000
# 6 0.000000 0.000000 0.000000 0.000000 0.000000 0.031197
#
#
# Mechanical properties :
#
#
# Convention : Reuss Voigt Hill
#
# Bulk Modulus (GPa) = 35.28424 88.39232 61.83828
# Shear Modulus (GPa) = 32.76595 17.51236 25.13916
#
# Velocity S-wave (km/s) = 4.21875 3.08422 3.69529
# Velocity P-wave (km/s) = 6.54953 7.79079 7.19697
#
# Compressibility (1/GPa) = 0.02834126
#
# Stress axis : x y z
#
# Youngs Moduli (GPa) = 25.75071 53.57375 79.86907
#
# Poissons Ratio (x) = 0.17599 0.58500
# Poissons Ratio (y) = 0.08459 0.81706
# Poissons Ratio (z) = 0.18861 0.54806
#
# Static dielectric constant tensor:
#      x y z
#    x 1.627090 0.000000 0.000000 
#    y 0.000000 1.590500 0.000000 
#    z 0.000000 0.000000 1.652100 
# 
# From -- ./inp_files/6026.got.cif
#   From: 2010.05.17/outbox.cif.g08.bks.cpg/sg28_4_cif.got.tgz:6026.got - 2010.06.04 01:15:21.
