data_PCOD9339716
_publ_section_title
;
Structure prediction by ZEFSAII (Michael W. Deem and Ramdas Pophale) SiO2 
 PCOD9339716
Probable space group: P M A 2
;
_chemical_formula_sum "Si O2"
_cell_formula_units_Z 32
_cell_length_a 14.107009
_cell_length_b 9.541238
_cell_length_c 11.713972
_cell_angle_alpha 90.000000
_cell_angle_beta 90.000000
_cell_angle_gamma 90.000000
_cell_volume 1576.681073
_symmetry_space_group_name_H-M "P M A 2"
_symmetry_group_IT_number 28
_symmetry_cell_setting 'orthorhombic'
loop_
_space_group_symop_operation_xyz
x,y,z
-x,-y,z
1/2-x,y,z
1/2+x,-y,z
loop_
_atom_site_type_symbol
_atom_site_label
_atom_site_fract_x
_atom_site_fract_y
_atom_site_fract_z
Si Si1 0.527601 0.355731 0.273980
Si Si2 0.362540 0.139201 0.742510
Si Si3 0.973008 0.352925 0.743869
Si Si4 0.134876 0.647486 0.507217
Si Si5 0.143771 0.154355 0.313827
Si Si6 0.597705 0.085226 0.142436
Si Si7 0.641607 0.117322 0.883553
Si Si8 0.636973 0.026719 0.517158
O O1 0.500000 0.500000 0.210656
O O2 0.583693 0.400967 0.390184
O O3 0.426922 0.279387 0.290138
O O4 0.585744 0.231253 0.211263
O O5 0.250000 0.173222 0.742966
O O6 0.428318 0.271974 0.722270
O O7 0.384422 0.032207 0.640277
O O8 0.387356 0.042566 0.851147
O O9 0.914588 0.392403 0.627932
O O10 0.915136 0.241077 0.820551
O O11 0.000000 0.500000 0.801970
O O12 0.250000 0.623956 0.507882
O O13 0.113585 0.813294 0.503733
O O14 0.250000 0.206171 0.336701
O O15 0.098355 0.075386 0.421868
O O16 0.149559 0.031961 0.218813
O O17 0.500000 0.000000 0.122340
O O18 0.637930 0.124439 0.019528
O O19 0.750000 0.129486 0.841579
O O20 0.750000 0.019155 0.502389
#
# Coordination Sequence:
#
# PCOD9339716 Si02
#       8
#     4   4   4   4   4   4   4   4
#     4  11  24  39  59  91 126 164 197 241 299 365
#     4  10  21  38  62  90 119 155 202 253 300 351
#     4  12  25  39  60  90 126 164 196 241 299 367
#     4  11  22  38  61  90 124 161 202 245 295 355
#     4  10  20  37  61  90 120 156 202 253 300 350
#     4  10  21  38  63  89 118 156 202 253 298 351
#     4  11  23  41  65  90 116 153 204 256 302 351
#     4   9  17  32  59  88 112 145 197 247 290 341
#
# _framework density 20.295795999999999
#
# number of rings (size 3 to 8) (size 9 to 14) (size 15 to 20)
#    0.000    1.500    2.500    3.000    0.000    3.500 
#    0.000    1.250    0.000    0.000    0.000    0.000 
#    0.000    0.000    0.000    0.000    0.000    0.000 
#
# Total GULP energy -178432.074492 kJ/mol
# GULP energy per Si atom -5576.002328 kJ/mol
# Density = 2.024960 g / cm^3
# Si number density = 20.295796 Si / 1000 Ang^3
#
#
#
# Elastic Constant Matrix: (Units=GPa)
#
#
# Indices 1 2 3 4 5 6 
#
# 1 112.4471 24.1622 15.8261 0.0000 0.0000 0.0000
# 2 24.1622 97.0541 7.5941 0.0000 0.0000 0.0000
# 3 15.8261 7.5941 78.0485 0.0000 0.0000 0.0000
# 4 0.0000 0.0000 0.0000 7.4361 0.0000 0.0000
# 5 0.0000 0.0000 0.0000 0.0000 24.2820 0.0000
# 6 0.0000 0.0000 0.0000 0.0000 0.0000 16.9572
#
#
#
# Elastic Compliance Matrix: (Units=1/GPa)
#
#
# Indices 1 2 3 4 5 6 
#
# 1 0.009622 -0.002260 -0.001731 0.000000 0.000000 0.000000
# 2 -0.002260 0.010913 -0.000604 0.000000 0.000000 0.000000
# 3 -0.001731 -0.000604 0.013222 0.000000 0.000000 0.000000
# 4 0.000000 0.000000 0.000000 0.134479 0.000000 0.000000
# 5 0.000000 0.000000 0.000000 0.000000 0.041183 0.000000
# 6 0.000000 0.000000 0.000000 0.000000 0.000000 0.058972
#
#
# Mechanical properties :
#
#
# Convention : Reuss Voigt Hill
#
# Bulk Modulus (GPa) = 40.70293 42.52386 41.61340
# Shear Modulus (GPa) = 17.49653 25.73289 21.61471
#
# Velocity S-wave (km/s) = 2.93930 3.56461 3.26695
# Velocity P-wave (km/s) = 5.62296 6.15950 5.89734
#
# Compressibility (1/GPa) = 0.02456825
#
# Stress axis : x y z
#
# Youngs Moduli (GPa) = 103.92449 91.63031 75.62968
#
# Poissons Ratio (x) = 0.20709 0.13093
# Poissons Ratio (y) = 0.23488 0.04565
# Poissons Ratio (z) = 0.17992 0.05531
#
# Static dielectric constant tensor:
#      x y z
#    x 1.760470 0.000000 0.000000 
#    y 0.000000 1.680920 0.000000 
#    z 0.000000 0.000000 1.744330 
# 
# From -- ./inp_files/5557.got.cif
#   From: 2010.05.17/outbox.cif.g08.bks.cpg/sg28_3_cif.got.tgz:5557.got - 2010.06.04 01:15:21.
