data_PCOD9339867
_publ_section_title
;
Structure prediction by ZEFSAII (Michael W. Deem and Ramdas Pophale) SiO2 
 PCOD9339867
Probable space group: P M A 2
;
_chemical_formula_sum "Si O2"
_cell_formula_units_Z 20
_cell_length_a 28.781322
_cell_length_b 5.091630
_cell_length_c 5.468006
_cell_angle_alpha 90.000000
_cell_angle_beta 90.000000
_cell_angle_gamma 90.000000
_cell_volume 801.302610
_symmetry_space_group_name_H-M "P M A 2"
_symmetry_group_IT_number 28
_symmetry_cell_setting 'orthorhombic'
loop_
_space_group_symop_operation_xyz
x,y,z
-x,-y,z
1/2-x,y,z
1/2+x,-y,z
loop_
_atom_site_type_symbol
_atom_site_label
_atom_site_fract_x
_atom_site_fract_y
_atom_site_fract_z
Si Si1 0.826553 0.911755 0.473940
Si Si2 0.572752 0.912348 0.722236
Si Si3 0.376090 0.765583 0.099070
Si Si4 0.700096 0.418003 0.745363
Si Si5 0.952289 0.416401 0.455836
O O1 0.877253 0.907160 0.593926
O O2 0.837301 0.038227 0.212000
O O3 0.799576 0.131728 0.625582
O O4 0.805619 0.628871 0.526812
O O5 0.544758 0.129570 0.571072
O O6 0.446796 0.375869 0.678501
O O7 0.584829 0.044225 0.980340
O O8 0.405702 0.591572 0.290227
O O9 0.345966 0.585077 0.915378
O O10 0.750000 0.468943 0.869919
O O11 0.000000 0.500000 0.324094
#
# Coordination Sequence:
#
# PCOD9339867 Si02
#       5
#     4   4   4   4   4
#     4  10  22  42  65  93 133 176 224 283 340 401
#     4  10  22  42  67  95 133 178 226 283 342 403
#     4  10  24  46  73  98 136 188 230 278 350 412
#     4  11  24  41  66 103 139 177 231 284 336 406
#     4  11  24  43  68 103 141 179 231 286 338 406
#
# _framework density 24.95936
#
# number of rings (size 3 to 8) (size 9 to 14) (size 15 to 20)
#    0.000    1.600    0.000    4.800    0.000   16.800 
#    0.000    8.000    0.000    1.200    0.000    0.000 
#    0.000    0.000    0.000    0.000    0.000    0.000 
#
# Total GULP energy -111741.643753 kJ/mol
# GULP energy per Si atom -5587.082188 kJ/mol
# Density = 2.490255 g / cm^3
# Si number density = 24.959360 Si / 1000 Ang^3
#
#
#
# Elastic Constant Matrix: (Units=GPa)
#
#
# Indices 1 2 3 4 5 6 
#
# 1 141.9815 50.1491 23.8596 0.0000 0.0000 0.0000
# 2 50.1491 138.5562 27.3024 0.0000 0.0000 0.0000
# 3 23.8596 27.3024 75.5313 0.0000 0.0000 0.0000
# 4 0.0000 0.0000 0.0000 38.5450 0.0000 0.0000
# 5 0.0000 0.0000 0.0000 0.0000 27.6334 0.0000
# 6 0.0000 0.0000 0.0000 0.0000 0.0000 -41.8691
#
#
#
# Elastic Compliance Matrix: (Units=1/GPa)
#
#
# Indices 1 2 3 4 5 6 
#
# 1 0.008261 -0.002666 -0.001646 0.000000 0.000000 0.000000
# 2 -0.002666 0.008631 -0.002278 0.000000 0.000000 0.000000
# 3 -0.001646 -0.002278 0.014583 0.000000 0.000000 0.000000
# 4 0.000000 0.000000 0.000000 0.025944 0.000000 0.000000
# 5 0.000000 0.000000 0.000000 0.000000 0.036188 0.000000
# 6 0.000000 0.000000 0.000000 0.000000 0.000000 -0.023884
#
#
# Mechanical properties :
#
#
# Convention : Reuss Voigt Hill
#
# Bulk Modulus (GPa) = 54.65682 62.07682 58.36682
# Shear Modulus (GPa) = 56.17926 21.84574 39.01250
#
# Velocity S-wave (km/s) = 4.74944 2.96168 3.95782
# Velocity P-wave (km/s) = 7.21263 6.05149 6.65742
#
# Compressibility (1/GPa) = 0.01829598
#
# Stress axis : x y z
#
# Youngs Moduli (GPa) = 121.04544 115.86194 68.57365
#
# Poissons Ratio (x) = 0.30886 0.11288
# Poissons Ratio (y) = 0.32268 0.15619
# Poissons Ratio (z) = 0.19925 0.26390
#
# Static dielectric constant tensor:
#      x y z
#    x 1.824270 0.000000 0.000000 
#    y 0.000000 1.931120 0.000000 
#    z 0.000000 0.000000 2.056060 
# 
# From -- ./inp_files/1664.got.cif
#   From: 2010.05.17/outbox.cif.g08.bks.cpg/sg28_1_cif.got.tgz:1664.got - 2010.06.04 01:15:21.
