data_PCOD9339223
_publ_section_title
;
Structure prediction by ZEFSAII (Michael W. Deem and Ramdas Pophale) SiO2 
 PCOD9339223
Probable space group: P C C 2
;
_chemical_formula_sum "Si O2"
_cell_formula_units_Z 20
_cell_length_a 6.756211
_cell_length_b 11.262852
_cell_length_c 11.635341
_cell_angle_alpha 90.000000
_cell_angle_beta 90.000000
_cell_angle_gamma 90.000000
_cell_volume 885.382018
_symmetry_space_group_name_H-M "P C C 2"
_symmetry_group_IT_number 27
_symmetry_cell_setting 'orthorhombic'
loop_
_space_group_symop_operation_xyz
x,y,z
-x,-y,z
-x,y,1/2+z
x,-y,1/2+z
loop_
_atom_site_type_symbol
_atom_site_label
_atom_site_fract_x
_atom_site_fract_y
_atom_site_fract_z
Si Si1 0.584287 0.214670 0.033210
Si Si2 0.084287 0.714670 0.217698
Si Si3 0.832596 0.082726 0.838101
Si Si4 0.332595 0.582725 0.412807
Si Si5 0.000000 0.500000 0.569946
Si Si6 0.500000 0.000000 0.180962
O O1 0.749997 0.250001 0.125455
O O2 0.466143 0.112125 0.099262
O O3 0.696380 0.154819 0.925908
O O4 0.446979 0.321431 0.991157
O O5 0.196375 0.654818 0.325001
O O6 0.966142 0.612126 0.151645
O O7 0.946982 0.821432 0.259750
O O8 0.690881 0.997803 0.763019
O O9 0.000000 0.000000 0.895699
O O10 0.500000 0.500000 0.355209
O O11 0.190882 0.497802 0.487890
#
# Coordination Sequence:
#
# PCOD9339223 Si02
#       6
#     4   4   4   4   2   2
#     4  12  27  47  78 106 151 197 244 312 371 437
#     4  12  27  47  78 106 151 197 244 312 371 437
#     4  12  28  49  74 114 149 194 255 303 369 453
#     4  12  28  49  74 114 149 194 255 303 369 453
#     4  12  26  50  78 108 146 200 242 314 376 436
#     4  12  26  50  78 108 146 200 242 314 376 436
#
# _framework density 22.589119
#
# number of rings (size 3 to 8) (size 9 to 14) (size 15 to 20)
#    0.000    0.000    4.000    4.800   11.200    0.000 
#    0.000    0.000    0.000    0.000    0.000    0.000 
#    0.000    0.000    0.000    0.000    0.000    0.000 
#
# Total GULP energy -111968.109581 kJ/mol
# GULP energy per Si atom -5598.405479 kJ/mol
# Density = 2.253771 g / cm^3
# Si number density = 22.589119 Si / 1000 Ang^3
#
#
#
# Elastic Constant Matrix: (Units=GPa)
#
#
# Indices 1 2 3 4 5 6 
#
# 1 99.1579 19.4056 31.6217 0.0000 0.0000 0.0000
# 2 19.4056 57.5979 7.7253 0.0000 0.0000 0.0000
# 3 31.6217 7.7253 78.5225 0.0000 0.0000 0.0000
# 4 0.0000 0.0000 0.0000 31.6946 0.0000 0.0000
# 5 0.0000 0.0000 0.0000 0.0000 23.8583 0.0000
# 6 0.0000 0.0000 0.0000 0.0000 0.0000 58.7439
#
#
#
# Elastic Compliance Matrix: (Units=1/GPa)
#
#
# Indices 1 2 3 4 5 6 
#
# 1 0.012232 -0.003507 -0.004581 0.000000 0.000000 0.000000
# 2 -0.003507 0.018599 -0.000418 0.000000 0.000000 0.000000
# 3 -0.004581 -0.000418 0.014621 0.000000 0.000000 0.000000
# 4 0.000000 0.000000 0.000000 0.031551 0.000000 0.000000
# 5 0.000000 0.000000 0.000000 0.000000 0.041914 0.000000
# 6 0.000000 0.000000 0.000000 0.000000 0.000000 0.017023
#
#
# Mechanical properties :
#
#
# Convention : Reuss Voigt Hill
#
# Bulk Modulus (GPa) = 35.15965 39.19816 37.17890
# Shear Modulus (GPa) = 30.78210 34.62774 32.70492
#
# Velocity S-wave (km/s) = 3.69548 3.91952 3.80915
# Velocity P-wave (km/s) = 5.81441 6.15418 5.98670
#
# Compressibility (1/GPa) = 0.02844170
#
# Stress axis : x y z
#
# Youngs Moduli (GPa) = 81.75215 53.76558 68.39433
#
# Poissons Ratio (x) = 0.18854 0.31331
# Poissons Ratio (y) = 0.28669 0.02856
# Poissons Ratio (z) = 0.37450 0.02245
#
# Static dielectric constant tensor:
#      x y z
#    x 1.824700 0.000000 0.000000 
#    y 0.000000 1.870790 0.000000 
#    z 0.000000 0.000000 1.797810 
# 
# From -- ./inp_files/1917.got.cif
#   From: 2010.05.17/outbox.cif.g08.bks.cpg/sg27_1_cif.got.tgz:1917.got - 2010.06.04 01:11:05.
