data_PCOD9339539
_publ_section_title
;
Structure prediction by ZEFSAII (Michael W. Deem and Ramdas Pophale) SiO2 
 PCOD9339539
Probable space group: P M A 2
;
_chemical_formula_sum "Si O2"
_cell_formula_units_Z 24
_cell_length_a 8.826064
_cell_length_b 14.460102
_cell_length_c 10.437889
_cell_angle_alpha 90.000000
_cell_angle_beta 90.000000
_cell_angle_gamma 90.000000
_cell_volume 1332.143785
_symmetry_space_group_name_H-M "P M A 2"
_symmetry_group_IT_number 28
_symmetry_cell_setting 'orthorhombic'
loop_
_space_group_symop_operation_xyz
x,y,z
-x,-y,z
1/2-x,y,z
1/2+x,-y,z
loop_
_atom_site_type_symbol
_atom_site_label
_atom_site_fract_x
_atom_site_fract_y
_atom_site_fract_z
Si Si1 0.930664 0.898784 0.268540
Si Si2 0.067209 0.794312 0.025389
Si Si3 0.431299 0.216184 0.525400
Si Si4 0.568226 0.400590 0.424362
Si Si5 0.432309 0.896892 0.761848
Si Si6 0.931686 0.401687 0.123703
O O1 0.750000 0.905343 0.256277
O O2 0.966062 0.838622 0.394086
O O3 0.998190 0.850479 0.143320
O O4 0.000000 0.000000 0.283048
O O5 0.250000 0.796756 0.036241
O O6 0.019708 0.687187 0.041621
O O7 0.025894 0.842500 0.892080
O O8 0.250000 0.220579 0.540161
O O9 0.499678 0.318087 0.507536
O O10 0.503851 0.160338 0.642196
O O11 0.500000 0.500000 0.460051
O O12 0.750000 0.401642 0.433964
O O13 0.527571 0.385104 0.273631
O O14 0.250000 0.902410 0.754216
O O15 0.500000 0.000000 0.763278
O O16 0.750000 0.408565 0.117916
O O17 0.000000 0.500000 0.084349
#
# Coordination Sequence:
#
# PCOD9339539 Si02
#       6
#     4   4   4   4   4   4
#     4  11  23  36  56  84 113 146 189 242 293 346
#     4  10  21  39  60  85 116 152 194 239 291 349
#     4  11  23  39  59  86 117 153 199 242 290 350
#     4  10  19  34  59  88 121 155 191 240 294 347
#     4  11  24  41  61  83 115 157 199 242 295 354
#     4   9  18  33  56  86 118 151 186 233 287 342
#
# _framework density 18.016074
#
# number of rings (size 3 to 8) (size 9 to 14) (size 15 to 20)
#    0.000    1.667    1.667    3.000    0.000    7.333 
#    0.000    0.833    0.000    2.000    0.000    0.000 
#    0.000    0.000    0.000    0.000    0.000    0.000 
#
# Total GULP energy -134091.654500 kJ/mol
# GULP energy per Si atom -5587.152271 kJ/mol
# Density = 1.797507 g / cm^3
# Si number density = 18.016074 Si / 1000 Ang^3
#
#
#
# Elastic Constant Matrix: (Units=GPa)
#
#
# Indices 1 2 3 4 5 6 
#
# 1 40.9246 61.5439 61.3475 0.0000 0.0000 0.0000
# 2 61.5439 204.1629 94.2194 0.0000 0.0000 0.0000
# 3 61.3475 94.2194 136.2298 0.0000 0.0000 0.0000
# 4 0.0000 0.0000 0.0000 30.3155 0.0000 0.0000
# 5 0.0000 0.0000 0.0000 0.0000 20.5484 0.0000
# 6 0.0000 0.0000 0.0000 0.0000 0.0000 36.4487
#
#
#
# Elastic Compliance Matrix: (Units=1/GPa)
#
#
# Indices 1 2 3 4 5 6 
#
# 1 0.093723 -0.012888 -0.033292 0.000000 0.000000 0.000000
# 2 -0.012888 0.008967 -0.000398 0.000000 0.000000 0.000000
# 3 -0.033292 -0.000398 0.022607 0.000000 0.000000 0.000000
# 4 0.000000 0.000000 0.000000 0.032986 0.000000 0.000000
# 5 0.000000 0.000000 0.000000 0.000000 0.048666 0.000000
# 6 0.000000 0.000000 0.000000 0.000000 0.000000 0.027436
#
#
# Mechanical properties :
#
#
# Convention : Reuss Voigt Hill
#
# Bulk Modulus (GPa) = 31.11235 90.61544 60.86389
# Shear Modulus (GPa) = 14.78180 28.40961 21.59571
#
# Velocity S-wave (km/s) = 2.86751 3.97533 3.46597
# Velocity P-wave (km/s) = 5.31697 8.45442 7.06213
#
# Compressibility (1/GPa) = 0.03214158
#
# Stress axis : x y z
#
# Youngs Moduli (GPa) = 10.66978 111.52384 44.23315
#
# Poissons Ratio (x) = 1.43737 1.47259
# Poissons Ratio (y) = 0.13752 0.01759
# Poissons Ratio (z) = 0.35521 0.04434
#
# Static dielectric constant tensor:
#      x y z
#    x 1.601160 0.000000 0.000000 
#    y 0.000000 1.602770 0.000000 
#    z 0.000000 0.000000 1.593810 
# 
# From -- ./inp_files/2449.got.cif
#   From: 2010.05.17/outbox.cif.g08.bks.cpg/sg28_2_cif.got.tgz:2449.got - 2010.06.04 01:15:21.
