data_PCOD9339610
_publ_section_title
;
Structure prediction by ZEFSAII (Michael W. Deem and Ramdas Pophale) SiO2 
 PCOD9339610
Probable space group: P M A 2
;
_chemical_formula_sum "Si O2"
_cell_formula_units_Z 16
_cell_length_a 5.726066
_cell_length_b 14.490134
_cell_length_c 6.966540
_cell_angle_alpha 90.000000
_cell_angle_beta 90.000000
_cell_angle_gamma 90.000000
_cell_volume 578.024020
_symmetry_space_group_name_H-M "P M A 2"
_symmetry_group_IT_number 28
_symmetry_cell_setting 'orthorhombic'
loop_
_space_group_symop_operation_xyz
x,y,z
-x,-y,z
1/2-x,y,z
1/2+x,-y,z
loop_
_atom_site_type_symbol
_atom_site_label
_atom_site_fract_x
_atom_site_fract_y
_atom_site_fract_z
Si Si1 0.750000 0.495877 0.270620
Si Si2 0.750000 0.304243 0.233355
Si Si3 0.999604 0.133145 0.347513
Si Si4 0.750000 0.383797 0.804295
Si Si5 0.500510 0.889148 0.807852
Si Si6 0.250000 0.403312 0.666891
O O1 0.500000 0.500000 0.168117
O O2 0.750000 0.394569 0.364281
O O3 0.750000 0.568958 0.442523
O O4 0.533785 0.238605 0.282624
O O5 0.750000 0.346473 0.022045
O O6 0.250000 0.099252 0.280488
O O7 0.750000 0.090759 0.285358
O O8 0.000020 0.124248 0.577647
O O9 0.493265 0.354028 0.723608
O O10 0.750000 0.495370 0.770991
O O11 0.250000 0.851888 0.879327
O O12 0.750000 0.851800 0.877894
O O13 0.500000 0.000000 0.840293
#
# Coordination Sequence:
#
# PCOD9339610 Si02
#       6
#     2   2   4   2   4   2
#     4  12  24  38  52  72  91 123 161 204 245 296
#     4  10  24  30  54  72 100 120 160 204 248 282
#     4   8  16  28  37  62  94 119 149 190 232 273
#     4  10  20  34  54  68  90 118 155 195 244 282
#     4   8  12  20  36  53  79 120 158 175 205 270
#     4  10  20  40  50  66  89 119 156 197 239 290
#
# _framework density 27.680512
#
# number of rings (size 3 to 8) (size 9 to 14) (size 15 to 20)
#    0.750    2.000    2.500    0.000    7.000    0.000 
#    0.000    0.000    0.000    0.000    0.000    0.000 
#    0.000    0.000    0.000    2.250    2.000    2.500 
#
# Total GULP energy -89322.520582 kJ/mol
# GULP energy per Si atom -5582.657536 kJ/mol
# Density = 2.761751 g / cm^3
# Si number density = 27.680512 Si / 1000 Ang^3
#
#
#
# Elastic Constant Matrix: (Units=GPa)
#
#
# Indices 1 2 3 4 5 6 
#
# 1 379.2972 41.7458 28.2313 0.0000 0.0000 0.0000
# 2 41.7458 102.9788 -2.3398 0.0000 0.0000 0.0000
# 3 28.2313 -2.3398 113.8296 0.0000 0.0000 0.0000
# 4 0.0000 0.0000 0.0000 31.5888 0.0000 0.0000
# 5 0.0000 0.0000 0.0000 0.0000 -5.1607 0.0000
# 6 0.0000 0.0000 0.0000 0.0000 0.0000 -16.9230
#
#
#
# Elastic Compliance Matrix: (Units=1/GPa)
#
#
# Indices 1 2 3 4 5 6 
#
# 1 0.002818 -0.001159 -0.000723 0.000000 0.000000 0.000000
# 2 -0.001159 0.010192 0.000497 0.000000 0.000000 0.000000
# 3 -0.000723 0.000497 0.008975 0.000000 0.000000 0.000000
# 4 0.000000 0.000000 0.000000 0.031657 0.000000 0.000000
# 5 0.000000 0.000000 0.000000 0.000000 -0.193772 0.000000
# 6 0.000000 0.000000 0.000000 0.000000 0.000000 -0.059091
#
#
# Mechanical properties :
#
#
# Convention : Reuss Voigt Hill
#
# Bulk Modulus (GPa) = 52.04261 81.26448 66.65354
# Shear Modulus (GPa) = -26.30916 37.13223 5.41154
#
# Velocity S-wave (km/s) = -3.08629 3.66656 1.39973
# Velocity P-wave (km/s) = 2.47825 6.88089 5.17148
#
# Compressibility (1/GPa) = 0.01921502
#
# Stress axis : x y z
#
# Youngs Moduli (GPa) = 354.89056 98.11867 111.42678
#
# Poissons Ratio (x) = 0.11369 0.08052
# Poissons Ratio (y) = 0.41121 -0.05536
# Poissons Ratio (z) = 0.25647 -0.04875
#
# Static dielectric constant tensor:
#      x y z
#    x 2.210410 0.000000 0.000000 
#    y 0.000000 2.079730 0.000000 
#    z 0.000000 0.000000 2.090540 
# 
# From -- ./inp_files/1996.got.cif
#   From: 2010.05.17/outbox.cif.g08.bks.cpg/sg28_1_cif.got.tgz:1996.got - 2010.06.04 01:15:21.
