data_PCOD9339829
_publ_section_title
;
Structure prediction by ZEFSAII (Michael W. Deem and Ramdas Pophale) SiO2 
 PCOD9339829
Probable space group: P M A 2
;
_chemical_formula_sum "Si O2"
_cell_formula_units_Z 22
_cell_length_a 14.990799
_cell_length_b 5.141234
_cell_length_c 11.795108
_cell_angle_alpha 90.000000
_cell_angle_beta 90.000000
_cell_angle_gamma 90.000000
_cell_volume 909.063193
_symmetry_space_group_name_H-M "P M A 2"
_symmetry_group_IT_number 28
_symmetry_cell_setting 'orthorhombic'
loop_
_space_group_symop_operation_xyz
x,y,z
-x,-y,z
1/2-x,y,z
1/2+x,-y,z
loop_
_atom_site_type_symbol
_atom_site_label
_atom_site_fract_x
_atom_site_fract_y
_atom_site_fract_z
Si Si1 0.847191 0.824860 0.082530
Si Si2 0.150859 0.807740 0.288349
Si Si3 0.144620 0.906370 0.852567
Si Si4 0.057870 0.738673 0.515135
Si Si5 0.358075 0.420636 0.726492
Si Si6 0.000000 0.500000 0.153540
O O1 0.750000 0.700331 0.058895
O O2 0.934846 0.660945 0.075668
O O3 0.845727 0.935770 0.210265
O O4 0.859908 0.038039 0.985443
O O5 0.250000 0.687254 0.277688
O O6 0.127133 0.837433 0.419964
O O7 0.069289 0.656994 0.231196
O O8 0.250000 0.904237 0.826063
O O9 0.109555 0.137554 0.770153
O O10 0.113469 0.620461 0.824101
O O11 0.104247 0.575592 0.617041
O O12 0.000000 0.500000 0.463291
O O13 0.000000 0.000000 0.543785
O O14 0.250000 0.403943 0.714134
#
# Coordination Sequence:
#
# PCOD9339829 Si02
#       6
#     4   4   4   4   4   2
#     4  10  23  42  67  99 137 186 229 285 353 415
#     4  11  25  45  69  97 136 185 231 287 354 424
#     4   9  20  40  67  97 134 178 233 280 338 415
#     4  12  25  45  67 101 141 179 233 294 350 418
#     4  10  21  42  68  96 132 182 231 283 342 411
#     4  12  22  42  64 102 134 168 234 286 346 418
#
# _framework density 24.200737
#
# number of rings (size 3 to 8) (size 9 to 14) (size 15 to 20)
#    0.000    1.455    0.909    3.818    2.545    0.000 
#    4.909    1.818    0.000    0.000    0.000    0.000 
#    0.000    0.000    0.000    0.000    0.000    0.000 
#
# Total GULP energy -122771.258773 kJ/mol
# GULP energy per Si atom -5580.511762 kJ/mol
# Density = 2.414566 g / cm^3
# Si number density = 24.200737 Si / 1000 Ang^3
#
#
#
# Elastic Constant Matrix: (Units=GPa)
#
#
# Indices 1 2 3 4 5 6 
#
# 1 137.7663 33.1383 12.1278 0.0000 0.0000 0.0000
# 2 33.1383 79.7423 -1.1726 0.0000 0.0000 0.0000
# 3 12.1278 -1.1726 81.1221 0.0000 0.0000 0.0000
# 4 0.0000 0.0000 0.0000 -578.7164 0.0000 0.0000
# 5 0.0000 0.0000 0.0000 0.0000 77.4455 0.0000
# 6 0.0000 0.0000 0.0000 0.0000 0.0000 33.4670
#
#
#
# Elastic Compliance Matrix: (Units=1/GPa)
#
#
# Indices 1 2 3 4 5 6 
#
# 1 0.008195 -0.003424 -0.001275 0.000000 0.000000 0.000000
# 2 -0.003424 0.013974 0.000714 0.000000 0.000000 0.000000
# 3 -0.001275 0.000714 0.012528 0.000000 0.000000 0.000000
# 4 0.000000 0.000000 0.000000 -0.001728 0.000000 0.000000
# 5 0.000000 0.000000 0.000000 0.000000 0.012912 0.000000
# 6 0.000000 0.000000 0.000000 0.000000 0.000000 0.029880
#
#
# Mechanical properties :
#
#
# Convention : Reuss Voigt Hill
#
# Bulk Modulus (GPa) = 37.41573 42.97975 40.19774
# Shear Modulus (GPa) = 53.97275 -76.59163 -11.30944
#
# Velocity S-wave (km/s) = 4.72763 -5.63180 -2.16410
# Velocity P-wave (km/s) = 6.73014 4.94887 3.22518
#
# Compressibility (1/GPa) = 0.02672672
#
# Stress axis : x y z
#
# Youngs Moduli (GPa) = 122.03289 71.56226 79.82139
#
# Poissons Ratio (x) = 0.24504 0.10174
# Poissons Ratio (y) = 0.41785 -0.05698
# Poissons Ratio (z) = 0.15554 -0.05109
#
# Static dielectric constant tensor:
#      x y z
#    x 1.949190 0.000000 0.000000 
#    y 0.000000 2.553070 0.000000 
#    z 0.000000 0.000000 1.962580 
# 
# From -- ./inp_files/5467.got.cif
#   From: 2010.05.17/outbox.cif.g08.bks.cpg/sg28_3_cif.got.tgz:5467.got - 2010.06.04 01:15:21.
