data_PCOD9339293
_publ_section_title
;
Structure prediction by ZEFSAII (Michael W. Deem and Ramdas Pophale) SiO2 
 PCOD9339293
Probable space group: P M A 2
;
_chemical_formula_sum "Si O2"
_cell_formula_units_Z 32
_cell_length_a 8.676332
_cell_length_b 14.620245
_cell_length_c 16.025536
_cell_angle_alpha 90.000000
_cell_angle_beta 90.000000
_cell_angle_gamma 90.000000
_cell_volume 2032.840837
_symmetry_space_group_name_H-M "P M A 2"
_symmetry_group_IT_number 28
_symmetry_cell_setting 'orthorhombic'
loop_
_space_group_symop_operation_xyz
x,y,z
-x,-y,z
1/2-x,y,z
1/2+x,-y,z
loop_
_atom_site_type_symbol
_atom_site_label
_atom_site_fract_x
_atom_site_fract_y
_atom_site_fract_z
Si Si1 0.563943 0.897988 0.834330
Si Si2 0.435798 0.217069 0.996821
Si Si3 0.434275 0.896472 0.334330
Si Si4 0.064202 0.217069 0.671839
Si Si5 0.564640 0.896983 0.160570
Si Si6 0.564640 0.896983 0.508090
Si Si7 0.934285 0.401442 0.931395
Si Si8 0.934285 0.401442 0.737266
O O1 0.750000 0.901862 0.834330
O O2 0.514531 0.843382 0.751610
O O3 0.500000 0.000000 0.834330
O O4 0.514531 0.843382 0.917051
O O5 0.250000 0.223432 0.994572
O O6 0.478746 0.165141 0.081702
O O7 0.504222 0.317627 0.985588
O O8 0.250000 0.897899 0.334330
O O9 0.497767 0.857773 0.247332
O O10 0.497767 0.857773 0.421328
O O11 0.500000 0.000000 0.334330
O O12 0.250000 0.223432 0.674088
O O13 0.021255 0.165141 0.586958
O O14 0.995777 0.317627 0.683072
O O15 0.750000 0.902459 0.166268
O O16 0.500000 0.000000 0.149046
O O17 0.750000 0.902459 0.502393
O O18 0.500000 0.000000 0.519614
O O19 0.750000 0.404004 0.933713
O O20 0.982968 0.386037 0.834330
O O21 0.000000 0.500000 0.956762
O O22 0.750000 0.404004 0.734948
O O23 0.000000 0.500000 0.711898
#
# Coordination Sequence:
#
# PCOD9339293 Si02
#       8
#     4   4   4   4   4   4   4   4
#     4  10  20  32  45  64  95 132 165 196 230 276
#     4  10  20  33  49  69  97 130 163 200 241 284
#     4  10  18  30  48  68  93 126 161 204 246 286
#     4  10  20  33  49  69  97 130 163 200 241 284
#     4  10  19  31  48  71  98 130 164 202 243 286
#     4  10  19  31  48  71  98 130 164 202 243 286
#     4  10  20  33  51  72  94 124 161 204 247 287
#     4  10  20  33  51  72  94 124 161 204 247 287
#
# _framework density 15.741517
#
# number of rings (size 3 to 8) (size 9 to 14) (size 15 to 20)
#    0.000    2.000    1.250    4.875    0.000    4.000 
#    0.000    0.000    0.000    0.000    0.000    0.875 
#    0.000    0.000    0.000    0.000    0.000    0.000 
#
# Total GULP energy -178553.133231 kJ/mol
# GULP energy per Si atom -5579.785413 kJ/mol
# Density = 1.570569 g / cm^3
# Si number density = 15.741517 Si / 1000 Ang^3
#
#
#
# Elastic Constant Matrix: (Units=GPa)
#
#
# Indices 1 2 3 4 5 6 
#
# 1 47.5347 34.8588 47.9939 0.0000 0.0000 0.0000
# 2 34.8588 119.5932 75.5368 0.0000 0.0000 0.0000
# 3 47.9939 75.5368 152.0181 0.0000 0.0000 0.0000
# 4 0.0000 0.0000 0.0000 8.3876 0.0000 0.0000
# 5 0.0000 0.0000 0.0000 0.0000 18.2760 0.0000
# 6 0.0000 0.0000 0.0000 0.0000 0.0000 28.6787
#
#
#
# Elastic Compliance Matrix: (Units=1/GPa)
#
#
# Indices 1 2 3 4 5 6 
#
# 1 0.032357 -0.004342 -0.008058 0.000000 0.000000 0.000000
# 2 -0.004342 0.012769 -0.004974 0.000000 0.000000 0.000000
# 3 -0.008058 -0.004974 0.011594 0.000000 0.000000 0.000000
# 4 0.000000 0.000000 0.000000 0.119223 0.000000 0.000000
# 5 0.000000 0.000000 0.000000 0.000000 0.054717 0.000000
# 6 0.000000 0.000000 0.000000 0.000000 0.000000 0.034869
#
#
# Mechanical properties :
#
#
# Convention : Reuss Voigt Hill
#
# Bulk Modulus (GPa) = 45.51254 70.65834 58.08544
# Shear Modulus (GPa) = 16.25483 21.78556 19.02019
#
# Velocity S-wave (km/s) = 3.21691 3.72419 3.47981
# Velocity P-wave (km/s) = 6.54012 7.96724 7.28869
#
# Compressibility (1/GPa) = 0.02197197
#
# Stress axis : x y z
#
# Youngs Moduli (GPa) = 30.90502 78.31541 86.25314
#
# Poissons Ratio (x) = 0.34003 0.69504
# Poissons Ratio (y) = 0.13418 0.42903
# Poissons Ratio (z) = 0.24904 0.38954
#
# Static dielectric constant tensor:
#      x y z
#    x 1.528720 0.000000 0.000000 
#    y 0.000000 1.495210 0.000000 
#    z 0.000000 0.000000 1.547380 
# 
# From -- ./inp_files/6418.got.cif
#   From: 2010.05.17/outbox.cif.g08.bks.cpg/sg28_4_cif.got.tgz:6418.got - 2010.06.04 01:15:21.
