data_PCOD9339570
_publ_section_title
;
Structure prediction by ZEFSAII (Michael W. Deem and Ramdas Pophale) SiO2 
 PCOD9339570
Probable space group: P M A 2
;
_chemical_formula_sum "Si O2"
_cell_formula_units_Z 32
_cell_length_a 18.836776
_cell_length_b 8.530616
_cell_length_c 10.936894
_cell_angle_alpha 90.000000
_cell_angle_beta 90.000000
_cell_angle_gamma 90.000000
_cell_volume 1757.441871
_symmetry_space_group_name_H-M "P M A 2"
_symmetry_group_IT_number 28
_symmetry_cell_setting 'orthorhombic'
loop_
_space_group_symop_operation_xyz
x,y,z
-x,-y,z
1/2-x,y,z
1/2+x,-y,z
loop_
_atom_site_type_symbol
_atom_site_label
_atom_site_fract_x
_atom_site_fract_y
_atom_site_fract_z
Si Si1 0.666171 0.857779 0.813990
Si Si2 0.926631 0.584116 0.416256
Si Si3 0.169135 0.515530 0.211554
Si Si4 0.954581 0.341161 0.054310
Si Si5 0.827168 0.839845 0.105211
Si Si6 0.057870 0.874020 0.819868
Si Si7 0.543071 0.652404 0.695629
Si Si8 0.453895 0.136639 0.245669
O O1 0.750000 0.848663 0.776400
O O2 0.612483 0.723736 0.763115
O O3 0.627923 0.025770 0.787285
O O4 0.664642 0.840198 0.960428
O O5 0.862877 0.494328 0.348667
O O6 0.930010 0.605134 0.560970
O O7 0.927877 0.752507 0.352938
O O8 0.000000 0.500000 0.378899
O O9 0.250000 0.569881 0.210089
O O10 0.116055 0.613315 0.127715
O O11 0.167823 0.338565 0.155128
O O12 0.000000 0.500000 0.031018
O O13 0.002782 0.235560 0.144405
O O14 0.935085 0.249923 0.930050
O O15 0.750000 0.902409 0.136671
O O16 0.888303 0.934327 0.171322
O O17 0.017480 0.787291 0.707882
O O18 0.000000 0.000000 0.866337
O O19 0.500000 0.500000 0.743566
O O20 0.500000 0.000000 0.299456
#
# Coordination Sequence:
#
# PCOD9339570 Si02
#       8
#     4   4   4   4   4   4   4   4
#     4  10  21  39  57  81 122 158 187 236 300 361
#     4  10  19  39  57  80 108 144 193 246 285 327
#     4  10  20  33  55  83 114 145 185 236 289 345
#     4  12  19  32  56  81 118 147 190 240 290 345
#     4   9  18  33  51  77 111 144 179 226 279 340
#     4  10  22  35  55  86 116 150 196 243 291 351
#     4  10  22  37  62  86 111 149 205 251 288 341
#     4  11  19  31  54  81 107 148 186 233 285 343
#
# _framework density 18.208283000000002
#
# number of rings (size 3 to 8) (size 9 to 14) (size 15 to 20)
#    0.000    1.750    3.750    3.000    1.750    2.500 
#    0.000    1.250    0.000    0.750    0.000    0.000 
#    0.000    0.000    0.000    0.000    0.000    0.000 
#
# Total GULP energy -178295.171288 kJ/mol
# GULP energy per Si atom -5571.724103 kJ/mol
# Density = 1.816684 g / cm^3
# Si number density = 18.208283 Si / 1000 Ang^3
#
#
#
# Elastic Constant Matrix: (Units=GPa)
#
#
# Indices 1 2 3 4 5 6 
#
# 1 153.5401 38.8021 34.0486 0.0000 0.0000 0.0000
# 2 38.8021 60.4174 13.1969 0.0000 0.0000 0.0000
# 3 34.0486 13.1969 53.9976 0.0000 0.0000 0.0000
# 4 0.0000 0.0000 0.0000 12.2121 0.0000 0.0000
# 5 0.0000 0.0000 0.0000 0.0000 19.7241 0.0000
# 6 0.0000 0.0000 0.0000 0.0000 0.0000 14.7910
#
#
#
# Elastic Compliance Matrix: (Units=1/GPa)
#
#
# Indices 1 2 3 4 5 6 
#
# 1 0.008634 -0.004601 -0.004319 0.000000 0.000000 0.000000
# 2 -0.004601 0.019937 -0.001971 0.000000 0.000000 0.000000
# 3 -0.004319 -0.001971 0.021725 0.000000 0.000000 0.000000
# 4 0.000000 0.000000 0.000000 0.081886 0.000000 0.000000
# 5 0.000000 0.000000 0.000000 0.000000 0.050699 0.000000
# 6 0.000000 0.000000 0.000000 0.000000 0.000000 0.067609
#
#
# Mechanical properties :
#
#
# Convention : Reuss Voigt Hill
#
# Bulk Modulus (GPa) = 35.07340 48.89448 41.98394
# Shear Modulus (GPa) = 17.74448 21.47260 19.60854
#
# Velocity S-wave (km/s) = 3.12513 3.43779 3.28518
# Velocity P-wave (km/s) = 5.68560 6.53215 6.12352
#
# Compressibility (1/GPa) = 0.02851163
#
# Stress axis : x y z
#
# Youngs Moduli (GPa) = 115.82569 50.15744 46.03036
#
# Poissons Ratio (x) = 0.23079 0.19883
# Poissons Ratio (y) = 0.53295 0.09074
# Poissons Ratio (z) = 0.50031 0.09887
#
# Static dielectric constant tensor:
#      x y z
#    x 1.652000 0.000000 0.000000 
#    y 0.000000 1.678500 0.000000 
#    z 0.000000 0.000000 1.615730 
# 
# From -- ./inp_files/5730.got.cif
#   From: 2010.05.17/outbox.cif.g08.bks.cpg/sg28_3_cif.got.tgz:5730.got - 2010.06.04 01:15:21.
