data_PCOD9339740
_publ_section_title
;
Structure prediction by ZEFSAII (Michael W. Deem and Ramdas Pophale) SiO2 
 PCOD9339740
Probable space group: P M A 2
;
_chemical_formula_sum "Si O2"
_cell_formula_units_Z 32
_cell_length_a 15.308642
_cell_length_b 9.463804
_cell_length_c 9.825167
_cell_angle_alpha 90.000000
_cell_angle_beta 90.000000
_cell_angle_gamma 90.000000
_cell_volume 1423.450421
_symmetry_space_group_name_H-M "P M A 2"
_symmetry_group_IT_number 28
_symmetry_cell_setting 'orthorhombic'
loop_
_space_group_symop_operation_xyz
x,y,z
-x,-y,z
1/2-x,y,z
1/2+x,-y,z
loop_
_atom_site_type_symbol
_atom_site_label
_atom_site_fract_x
_atom_site_fract_y
_atom_site_fract_z
Si Si1 0.379259 0.291011 0.349920
Si Si2 0.082096 0.705111 0.387970
Si Si3 0.844534 0.626690 0.066161
Si Si4 0.345450 0.473676 0.599499
Si Si5 0.851692 0.993703 0.461637
Si Si6 0.357246 0.193529 0.727937
Si Si7 0.014889 0.153084 0.974675
Si Si8 0.850753 0.306611 0.074495
O O1 0.481127 0.322243 0.360487
O O2 0.339258 0.376466 0.228003
O O3 0.337446 0.353471 0.484551
O O4 0.363445 0.123695 0.343703
O O5 0.110540 0.600264 0.512302
O O6 0.094305 0.865431 0.438508
O O7 0.127420 0.696556 0.237917
O O8 0.750000 0.675880 0.012766
O O9 0.860350 0.467491 0.022909
O O10 0.923324 0.733862 0.047958
O O11 0.250000 0.524683 0.644639
O O12 0.380911 0.363540 0.714379
O O13 0.750000 0.034973 0.467165
O O14 0.874470 0.906555 0.597515
O O15 0.250000 0.185326 0.748648
O O16 0.426234 0.135391 0.838998
O O17 0.000000 0.000000 0.039883
O O18 0.918307 0.218413 0.983568
O O19 0.750000 0.262571 0.058803
#
# Coordination Sequence:
#
# PCOD9339740 Si02
#       8
#     4   4   4   4   4   4   4   4
#     4  11  21  35  59  95 138 179 216 262 329 411
#     4  12  22  36  64 107 148 172 215 279 348 413
#     4  11  23  43  69  96 135 186 232 283 346 417
#     4  10  20  38  66 101 134 175 221 269 340 410
#     4  10  22  40  65  97 137 177 218 275 345 413
#     4   9  22  47  71  96 136 185 237 286 341 418
#     4  12  27  45  71  98 135 182 245 299 352 413
#     4  11  25  44  67 102 148 184 227 291 355 427
#
# _framework density 22.480585999999999
#
# number of rings (size 3 to 8) (size 9 to 14) (size 15 to 20)
#    0.000    1.250    2.500    4.500    1.750    3.000 
#    0.000    7.500    0.000    1.500    0.000    0.875 
#    0.000    0.000    0.000    0.000    0.000    0.000 
#
# Total GULP energy -178302.423253 kJ/mol
# GULP energy per Si atom -5571.950727 kJ/mol
# Density = 2.242942 g / cm^3
# Si number density = 22.480586 Si / 1000 Ang^3
#
#
#
# Elastic Constant Matrix: (Units=GPa)
#
#
# Indices 1 2 3 4 5 6 
#
# 1 142.1722 39.3231 8.1361 0.0000 0.0000 0.0000
# 2 39.3231 118.5582 -0.2910 0.0000 0.0000 0.0000
# 3 8.1361 -0.2910 26.2417 0.0000 0.0000 0.0000
# 4 0.0000 0.0000 0.0000 23.7204 0.0000 0.0000
# 5 0.0000 0.0000 0.0000 0.0000 27.1950 0.0000
# 6 0.0000 0.0000 0.0000 0.0000 0.0000 55.5460
#
#
#
# Elastic Compliance Matrix: (Units=1/GPa)
#
#
# Indices 1 2 3 4 5 6 
#
# 1 0.007902 -0.002627 -0.002479 0.000000 0.000000 0.000000
# 2 -0.002627 0.009308 0.000918 0.000000 0.000000 0.000000
# 3 -0.002479 0.000918 0.038886 0.000000 0.000000 0.000000
# 4 0.000000 0.000000 0.000000 0.042158 0.000000 0.000000
# 5 0.000000 0.000000 0.000000 0.000000 0.036771 0.000000
# 6 0.000000 0.000000 0.000000 0.000000 0.000000 0.018003
#
#
# Mechanical properties :
#
#
# Convention : Reuss Voigt Hill
#
# Bulk Modulus (GPa) = 20.95576 42.36762 31.66169
# Shear Modulus (GPa) = 28.19878 37.27920 32.73899
#
# Velocity S-wave (km/s) = 3.54554 4.07662 3.82032
# Velocity P-wave (km/s) = 5.10912 6.40669 5.79434
#
# Compressibility (1/GPa) = 0.04771957
#
# Stress axis : x y z
#
# Youngs Moduli (GPa) = 126.54676 107.43132 25.71611
#
# Poissons Ratio (x) = 0.28223 0.06375
# Poissons Ratio (y) = 0.33245 -0.02360
# Poissons Ratio (z) = 0.31373 -0.09859
#
# Static dielectric constant tensor:
#      x y z
#    x 1.823190 0.000000 0.000000 
#    y 0.000000 1.850540 0.000000 
#    z 0.000000 0.000000 1.978510 
# 
# From -- ./inp_files/5628.got.cif
#   From: 2010.05.17/outbox.cif.g08.bks.cpg/sg28_3_cif.got.tgz:5628.got - 2010.06.04 01:15:21.
