data_PCOD9339182
_publ_section_title
;
Structure prediction by ZEFSAII (Michael W. Deem and Ramdas Pophale) SiO2 
 PCOD9339182
Probable space group: P C C 2
;
_chemical_formula_sum "Si O2"
_cell_formula_units_Z 32
_cell_length_a 17.071277
_cell_length_b 6.580471
_cell_length_c 13.806884
_cell_angle_alpha 90.000000
_cell_angle_beta 90.000000
_cell_angle_gamma 90.000000
_cell_volume 1551.024525
_symmetry_space_group_name_H-M "P C C 2"
_symmetry_group_IT_number 27
_symmetry_cell_setting 'orthorhombic'
loop_
_space_group_symop_operation_xyz
x,y,z
-x,-y,z
-x,y,1/2+z
x,-y,1/2+z
loop_
_atom_site_type_symbol
_atom_site_label
_atom_site_fract_x
_atom_site_fract_y
_atom_site_fract_z
Si Si1 0.089101 0.447549 0.202600
Si Si2 0.585159 0.600595 0.025762
Si Si3 0.694602 0.214845 0.028301
Si Si4 0.085159 0.100595 0.343784
Si Si5 0.855666 0.403100 0.002393
Si Si6 0.194602 0.285155 0.841245
Si Si7 0.644334 0.903100 0.867153
Si Si8 0.410899 0.947549 0.666946
O O1 0.102313 0.222607 0.244436
O O2 0.150828 0.593091 0.256434
O O3 0.000000 0.500000 0.231691
O O4 0.099277 0.487827 0.089248
O O5 0.500000 0.500000 0.028663
O O6 0.648318 0.424217 0.013347
O O7 0.592409 0.763169 0.938359
O O8 0.602313 0.722607 0.125110
O O9 0.785371 0.264426 0.043762
O O10 0.683739 0.074352 0.934225
O O11 0.650829 0.093090 0.113112
O O12 0.092409 0.263169 0.431187
O O13 0.148318 0.924217 0.356199
O O14 0.000000 0.000000 0.340883
O O15 0.816261 0.574352 0.935321
O O16 0.285371 0.235574 0.825784
O O17 0.599277 0.012172 0.780298
O O18 0.500000 0.000000 0.637855
#
# Coordination Sequence:
#
# PCOD9339182 Si02
#       8
#     4   4   4   4   4   4   4   4
#     4  11  25  42  67 100 132 170 224 273 326 395
#     4  11  24  45  67  95 140 171 215 281 326 382
#     4  11  23  46  66  97 137 171 219 279 323 386
#     4  11  24  45  67  95 140 171 215 281 326 382
#     4  11  25  43  70  99 129 178 224 263 334 397
#     4  11  23  46  66  97 137 171 219 279 323 386
#     4  11  25  43  70  99 129 178 224 263 334 397
#     4  11  25  42  67 100 132 170 224 273 326 395
#
# _framework density 20.631523999999999
#
# number of rings (size 3 to 8) (size 9 to 14) (size 15 to 20)
#    0.000    1.000    5.000    0.750    3.500    3.000 
#    0.000    0.000    0.000    0.000    0.000    0.000 
#    0.000    0.000    0.000    0.000    0.000    0.000 
#
# Total GULP energy -178906.189589 kJ/mol
# GULP energy per Si atom -5590.818425 kJ/mol
# Density = 2.058457 g / cm^3
# Si number density = 20.631524 Si / 1000 Ang^3
#
#
#
# Elastic Constant Matrix: (Units=GPa)
#
#
# Indices 1 2 3 4 5 6 
#
# 1 60.9009 40.5387 33.8255 0.0000 0.0000 0.0000
# 2 40.5387 106.3503 31.5990 0.0000 0.0000 0.0000
# 3 33.8255 31.5990 76.1200 0.0000 0.0000 0.0000
# 4 0.0000 0.0000 0.0000 -1.6852 0.0000 0.0000
# 5 0.0000 0.0000 0.0000 0.0000 20.7958 0.0000
# 6 0.0000 0.0000 0.0000 0.0000 0.0000 40.8964
#
#
#
# Elastic Compliance Matrix: (Units=1/GPa)
#
#
# Indices 1 2 3 4 5 6 
#
# 1 0.026083 -0.007413 -0.008513 0.000000 0.000000 0.000000
# 2 -0.007413 0.012833 -0.002033 0.000000 0.000000 0.000000
# 3 -0.008513 -0.002033 0.017764 0.000000 0.000000 0.000000
# 4 0.000000 0.000000 0.000000 -0.593384 0.000000 0.000000
# 5 0.000000 0.000000 0.000000 0.000000 0.048087 0.000000
# 6 0.000000 0.000000 0.000000 0.000000 0.000000 0.024452
#
#
# Mechanical properties :
#
#
# Convention : Reuss Voigt Hill
#
# Bulk Modulus (GPa) = 48.16632 50.58862 49.37747
# Shear Modulus (GPa) = -11.86726 21.16193 4.64734
#
# Velocity S-wave (km/s) = -2.40094 3.20614 1.50248
# Velocity P-wave (km/s) = 3.96367 6.18701 5.19566
#
# Compressibility (1/GPa) = 0.02076140
#
# Stress axis : x y z
#
# Youngs Moduli (GPa) = 38.33928 77.92669 56.29319
#
# Poissons Ratio (x) = 0.57766 0.47924
# Poissons Ratio (y) = 0.28420 0.11444
# Poissons Ratio (z) = 0.32639 0.15843
#
# Static dielectric constant tensor:
#      x y z
#    x 1.718380 0.000000 0.000000 
#    y 0.000000 1.718250 0.000000 
#    z 0.000000 0.000000 1.729470 
# 
# From -- ./inp_files/3762.got.cif
#   From: 2010.05.17/outbox.cif.g08.bks.cpg/sg27_2_cif.got.tgz:3762.got - 2010.06.04 01:11:05.
