data_PCOD9339062
_publ_section_title
;
Structure prediction by ZEFSAII (Michael W. Deem and Ramdas Pophale) SiO2 
 PCOD9339062
Probable space group: P C C 2
;
_chemical_formula_sum "Si O2"
_cell_formula_units_Z 32
_cell_length_a 5.101431
_cell_length_b 8.848042
_cell_length_c 29.251464
_cell_angle_alpha 90.000000
_cell_angle_beta 90.000000
_cell_angle_gamma 90.000000
_cell_volume 1320.343097
_symmetry_space_group_name_H-M "P C C 2"
_symmetry_group_IT_number 27
_symmetry_cell_setting 'orthorhombic'
loop_
_space_group_symop_operation_xyz
x,y,z
-x,-y,z
-x,y,1/2+z
x,-y,1/2+z
loop_
_atom_site_type_symbol
_atom_site_label
_atom_site_fract_x
_atom_site_fract_y
_atom_site_fract_z
Si Si1 0.103203 0.334736 0.263670
Si Si2 0.902218 0.665566 0.156059
Si Si3 0.792687 0.631690 0.437858
Si Si4 0.409907 0.168523 0.897394
Si Si5 0.616684 0.169190 0.298500
Si Si6 0.487242 0.658572 0.034784
Si Si7 0.396923 0.829793 0.117938
Si Si8 0.130165 0.849072 0.485473
O O1 0.162685 0.346754 0.209683
O O2 0.860923 0.217432 0.267473
O O3 0.000000 0.500000 0.279326
O O4 0.363694 0.276028 0.289253
O O5 0.138244 0.782778 0.145384
O O6 0.000000 0.500000 0.140340
O O7 0.640780 0.724874 0.132134
O O8 0.575977 0.675415 0.401611
O O9 0.672856 0.615643 0.488722
O O10 0.000000 0.500000 0.428554
O O11 0.951764 0.786190 0.444147
O O12 0.259837 0.195346 0.849616
O O13 0.500000 0.000000 0.884518
O O14 0.376158 0.139049 0.952061
O O15 0.500000 0.000000 0.290361
O O16 0.500000 0.500000 0.060200
O O17 0.349970 0.786908 0.064647
O O18 0.770830 0.726754 0.021465
O O19 0.500000 0.000000 0.122815
O O20 0.000000 0.000000 0.503317
#
# Coordination Sequence:
#
# PCOD9339062 Si02
#       8
#     4   4   4   4   4   4   4   4
#     4  11  25  47  72 104 139 180 226 279 348 419
#     4  11  25  49  75 100 139 184 224 275 350 423
#     4  11  23  41  63  90 127 176 227 283 338 395
#     4  10  23  40  61  94 127 173 229 278 340 405
#     4  11  25  43  71 104 140 183 229 285 346 411
#     4  11  25  42  61  94 130 175 230 277 340 410
#     4  12  28  44  72 108 140 175 229 289 343 407
#     4  11  23  39  66  87 128 179 225 283 338 395
#
# _framework density 24.236127
#
# number of rings (size 3 to 8) (size 9 to 14) (size 15 to 20)
#    0.000    1.000    2.500    3.000    5.250    6.000 
#    2.250    0.000    0.000    0.000    0.000    0.000 
#    0.000    0.000    0.000    0.000    0.000    0.000 
#
# Total GULP energy -178303.681304 kJ/mol
# GULP energy per Si atom -5571.990041 kJ/mol
# Density = 2.418096 g / cm^3
# Si number density = 24.236127 Si / 1000 Ang^3
#
#
#
# Elastic Constant Matrix: (Units=GPa)
#
#
# Indices 1 2 3 4 5 6 
#
# 1 59.7659 18.8707 -0.1865 0.0000 0.0000 0.0000
# 2 18.8707 119.7669 17.8574 0.0000 0.0000 0.0000
# 3 -0.1865 17.8574 55.4791 0.0000 0.0000 0.0000
# 4 0.0000 0.0000 0.0000 41.5295 0.0000 0.0000
# 5 0.0000 0.0000 0.0000 0.0000 16.9774 0.0000
# 6 0.0000 0.0000 0.0000 0.0000 0.0000 36.0875
#
#
#
# Elastic Compliance Matrix: (Units=1/GPa)
#
#
# Indices 1 2 3 4 5 6 
#
# 1 0.017661 -0.002932 0.001003 0.000000 0.000000 0.000000
# 2 -0.002932 0.009257 -0.002990 0.000000 0.000000 0.000000
# 3 0.001003 -0.002990 0.018990 0.000000 0.000000 0.000000
# 4 0.000000 0.000000 0.000000 0.024079 0.000000 0.000000
# 5 0.000000 0.000000 0.000000 0.000000 0.058902 0.000000
# 6 0.000000 0.000000 0.000000 0.000000 0.000000 0.027710
#
#
# Mechanical properties :
#
#
# Convention : Reuss Voigt Hill
#
# Bulk Modulus (GPa) = 27.72275 34.23277 30.97776
# Shear Modulus (GPa) = 28.01725 32.15022 30.08373
#
# Velocity S-wave (km/s) = 3.40371 3.64612 3.52700
# Velocity P-wave (km/s) = 5.18752 5.64632 5.42178
#
# Compressibility (1/GPa) = 0.03607145
#
# Stress axis : x y z
#
# Youngs Moduli (GPa) = 56.62214 108.02269 52.65803
#
# Poissons Ratio (x) = 0.31675 -0.05283
# Poissons Ratio (y) = 0.16603 0.15742
# Poissons Ratio (z) = -0.05680 0.32294
#
# Static dielectric constant tensor:
#      x y z
#    x 1.735030 0.000000 0.000000 
#    y 0.000000 1.995160 0.000000 
#    z 0.000000 0.000000 1.913330 
# 
# From -- ./inp_files/5329.got.cif
#   From: 2010.05.17/outbox.cif.g08.bks.cpg/sg27_3_cif.got.tgz:5329.got - 2010.06.04 01:11:05.
