data_PCOD9339270
_publ_section_title
;
Structure prediction by ZEFSAII (Michael W. Deem and Ramdas Pophale) SiO2 
 PCOD9339270
Probable space group: P M A 2
;
_chemical_formula_sum "Si O2"
_cell_formula_units_Z 20
_cell_length_a 8.779317
_cell_length_b 15.417499
_cell_length_c 7.354476
_cell_angle_alpha 90.000000
_cell_angle_beta 90.000000
_cell_angle_gamma 90.000000
_cell_volume 995.465916
_symmetry_space_group_name_H-M "P M A 2"
_symmetry_group_IT_number 28
_symmetry_cell_setting 'orthorhombic'
loop_
_space_group_symop_operation_xyz
x,y,z
-x,-y,z
1/2-x,y,z
1/2+x,-y,z
loop_
_atom_site_type_symbol
_atom_site_label
_atom_site_fract_x
_atom_site_fract_y
_atom_site_fract_z
Si Si1 0.930602 0.280239 0.393680
Si Si2 0.931193 0.270127 0.960987
Si Si3 0.430449 0.404390 0.682945
Si Si4 0.068532 0.088715 0.973061
Si Si5 0.067349 0.913397 0.381690
O O1 0.750000 0.295462 0.422329
O O2 0.958980 0.282402 0.176999
O O3 0.964175 0.181904 0.460599
O O4 0.024824 0.350593 0.502972
O O5 0.750000 0.263880 0.934747
O O6 0.006138 0.179514 0.898832
O O7 0.998269 0.349226 0.847788
O O8 0.500000 0.500000 0.676243
O O9 0.250000 0.409318 0.702601
O O10 0.250000 0.085768 0.966535
O O11 0.009592 0.089573 0.182237
O O12 0.000000 0.000000 0.893236
O O13 0.250000 0.921445 0.362049
O O14 0.000000 0.000000 0.471552
#
# Coordination Sequence:
#
# PCOD9339270 Si02
#       5
#     4   4   4   4   4
#     4   9  20  39  62  88 119 156 195 240 292 344
#     4  10  21  40  64  89 120 156 197 244 293 348
#     4  12  26  43  64  88 116 151 193 245 301 356
#     4  10  17  28  50  82 119 157 197 237 284 342
#     4   9  16  28  50  81 117 156 195 236 284 338
#
# _framework density 20.091093000000001
#
# number of rings (size 3 to 8) (size 9 to 14) (size 15 to 20)
#    0.000    2.000    0.000    7.200    0.000    5.600 
#    0.000    1.000    0.000    2.400    0.000    0.000 
#    0.000    0.000    0.000    0.000    0.000    0.000 
#
# Total GULP energy -111725.313686 kJ/mol
# GULP energy per Si atom -5586.265684 kJ/mol
# Density = 2.004536 g / cm^3
# Si number density = 20.091093 Si / 1000 Ang^3
#
#
#
# Elastic Constant Matrix: (Units=GPa)
#
#
# Indices 1 2 3 4 5 6 
#
# 1 147.9807 110.5043 55.8561 0.0000 0.0000 0.0000
# 2 110.5043 215.1214 55.8917 0.0000 0.0000 0.0000
# 3 55.8561 55.8917 79.3446 0.0000 0.0000 0.0000
# 4 0.0000 0.0000 0.0000 29.0808 0.0000 0.0000
# 5 0.0000 0.0000 0.0000 0.0000 23.6071 0.0000
# 6 0.0000 0.0000 0.0000 0.0000 0.0000 44.1195
#
#
#
# Elastic Compliance Matrix: (Units=1/GPa)
#
#
# Indices 1 2 3 4 5 6 
#
# 1 0.012524 -0.005071 -0.005244 0.000000 0.000000 0.000000
# 2 -0.005071 0.007743 -0.001885 0.000000 0.000000 0.000000
# 3 -0.005244 -0.001885 0.017623 0.000000 0.000000 0.000000
# 4 0.000000 0.000000 0.000000 0.034387 0.000000 0.000000
# 5 0.000000 0.000000 0.000000 0.000000 0.042360 0.000000
# 6 0.000000 0.000000 0.000000 0.000000 0.000000 0.022666
#
#
# Mechanical properties :
#
#
# Convention : Reuss Voigt Hill
#
# Bulk Modulus (GPa) = 74.12970 98.55009 86.33990
# Shear Modulus (GPa) = 30.08457 34.04111 32.06284
#
# Velocity S-wave (km/s) = 3.87383 4.12070 3.99917
# Velocity P-wave (km/s) = 7.54889 8.47339 8.02446
#
# Compressibility (1/GPa) = 0.01348987
#
# Stress axis : x y z
#
# Youngs Moduli (GPa) = 79.84906 129.15075 56.74484
#
# Poissons Ratio (x) = 0.65487 0.29759
# Poissons Ratio (y) = 0.40488 0.10695
# Poissons Ratio (z) = 0.41876 0.24341
#
# Static dielectric constant tensor:
#      x y z
#    x 1.658960 0.000000 0.000000 
#    y 0.000000 1.728840 0.000000 
#    z 0.000000 0.000000 1.761400 
# 
# From -- ./inp_files/2370.got.cif
#   From: 2010.05.17/outbox.cif.g08.bks.cpg/sg28_2_cif.got.tgz:2370.got - 2010.06.04 01:15:21.
