data_PCOD9339229
_publ_section_title
;
Structure prediction by ZEFSAII (Michael W. Deem and Ramdas Pophale) SiO2 
 PCOD9339229
Probable space group: P C C 2
;
_chemical_formula_sum "Si O2"
_cell_formula_units_Z 32
_cell_length_a 12.000000
_cell_length_b 9.000000
_cell_length_c 15.000000
_cell_angle_alpha 90.000000
_cell_angle_beta 90.000000
_cell_angle_gamma 90.000000
_cell_volume 1620.000000
_symmetry_space_group_name_H-M "P C C 2"
_symmetry_group_IT_number 27
_symmetry_cell_setting 'orthorhombic'
loop_
_space_group_symop_operation_xyz
x,y,z
-x,-y,z
-x,y,1/2+z
x,-y,1/2+z
loop_
_atom_site_type_symbol
_atom_site_label
_atom_site_fract_x
_atom_site_fract_y
_atom_site_fract_z
Si Si1 0.110840 0.181160 0.253740
Si Si2 0.536666 0.172841 0.559363
Si Si3 0.847427 0.832209 0.747824
Si Si4 0.649025 0.163168 0.372256
Si Si5 0.298133 0.637370 0.657659
Si Si6 0.702045 0.314118 0.092805
Si Si7 0.269341 0.831389 0.911020
Si Si8 0.542435 0.648517 0.317016
O O1 0.182704 0.302791 0.199316
O O2 0.157461 0.183151 0.354348
O O3 0.978405 0.208667 0.250666
O O4 0.145309 0.010730 0.227216
O O5 0.587861 0.213950 0.462801
O O6 0.640940 0.215390 0.620523
O O7 0.428837 0.268714 0.587755
O O8 0.500000 0.000000 0.562130
O O9 0.773415 0.797964 0.837156
O O10 0.773923 0.746229 0.675402
O O11 0.556790 0.230308 0.303178
O O12 0.669596 0.988499 0.391743
O O13 0.286214 0.493885 0.593980
O O14 0.389380 0.589430 0.731342
O O15 0.750917 0.218772 0.010791
O O16 0.360593 0.719480 0.874117
O O17 0.500000 0.500000 0.363103
#
# Coordination Sequence:
#
# PCOD9339229 Si02
#       8
#     4   4   4   4   4   4   4   4
#     4   9  22  46  66  94 121 172 230 278 324 399
#     4  12  22  37  61  97 134 166 218 270 328 399
#     4  10  22  43  71  91 126 171 225 279 331 386
#     4  11  21  39  63  94 129 165 215 269 330 401
#     4  11  25  39  62  94 135 171 220 265 332 407
#     4  12  23  41  62  99 136 176 213 278 339 398
#     4  10  22  40  64  91 130 170 218 273 330 390
#     4  11  21  37  59  90 127 172 207 262 334 399
#
# _framework density 19.753086
#
# number of rings (size 3 to 8) (size 9 to 14) (size 15 to 20)
#    0.000    1.250    2.500    3.750    1.750    2.500 
#    2.250    1.875    0.000    0.000    0.000    0.000 
#    0.000    0.000    0.000    0.000    0.000    0.000 
#
# Total GULP energy -178148.980835 kJ/mol
# GULP energy per Si atom -5567.155651 kJ/mol
# Density = 1.970813 g / cm^3
# Si number density = 19.753086 Si / 1000 Ang^3
#
#
#
# Elastic Constant Matrix: (Units=GPa)
#
#
# Indices 1 2 3 4 5 6 
#
# 1 146.8319 46.9428 39.9792 0.0000 0.0000 0.0000
# 2 46.9428 85.9500 31.7773 0.0000 0.0000 0.0000
# 3 39.9792 31.7773 50.1800 0.0000 0.0000 0.0000
# 4 0.0000 0.0000 0.0000 59.7161 0.0000 0.0000
# 5 0.0000 0.0000 0.0000 0.0000 13.6397 0.0000
# 6 0.0000 0.0000 0.0000 0.0000 0.0000 26.7443
#
#
#
# Elastic Compliance Matrix: (Units=1/GPa)
#
#
# Indices 1 2 3 4 5 6 
#
# 1 0.009270 -0.003045 -0.005457 0.000000 0.000000 0.000000
# 2 -0.003045 0.016192 -0.007828 0.000000 0.000000 0.000000
# 3 -0.005457 -0.007828 0.029233 0.000000 0.000000 0.000000
# 4 0.000000 0.000000 0.000000 0.016746 0.000000 0.000000
# 5 0.000000 0.000000 0.000000 0.000000 0.073316 0.000000
# 6 0.000000 0.000000 0.000000 0.000000 0.000000 0.037391
#
#
# Mechanical properties :
#
#
# Convention : Reuss Voigt Hill
#
# Bulk Modulus (GPa) = 45.38242 57.81783 51.60012
# Shear Modulus (GPa) = 22.50711 30.97084 26.73897
#
# Velocity S-wave (km/s) = 3.37920 3.96397 3.68320
# Velocity P-wave (km/s) = 6.18466 7.09116 6.65336
#
# Compressibility (1/GPa) = 0.02203497
#
# Stress axis : x y z
#
# Youngs Moduli (GPa) = 107.87553 61.75920 34.20814
#
# Poissons Ratio (x) = 0.18808 0.18667
# Poissons Ratio (y) = 0.32852 0.26776
# Poissons Ratio (z) = 0.58867 0.48342
#
# Static dielectric constant tensor:
#      x y z
#    x 1.666600 0.000000 0.000000 
#    y 0.000000 1.626430 0.000000 
#    z 0.000000 0.000000 1.862830 
# 
# From -- ./inp_files/3663.got.cif
#   From: 2010.05.17/outbox.ucp.g08.bks.cvg/sg27_2_cif.got.tgz:3663.got - 2010.06.11 15:23:43.
