data_PCOD9339202
_publ_section_title
;
Structure prediction by ZEFSAII (Michael W. Deem and Ramdas Pophale) SiO2 
 PCOD9339202
Probable space group: P C C 2
;
_chemical_formula_sum "Si O2"
_cell_formula_units_Z 24
_cell_length_a 8.432580
_cell_length_b 12.981524
_cell_length_c 9.589374
_cell_angle_alpha 90.000000
_cell_angle_beta 90.000000
_cell_angle_gamma 90.000000
_cell_volume 1049.727096
_symmetry_space_group_name_H-M "P C C 2"
_symmetry_group_IT_number 27
_symmetry_cell_setting 'orthorhombic'
loop_
_space_group_symop_operation_xyz
x,y,z
-x,-y,z
-x,y,1/2+z
x,-y,1/2+z
loop_
_atom_site_type_symbol
_atom_site_label
_atom_site_fract_x
_atom_site_fract_y
_atom_site_fract_z
Si Si1 0.856744 0.937397 0.695210
Si Si2 0.457790 0.265697 0.505003
Si Si3 0.918284 0.742121 0.531830
Si Si4 0.652822 0.931035 0.969978
Si Si5 0.437917 0.610566 0.261593
Si Si6 0.937550 0.614800 0.790885
O O1 0.951010 0.849321 0.608235
O O2 0.754858 0.004521 0.583532
O O3 0.746763 0.905054 0.826374
O O4 0.000000 0.000000 0.763480
O O5 0.272115 0.245362 0.523972
O O6 0.576389 0.172305 0.535476
O O7 0.483690 0.298480 0.347723
O O8 0.483763 0.364250 0.603213
O O9 0.972663 0.649831 0.633505
O O10 0.991128 0.705110 0.387215
O O11 0.500000 0.000000 0.930125
O O12 0.500000 0.500000 0.302310
O O13 0.252303 0.614374 0.295225
O O14 0.000000 0.500000 0.822263
#
# Coordination Sequence:
#
# PCOD9339202 Si02
#       6
#     4   4   4   4   4   4
#     4  12  29  47  73 110 149 193 246 302 371 441
#     4  11  25  45  74 105 143 187 247 300 362 437
#     4  11  26  46  71 106 146 193 244 301 370 437
#     4  12  26  48  76 107 147 195 246 303 362 439
#     4  11  25  45  72 108 143 190 247 305 368 438
#     4  11  25  46  72 105 147 191 243 303 374 441
#
# _framework density 22.863085999999999
#
# number of rings (size 3 to 8) (size 9 to 14) (size 15 to 20)
#    0.000    0.667    1.667    5.000    9.333    5.333 
#    0.000    0.000    0.000    0.000    0.000    0.000 
#    0.000    0.000    0.000    0.000    0.000    0.000 
#
# Total GULP energy -134097.847278 kJ/mol
# GULP energy per Si atom -5587.410303 kJ/mol
# Density = 2.281105 g / cm^3
# Si number density = 22.863086 Si / 1000 Ang^3
#
#
#
# Elastic Constant Matrix: (Units=GPa)
#
#
# Indices 1 2 3 4 5 6 
#
# 1 48.0842 44.9422 31.8064 0.0000 0.0000 0.0000
# 2 44.9422 110.7480 19.2701 0.0000 0.0000 0.0000
# 3 31.8064 19.2701 88.1878 0.0000 0.0000 0.0000
# 4 0.0000 0.0000 0.0000 30.1997 0.0000 0.0000
# 5 0.0000 0.0000 0.0000 0.0000 28.9623 0.0000
# 6 0.0000 0.0000 0.0000 0.0000 0.0000 41.1483
#
#
#
# Elastic Compliance Matrix: (Units=1/GPa)
#
#
# Indices 1 2 3 4 5 6 
#
# 1 0.043357 -0.015461 -0.012259 0.000000 0.000000 0.000000
# 2 -0.015461 0.014900 0.002321 0.000000 0.000000 0.000000
# 3 -0.012259 0.002321 0.015254 0.000000 0.000000 0.000000
# 4 0.000000 0.000000 0.000000 0.033113 0.000000 0.000000
# 5 0.000000 0.000000 0.000000 0.000000 0.034528 0.000000
# 6 0.000000 0.000000 0.000000 0.000000 0.000000 0.024302
#
#
# Mechanical properties :
#
#
# Convention : Reuss Voigt Hill
#
# Bulk Modulus (GPa) = 44.03108 48.78414 46.40761
# Shear Modulus (GPa) = 22.33903 30.12881 26.23392
#
# Velocity S-wave (km/s) = 3.12922 3.63408 3.39106
# Velocity P-wave (km/s) = 5.68827 6.24440 5.97281
#
# Compressibility (1/GPa) = 0.02271123
#
# Stress axis : x y z
#
# Youngs Moduli (GPa) = 23.06437 67.11377 65.55770
#
# Poissons Ratio (x) = 1.03768 0.80366
# Poissons Ratio (y) = 0.35661 -0.15213
# Poissons Ratio (z) = 0.28274 -0.15574
#
# Static dielectric constant tensor:
#      x y z
#    x 1.790980 0.000000 0.000000 
#    y 0.000000 1.856190 0.000000 
#    z 0.000000 0.000000 1.809260 
# 
# From -- ./inp_files/1144.got.cif
#   From: 2010.05.17/outbox.cif.g08.bks.cpg/sg27_1_cif.got.tgz:1144.got - 2010.06.04 01:11:05.
