data_PCOD9339843
_publ_section_title
;
Structure prediction by ZEFSAII (Michael W. Deem and Ramdas Pophale) SiO2 
 PCOD9339843
Probable space group: P M A 2
;
_chemical_formula_sum "Si O2"
_cell_formula_units_Z 32
_cell_length_a 8.765708
_cell_length_b 15.809486
_cell_length_c 12.123671
_cell_angle_alpha 90.000000
_cell_angle_beta 90.000000
_cell_angle_gamma 90.000000
_cell_volume 1680.114548
_symmetry_space_group_name_H-M "P M A 2"
_symmetry_group_IT_number 28
_symmetry_cell_setting 'orthorhombic'
loop_
_space_group_symop_operation_xyz
x,y,z
-x,-y,z
1/2-x,y,z
1/2+x,-y,z
loop_
_atom_site_type_symbol
_atom_site_label
_atom_site_fract_x
_atom_site_fract_y
_atom_site_fract_z
Si Si1 0.933557 0.653293 0.430970
Si Si2 0.066574 0.255345 0.791646
Si Si3 0.568430 0.411537 0.657609
Si Si4 0.566695 0.157393 0.428608
Si Si5 0.565932 0.753873 0.048979
Si Si6 0.067377 0.088077 0.652690
Si Si7 0.066616 0.409948 0.188147
Si Si8 0.932239 0.091037 0.185799
O O1 0.750000 0.654322 0.440362
O O2 0.976545 0.611008 0.314604
O O3 0.003938 0.605526 0.535046
O O4 0.995152 0.749039 0.431528
O O5 0.250000 0.267051 0.782350
O O6 0.028182 0.168049 0.729480
O O7 0.985864 0.333348 0.731985
O O8 0.026430 0.250225 0.920237
O O9 0.500000 0.500000 0.698784
O O10 0.750000 0.415964 0.654220
O O11 0.750000 0.163158 0.436645
O O12 0.501654 0.106441 0.532221
O O13 0.526308 0.114333 0.312274
O O14 0.750000 0.759589 0.057924
O O15 0.516990 0.668404 0.112029
O O16 0.495256 0.834867 0.108502
O O17 0.250000 0.082458 0.645157
O O18 0.000000 0.000000 0.695274
O O19 0.250000 0.414120 0.183504
O O20 0.000000 0.500000 0.154393
O O21 0.750000 0.088316 0.178469
O O22 0.000000 0.000000 0.156854
#
# Coordination Sequence:
#
# PCOD9339843 Si02
#       8
#     4   4   4   4   4   4   4   4
#     4  11  21  37  62  92 125 161 200 247 309 369
#     4  10  23  43  65  89 121 162 209 258 308 361
#     4  12  25  41  64  92 126 164 205 253 305 366
#     4  11  22  37  61  93 125 160 200 249 309 370
#     4  10  22  43  65  88 121 162 207 256 308 360
#     4  11  23  39  62  90 123 161 201 252 307 367
#     4  10  22  38  61  90 122 160 198 246 302 361
#     4  11  24  40  62  92 125 162 204 252 305 365
#
# _framework density 19.046320999999999
#
# number of rings (size 3 to 8) (size 9 to 14) (size 15 to 20)
#    0.000    1.250    2.500    3.375    0.000    7.000 
#    0.000    2.500    0.000    0.000    0.000    0.000 
#    0.000    0.000    0.000    0.000    0.000    0.000 
#
# Total GULP energy -178983.161523 kJ/mol
# GULP energy per Si atom -5593.223798 kJ/mol
# Density = 1.900297 g / cm^3
# Si number density = 19.046321 Si / 1000 Ang^3
#
#
#
# Elastic Constant Matrix: (Units=GPa)
#
#
# Indices 1 2 3 4 5 6 
#
# 1 58.8604 61.2779 56.8445 0.0000 0.0000 0.0000
# 2 61.2779 190.6682 80.4993 0.0000 0.0000 0.0000
# 3 56.8445 80.4993 142.5593 0.0000 0.0000 0.0000
# 4 0.0000 0.0000 0.0000 -3.1188 0.0000 0.0000
# 5 0.0000 0.0000 0.0000 0.0000 11.3906 0.0000
# 6 0.0000 0.0000 0.0000 0.0000 0.0000 36.9688
#
#
#
# Elastic Compliance Matrix: (Units=1/GPa)
#
#
# Indices 1 2 3 4 5 6 
#
# 1 0.032970 -0.006625 -0.009406 0.000000 0.000000 0.000000
# 2 -0.006625 0.008218 -0.001999 0.000000 0.000000 0.000000
# 3 -0.009406 -0.001999 0.011894 0.000000 0.000000 0.000000
# 4 0.000000 0.000000 0.000000 -0.320639 0.000000 0.000000
# 5 0.000000 0.000000 0.000000 0.000000 0.087792 0.000000
# 6 0.000000 0.000000 0.000000 0.000000 0.000000 0.027050
#
#
# Mechanical properties :
#
#
# Convention : Reuss Voigt Hill
#
# Bulk Modulus (GPa) = 58.74477 87.70349 73.22413
# Shear Modulus (GPa) = -45.05179 21.94587 -11.55296
#
# Velocity S-wave (km/s) = -4.86879 3.39814 -2.46554
# Velocity P-wave (km/s) = 0.83475 7.84499 5.51576
#
# Compressibility (1/GPa) = 0.01702279
#
# Stress axis : x y z
#
# Youngs Moduli (GPa) = 30.33064 121.68825 84.07899
#
# Poissons Ratio (x) = 0.80619 0.79081
# Poissons Ratio (y) = 0.20094 0.16804
# Poissons Ratio (z) = 0.28528 0.24321
#
# Static dielectric constant tensor:
#      x y z
#    x 1.637150 0.000000 0.000000 
#    y 0.000000 1.646850 0.000000 
#    z 0.000000 0.000000 1.644210 
# 
# From -- ./inp_files/5010.got.cif
#   From: 2010.05.17/outbox.cif.g08.bks.cpg/sg28_3_cif.got.tgz:5010.got - 2010.06.04 01:15:21.
