data_PCOD9339542
_publ_section_title
;
Structure prediction by ZEFSAII (Michael W. Deem and Ramdas Pophale) SiO2 
 PCOD9339542
Probable space group: P M A 2
;
_chemical_formula_sum "Si O2"
_cell_formula_units_Z 32
_cell_length_a 8.686931
_cell_length_b 14.612951
_cell_length_c 15.969718
_cell_angle_alpha 90.000000
_cell_angle_beta 90.000000
_cell_angle_gamma 90.000000
_cell_volume 2027.223104
_symmetry_space_group_name_H-M "P M A 2"
_symmetry_group_IT_number 28
_symmetry_cell_setting 'orthorhombic'
loop_
_space_group_symop_operation_xyz
x,y,z
-x,-y,z
1/2-x,y,z
1/2+x,-y,z
loop_
_atom_site_type_symbol
_atom_site_label
_atom_site_fract_x
_atom_site_fract_y
_atom_site_fract_z
Si Si1 0.565355 0.603106 0.295970
Si Si2 0.064739 0.602321 0.784074
Si Si3 0.066025 0.603518 0.469352
Si Si4 0.435583 0.710662 0.953770
Si Si5 0.564987 0.097831 0.881864
Si Si6 0.566069 0.602886 0.110300
Si Si7 0.434959 0.901063 0.685294
Si Si8 0.933979 0.713699 0.626223
O O1 0.500000 0.500000 0.293277
O O2 0.750000 0.601358 0.305420
O O3 0.490659 0.642986 0.379820
O O4 0.526888 0.640328 0.203530
O O5 0.250000 0.601679 0.776271
O O6 0.024587 0.650075 0.872225
O O7 0.000000 0.500000 0.781850
O O8 0.995151 0.660019 0.707872
O O9 0.250000 0.598940 0.471215
O O10 0.000000 0.500000 0.477318
O O11 0.002564 0.663664 0.545161
O O12 0.250000 0.710501 0.960311
O O13 0.487001 0.814431 0.934672
O O14 0.504296 0.666124 0.036528
O O15 0.750000 0.094421 0.885109
O O16 0.523268 0.111879 0.783884
O O17 0.500000 0.000000 0.908984
O O18 0.500000 0.500000 0.101480
O O19 0.750000 0.596237 0.105475
O O20 0.250000 0.899457 0.679028
O O21 0.506908 0.817453 0.634623
O O22 0.500000 0.000000 0.660163
O O23 0.750000 0.710668 0.623954
#
# Coordination Sequence:
#
# PCOD9339542 Si02
#       8
#     4   4   4   4   4   4   4   4
#     4   9  17  31  49  71  98 127 163 206 249 294
#     4  11  22  36  48  66  98 135 172 209 244 291
#     4  11  21  34  52  74 101 133 168 208 250 299
#     4  10  20  34  50  70  99 132 167 206 247 293
#     4   9  18  33  51  72  96 126 162 207 252 292
#     4  10  20  32  49  73 101 133 168 206 247 294
#     4  10  19  35  54  75 100 128 166 210 255 297
#     4  12  23  35  51  73  99 134 171 206 250 298
#
# _framework density 15.785138999999999
#
# number of rings (size 3 to 8) (size 9 to 14) (size 15 to 20)
#    0.000    1.750    1.250    5.250    0.000    4.500 
#    0.000    0.000    0.000    0.000    0.000    0.875 
#    0.000    4.000    0.000    0.000    0.000    0.000 
#
# Total GULP energy -178601.532187 kJ/mol
# GULP energy per Si atom -5581.297881 kJ/mol
# Density = 1.574921 g / cm^3
# Si number density = 15.785139 Si / 1000 Ang^3
#
#
#
# Elastic Constant Matrix: (Units=GPa)
#
#
# Indices 1 2 3 4 5 6 
#
# 1 84.8933 45.7350 58.7943 0.0000 0.0000 0.0000
# 2 45.7350 120.4241 73.1090 0.0000 0.0000 0.0000
# 3 58.7943 73.1090 145.8091 0.0000 0.0000 0.0000
# 4 0.0000 0.0000 0.0000 4.5861 0.0000 0.0000
# 5 0.0000 0.0000 0.0000 0.0000 26.1060 0.0000
# 6 0.0000 0.0000 0.0000 0.0000 0.0000 25.9432
#
#
#
# Elastic Compliance Matrix: (Units=1/GPa)
#
#
# Indices 1 2 3 4 5 6 
#
# 1 0.017232 -0.003344 -0.005272 0.000000 0.000000 0.000000
# 2 -0.003344 0.012587 -0.004963 0.000000 0.000000 0.000000
# 3 -0.005272 -0.004963 0.011472 0.000000 0.000000 0.000000
# 4 0.000000 0.000000 0.000000 0.218050 0.000000 0.000000
# 5 0.000000 0.000000 0.000000 0.000000 0.038305 0.000000
# 6 0.000000 0.000000 0.000000 0.000000 0.000000 0.038546
#
#
# Mechanical properties :
#
#
# Convention : Reuss Voigt Hill
#
# Bulk Modulus (GPa) = 70.74967 78.48922 74.61945
# Shear Modulus (GPa) = 13.58473 22.89295 18.23884
#
# Velocity S-wave (km/s) = 2.93679 3.81239 3.40287
# Velocity P-wave (km/s) = 7.51115 8.31929 7.92553
#
# Compressibility (1/GPa) = 0.01413434
#
# Stress axis : x y z
#
# Youngs Moduli (GPa) = 58.03134 79.44848 87.16655
#
# Poissons Ratio (x) = 0.26567 0.45952
# Poissons Ratio (y) = 0.19406 0.43258
# Poissons Ratio (z) = 0.30593 0.39428
#
# Static dielectric constant tensor:
#      x y z
#    x 1.528610 0.000000 0.000000 
#    y 0.000000 1.503120 0.000000 
#    z 0.000000 0.000000 1.536130 
# 
# From -- ./inp_files/6434.got.cif
#   From: 2010.05.17/outbox.cif.g08.bks.cpg/sg28_4_cif.got.tgz:6434.got - 2010.06.04 01:15:21.
