data_PCOD9339746
_publ_section_title
;
Structure prediction by ZEFSAII (Michael W. Deem and Ramdas Pophale) SiO2 
 PCOD9339746
Probable space group: P M A 2
;
_chemical_formula_sum "Si O2"
_cell_formula_units_Z 32
_cell_length_a 14.020678
_cell_length_b 12.195212
_cell_length_c 8.616958
_cell_angle_alpha 90.000000
_cell_angle_beta 90.000000
_cell_angle_gamma 90.000000
_cell_volume 1473.371775
_symmetry_space_group_name_H-M "P M A 2"
_symmetry_group_IT_number 28
_symmetry_cell_setting 'orthorhombic'
loop_
_space_group_symop_operation_xyz
x,y,z
-x,-y,z
1/2-x,y,z
1/2+x,-y,z
loop_
_atom_site_type_symbol
_atom_site_label
_atom_site_fract_x
_atom_site_fract_y
_atom_site_fract_z
Si Si1 0.524362 0.876912 0.753410
Si Si2 0.052794 0.339998 0.580563
Si Si3 0.055996 0.283538 0.254835
Si Si4 0.148887 0.682903 0.249027
Si Si5 0.855250 0.148799 0.974661
Si Si6 0.637912 0.452911 0.722790
Si Si7 0.362739 0.087307 0.066888
Si Si8 0.639958 0.530781 0.064050
O O1 0.555805 0.785839 0.633742
O O2 0.428931 0.834980 0.838630
O O3 0.500000 0.000000 0.696307
O O4 0.599541 0.884809 0.894757
O O5 0.097172 0.340124 0.407205
O O6 0.122058 0.421332 0.672744
O O7 0.945178 0.387099 0.627110
O O8 0.090784 0.167469 0.192423
O O9 0.948117 0.274827 0.318749
O O10 0.072735 0.368222 0.112265
O O11 0.250000 0.701808 0.329648
O O12 0.150718 0.748924 0.087292
O O13 0.138105 0.556410 0.204278
O O14 0.750000 0.125136 0.911782
O O15 0.884707 0.042541 0.076627
O O16 0.750000 0.418901 0.702661
O O17 0.616931 0.463490 0.907516
O O18 0.250000 0.102102 0.077953
O O19 0.750000 0.570344 0.048051
#
# Coordination Sequence:
#
# PCOD9339746 Si02
#       8
#     4   4   4   4   4   4   4   4
#     4  10  20  40  64  92 124 164 207 264 308 370
#     4  11  26  40  59  95 128 168 206 248 323 393
#     4  12  24  38  58  91 128 162 201 255 314 378
#     4  10  21  35  58  89 118 152 195 252 308 357
#     4   9  18  36  64  96 118 149 206 263 307 351
#     4  10  24  44  65  88 121 164 214 264 310 371
#     4  10  21  38  64  91 119 160 212 259 305 359
#     4  10  22  39  65  92 117 158 208 260 312 362
#
# _framework density 21.718890999999999
#
# number of rings (size 3 to 8) (size 9 to 14) (size 15 to 20)
#    0.000    1.750    1.250    2.250    7.000    4.500 
#    2.250    0.000    0.000    0.000    0.000    0.000 
#    0.000    0.000    0.000    0.000    0.000    0.000 
#
# Total GULP energy -178392.282687 kJ/mol
# GULP energy per Si atom -5574.758834 kJ/mol
# Density = 2.166946 g / cm^3
# Si number density = 21.718891 Si / 1000 Ang^3
#
#
#
# Elastic Constant Matrix: (Units=GPa)
#
#
# Indices 1 2 3 4 5 6 
#
# 1 63.1790 8.5939 3.6489 0.0000 0.0000 0.0000
# 2 8.5939 100.8735 36.7037 0.0000 0.0000 0.0000
# 3 3.6489 36.7037 63.2714 0.0000 0.0000 0.0000
# 4 0.0000 0.0000 0.0000 14.4727 0.0000 0.0000
# 5 0.0000 0.0000 0.0000 0.0000 4.4316 0.0000
# 6 0.0000 0.0000 0.0000 0.0000 0.0000 21.2683
#
#
#
# Elastic Compliance Matrix: (Units=1/GPa)
#
#
# Indices 1 2 3 4 5 6 
#
# 1 0.016015 -0.001303 -0.000167 0.000000 0.000000 0.000000
# 2 -0.001303 0.012672 -0.007276 0.000000 0.000000 0.000000
# 3 -0.000167 -0.007276 0.020035 0.000000 0.000000 0.000000
# 4 0.000000 0.000000 0.000000 0.069096 0.000000 0.000000
# 5 0.000000 0.000000 0.000000 0.000000 0.225654 0.000000
# 6 0.000000 0.000000 0.000000 0.000000 0.000000 0.047018
#
#
# Mechanical properties :
#
#
# Convention : Reuss Voigt Hill
#
# Bulk Modulus (GPa) = 32.02180 36.13523 34.07852
# Shear Modulus (GPa) = 11.95048 19.92632 15.93840
#
# Velocity S-wave (km/s) = 2.34825 3.03225 2.71190
# Velocity P-wave (km/s) = 4.70406 5.37896 5.05279
#
# Compressibility (1/GPa) = 0.03122873
#
# Stress axis : x y z
#
# Youngs Moduli (GPa) = 62.44135 78.91538 49.91208
#
# Poissons Ratio (x) = 0.10286 0.00836
# Poissons Ratio (y) = 0.08139 0.36315
# Poissons Ratio (z) = 0.01046 0.57417
#
# Static dielectric constant tensor:
#      x y z
#    x 1.929030 0.000000 0.000000 
#    y 0.000000 1.784400 0.000000 
#    z 0.000000 0.000000 1.825410 
# 
# From -- ./inp_files/3535.got.cif
#   From: 2010.05.17/outbox.cif.g08.bks.cpg/sg28_2_cif.got.tgz:3535.got - 2010.06.04 01:15:21.
