data_PCOD9339282
_publ_section_title
;
Structure prediction by ZEFSAII (Michael W. Deem and Ramdas Pophale) SiO2 
 PCOD9339282
Probable space group: P M A 2
;
_chemical_formula_sum "Si O2"
_cell_formula_units_Z 32
_cell_length_a 8.585411
_cell_length_b 14.704249
_cell_length_c 16.125756
_cell_angle_alpha 90.000000
_cell_angle_beta 90.000000
_cell_angle_gamma 90.000000
_cell_volume 2035.748029
_symmetry_space_group_name_H-M "P M A 2"
_symmetry_group_IT_number 28
_symmetry_cell_setting 'orthorhombic'
loop_
_space_group_symop_operation_xyz
x,y,z
-x,-y,z
1/2-x,y,z
1/2+x,-y,z
loop_
_atom_site_type_symbol
_atom_site_label
_atom_site_fract_x
_atom_site_fract_y
_atom_site_fract_z
Si Si1 0.062431 0.597851 0.336760
Si Si2 0.562993 0.784587 0.591477
Si Si3 0.436729 0.103183 0.934493
Si Si4 0.437915 0.102800 0.751660
Si Si5 0.563066 0.103153 0.107312
Si Si6 0.936606 0.401670 0.530599
Si Si7 0.939771 0.210815 0.270135
Si Si8 0.562678 0.102185 0.435408
O O1 0.250000 0.595345 0.334623
O O2 0.016834 0.611209 0.433520
O O3 0.008766 0.685431 0.285038
O O4 0.000000 0.500000 0.309278
O O5 0.750000 0.785385 0.589278
O O6 0.510495 0.833898 0.676080
O O7 0.503362 0.682020 0.582166
O O8 0.499352 0.841289 0.513430
O O9 0.250000 0.102505 0.941060
O O10 0.481528 0.139511 0.843403
O O11 0.500000 0.000000 0.933236
O O12 0.506329 0.142664 0.019071
O O13 0.250000 0.097664 0.749803
O O14 0.500000 0.000000 0.741776
O O15 0.250000 0.901262 0.106931
O O16 0.509578 0.163451 0.185154
O O17 0.500000 0.000000 0.116029
O O18 0.750000 0.400878 0.534076
O O19 0.000000 0.500000 0.556665
O O20 0.750000 0.211628 0.269355
O O21 0.986398 0.151322 0.350001
O O22 0.750000 0.101594 0.438218
O O23 0.500000 0.000000 0.438065
#
# Coordination Sequence:
#
# PCOD9339282 Si02
#       8
#     4   4   4   4   4   4   4   4
#     4   9  17  32  49  67  89 118 152 191 233 274
#     4  11  21  33  48  70  95 125 162 196 235 282
#     4   9  16  29  46  65  90 119 152 193 235 274
#     4   9  19  32  47  67  94 126 158 194 235 279
#     4  10  18  29  46  67  92 123 155 191 230 273
#     4  10  19  33  52  71  94 123 157 198 241 281
#     4   9  18  32  47  64  93 126 155 188 232 277
#     4  11  21  34  46  63  93 131 164 194 230 273
#
# _framework density 15.719037999999999
#
# number of rings (size 3 to 8) (size 9 to 14) (size 15 to 20)
#    0.000    2.250    1.250    3.375    0.000    3.000 
#    0.000    3.125    0.000    0.000    0.000    0.875 
#    0.000    4.000    0.000    0.000    0.000    0.000 
#
# Total GULP energy -178422.264662 kJ/mol
# GULP energy per Si atom -5575.695771 kJ/mol
# Density = 1.568326 g / cm^3
# Si number density = 15.719038 Si / 1000 Ang^3
#
#
#
# Elastic Constant Matrix: (Units=GPa)
#
#
# Indices 1 2 3 4 5 6 
#
# 1 34.7900 25.4881 31.6253 0.0000 0.0000 0.0000
# 2 25.4881 123.0086 77.5232 0.0000 0.0000 0.0000
# 3 31.6253 77.5232 152.2529 0.0000 0.0000 0.0000
# 4 0.0000 0.0000 0.0000 -4.7063 0.0000 0.0000
# 5 0.0000 0.0000 0.0000 0.0000 39.5711 0.0000
# 6 0.0000 0.0000 0.0000 0.0000 0.0000 23.4387
#
#
#
# Elastic Compliance Matrix: (Units=1/GPa)
#
#
# Indices 1 2 3 4 5 6 
#
# 1 0.036810 -0.004136 -0.005540 0.000000 0.000000 0.000000
# 2 -0.004136 0.012436 -0.005473 0.000000 0.000000 0.000000
# 3 -0.005540 -0.005473 0.010505 0.000000 0.000000 0.000000
# 4 0.000000 0.000000 0.000000 -0.212480 0.000000 0.000000
# 5 0.000000 0.000000 0.000000 0.000000 0.025271 0.000000
# 6 0.000000 0.000000 0.000000 0.000000 0.000000 0.042665
#
#
# Mechanical properties :
#
#
# Convention : Reuss Voigt Hill
#
# Bulk Modulus (GPa) = 33.95173 64.36941 49.16057
# Shear Modulus (GPa) = -111.91037 23.35502 -44.27767
#
# Velocity S-wave (km/s) = -8.44682 3.85876 -5.31313
# Velocity P-wave (km/s) = 8.57238 7.80335 2.50932
#
# Compressibility (1/GPa) = 0.02945358
#
# Stress axis : x y z
#
# Youngs Moduli (GPa) = 27.16650 80.41453 95.18878
#
# Poissons Ratio (x) = 0.33257 0.52737
# Poissons Ratio (y) = 0.11235 0.52095
# Poissons Ratio (z) = 0.15051 0.44009
#
# Static dielectric constant tensor:
#      x y z
#    x 1.535250 0.000000 0.000000 
#    y 0.000000 1.508780 0.000000 
#    z 0.000000 0.000000 1.545860 
# 
# From -- ./inp_files/6387.got.cif
#   From: 2010.05.17/outbox.cif.g08.bks.cpg/sg28_4_cif.got.tgz:6387.got - 2010.06.04 01:15:21.
