data_PCOD9339472
_publ_section_title
;
Structure prediction by ZEFSAII (Michael W. Deem and Ramdas Pophale) SiO2 
 PCOD9339472
Probable space group: P M A 2
;
_chemical_formula_sum "Si O2"
_cell_formula_units_Z 24
_cell_length_a 8.608271
_cell_length_b 9.245596
_cell_length_c 16.133828
_cell_angle_alpha 90.000000
_cell_angle_beta 90.000000
_cell_angle_gamma 90.000000
_cell_volume 1284.068717
_symmetry_space_group_name_H-M "P M A 2"
_symmetry_group_IT_number 28
_symmetry_cell_setting 'orthorhombic'
loop_
_space_group_symop_operation_xyz
x,y,z
-x,-y,z
1/2-x,y,z
1/2+x,-y,z
loop_
_atom_site_type_symbol
_atom_site_label
_atom_site_fract_x
_atom_site_fract_y
_atom_site_fract_z
Si Si1 0.562597 0.338137 0.983690
Si Si2 0.063074 0.337949 0.662801
Si Si3 0.936848 0.162362 0.819688
Si Si4 0.563743 0.163656 0.146517
Si Si5 0.936281 0.835760 0.318381
Si Si6 0.937291 0.836754 0.500586
O O1 0.500000 0.500000 0.979697
O O2 0.750000 0.342757 0.984119
O O3 0.514418 0.247125 0.902935
O O4 0.512459 0.257319 0.067745
O O5 0.250000 0.339839 0.665036
O O6 0.011971 0.261828 0.577012
O O7 0.000000 0.500000 0.667682
O O8 0.000913 0.245653 0.739814
O O9 0.750000 0.159768 0.816407
O O10 0.000000 0.000000 0.821356
O O11 0.750000 0.156462 0.148105
O O12 0.505341 0.228176 0.234054
O O13 0.500000 0.000000 0.138588
O O14 0.750000 0.837505 0.311925
O O15 0.981242 0.776996 0.409206
O O16 0.000000 0.000000 0.319681
O O17 0.750000 0.845138 0.502106
O O18 0.000000 0.000000 0.509611
#
# Coordination Sequence:
#
# PCOD9339472 Si02
#       6
#     4   4   4   4   4   4
#     4  10  23  39  56  79 110 144 180 219 267 321
#     4  11  23  39  57  81 112 147 183 224 272 326
#     4  11  23  40  61  86 111 141 180 224 270 322
#     4  10  19  33  53  80 108 139 179 223 267 317
#     4   9  16  29  50  77 106 139 177 222 269 315
#     4   9  19  34  54  79 108 140 180 224 269 319
#
# _framework density 18.690588000000002
#
# number of rings (size 3 to 8) (size 9 to 14) (size 15 to 20)
#    0.000    2.000    0.000    4.500    0.000    7.333 
#    0.000    0.833    0.000    4.000    0.000    0.000 
#    0.000    0.000    0.000    0.000    0.000    0.000 
#
# Total GULP energy -133980.443460 kJ/mol
# GULP energy per Si atom -5582.518477 kJ/mol
# Density = 1.864805 g / cm^3
# Si number density = 18.690588 Si / 1000 Ang^3
#
#
#
# Elastic Constant Matrix: (Units=GPa)
#
#
# Indices 1 2 3 4 5 6 
#
# 1 45.6659 30.0966 49.8500 0.0000 0.0000 0.0000
# 2 30.0966 130.4018 105.6624 0.0000 0.0000 0.0000
# 3 49.8500 105.6624 232.7638 0.0000 0.0000 0.0000
# 4 0.0000 0.0000 0.0000 -90.4178 0.0000 0.0000
# 5 0.0000 0.0000 0.0000 0.0000 30.7418 0.0000
# 6 0.0000 0.0000 0.0000 0.0000 0.0000 27.1507
#
#
#
# Elastic Compliance Matrix: (Units=1/GPa)
#
#
# Indices 1 2 3 4 5 6 
#
# 1 0.029143 -0.002640 -0.005043 0.000000 0.000000 0.000000
# 2 -0.002640 0.012370 -0.005050 0.000000 0.000000 0.000000
# 3 -0.005043 -0.005050 0.007669 0.000000 0.000000 0.000000
# 4 0.000000 0.000000 0.000000 -0.011060 0.000000 0.000000
# 5 0.000000 0.000000 0.000000 0.000000 0.032529 0.000000
# 6 0.000000 0.000000 0.000000 0.000000 0.000000 0.036832
#
#
# Mechanical properties :
#
#
# Convention : Reuss Voigt Hill
#
# Bulk Modulus (GPa) = 42.16582 86.67217 64.41899
# Shear Modulus (GPa) = 35.49799 8.37643 21.93721
#
# Velocity S-wave (km/s) = 4.36276 2.11928 3.42965
# Velocity P-wave (km/s) = 6.92727 7.24301 7.08690
#
# Compressibility (1/GPa) = 0.02371589
#
# Stress axis : x y z
#
# Youngs Moduli (GPa) = 34.31331 80.84296 130.40185
#
# Poissons Ratio (x) = 0.21342 0.65763
# Poissons Ratio (y) = 0.09058 0.65850
# Poissons Ratio (z) = 0.17305 0.40824
#
# Static dielectric constant tensor:
#      x y z
#    x 1.635690 0.000000 0.000000 
#    y 0.000000 1.600540 0.000000 
#    z 0.000000 0.000000 1.682370 
# 
# From -- ./inp_files/6102.got.cif
#   From: 2010.05.17/outbox.cif.g08.bks.cpg/sg28_4_cif.got.tgz:6102.got - 2010.06.04 01:15:21.
