data_PCOD9339616
_publ_section_title
;
Structure prediction by ZEFSAII (Michael W. Deem and Ramdas Pophale) SiO2 
 PCOD9339616
Probable space group: P M A 2
;
_chemical_formula_sum "Si O2"
_cell_formula_units_Z 32
_cell_length_a 8.411756
_cell_length_b 14.394173
_cell_length_c 13.474362
_cell_angle_alpha 90.000000
_cell_angle_beta 90.000000
_cell_angle_gamma 90.000000
_cell_volume 1631.479404
_symmetry_space_group_name_H-M "P M A 2"
_symmetry_group_IT_number 28
_symmetry_cell_setting 'orthorhombic'
loop_
_space_group_symop_operation_xyz
x,y,z
-x,-y,z
1/2-x,y,z
1/2+x,-y,z
loop_
_atom_site_type_symbol
_atom_site_label
_atom_site_fract_x
_atom_site_fract_y
_atom_site_fract_z
Si Si1 0.058241 0.106403 0.317980
Si Si2 0.059326 0.606284 0.421909
Si Si3 0.059478 0.105258 0.536039
Si Si4 0.557635 0.710148 0.009531
Si Si5 0.559945 0.394723 0.815029
Si Si6 0.941782 0.286546 0.619254
Si Si7 0.059464 0.393974 0.210463
Si Si8 0.941859 0.895132 0.099310
O O1 0.250000 0.111377 0.319097
O O2 0.002511 0.139862 0.425983
O O3 0.006791 0.140657 0.209468
O O4 0.000000 0.000000 0.316938
O O5 0.250000 0.606126 0.420268
O O6 0.002793 0.661145 0.519126
O O7 0.000000 0.500000 0.428663
O O8 0.999388 0.645127 0.316201
O O9 0.250000 0.103766 0.536448
O O10 0.998005 0.180490 0.613542
O O11 0.000000 0.000000 0.550921
O O12 0.750000 0.707069 0.006370
O O13 0.493212 0.658801 0.913582
O O14 0.507300 0.658640 0.111134
O O15 0.507435 0.817690 0.020583
O O16 0.500000 0.500000 0.816210
O O17 0.750000 0.396550 0.811943
O O18 0.501943 0.340864 0.716706
O O19 0.750000 0.287822 0.618765
O O20 0.250000 0.392671 0.213226
O O21 0.000000 0.500000 0.204681
O O22 0.750000 0.897930 0.100054
O O23 0.000000 0.000000 0.083546
#
# Coordination Sequence:
#
# PCOD9339616 Si02
#       8
#     4   4   4   4   4   4   4   4
#     4   8  15  28  48  75 109 148 187 225 272 325
#     4  10  20  35  55  81 114 148 185 232 289 351
#     4  10  20  34  57  85 118 157 196 239 286 341
#     4  10  22  38  59  85 116 152 193 240 288 344
#     4  11  24  43  66  88 114 147 191 245 295 349
#     4  10  23  40  58  84 116 150 193 242 291 344
#     4  10  20  34  54  80 114 149 184 230 287 349
#     4   9  18  34  54  80 116 153 191 235 281 335
#
# _framework density 19.614100000000001
#
# number of rings (size 3 to 8) (size 9 to 14) (size 15 to 20)
#    0.000    2.250    0.000    3.000    1.750    5.000 
#    0.000    0.625    0.000    1.500    0.000    0.000 
#    0.000    0.000    0.000    0.000    0.000    0.000 
#
# Total GULP energy -178573.984435 kJ/mol
# GULP energy per Si atom -5580.437014 kJ/mol
# Density = 1.956946 g / cm^3
# Si number density = 19.614100 Si / 1000 Ang^3
#
#
#
# Elastic Constant Matrix: (Units=GPa)
#
#
# Indices 1 2 3 4 5 6 
#
# 1 24.4595 20.2406 31.6085 0.0000 0.0000 0.0000
# 2 20.2406 139.8455 100.1078 0.0000 0.0000 0.0000
# 3 31.6085 100.1078 162.3958 0.0000 0.0000 0.0000
# 4 0.0000 0.0000 0.0000 38.8705 0.0000 0.0000
# 5 0.0000 0.0000 0.0000 0.0000 23.3599 0.0000
# 6 0.0000 0.0000 0.0000 0.0000 0.0000 18.8304
#
#
#
# Elastic Compliance Matrix: (Units=1/GPa)
#
#
# Indices 1 2 3 4 5 6 
#
# 1 0.054645 -0.000529 -0.010310 0.000000 0.000000 0.000000
# 2 -0.000529 0.012804 -0.007790 0.000000 0.000000 0.000000
# 3 -0.010310 -0.007790 0.012967 0.000000 0.000000 0.000000
# 4 0.000000 0.000000 0.000000 0.025726 0.000000 0.000000
# 5 0.000000 0.000000 0.000000 0.000000 0.042808 0.000000
# 6 0.000000 0.000000 0.000000 0.000000 0.000000 0.053106
#
#
# Mechanical properties :
#
#
# Convention : Reuss Voigt Hill
#
# Bulk Modulus (GPa) = 23.17064 70.06829 46.61946
# Shear Modulus (GPa) = 19.70841 27.86174 23.78508
#
# Velocity S-wave (km/s) = 3.17331 3.77304 3.48609
# Velocity P-wave (km/s) = 5.02647 7.40149 6.32643
#
# Compressibility (1/GPa) = 0.04315807
#
# Stress axis : x y z
#
# Youngs Moduli (GPa) = 18.29989 78.10355 77.12169
#
# Poissons Ratio (x) = 0.04128 0.79515
# Poissons Ratio (y) = 0.00967 0.60076
# Poissons Ratio (z) = 0.18868 0.60841
#
# Static dielectric constant tensor:
#      x y z
#    x 1.678290 0.000000 0.000000 
#    y 0.000000 1.682480 0.000000 
#    z 0.000000 0.000000 1.704830 
# 
# From -- ./inp_files/5047.got.cif
#   From: 2010.05.17/outbox.cif.g08.bks.cpg/sg28_3_cif.got.tgz:5047.got - 2010.06.04 01:15:21.
