data_PCOD9339865
_publ_section_title
;
Structure prediction by ZEFSAII (Michael W. Deem and Ramdas Pophale) SiO2 
 PCOD9339865
Probable space group: P M A 2
;
_chemical_formula_sum "Si O2"
_cell_formula_units_Z 24
_cell_length_a 19.503588
_cell_length_b 9.703649
_cell_length_c 5.007775
_cell_angle_alpha 90.000000
_cell_angle_beta 90.000000
_cell_angle_gamma 90.000000
_cell_volume 947.751326
_symmetry_space_group_name_H-M "P M A 2"
_symmetry_group_IT_number 28
_symmetry_cell_setting 'orthorhombic'
loop_
_space_group_symop_operation_xyz
x,y,z
-x,-y,z
1/2-x,y,z
1/2+x,-y,z
loop_
_atom_site_type_symbol
_atom_site_label
_atom_site_fract_x
_atom_site_fract_y
_atom_site_fract_z
Si Si1 0.914800 0.212710 0.606180
Si Si2 0.170611 0.699970 0.094795
Si Si3 0.825897 0.582023 0.791532
Si Si4 0.174377 0.108405 0.873609
Si Si5 0.909165 0.923097 0.360160
Si Si6 0.036930 0.367776 0.468912
O O1 0.874862 0.275588 0.353685
O O2 0.979740 0.309089 0.677434
O O3 0.936901 0.061281 0.503499
O O4 0.861182 0.217071 0.846042
O O5 0.250000 0.734689 0.146046
O O6 0.167114 0.542209 0.997190
O O7 0.750000 0.566772 0.659290
O O8 0.825254 0.728681 0.939119
O O9 0.891778 0.585744 0.599902
O O10 0.250000 0.051626 0.914314
O O11 0.153501 0.106190 0.564133
O O12 0.119087 0.043355 0.069445
O O13 0.948651 0.777950 0.323859
O O14 0.000000 0.500000 0.336317
#
# Coordination Sequence:
#
# PCOD9339865 Si02
#       6
#     4   4   4   4   4   4
#     4  12  26  45  71 105 147 189 239 293 359 427
#     4  11  25  45  73 108 149 192 239 296 359 424
#     4   9  21  44  73 109 143 183 240 303 355 418
#     4  10  22  41  71 101 139 186 239 294 354 422
#     4  11  25  43  67 104 144 185 235 298 355 424
#     4  11  24  47  73 105 138 190 239 293 356 426
#
# _framework density 25.323098000000002
#
# number of rings (size 3 to 8) (size 9 to 14) (size 15 to 20)
#    0.000    1.333    1.667    2.500    2.333    7.333 
#    0.000   10.000    0.000    0.000    0.000    0.000 
#    0.000    0.000    0.000    0.000    0.000    0.000 
#
# Total GULP energy -134164.274694 kJ/mol
# GULP energy per Si atom -5590.178112 kJ/mol
# Density = 2.526546 g / cm^3
# Si number density = 25.323098 Si / 1000 Ang^3
#
#
#
# Elastic Constant Matrix: (Units=GPa)
#
#
# Indices 1 2 3 4 5 6 
#
# 1 157.4391 49.6532 38.0952 0.0000 0.0000 0.0000
# 2 49.6532 152.8977 22.9398 0.0000 0.0000 0.0000
# 3 38.0952 22.9398 87.2261 0.0000 0.0000 0.0000
# 4 0.0000 0.0000 0.0000 17.7774 0.0000 0.0000
# 5 0.0000 0.0000 0.0000 0.0000 -20.1321 0.0000
# 6 0.0000 0.0000 0.0000 0.0000 0.0000 26.6007
#
#
#
# Elastic Compliance Matrix: (Units=1/GPa)
#
#
# Indices 1 2 3 4 5 6 
#
# 1 0.007686 -0.002074 -0.002811 0.000000 0.000000 0.000000
# 2 -0.002074 0.007369 -0.001032 0.000000 0.000000 0.000000
# 3 -0.002811 -0.001032 0.012964 0.000000 0.000000 0.000000
# 4 0.000000 0.000000 0.000000 0.056251 0.000000 0.000000
# 5 0.000000 0.000000 0.000000 0.000000 -0.049672 0.000000
# 6 0.000000 0.000000 0.000000 0.000000 0.000000 0.037593
#
#
# Mechanical properties :
#
#
# Convention : Reuss Voigt Hill
#
# Bulk Modulus (GPa) = 61.79183 68.77103 65.28143
# Shear Modulus (GPa) = 55.91558 23.97417 39.94487
#
# Velocity S-wave (km/s) = 4.70413 3.08024 3.97597
# Velocity P-wave (km/s) = 7.34571 6.31402 6.84932
#
# Compressibility (1/GPa) = 0.01618337
#
# Stress axis : x y z
#
# Youngs Moduli (GPa) = 130.10523 135.70788 77.13854
#
# Poissons Ratio (x) = 0.28149 0.21686
# Poissons Ratio (y) = 0.26987 0.07961
# Poissons Ratio (z) = 0.36577 0.14005
#
# Static dielectric constant tensor:
#      x y z
#    x 2.070610 0.000000 0.000000 
#    y 0.000000 2.163750 0.000000 
#    z 0.000000 0.000000 1.920910 
# 
# From -- ./inp_files/1113.got.cif
#   From: 2010.05.17/outbox.cif.g08.bks.cpg/sg28_1_cif.got.tgz:1113.got - 2010.06.04 01:15:21.
