data_PCOD9339180
_publ_section_title
;
Structure prediction by ZEFSAII (Michael W. Deem and Ramdas Pophale) SiO2 
 PCOD9339180
Probable space group: P C C 2
;
_chemical_formula_sum "Si O2"
_cell_formula_units_Z 22
_cell_length_a 5.120685
_cell_length_b 14.915592
_cell_length_c 11.215054
_cell_angle_alpha 90.000000
_cell_angle_beta 90.000000
_cell_angle_gamma 90.000000
_cell_volume 856.583935
_symmetry_space_group_name_H-M "P C C 2"
_symmetry_group_IT_number 27
_symmetry_cell_setting 'orthorhombic'
loop_
_space_group_symop_operation_xyz
x,y,z
-x,-y,z
-x,y,1/2+z
x,-y,1/2+z
loop_
_atom_site_type_symbol
_atom_site_label
_atom_site_fract_x
_atom_site_fract_y
_atom_site_fract_z
Si Si1 0.500000 0.500000 0.771811
Si Si2 0.000000 0.000000 0.148385
Si Si3 0.429662 0.319961 0.662049
Si Si4 0.358583 0.122549 0.009831
Si Si5 0.000000 0.500000 0.917466
Si Si6 0.934993 0.305631 0.528296
Si Si7 0.335598 0.147818 0.757607
O O1 0.379790 0.422054 0.693006
O O2 0.743455 0.466205 0.847982
O O3 0.092240 0.917219 0.230834
O O4 0.783406 0.965580 0.056833
O O5 0.738534 0.311107 0.642339
O O6 0.315960 0.255450 0.763998
O O7 0.244677 0.300003 0.549522
O O8 0.476349 0.113714 0.877305
O O9 0.154212 0.205354 0.987708
O O10 0.520211 0.144091 0.129108
O O11 0.896864 0.593945 0.975433
#
# Coordination Sequence:
#
# PCOD9339180 Si02
#       7
#     2   2   4   4   2   4   4
#     4  12  24  40  68 108 150 200 260 320 388 468
#     4  12  24  48  72 112 142 200 258 324 396 470
#     4  11  23  45  69 106 147 204 254 321 387 466
#     4  11  26  47  75 108 151 198 258 323 395 473
#     4  12  24  40  68 108 148 204 256 320 386 468
#     4  11  23  45  70 105 147 203 255 317 387 466
#     4  11  26  47  74 109 150 202 256 325 395 474
#
# _framework density 25.683413999999999
#
# number of rings (size 3 to 8) (size 9 to 14) (size 15 to 20)
#    0.000    0.727    1.818    5.455    0.000    5.818 
#    0.000    0.000    0.000    0.000    0.000    0.000 
#    0.000    0.000    0.000    0.000    0.000    0.000 
#
# Total GULP energy -122560.416737 kJ/mol
# GULP energy per Si atom -5570.928033 kJ/mol
# Density = 2.562496 g / cm^3
# Si number density = 25.683414 Si / 1000 Ang^3
#
#
#
# Elastic Constant Matrix: (Units=GPa)
#
#
# Indices 1 2 3 4 5 6 
#
# 1 81.4319 11.3290 19.3165 0.0000 0.0000 0.0000
# 2 11.3290 123.6750 -1.1582 0.0000 0.0000 0.0000
# 3 19.3165 -1.1582 89.9630 0.0000 0.0000 0.0000
# 4 0.0000 0.0000 0.0000 26.3098 0.0000 0.0000
# 5 0.0000 0.0000 0.0000 0.0000 10.9136 0.0000
# 6 0.0000 0.0000 0.0000 0.0000 0.0000 52.7325
#
#
#
# Elastic Compliance Matrix: (Units=1/GPa)
#
#
# Indices 1 2 3 4 5 6 
#
# 1 0.013123 -0.001229 -0.002834 0.000000 0.000000 0.000000
# 2 -0.001229 0.008202 0.000369 0.000000 0.000000 0.000000
# 3 -0.002834 0.000369 0.011729 0.000000 0.000000 0.000000
# 4 0.000000 0.000000 0.000000 0.038009 0.000000 0.000000
# 5 0.000000 0.000000 0.000000 0.000000 0.091629 0.000000
# 6 0.000000 0.000000 0.000000 0.000000 0.000000 0.018964
#
#
# Mechanical properties :
#
#
# Convention : Reuss Voigt Hill
#
# Bulk Modulus (GPa) = 38.95879 39.33827 39.14853
# Shear Modulus (GPa) = 25.30411 35.69672 30.50042
#
# Velocity S-wave (km/s) = 3.14225 3.73215 3.44983
# Velocity P-wave (km/s) = 5.32604 5.82424 5.58070
#
# Compressibility (1/GPa) = 0.02566815
#
# Stress axis : x y z
#
# Youngs Moduli (GPa) = 76.20043 121.92570 85.25985
#
# Poissons Ratio (x) = 0.14981 0.24159
# Poissons Ratio (y) = 0.09362 -0.03150
# Poissons Ratio (z) = 0.21592 -0.04504
#
# Static dielectric constant tensor:
#      x y z
#    x 2.005820 0.000000 0.000000 
#    y 0.000000 2.186030 0.000000 
#    z 0.000000 0.000000 2.084690 
# 
# From -- ./inp_files/2021.got.cif
#   From: 2010.05.17/outbox.cif.g08.bks.cpg/sg27_2_cif.got.tgz:2021.got - 2010.06.04 01:11:05.
