data_PCOD9339745
_publ_section_title
;
Structure prediction by ZEFSAII (Michael W. Deem and Ramdas Pophale) SiO2 
 PCOD9339745
Probable space group: P M A 2
;
_chemical_formula_sum "Si O2"
_cell_formula_units_Z 24
_cell_length_a 23.082487
_cell_length_b 6.422660
_cell_length_c 7.533857
_cell_angle_alpha 90.000000
_cell_angle_beta 90.000000
_cell_angle_gamma 90.000000
_cell_volume 1116.901578
_symmetry_space_group_name_H-M "P M A 2"
_symmetry_group_IT_number 28
_symmetry_cell_setting 'orthorhombic'
loop_
_space_group_symop_operation_xyz
x,y,z
-x,-y,z
1/2-x,y,z
1/2+x,-y,z
loop_
_atom_site_type_symbol
_atom_site_label
_atom_site_fract_x
_atom_site_fract_y
_atom_site_fract_z
Si Si1 0.750000 0.508918 0.653461
Si Si2 0.500000 0.500000 0.530640
Si Si3 0.250000 0.462324 0.068390
Si Si4 0.875512 0.512764 0.117080
Si Si5 0.378045 0.449513 0.703023
Si Si6 0.535808 0.180958 0.261411
Si Si7 0.750000 0.871926 0.356127
Si Si8 0.372173 0.116930 0.410616
O O1 0.750000 0.580309 0.858904
O O2 0.681978 0.426995 0.648976
O O3 0.750000 0.681489 0.499290
O O4 0.440646 0.533712 0.638425
O O5 0.494920 0.306365 0.396060
O O6 0.190486 0.573953 0.124432
O O7 0.250000 0.240921 0.166890
O O8 0.926009 0.346737 0.154297
O O9 0.876882 0.700662 0.259472
O O10 0.881212 0.583094 0.913470
O O11 0.373532 0.231704 0.598519
O O12 0.500000 0.000000 0.160570
O O13 0.580658 0.055512 0.381026
O O14 0.690561 0.987087 0.385189
#
# Coordination Sequence:
#
# PCOD9339745 Si02
#       8
#     2   2   2   4   4   4   2   4
#     4   8  16  32  61  90 117 157 200 250 311 374
#     4  12  24  42  62  88 128 168 214 262 314 376
#     4   8  16  33  61  93 120 154 202 257 316 384
#     4  10  21  40  66  92 124 164 207 261 324 382
#     4  10  20  40  65  90 123 163 206 254 316 381
#     4  12  23  40  62  85 128 168 210 269 316 370
#     4   8  16  31  60  91 117 157 200 245 317 376
#     4  10  20  40  63  90 126 160 203 261 313 379
#
# _framework density 21.488016999999999
#
# number of rings (size 3 to 8) (size 9 to 14) (size 15 to 20)
#    0.000    2.000    3.333    0.000    0.000    2.667 
#    3.000    1.667    3.667    0.000    0.000    0.000 
#    0.000    0.000    0.000    0.000    0.000    0.000 
#
# Total GULP energy -133604.386219 kJ/mol
# GULP energy per Si atom -5566.849426 kJ/mol
# Density = 2.143911 g / cm^3
# Si number density = 21.488017 Si / 1000 Ang^3
#
#
#
# Elastic Constant Matrix: (Units=GPa)
#
#
# Indices 1 2 3 4 5 6 
#
# 1 170.2761 25.1375 39.9964 0.0000 0.0000 0.0000
# 2 25.1375 51.5773 39.1002 0.0000 0.0000 0.0000
# 3 39.9964 39.1002 109.0157 0.0000 0.0000 0.0000
# 4 0.0000 0.0000 0.0000 9.0036 0.0000 0.0000
# 5 0.0000 0.0000 0.0000 0.0000 33.8013 0.0000
# 6 0.0000 0.0000 0.0000 0.0000 0.0000 18.9647
#
#
#
# Elastic Compliance Matrix: (Units=1/GPa)
#
#
# Indices 1 2 3 4 5 6 
#
# 1 0.006557 -0.001884 -0.001730 0.000000 0.000000 0.000000
# 2 -0.001884 0.027170 -0.009054 0.000000 0.000000 0.000000
# 3 -0.001730 -0.009054 0.013055 0.000000 0.000000 0.000000
# 4 0.000000 0.000000 0.000000 0.111067 0.000000 0.000000
# 5 0.000000 0.000000 0.000000 0.000000 0.029585 0.000000
# 6 0.000000 0.000000 0.000000 0.000000 0.000000 0.052729
#
#
# Mechanical properties :
#
#
# Convention : Reuss Voigt Hill
#
# Bulk Modulus (GPa) = 46.62774 59.92638 53.27706
# Shear Modulus (GPa) = 18.33863 27.46293 22.90078
#
# Velocity S-wave (km/s) = 2.92453 3.57887 3.26812
# Velocity P-wave (km/s) = 5.75764 6.71019 6.25208
#
# Compressibility (1/GPa) = 0.02144646
#
# Stress axis : x y z
#
# Youngs Moduli (GPa) = 152.50047 36.80490 76.59947
#
# Poissons Ratio (x) = 0.06936 0.13251
# Poissons Ratio (y) = 0.28738 0.69351
# Poissons Ratio (z) = 0.26381 0.33322
#
# Static dielectric constant tensor:
#      x y z
#    x 1.955230 0.000000 0.000000 
#    y 0.000000 1.761210 0.000000 
#    z 0.000000 0.000000 1.737720 
# 
# From -- ./inp_files/4190.got.cif
#   From: 2010.05.17/outbox.cif.g08.bks.cpg/sg28_3_cif.got.tgz:4190.got - 2010.06.04 01:15:21.
