data_PCOD9339204
_publ_section_title
;
Structure prediction by ZEFSAII (Michael W. Deem and Ramdas Pophale) SiO2 
 PCOD9339204
Probable space group: P C C 2
;
_chemical_formula_sum "Si O2"
_cell_formula_units_Z 24
_cell_length_a 12.411439
_cell_length_b 11.030443
_cell_length_c 8.189183
_cell_angle_alpha 90.000000
_cell_angle_beta 90.000000
_cell_angle_gamma 90.000000
_cell_volume 1121.129211
_symmetry_space_group_name_H-M "P C C 2"
_symmetry_group_IT_number 27
_symmetry_cell_setting 'orthorhombic'
loop_
_space_group_symop_operation_xyz
x,y,z
-x,-y,z
-x,y,1/2+z
x,-y,1/2+z
loop_
_atom_site_type_symbol
_atom_site_label
_atom_site_fract_x
_atom_site_fract_y
_atom_site_fract_z
Si Si1 0.625726 0.530612 0.194690
Si Si2 0.113209 0.144754 0.969904
Si Si3 0.692735 0.691660 0.884247
Si Si4 0.128313 0.129741 0.358417
Si Si5 0.475994 0.142408 0.715024
Si Si6 0.349058 0.749566 0.908333
O O1 0.500000 0.500000 0.170571
O O2 0.683916 0.403778 0.234663
O O3 0.636685 0.609369 0.362556
O O4 0.669346 0.612387 0.046602
O O5 0.192624 0.244127 0.896498
O O6 0.988332 0.165622 0.927223
O O7 0.143847 0.011574 0.902793
O O8 0.126246 0.142429 0.164031
O O9 0.604158 0.797224 0.850096
O O10 0.226689 0.208794 0.425067
O O11 0.594403 0.193886 0.747857
O O12 0.417891 0.190837 0.552997
O O13 0.500000 0.000000 0.717204
#
# Coordination Sequence:
#
# PCOD9339204 Si02
#       6
#     4   4   4   4   4   4
#     4  12  25  47  72 104 142 203 248 296 362 442
#     4  11  25  47  75 109 146 194 244 305 378 445
#     4  12  26  47  74 104 146 196 253 304 365 441
#     4  11  25  46  77 107 148 190 245 303 380 450
#     4  12  27  44  68 111 152 187 235 308 379 440
#     4  12  26  44  73 104 145 192 246 297 367 445
#
# _framework density 21.406987999999998
#
# number of rings (size 3 to 8) (size 9 to 14) (size 15 to 20)
#    0.000    0.333    3.333    6.000    7.000    0.000 
#    0.000    1.667    0.000    0.000    0.000    0.000 
#    0.000    0.000    0.000    0.000    0.000    0.000 
#
# Total GULP energy -134234.238704 kJ/mol
# GULP energy per Si atom -5593.093279 kJ/mol
# Density = 2.135827 g / cm^3
# Si number density = 21.406988 Si / 1000 Ang^3
#
#
#
# Elastic Constant Matrix: (Units=GPa)
#
#
# Indices 1 2 3 4 5 6 
#
# 1 139.9299 79.0789 33.4433 0.0000 0.0000 0.0000
# 2 79.0789 150.6459 39.4510 0.0000 0.0000 0.0000
# 3 33.4433 39.4510 105.0672 0.0000 0.0000 0.0000
# 4 0.0000 0.0000 0.0000 23.3161 0.0000 0.0000
# 5 0.0000 0.0000 0.0000 0.0000 27.6625 0.0000
# 6 0.0000 0.0000 0.0000 0.0000 0.0000 51.9202
#
#
#
# Elastic Compliance Matrix: (Units=1/GPa)
#
#
# Indices 1 2 3 4 5 6 
#
# 1 0.010340 -0.005064 -0.001390 0.000000 0.000000 0.000000
# 2 -0.005064 0.009842 -0.002084 0.000000 0.000000 0.000000
# 3 -0.001390 -0.002084 0.010742 0.000000 0.000000 0.000000
# 4 0.000000 0.000000 0.000000 0.042889 0.000000 0.000000
# 5 0.000000 0.000000 0.000000 0.000000 0.036150 0.000000
# 6 0.000000 0.000000 0.000000 0.000000 0.000000 0.019260
#
#
# Mechanical properties :
#
#
# Convention : Reuss Voigt Hill
#
# Bulk Modulus (GPa) = 72.20326 77.73215 74.96770
# Shear Modulus (GPa) = 33.13102 36.82443 34.97773
#
# Velocity S-wave (km/s) = 3.93832 4.15204 4.04659
# Velocity P-wave (km/s) = 7.38123 7.70560 7.54516
#
# Compressibility (1/GPa) = 0.01384979
#
# Stress axis : x y z
#
# Youngs Moduli (GPa) = 96.70716 101.60508 93.08821
#
# Poissons Ratio (x) = 0.51453 0.12939
# Poissons Ratio (y) = 0.48973 0.19396
# Poissons Ratio (z) = 0.13442 0.21170
#
# Static dielectric constant tensor:
#      x y z
#    x 1.725260 0.000000 0.000000 
#    y 0.000000 1.993220 0.000000 
#    z 0.000000 0.000000 1.884100 
# 
# From -- ./inp_files/1393.got.cif
#   From: 2010.05.17/outbox.cif.g08.bks.cpg/sg27_1_cif.got.tgz:1393.got - 2010.06.04 01:11:05.
