data_PCOD9339391
_publ_section_title
;
Structure prediction by ZEFSAII (Michael W. Deem and Ramdas Pophale) SiO2 
 PCOD9339391
Probable space group: P M A 2
;
_chemical_formula_sum "Si O2"
_cell_formula_units_Z 28
_cell_length_a 11.546902
_cell_length_b 25.986921
_cell_length_c 4.947875
_cell_angle_alpha 90.000000
_cell_angle_beta 90.000000
_cell_angle_gamma 90.000000
_cell_volume 1484.701083
_symmetry_space_group_name_H-M "P M A 2"
_symmetry_group_IT_number 28
_symmetry_cell_setting 'orthorhombic'
loop_
_space_group_symop_operation_xyz
x,y,z
-x,-y,z
1/2-x,y,z
1/2+x,-y,z
loop_
_atom_site_type_symbol
_atom_site_label
_atom_site_fract_x
_atom_site_fract_y
_atom_site_fract_z
Si Si1 0.883867 0.391827 0.400020
Si Si2 0.885846 0.223306 0.164669
Si Si3 0.385084 0.708326 0.685064
Si Si4 0.110395 0.538632 0.912074
Si Si5 0.990506 0.884134 0.200258
Si Si6 0.750000 0.989455 0.932900
Si Si7 0.750000 0.917649 0.424415
Si Si8 0.548920 0.052832 0.683845
O O1 0.750000 0.376870 0.352750
O O2 0.938600 0.342218 0.545398
O O3 0.888724 0.438761 0.610565
O O4 0.920962 0.414408 0.114122
O O5 0.750000 0.212476 0.098033
O O6 0.888810 0.246562 0.464040
O O7 0.960380 0.172033 0.142434
O O8 0.930578 0.267711 0.961895
O O9 0.250000 0.695487 0.745640
O O10 0.250000 0.523704 0.967823
O O11 0.000000 0.500000 0.937765
O O12 0.865406 0.886940 0.345385
O O13 0.072114 0.910717 0.429220
O O14 0.982950 0.915078 0.917713
O O15 0.750000 0.941582 0.722621
O O16 0.645863 0.026792 0.864840
O O17 0.750000 0.967675 0.231162
O O18 0.500000 0.000000 0.553778
#
# Coordination Sequence:
#
# PCOD9339391 Si02
#       8
#     4   4   4   4   4   2   2   4
#     4   9  17  30  52  78 106 142 184 219 257 306
#     4  10  21  34  51  78 106 128 161 213 274 311
#     4   9  17  33  53  76 104 133 169 218 263 306
#     4  10  19  31  49  81 115 148 183 222 264 313
#     4  12  24  38  55  79 103 134 164 205 254 308
#     4  12  24  36  58  76 100 130 162 208 244 302
#     4  12  22  40  56  74  98 134 178 198 234 298
#     4  12  23  39  55  77 102 129 164 201 251 302
#
# _framework density 18.859013000000001
#
# number of rings (size 3 to 8) (size 9 to 14) (size 15 to 20)
#    0.000    1.429    2.857    3.429    2.000    3.429 
#    0.000    0.000    0.000    0.000   11.143    0.000 
#    0.000    0.000    0.000    0.000    0.000    0.000 
#
# Total GULP energy -155887.334721 kJ/mol
# GULP energy per Si atom -5567.404811 kJ/mol
# Density = 1.881609 g / cm^3
# Si number density = 18.859013 Si / 1000 Ang^3
#
#
#
# Elastic Constant Matrix: (Units=GPa)
#
#
# Indices 1 2 3 4 5 6 
#
# 1 54.5409 24.1114 -9.3983 0.0000 0.0000 0.0000
# 2 24.1114 52.7735 -5.7853 0.0000 0.0000 0.0000
# 3 -9.3983 -5.7853 72.3177 0.0000 0.0000 0.0000
# 4 0.0000 0.0000 0.0000 24.8724 0.0000 0.0000
# 5 0.0000 0.0000 0.0000 0.0000 10.7605 0.0000
# 6 0.0000 0.0000 0.0000 0.0000 0.0000 22.7478
#
#
#
# Elastic Compliance Matrix: (Units=1/GPa)
#
#
# Indices 1 2 3 4 5 6 
#
# 1 0.023316 -0.010412 0.002197 0.000000 0.000000 0.000000
# 2 -0.010412 0.023766 0.000548 0.000000 0.000000 0.000000
# 3 0.002197 0.000548 0.014157 0.000000 0.000000 0.000000
# 4 0.000000 0.000000 0.000000 0.040205 0.000000 0.000000
# 5 0.000000 0.000000 0.000000 0.000000 0.092933 0.000000
# 6 0.000000 0.000000 0.000000 0.000000 0.000000 0.043960
#
#
# Mechanical properties :
#
#
# Convention : Reuss Voigt Hill
#
# Bulk Modulus (GPa) = 21.78346 21.94307 21.86326
# Shear Modulus (GPa) = 18.58918 23.05641 20.82280
#
# Velocity S-wave (km/s) = 3.14298 3.50032 3.32645
# Velocity P-wave (km/s) = 4.97462 5.29121 5.13535
#
# Compressibility (1/GPa) = 0.04590639
#
# Stress axis : x y z
#
# Youngs Moduli (GPa) = 42.88820 42.07676 70.63508
#
# Poissons Ratio (x) = 0.43810 -0.15520
# Poissons Ratio (y) = 0.44655 -0.03872
# Poissons Ratio (z) = -0.09424 -0.02306
#
# Static dielectric constant tensor:
#      x y z
#    x 1.323320 0.000000 0.000000 
#    y 0.000000 1.671300 0.000000 
#    z 0.000000 0.000000 1.666330 
# 
# From -- ./inp_files/548.got.cif
#   From: 2010.05.17/outbox.cif.g08.bks.cpg/sg28_1_cif.got.tgz:548.got - 2010.06.04 01:15:21.
