data_PCOD9339404
_publ_section_title
;
Structure prediction by ZEFSAII (Michael W. Deem and Ramdas Pophale) SiO2 
 PCOD9339404
Probable space group: P M A 2
;
_chemical_formula_sum "Si O2"
_cell_formula_units_Z 32
_cell_length_a 8.605550
_cell_length_b 14.721647
_cell_length_c 16.088208
_cell_angle_alpha 90.000000
_cell_angle_beta 90.000000
_cell_angle_gamma 90.000000
_cell_volume 2038.180793
_symmetry_space_group_name_H-M "P M A 2"
_symmetry_group_IT_number 28
_symmetry_cell_setting 'orthorhombic'
loop_
_space_group_symop_operation_xyz
x,y,z
-x,-y,z
1/2-x,y,z
1/2+x,-y,z
loop_
_atom_site_type_symbol
_atom_site_label
_atom_site_fract_x
_atom_site_fract_y
_atom_site_fract_z
Si Si1 0.563077 0.096822 0.209200
Si Si2 0.563077 0.096822 0.015993
Si Si3 0.063022 0.709359 0.272312
Si Si4 0.937119 0.603263 0.430109
Si Si5 0.064135 0.397880 0.112597
Si Si6 0.062881 0.396737 0.795085
Si Si7 0.436979 0.709358 0.952882
Si Si8 0.063163 0.397611 0.612597
O O1 0.750000 0.093371 0.209493
O O2 0.512945 0.108746 0.112596
O O3 0.514726 0.185558 0.260289
O O4 0.500000 0.000000 0.238795
O O5 0.750000 0.093371 0.015700
O O6 0.500000 0.000000 0.986397
O O7 0.514728 0.185558 0.964903
O O8 0.250000 0.704993 0.269545
O O9 0.003057 0.664458 0.356640
O O10 0.997187 0.653680 0.194114
O O11 0.750000 0.600358 0.425010
O O12 0.983763 0.639773 0.522215
O O13 0.000000 0.500000 0.421803
O O14 0.250000 0.399209 0.112598
O O15 0.000000 0.500000 0.112596
O O16 0.002816 0.346319 0.031081
O O17 0.250000 0.399642 0.800184
O O18 0.016236 0.360228 0.702979
O O19 0.000000 0.500000 0.803391
O O20 0.996943 0.335543 0.868554
O O21 0.250000 0.704991 0.955650
O O22 0.250000 0.399858 0.612597
O O23 0.000000 0.500000 0.612596
#
# Coordination Sequence:
#
# PCOD9339404 Si02
#       8
#     4   4   4   4   4   4   4   4
#     4   9  18  33  51  70  93 122 156 198 242 283
#     4   9  18  33  51  70  93 122 156 198 242 283
#     4  11  21  35  50  70  99 129 160 198 240 285
#     4  10  19  32  49  72  98 130 165 200 240 284
#     4  12  24  36  49  66  93 132 169 200 232 278
#     4  10  19  32  49  72  98 130 165 200 240 284
#     4  11  21  35  50  70  99 129 160 198 240 285
#     4   8  16  30  48  68  95 124 159 202 241 280
#
# _framework density 15.700276000000001
#
# number of rings (size 3 to 8) (size 9 to 14) (size 15 to 20)
#    0.000    2.000    1.250    3.375    0.000    3.000 
#    0.000    0.000    0.000    0.000    0.000    0.875 
#    0.000    0.000    0.000    0.000    0.000    0.000 
#
# Total GULP energy -178454.768794 kJ/mol
# GULP energy per Si atom -5576.711525 kJ/mol
# Density = 1.566454 g / cm^3
# Si number density = 15.700276 Si / 1000 Ang^3
#
#
#
# Elastic Constant Matrix: (Units=GPa)
#
#
# Indices 1 2 3 4 5 6 
#
# 1 55.3613 38.0366 41.7713 0.0000 0.0000 0.0000
# 2 38.0366 133.2005 81.4757 0.0000 0.0000 0.0000
# 3 41.7713 81.4757 156.6580 0.0000 0.0000 0.0000
# 4 0.0000 0.0000 0.0000 1.7355 0.0000 0.0000
# 5 0.0000 0.0000 0.0000 0.0000 8.8446 0.0000
# 6 0.0000 0.0000 0.0000 0.0000 0.0000 25.6280
#
#
#
# Elastic Compliance Matrix: (Units=1/GPa)
#
#
# Indices 1 2 3 4 5 6 
#
# 1 0.024217 -0.004349 -0.004195 0.000000 0.000000 0.000000
# 2 -0.004349 0.011791 -0.004973 0.000000 0.000000 0.000000
# 3 -0.004195 -0.004973 0.010088 0.000000 0.000000 0.000000
# 4 0.000000 0.000000 0.000000 0.576200 0.000000 0.000000
# 5 0.000000 0.000000 0.000000 0.000000 0.113063 0.000000
# 6 0.000000 0.000000 0.000000 0.000000 0.000000 0.039020
#
#
# Mechanical properties :
#
#
# Convention : Reuss Voigt Hill
#
# Bulk Modulus (GPa) = 52.46102 74.19854 63.32978
# Shear Modulus (GPa) = 6.18990 19.50403 12.84696
#
# Velocity S-wave (km/s) = 1.98774 3.52841 2.86363
# Velocity P-wave (km/s) = 6.22533 7.99760 7.16646
#
# Compressibility (1/GPa) = 0.01906177
#
# Stress axis : x y z
#
# Youngs Moduli (GPa) = 41.29390 84.80938 99.12579
#
# Poissons Ratio (x) = 0.36885 0.41585
# Poissons Ratio (y) = 0.17960 0.49293
# Poissons Ratio (z) = 0.17323 0.42174
#
# Static dielectric constant tensor:
#      x y z
#    x 1.530830 0.000000 0.000000 
#    y 0.000000 1.502310 0.000000 
#    z 0.000000 0.000000 1.535720 
# 
# From -- ./inp_files/6329.got.cif
#   From: 2010.05.17/outbox.cif.g08.bks.cpg/sg28_4_cif.got.tgz:6329.got - 2010.06.04 01:15:21.
