data_PCOD9339246
_publ_section_title
;
Structure prediction by ZEFSAII (Michael W. Deem and Ramdas Pophale) SiO2 
 PCOD9339246
Probable space group: P M A 2
;
_chemical_formula_sum "Si O2"
_cell_formula_units_Z 24
_cell_length_a 8.497319
_cell_length_b 9.225926
_cell_length_c 16.617598
_cell_angle_alpha 90.000000
_cell_angle_beta 90.000000
_cell_angle_gamma 90.000000
_cell_volume 1302.747169
_symmetry_space_group_name_H-M "P M A 2"
_symmetry_group_IT_number 28
_symmetry_cell_setting 'orthorhombic'
loop_
_space_group_symop_operation_xyz
x,y,z
-x,-y,z
1/2-x,y,z
1/2+x,-y,z
loop_
_atom_site_type_symbol
_atom_site_label
_atom_site_fract_x
_atom_site_fract_y
_atom_site_fract_z
Si Si1 0.439843 0.665712 0.808150
Si Si2 0.061299 0.664524 0.316967
Si Si3 0.563047 0.666069 0.148562
Si Si4 0.559552 0.335200 0.632986
Si Si5 0.059765 0.837315 0.475648
Si Si6 0.561044 0.333373 0.981961
O O1 0.500000 0.500000 0.807758
O O2 0.250000 0.663749 0.808852
O O3 0.490129 0.725813 0.721026
O O4 0.488447 0.730534 0.894815
O O5 0.250000 0.660867 0.314121
O O6 0.008940 0.753163 0.395159
O O7 0.000000 0.500000 0.324067
O O8 0.999914 0.728857 0.232448
O O9 0.500000 0.500000 0.148491
O O10 0.750000 0.662640 0.149531
O O11 0.504931 0.733230 0.064377
O O12 0.500000 0.500000 0.626234
O O13 0.750000 0.338150 0.631670
O O14 0.504614 0.243646 0.556596
O O15 0.250000 0.836587 0.476320
O O16 0.000000 0.000000 0.474426
O O17 0.500000 0.500000 0.980381
O O18 0.750000 0.335306 0.987018
#
# Coordination Sequence:
#
# PCOD9339246 Si02
#       6
#     4   4   4   4   4   4
#     4   8  14  23  38  60  89 120 150 183 224 269
#     4  10  19  32  49  71  95 123 157 195 234 278
#     4  10  17  25  39  61  89 122 153 188 229 273
#     4   9  17  31  49  72  97 124 157 194 232 276
#     4  10  22  36  51  70  95 124 157 194 236 282
#     4   9  14  21  34  56  87 121 150 182 223 270
#
# _framework density 18.422606999999999
#
# number of rings (size 3 to 8) (size 9 to 14) (size 15 to 20)
#    0.000    2.667    0.000    5.000    0.000    2.667 
#    0.000    0.000    0.000    0.000    0.000    1.167 
#    0.000    2.667    0.000    0.000    0.000    0.000 
#
# Total GULP energy -133634.192425 kJ/mol
# GULP energy per Si atom -5568.091351 kJ/mol
# Density = 1.838068 g / cm^3
# Si number density = 18.422607 Si / 1000 Ang^3
#
#
#
# Elastic Constant Matrix: (Units=GPa)
#
#
# Indices 1 2 3 4 5 6 
#
# 1 47.1176 7.4228 42.6307 0.0000 0.0000 0.0000
# 2 7.4228 36.8150 56.5061 0.0000 0.0000 0.0000
# 3 42.6307 56.5061 257.1433 0.0000 0.0000 0.0000
# 4 0.0000 0.0000 0.0000 -5.6415 0.0000 0.0000
# 5 0.0000 0.0000 0.0000 0.0000 19.0272 0.0000
# 6 0.0000 0.0000 0.0000 0.0000 0.0000 15.3253
#
#
#
# Elastic Compliance Matrix: (Units=1/GPa)
#
#
# Indices 1 2 3 4 5 6 
#
# 1 0.025066 0.001998 -0.004595 0.000000 0.000000 0.000000
# 2 0.001998 0.041146 -0.009373 0.000000 0.000000 0.000000
# 3 -0.004595 -0.009373 0.006710 0.000000 0.000000 0.000000
# 4 0.000000 0.000000 0.000000 -0.177259 0.000000 0.000000
# 5 0.000000 0.000000 0.000000 0.000000 0.052556 0.000000
# 6 0.000000 0.000000 0.000000 0.000000 0.000000 0.065251
#
#
# Mechanical properties :
#
#
# Convention : Reuss Voigt Hill
#
# Bulk Modulus (GPa) = 20.41493 61.57724 40.99609
# Shear Modulus (GPa) = 93.04472 21.37663 57.21068
#
# Velocity S-wave (km/s) = 7.11445 3.41008 5.57871
# Velocity P-wave (km/s) = 8.86525 7.00016 7.98733
#
# Compressibility (1/GPa) = 0.04898375
#
# Stress axis : x y z
#
# Youngs Moduli (GPa) = 39.89497 24.30350 149.02454
#
# Poissons Ratio (x) = -0.04857 0.68472
# Poissons Ratio (y) = -0.07973 1.39681
# Poissons Ratio (z) = 0.18331 0.22780
#
# Static dielectric constant tensor:
#      x y z
#    x 1.620040 0.000000 0.000000 
#    y 0.000000 1.571330 0.000000 
#    z 0.000000 0.000000 1.740720 
# 
# From -- ./inp_files/6681.got.cif
#   From: 2010.05.17/outbox.cif.g08.bks.cpg/sg28_4_cif.got.tgz:6681.got - 2010.06.04 01:15:21.
