data_PCOD9339580
_publ_section_title
;
Structure prediction by ZEFSAII (Michael W. Deem and Ramdas Pophale) SiO2 
 PCOD9339580
Probable space group: P M A 2
;
_chemical_formula_sum "Si O2"
_cell_formula_units_Z 32
_cell_length_a 9.864768
_cell_length_b 19.474938
_cell_length_c 10.417798
_cell_angle_alpha 90.000000
_cell_angle_beta 90.000000
_cell_angle_gamma 90.000000
_cell_volume 2001.423026
_symmetry_space_group_name_H-M "P M A 2"
_symmetry_group_IT_number 28
_symmetry_cell_setting 'orthorhombic'
loop_
_space_group_symop_operation_xyz
x,y,z
-x,-y,z
1/2-x,y,z
1/2+x,-y,z
loop_
_atom_site_type_symbol
_atom_site_label
_atom_site_fract_x
_atom_site_fract_y
_atom_site_fract_z
Si Si1 0.908029 0.433346 0.214770
Si Si2 0.087549 0.217575 0.367813
Si Si3 0.594760 0.938321 0.370975
Si Si4 0.590115 0.339610 0.965383
Si Si5 0.412451 0.217575 0.061731
Si Si6 0.405240 0.061678 0.058571
Si Si7 0.088664 0.568938 0.714772
Si Si8 0.590113 0.339612 0.464157
O O1 0.750000 0.453595 0.214774
O O2 0.932834 0.387491 0.340184
O O3 0.000000 0.500000 0.214764
O O4 0.932825 0.387488 0.089359
O O5 0.250000 0.225874 0.383406
O O6 0.052495 0.139165 0.405523
O O7 0.058834 0.225738 0.214772
O O8 0.003156 0.273189 0.446257
O O9 0.750000 0.948853 0.411782
O O10 0.594282 0.939406 0.214773
O O11 0.500000 0.000000 0.416187
O O12 0.750000 0.320759 0.962997
O O13 0.560661 0.384687 0.839766
O O14 0.496843 0.273188 0.983285
O O15 0.250000 0.225874 0.046139
O O16 0.447504 0.139164 0.024023
O O17 0.250000 0.051147 0.017765
O O18 0.500000 0.000000 0.013359
O O19 0.250000 0.552097 0.714774
O O20 0.060663 0.615313 0.589777
O O21 0.000000 0.500000 0.714772
O O22 0.750000 0.320763 0.466536
#
# Coordination Sequence:
#
# PCOD9339580 Si02
#       8
#     4   4   4   4   4   4   4   4
#     4  10  20  32  48  70  93 118 153 192 233 286
#     4   9  17  29  46  70  99 129 162 200 239 282
#     4   8  14  24  38  61  94 128 160 192 230 278
#     4  10  20  34  50  71  97 125 159 198 241 288
#     4   9  17  29  46  70  99 129 162 200 239 282
#     4   8  14  24  38  61  94 128 160 192 230 278
#     4  10  22  38  54  72  97 126 159 202 245 290
#     4  10  20  34  50  71  97 125 159 198 241 288
#
# _framework density 15.988624
#
# number of rings (size 3 to 8) (size 9 to 14) (size 15 to 20)
#    0.000    2.750    1.250    2.250    0.000    3.000 
#    0.000    2.500    0.000    0.000    0.000    0.875 
#    0.000    0.000    0.000    0.000    0.000    0.000 
#
# Total GULP energy -178318.459814 kJ/mol
# GULP energy per Si atom -5572.451869 kJ/mol
# Density = 1.595223 g / cm^3
# Si number density = 15.988624 Si / 1000 Ang^3
#
#
#
# Elastic Constant Matrix: (Units=GPa)
#
#
# Indices 1 2 3 4 5 6 
#
# 1 73.3014 105.7811 40.0953 0.0000 0.0000 0.0000
# 2 105.7811 175.7146 58.1135 0.0000 0.0000 0.0000
# 3 40.0953 58.1135 86.0248 0.0000 0.0000 0.0000
# 4 0.0000 0.0000 0.0000 5.7085 0.0000 0.0000
# 5 0.0000 0.0000 0.0000 0.0000 7.9326 0.0000
# 6 0.0000 0.0000 0.0000 0.0000 0.0000 41.3648
#
#
#
# Elastic Compliance Matrix: (Units=1/GPa)
#
#
# Indices 1 2 3 4 5 6 
#
# 1 0.108346 -0.062484 -0.008289 0.000000 0.000000 0.000000
# 2 -0.062484 0.043363 -0.000171 0.000000 0.000000 0.000000
# 3 -0.008289 -0.000171 0.015603 0.000000 0.000000 0.000000
# 4 0.000000 0.000000 0.000000 0.175178 0.000000 0.000000
# 5 0.000000 0.000000 0.000000 0.000000 0.126062 0.000000
# 6 0.000000 0.000000 0.000000 0.000000 0.000000 0.024175
#
#
# Mechanical properties :
#
#
# Convention : Reuss Voigt Hill
#
# Bulk Modulus (GPa) = 39.32908 82.55785 60.94347
# Shear Modulus (GPa) = 7.77497 19.73791 13.75644
#
# Velocity S-wave (km/s) = 2.20757 3.51735 2.93642
# Velocity P-wave (km/s) = 5.58116 8.26094 7.04956
#
# Compressibility (1/GPa) = 0.02542648
#
# Stress axis : x y z
#
# Youngs Moduli (GPa) = 9.22967 23.06109 64.09033
#
# Poissons Ratio (x) = 1.44095 0.53121
# Poissons Ratio (y) = 0.57670 0.01093
# Poissons Ratio (z) = 0.07650 0.00393
#
# Static dielectric constant tensor:
#      x y z
#    x 1.530210 0.000000 0.000000 
#    y 0.000000 1.521630 0.000000 
#    z 0.000000 0.000000 1.525660 
# 
# From -- ./inp_files/5161.got.cif
#   From: 2010.05.17/outbox.cif.g08.bks.cpg/sg28_3_cif.got.tgz:5161.got - 2010.06.04 01:15:21.
