data_PCOD9339520
_publ_section_title
;
Structure prediction by ZEFSAII (Michael W. Deem and Ramdas Pophale) SiO2 
 PCOD9339520
Probable space group: P M A 2
;
_chemical_formula_sum "Si O2"
_cell_formula_units_Z 28
_cell_length_a 8.608857
_cell_length_b 9.162320
_cell_length_c 18.936215
_cell_angle_alpha 90.000000
_cell_angle_beta 90.000000
_cell_angle_gamma 90.000000
_cell_volume 1493.633775
_symmetry_space_group_name_H-M "P M A 2"
_symmetry_group_IT_number 28
_symmetry_cell_setting 'orthorhombic'
loop_
_space_group_symop_operation_xyz
x,y,z
-x,-y,z
1/2-x,y,z
1/2+x,-y,z
loop_
_atom_site_type_symbol
_atom_site_label
_atom_site_fract_x
_atom_site_fract_y
_atom_site_fract_z
Si Si1 0.435636 0.836448 0.552290
Si Si2 0.935727 0.335281 0.963850
Si Si3 0.063010 0.334661 0.262716
Si Si4 0.563440 0.666498 0.110344
Si Si5 0.062551 0.333972 0.417725
Si Si6 0.064289 0.336275 0.687289
Si Si7 0.436854 0.836345 0.822209
O O1 0.250000 0.837693 0.555050
O O2 0.492335 0.760596 0.480345
O O3 0.501045 0.745945 0.618343
O O4 0.500000 0.000000 0.555873
O O5 0.750000 0.343546 0.967433
O O6 0.980990 0.241498 0.895773
O O7 0.000000 0.500000 0.956347
O O8 0.997390 0.269901 0.037780
O O9 0.250000 0.340436 0.262208
O O10 0.016044 0.267911 0.186801
O O11 0.017509 0.274055 0.339478
O O12 0.000000 0.500000 0.262643
O O13 0.500000 0.500000 0.111205
O O14 0.750000 0.663570 0.106068
O O15 0.250000 0.336160 0.423047
O O16 0.000000 0.500000 0.423178
O O17 0.750000 0.661834 0.685749
O O18 0.005725 0.252859 0.756765
O O19 0.000000 0.500000 0.688077
O O20 0.250000 0.836842 0.816970
O O21 0.500000 0.000000 0.820520
#
# Coordination Sequence:
#
# PCOD9339520 Si02
#       7
#     4   4   4   4   4   4   4
#     4  12  25  42  61  84 114 149 187 227 276 330
#     4  10  20  33  52  79 110 144 184 229 277 328
#     4   8  15  26  44  72 106 141 179 225 275 325
#     4   9  15  25  44  72 105 141 180 225 276 325
#     4  10  19  34  55  82 114 148 188 233 280 330
#     4  12  25  43  66  91 117 146 182 225 272 323
#     4  11  24  41  60  84 114 149 187 228 277 331
#
# _framework density 18.746227000000001
#
# number of rings (size 3 to 8) (size 9 to 14) (size 15 to 20)
#    0.000    1.714    0.000    6.429    0.000    4.571 
#    0.000    0.000    0.000    0.857    0.000    2.000 
#    0.000    0.000    0.000    0.000    0.000    0.000 
#
# Total GULP energy -156298.875675 kJ/mol
# GULP energy per Si atom -5582.102703 kJ/mol
# Density = 1.870356 g / cm^3
# Si number density = 18.746227 Si / 1000 Ang^3
#
#
#
# Elastic Constant Matrix: (Units=GPa)
#
#
# Indices 1 2 3 4 5 6 
#
# 1 102.3413 43.6134 77.0574 0.0000 0.0000 0.0000
# 2 43.6134 104.9625 92.4105 0.0000 0.0000 0.0000
# 3 77.0574 92.4105 244.3688 0.0000 0.0000 0.0000
# 4 0.0000 0.0000 0.0000 -10.1680 0.0000 0.0000
# 5 0.0000 0.0000 0.0000 0.0000 22.4930 0.0000
# 6 0.0000 0.0000 0.0000 0.0000 0.0000 24.2474
#
#
#
# Elastic Compliance Matrix: (Units=1/GPa)
#
#
# Indices 1 2 3 4 5 6 
#
# 1 0.013324 -0.002754 -0.003160 0.000000 0.000000 0.000000
# 2 -0.002754 0.014852 -0.004748 0.000000 0.000000 0.000000
# 3 -0.003160 -0.004748 0.006884 0.000000 0.000000 0.000000
# 4 0.000000 0.000000 0.000000 -0.098347 0.000000 0.000000
# 5 0.000000 0.000000 0.000000 0.000000 0.044458 0.000000
# 6 0.000000 0.000000 0.000000 0.000000 0.000000 0.041242
#
#
# Mechanical properties :
#
#
# Convention : Reuss Voigt Hill
#
# Bulk Modulus (GPa) = 72.80239 97.53725 85.16982
# Shear Modulus (GPa) = 103.48663 23.22054 63.35358
#
# Velocity S-wave (km/s) = 7.43800 3.52330 5.81969
# Velocity P-wave (km/s) = 10.61533 8.28824 9.52313
#
# Compressibility (1/GPa) = 0.01373581
#
# Stress axis : x y z
#
# Youngs Moduli (GPa) = 75.05072 67.33238 145.26318
#
# Poissons Ratio (x) = 0.18546 0.45903
# Poissons Ratio (y) = 0.20671 0.68968
# Poissons Ratio (z) = 0.23716 0.31968
#
# Static dielectric constant tensor:
#      x y z
#    x 1.628630 0.000000 0.000000 
#    y 0.000000 1.598290 0.000000 
#    z 0.000000 0.000000 1.694370 
# 
# From -- ./inp_files/6721.got.cif
#   From: 2010.05.17/outbox.cif.g08.bks.cpg/sg28_4_cif.got.tgz:6721.got - 2010.06.04 01:15:21.
