data_PCOD9339550
_publ_section_title
;
Structure prediction by ZEFSAII (Michael W. Deem and Ramdas Pophale) SiO2 
 PCOD9339550
Probable space group: P M A 2
;
_chemical_formula_sum "Si O2"
_cell_formula_units_Z 24
_cell_length_a 8.642347
_cell_length_b 14.406563
_cell_length_c 10.488296
_cell_angle_alpha 90.000000
_cell_angle_beta 90.000000
_cell_angle_gamma 90.000000
_cell_volume 1305.861199
_symmetry_space_group_name_H-M "P M A 2"
_symmetry_group_IT_number 28
_symmetry_cell_setting 'orthorhombic'
loop_
_space_group_symop_operation_xyz
x,y,z
-x,-y,z
1/2-x,y,z
1/2+x,-y,z
loop_
_atom_site_type_symbol
_atom_site_label
_atom_site_fract_x
_atom_site_fract_y
_atom_site_fract_z
Si Si1 0.936155 0.396794 0.574470
Si Si2 0.935818 0.100119 0.712580
Si Si3 0.934454 0.604591 0.079853
Si Si4 0.434847 0.100996 0.427512
Si Si5 0.063807 0.715180 0.321918
Si Si6 0.436864 0.708047 0.833550
O O1 0.750000 0.399628 0.573475
O O2 0.984759 0.339140 0.450430
O O3 0.982817 0.346715 0.705171
O O4 0.000000 0.500000 0.569143
O O5 0.750000 0.096253 0.701128
O O6 0.975857 0.184336 0.806828
O O7 0.002563 0.119615 0.571199
O O8 0.000000 0.000000 0.752817
O O9 0.750000 0.600101 0.088929
O O10 0.000000 0.500000 0.074452
O O11 0.002386 0.658812 0.201309
O O12 0.984709 0.661004 0.954260
O O13 0.250000 0.098981 0.430141
O O14 0.495963 0.181821 0.336034
O O15 0.500000 0.000000 0.391275
O O16 0.250000 0.719661 0.317910
O O17 0.250000 0.701468 0.847494
#
# Coordination Sequence:
#
# PCOD9339550 Si02
#       6
#     4   4   4   4   4   4
#     4  10  21  36  57  85 116 148 194 247 300 354
#     4  10  19  35  59  89 124 158 199 246 302 359
#     4  12  26  43  62  88 120 162 207 248 303 368
#     4  11  21  35  59  91 125 160 200 246 301 361
#     4  11  22  41  63  87 120 159 201 253 304 357
#     4  10  21  40  61  86 119 159 201 248 302 357
#
# _framework density 18.378677
#
# number of rings (size 3 to 8) (size 9 to 14) (size 15 to 20)
#    0.000    1.333    1.667    6.000    0.000    6.000 
#    0.000    0.833    0.000    2.000    0.000    0.000 
#    0.000    0.000    0.000    0.000    0.000    0.000 
#
# Total GULP energy -134158.932697 kJ/mol
# GULP energy per Si atom -5589.955529 kJ/mol
# Density = 1.833685 g / cm^3
# Si number density = 18.378677 Si / 1000 Ang^3
#
#
#
# Elastic Constant Matrix: (Units=GPa)
#
#
# Indices 1 2 3 4 5 6 
#
# 1 99.4585 66.0047 51.2871 0.0000 0.0000 0.0000
# 2 66.0047 182.7554 83.8417 0.0000 0.0000 0.0000
# 3 51.2871 83.8417 130.3032 0.0000 0.0000 0.0000
# 4 0.0000 0.0000 0.0000 32.3183 0.0000 0.0000
# 5 0.0000 0.0000 0.0000 0.0000 27.8750 0.0000
# 6 0.0000 0.0000 0.0000 0.0000 0.0000 1.1308
#
#
#
# Elastic Compliance Matrix: (Units=1/GPa)
#
#
# Indices 1 2 3 4 5 6 
#
# 1 0.014121 -0.003618 -0.003230 0.000000 0.000000 0.000000
# 2 -0.003618 0.008691 -0.004168 0.000000 0.000000 0.000000
# 3 -0.003230 -0.004168 0.011627 0.000000 0.000000 0.000000
# 4 0.000000 0.000000 0.000000 0.030942 0.000000 0.000000
# 5 0.000000 0.000000 0.000000 0.000000 0.035874 0.000000
# 6 0.000000 0.000000 0.000000 0.000000 0.000000 0.884338
#
#
# Mechanical properties :
#
#
# Convention : Reuss Voigt Hill
#
# Bulk Modulus (GPa) = 80.59753 90.53155 85.56454
# Shear Modulus (GPa) = 4.94187 26.35707 15.64947
#
# Velocity S-wave (km/s) = 1.64157 3.79107 2.92122
# Velocity P-wave (km/s) = 6.89507 8.27822 7.61810
#
# Compressibility (1/GPa) = 0.01240733
#
# Stress axis : x y z
#
# Youngs Moduli (GPa) = 70.81510 115.06716 86.00423
#
# Poissons Ratio (x) = 0.41635 0.27779
# Poissons Ratio (y) = 0.25623 0.35844
# Poissons Ratio (z) = 0.22873 0.47956
#
# Static dielectric constant tensor:
#      x y z
#    x 1.615420 0.000000 0.000000 
#    y 0.000000 1.625800 0.000000 
#    z 0.000000 0.000000 1.606470 
# 
# From -- ./inp_files/2451.got.cif
#   From: 2010.05.17/outbox.cif.g08.bks.cpg/sg28_2_cif.got.tgz:2451.got - 2010.06.04 01:15:21.
