data_PCOD9339424
_publ_section_title
;
Structure prediction by ZEFSAII (Michael W. Deem and Ramdas Pophale) SiO2 
 PCOD9339424
Probable space group: P M A 2
;
_chemical_formula_sum "Si O2"
_cell_formula_units_Z 28
_cell_length_a 8.630033
_cell_length_b 9.596278
_cell_length_c 18.586723
_cell_angle_alpha 90.000000
_cell_angle_beta 90.000000
_cell_angle_gamma 90.000000
_cell_volume 1539.281692
_symmetry_space_group_name_H-M "P M A 2"
_symmetry_group_IT_number 28
_symmetry_cell_setting 'orthorhombic'
loop_
_space_group_symop_operation_xyz
x,y,z
-x,-y,z
1/2-x,y,z
1/2+x,-y,z
loop_
_atom_site_type_symbol
_atom_site_label
_atom_site_fract_x
_atom_site_fract_y
_atom_site_fract_z
Si Si1 0.064239 0.342195 0.500000
Si Si2 0.063798 0.155683 0.793177
Si Si3 0.437197 0.844548 0.215047
Si Si4 0.063225 0.343069 0.658620
Si Si5 0.563817 0.346089 0.918871
Si Si6 0.063264 0.652847 0.084199
Si Si7 0.935659 0.342684 0.350791
O O1 0.250000 0.343946 0.494058
O O2 0.020505 0.286014 0.579010
O O3 0.000000 0.500000 0.501198
O O4 0.994404 0.281140 0.426907
O O5 0.250000 0.152876 0.793977
O O6 0.011895 0.244409 0.723375
O O7 0.003635 0.235139 0.863665
O O8 0.000000 0.000000 0.790194
O O9 0.250000 0.849013 0.214608
O O10 0.488912 0.765894 0.142341
O O11 0.484701 0.752152 0.283801
O O12 0.500000 0.000000 0.219051
O O13 0.250000 0.351914 0.660422
O O14 0.000000 0.500000 0.667007
O O15 0.500000 0.500000 0.901070
O O16 0.750000 0.347601 0.914495
O O17 0.517804 0.315749 0.001749
O O18 0.250000 0.646853 0.086210
O O19 0.000000 0.500000 0.102881
O O20 0.750000 0.350975 0.352498
O O21 0.000000 0.500000 0.342851
#
# Coordination Sequence:
#
# PCOD9339424 Si02
#       7
#     4   4   4   4   4   4   4
#     4   9  16  29  50  76 103 131 167 211 258 305
#     4  11  23  38  54  76 107 142 179 217 262 313
#     4  10  22  37  52  74 105 139 175 212 253 304
#     4   9  19  34  54  78 103 133 171 214 258 308
#     4  10  20  36  58  83 109 137 173 216 261 310
#     4   9  19  36  57  81 106 134 171 213 256 305
#     4  10  19  32  52  78 104 132 170 213 257 305
#
# _framework density 18.190301999999999
#
# number of rings (size 3 to 8) (size 9 to 14) (size 15 to 20)
#    0.000    2.286    0.000    3.429    0.000    5.714 
#    0.000    2.143    0.000    3.429    0.000    0.000 
#    0.000    0.000    0.000    0.000    0.000    0.000 
#
# Total GULP energy -156221.671197 kJ/mol
# GULP energy per Si atom -5579.345400 kJ/mol
# Density = 1.814890 g / cm^3
# Si number density = 18.190302 Si / 1000 Ang^3
#
#
#
# Elastic Constant Matrix: (Units=GPa)
#
#
# Indices 1 2 3 4 5 6 
#
# 1 34.9219 29.1476 37.5546 0.0000 0.0000 0.0000
# 2 29.1476 122.7398 107.5589 0.0000 0.0000 0.0000
# 3 37.5546 107.5589 158.1869 0.0000 0.0000 0.0000
# 4 0.0000 0.0000 0.0000 -1.5377 0.0000 0.0000
# 5 0.0000 0.0000 0.0000 0.0000 27.2196 0.0000
# 6 0.0000 0.0000 0.0000 0.0000 0.0000 29.4304
#
#
#
# Elastic Compliance Matrix: (Units=1/GPa)
#
#
# Indices 1 2 3 4 5 6 
#
# 1 0.038845 -0.002829 -0.007299 0.000000 0.000000 0.000000
# 2 -0.002829 0.020365 -0.013176 0.000000 0.000000 0.000000
# 3 -0.007299 -0.013176 0.017013 0.000000 0.000000 0.000000
# 4 0.000000 0.000000 0.000000 -0.650314 0.000000 0.000000
# 5 0.000000 0.000000 0.000000 0.000000 0.036738 0.000000
# 6 0.000000 0.000000 0.000000 0.000000 0.000000 0.033978
#
#
# Mechanical properties :
#
#
# Convention : Reuss Voigt Hill
#
# Bulk Modulus (GPa) = 33.76404 73.81899 53.79151
# Shear Modulus (GPa) = -11.18833 20.46161 4.63664
#
# Velocity S-wave (km/s) = -2.48275 3.35754 1.59828
# Velocity P-wave (km/s) = 3.22228 7.46327 5.74819
#
# Compressibility (1/GPa) = 0.02961731
#
# Stress axis : x y z
#
# Youngs Moduli (GPa) = 25.74310 49.10348 58.77800
#
# Poissons Ratio (x) = 0.13891 0.42900
# Poissons Ratio (y) = 0.07282 0.77444
# Poissons Ratio (z) = 0.18789 0.64697
#
# Static dielectric constant tensor:
#      x y z
#    x 1.618340 0.000000 0.000000 
#    y 0.000000 1.567910 0.000000 
#    z 0.000000 0.000000 1.663990 
# 
# From -- ./inp_files/6801.got.cif
#   From: 2010.05.17/outbox.cif.g08.bks.cpg/sg28_4_cif.got.tgz:6801.got - 2010.06.04 01:15:21.
