data_PCOD9339039
_publ_section_title
;
Structure prediction by ZEFSAII (Michael W. Deem and Ramdas Pophale) SiO2 
 PCOD9339039
Probable space group: P C C 2
;
_chemical_formula_sum "Si O2"
_cell_formula_units_Z 24
_cell_length_a 9.217433
_cell_length_b 5.397945
_cell_length_c 19.867409
_cell_angle_alpha 90.000000
_cell_angle_beta 90.000000
_cell_angle_gamma 90.000000
_cell_volume 988.506836
_symmetry_space_group_name_H-M "P C C 2"
_symmetry_group_IT_number 27
_symmetry_cell_setting 'orthorhombic'
loop_
_space_group_symop_operation_xyz
x,y,z
-x,-y,z
-x,y,1/2+z
x,-y,1/2+z
loop_
_atom_site_type_symbol
_atom_site_label
_atom_site_fract_x
_atom_site_fract_y
_atom_site_fract_z
Si Si1 0.741582 0.721516 0.829230
Si Si2 0.088370 0.231944 0.188974
Si Si3 0.744303 0.658914 0.439022
Si Si4 0.500000 0.000000 0.415308
Si Si5 0.669444 0.540510 0.691154
Si Si6 0.000000 0.000000 0.896913
Si Si7 0.836655 0.414455 0.563070
O O1 0.734152 0.450678 0.864102
O O2 0.616166 0.866513 0.868045
O O3 0.707788 0.728305 0.750431
O O4 0.897509 0.827122 0.851250
O O5 0.243950 0.298083 0.218809
O O6 0.134310 0.179203 0.110729
O O7 0.000000 0.500000 0.194088
O O8 0.000000 0.000000 0.213530
O O9 0.598967 0.808126 0.456115
O O10 0.762328 0.432864 0.491395
O O11 0.886318 0.835058 0.439683
O O12 0.500000 0.500000 0.684726
O O13 0.743414 0.576708 0.617658
O O14 0.000000 0.500000 0.551221
#
# Coordination Sequence:
#
# PCOD9339039 Si02
#       7
#     4   4   4   2   4   2   4
#     4  11  23  46  66  99 141 185 242 304 371 443
#     4   9  21  47  69 104 145 191 244 305 368 445
#     4  11  22  45  67 102 138 185 241 304 374 443
#     4  10  24  42  68 100 140 192 236 304 374 456
#     4  10  22  44  69 103 141 191 242 308 380 458
#     4  10  24  40  74 100 128 184 254 302 362 454
#     4   9  21  43  65  97 141 187 239 302 367 442
#
# _framework density 24.279042
#
# number of rings (size 3 to 8) (size 9 to 14) (size 15 to 20)
#    1.000    1.000    0.000    3.000    0.000    4.000 
#   31.500    1.667    0.000    0.000    0.000    0.000 
#    0.000    0.000    0.000    0.000    0.000    0.000 
#
# Total GULP energy -133753.116159 kJ/mol
# GULP energy per Si atom -5573.046507 kJ/mol
# Density = 2.422378 g / cm^3
# Si number density = 24.279042 Si / 1000 Ang^3
#
#
#
# Elastic Constant Matrix: (Units=GPa)
#
#
# Indices 1 2 3 4 5 6 
#
# 1 193.8259 45.9252 24.7529 0.0000 0.0000 0.0000
# 2 45.9252 84.9953 5.9197 0.0000 0.0000 0.0000
# 3 24.7529 5.9197 121.4432 0.0000 0.0000 0.0000
# 4 0.0000 0.0000 0.0000 -32.1205 0.0000 0.0000
# 5 0.0000 0.0000 0.0000 0.0000 24.7395 0.0000
# 6 0.0000 0.0000 0.0000 0.0000 0.0000 38.2312
#
#
#
# Elastic Compliance Matrix: (Units=1/GPa)
#
#
# Indices 1 2 3 4 5 6 
#
# 1 0.006054 -0.003196 -0.001078 0.000000 0.000000 0.000000
# 2 -0.003196 0.013493 -0.000006 0.000000 0.000000 0.000000
# 3 -0.001078 -0.000006 0.008454 0.000000 0.000000 0.000000
# 4 0.000000 0.000000 0.000000 -0.031133 0.000000 0.000000
# 5 0.000000 0.000000 0.000000 0.000000 0.040421 0.000000
# 6 0.000000 0.000000 0.000000 0.000000 0.000000 0.026157
#
#
# Mechanical properties :
#
#
# Convention : Reuss Voigt Hill
#
# Bulk Modulus (GPa) = 51.43996 61.49556 56.46776
# Shear Modulus (GPa) = 63.70422 27.74782 45.72602
#
# Velocity S-wave (km/s) = 5.12790 3.38431 4.34447
# Velocity P-wave (km/s) = 7.50289 6.37613 6.96234
#
# Compressibility (1/GPa) = 0.01944014
#
# Stress axis : x y z
#
# Youngs Moduli (GPa) = 165.17265 74.11374 118.28203
#
# Poissons Ratio (x) = 0.23688 0.12753
# Poissons Ratio (y) = 0.52792 0.00074
# Poissons Ratio (z) = 0.17809 0.00046
#
# Static dielectric constant tensor:
#      x y z
#    x 1.902610 0.000000 0.000000 
#    y 0.000000 2.295920 0.000000 
#    z 0.000000 0.000000 1.928600 
# 
# From -- ./inp_files/5074.got.cif
#   From: 2010.05.17/outbox.cif.g08.bks.cpg/sg27_3_cif.got.tgz:5074.got - 2010.06.04 01:11:05.
