data_PCOD9339945
_publ_section_title
;
Structure prediction by ZEFSAII (Michael W. Deem and Ramdas Pophale) SiO2 
 PCOD9339945
Probable space group: P M A 2
;
_chemical_formula_sum "Si O2"
_cell_formula_units_Z 22
_cell_length_a 30.756632
_cell_length_b 5.146435
_cell_length_c 5.363980
_cell_angle_alpha 90.000000
_cell_angle_beta 90.000000
_cell_angle_gamma 90.000000
_cell_volume 849.048342
_symmetry_space_group_name_H-M "P M A 2"
_symmetry_group_IT_number 28
_symmetry_cell_setting 'orthorhombic'
loop_
_space_group_symop_operation_xyz
x,y,z
-x,-y,z
1/2-x,y,z
1/2+x,-y,z
loop_
_atom_site_type_symbol
_atom_site_label
_atom_site_fract_x
_atom_site_fract_y
_atom_site_fract_z
Si Si1 0.064062 0.363722 0.589740
Si Si2 0.070863 0.680719 0.073555
Si Si3 0.159821 0.632917 0.208759
Si Si4 0.344290 0.132252 0.499519
Si Si5 0.000000 0.000000 0.310347
Si Si6 0.250000 0.290348 0.717669
Si Si7 0.750000 0.210757 0.976233
O O1 0.071197 0.546175 0.347168
O O2 0.109717 0.208597 0.626186
O O3 0.023336 0.198857 0.495827
O O4 0.054787 0.510719 0.845120
O O5 0.121641 0.730061 0.026843
O O6 0.038720 0.914157 0.127099
O O7 0.154913 0.327111 0.259862
O O8 0.206890 0.694130 0.108338
O O9 0.154999 0.827070 0.442961
O O10 0.296975 0.206313 0.608467
O O11 0.250000 0.603100 0.731654
O O12 0.250000 0.099900 0.958981
#
# Coordination Sequence:
#
# PCOD9339945 Si02
#       7
#     4   4   4   4   2   2   2
#     4  11  27  49  78 114 156 204 267 333 404 485
#     4  11  27  49  78 114 156 204 267 333 404 485
#     4  11  23  46  72 111 151 208 260 325 394 477
#     4  11  23  46  72 111 151 208 260 325 394 477
#     4  12  26  54  80 114 156 214 274 338 426 480
#     4  12  24  40  70 110 154 206 257 319 392 479
#     4  12  24  40  70 110 154 206 257 319 392 479
#
# _framework density 25.911363999999999
#
# number of rings (size 3 to 8) (size 9 to 14) (size 15 to 20)
#    0.000    0.727    1.818    4.909    0.000    8.727 
#    0.000    0.000    0.000    0.000    0.000    0.000 
#    0.000    0.000    0.000    0.000    0.000    0.000 
#
# Total GULP energy -123054.145735 kJ/mol
# GULP energy per Si atom -5593.370261 kJ/mol
# Density = 2.585239 g / cm^3
# Si number density = 25.911364 Si / 1000 Ang^3
#
#
#
# Elastic Constant Matrix: (Units=GPa)
#
#
# Indices 1 2 3 4 5 6 
#
# 1 150.3251 7.6425 34.7794 0.0000 0.0000 0.0000
# 2 7.6425 63.8970 34.6901 0.0000 0.0000 0.0000
# 3 34.7794 34.6901 87.4908 0.0000 0.0000 0.0000
# 4 0.0000 0.0000 0.0000 45.2080 0.0000 0.0000
# 5 0.0000 0.0000 0.0000 0.0000 -142.8638 0.0000
# 6 0.0000 0.0000 0.0000 0.0000 0.0000 50.5682
#
#
#
# Elastic Compliance Matrix: (Units=1/GPa)
#
#
# Indices 1 2 3 4 5 6 
#
# 1 0.007367 0.000903 -0.003287 0.000000 0.000000 0.000000
# 2 0.000903 0.020054 -0.008310 0.000000 0.000000 0.000000
# 3 -0.003287 -0.008310 0.016031 0.000000 0.000000 0.000000
# 4 0.000000 0.000000 0.000000 0.022120 0.000000 0.000000
# 5 0.000000 0.000000 0.000000 0.000000 -0.007000 0.000000
# 6 0.000000 0.000000 0.000000 0.000000 0.000000 0.019775
#
#
# Mechanical properties :
#
#
# Convention : Reuss Voigt Hill
#
# Bulk Modulus (GPa) = 45.32181 50.65963 47.99072
# Shear Modulus (GPa) = 46.68975 5.55587 26.12281
#
# Velocity S-wave (km/s) = 4.24949 1.46589 3.17860
# Velocity P-wave (km/s) = 6.45032 4.73906 5.65974
#
# Compressibility (1/GPa) = 0.02206443
#
# Stress axis : x y z
#
# Youngs Moduli (GPa) = 135.74586 49.86550 62.37794
#
# Poissons Ratio (x) = -0.04504 0.20501
# Poissons Ratio (y) = -0.12260 0.51839
# Poissons Ratio (z) = 0.44613 0.41440
#
# Static dielectric constant tensor:
#      x y z
#    x 2.255160 0.000000 0.000000 
#    y 0.000000 2.090220 0.000000 
#    z 0.000000 0.000000 2.135970 
# 
# From -- ./inp_files/1868.got.cif
#   From: 2010.05.17/outbox.cif.g08.bks.cpg/sg28_1_cif.got.tgz:1868.got - 2010.06.04 01:15:21.
