data_PCOD9339463
_publ_section_title
;
Structure prediction by ZEFSAII (Michael W. Deem and Ramdas Pophale) SiO2 
 PCOD9339463
Probable space group: P M A 2
;
_chemical_formula_sum "Si O2"
_cell_formula_units_Z 24
_cell_length_a 8.665936
_cell_length_b 16.808869
_cell_length_c 9.477293
_cell_angle_alpha 90.000000
_cell_angle_beta 90.000000
_cell_angle_gamma 90.000000
_cell_volume 1380.505933
_symmetry_space_group_name_H-M "P M A 2"
_symmetry_group_IT_number 28
_symmetry_cell_setting 'orthorhombic'
loop_
_space_group_symop_operation_xyz
x,y,z
-x,-y,z
1/2-x,y,z
1/2+x,-y,z
loop_
_atom_site_type_symbol
_atom_site_label
_atom_site_fract_x
_atom_site_fract_y
_atom_site_fract_z
Si Si1 0.066897 0.415220 0.987950
Si Si2 0.567073 0.335017 0.245672
Si Si3 0.564473 0.259618 0.832159
Si Si4 0.932992 0.914561 0.350579
Si Si5 0.436099 0.759922 0.507100
Si Si6 0.065692 0.182286 0.087105
O O1 0.250000 0.413416 0.974521
O O2 0.000000 0.500000 0.943105
O O3 0.995285 0.342704 0.897864
O O4 0.020055 0.399629 0.151568
O O5 0.750000 0.350497 0.240378
O O6 0.518243 0.313926 0.405232
O O7 0.526738 0.252976 0.164752
O O8 0.750000 0.257347 0.842987
O O9 0.518966 0.252006 0.668970
O O10 0.492265 0.189090 0.927441
O O11 0.750000 0.915376 0.368373
O O12 0.965107 0.893632 0.185401
O O13 0.999025 0.841679 0.442399
O O14 0.000000 0.000000 0.388306
O O15 0.250000 0.764222 0.499841
O O16 0.250000 0.198420 0.091923
#
# Coordination Sequence:
#
# PCOD9339463 Si02
#       6
#     4   4   4   4   4   4
#     4  11  21  34  52  75 101 131 168 210 252 297
#     4   9  16  30  51  73  96 126 162 201 242 291
#     4  10  19  33  53  77 103 134 167 203 248 301
#     4  10  20  33  52  75 101 131 169 212 255 298
#     4   9  19  34  53  76 104 135 168 203 248 303
#     4   9  17  30  48  72  97 127 165 203 241 290
#
# _framework density 17.384931000000002
#
# number of rings (size 3 to 8) (size 9 to 14) (size 15 to 20)
#    0.000    2.333    0.000    5.500    0.000    4.000 
#    0.000    1.667    0.000    2.000    0.000    0.000 
#    0.000    0.000    0.000    0.000    0.000    0.000 
#
# Total GULP energy -133712.851816 kJ/mol
# GULP energy per Si atom -5571.368826 kJ/mol
# Density = 1.734536 g / cm^3
# Si number density = 17.384931 Si / 1000 Ang^3
#
#
#
# Elastic Constant Matrix: (Units=GPa)
#
#
# Indices 1 2 3 4 5 6 
#
# 1 52.9233 22.7314 33.4848 0.0000 0.0000 0.0000
# 2 22.7314 75.7728 36.4454 0.0000 0.0000 0.0000
# 3 33.4848 36.4454 138.9262 0.0000 0.0000 0.0000
# 4 0.0000 0.0000 0.0000 15.7452 0.0000 0.0000
# 5 0.0000 0.0000 0.0000 0.0000 23.9079 0.0000
# 6 0.0000 0.0000 0.0000 0.0000 0.0000 15.9975
#
#
#
# Elastic Compliance Matrix: (Units=1/GPa)
#
#
# Indices 1 2 3 4 5 6 
#
# 1 0.023858 -0.005026 -0.004432 0.000000 0.000000 0.000000
# 2 -0.005026 0.016162 -0.003029 0.000000 0.000000 0.000000
# 3 -0.004432 -0.003029 0.009061 0.000000 0.000000 0.000000
# 4 0.000000 0.000000 0.000000 0.063511 0.000000 0.000000
# 5 0.000000 0.000000 0.000000 0.000000 0.041827 0.000000
# 6 0.000000 0.000000 0.000000 0.000000 0.000000 0.062510
#
#
# Mechanical properties :
#
#
# Convention : Reuss Voigt Hill
#
# Bulk Modulus (GPa) = 41.47951 50.32729 45.90340
# Shear Modulus (GPa) = 20.00504 22.79416 21.39960
#
# Velocity S-wave (km/s) = 3.39589 3.62490 3.51226
# Velocity P-wave (km/s) = 6.26797 6.82140 6.55053
#
# Compressibility (1/GPa) = 0.02410829
#
# Stress axis : x y z
#
# Youngs Moduli (GPa) = 41.91475 61.87489 110.36574
#
# Poissons Ratio (x) = 0.31095 0.48914
# Poissons Ratio (y) = 0.21064 0.33424
# Poissons Ratio (z) = 0.18577 0.18739
#
# Static dielectric constant tensor:
#      x y z
#    x 1.580680 0.000000 0.000000 
#    y 0.000000 1.586670 0.000000 
#    z 0.000000 0.000000 1.635240 
# 
# From -- ./inp_files/2559.got.cif
#   From: 2010.05.17/outbox.cif.g08.bks.cpg/sg28_2_cif.got.tgz:2559.got - 2010.06.04 01:15:21.
