data_PCOD9339560
_publ_section_title
;
Structure prediction by ZEFSAII (Michael W. Deem and Ramdas Pophale) SiO2 
 PCOD9339560
Probable space group: P M A 2
;
_chemical_formula_sum "Si O2"
_cell_formula_units_Z 32
_cell_length_a 14.235120
_cell_length_b 8.370630
_cell_length_c 12.364383
_cell_angle_alpha 90.000000
_cell_angle_beta 90.000000
_cell_angle_gamma 90.000000
_cell_volume 1473.301827
_symmetry_space_group_name_H-M "P M A 2"
_symmetry_group_IT_number 28
_symmetry_cell_setting 'orthorhombic'
loop_
_space_group_symop_operation_xyz
x,y,z
-x,-y,z
1/2-x,y,z
1/2+x,-y,z
loop_
_atom_site_type_symbol
_atom_site_label
_atom_site_fract_x
_atom_site_fract_y
_atom_site_fract_z
Si Si1 0.138750 0.281258 0.316090
Si Si2 0.097349 0.598554 0.903588
Si Si3 0.637033 0.081371 0.277230
Si Si4 0.353226 0.381527 0.096959
Si Si5 0.036945 0.825672 0.064178
Si Si6 0.135259 0.888548 0.526492
Si Si7 0.858490 0.420815 0.657320
Si Si8 0.134851 0.254153 0.556511
O O1 0.250000 0.261476 0.332977
O O2 0.129493 0.416126 0.224410
O O3 0.102881 0.307248 0.435988
O O4 0.107479 0.107082 0.271459
O O5 0.140509 0.601740 0.785770
O O6 0.000000 0.500000 0.890375
O O7 0.148376 0.513241 0.004673
O O8 0.087215 0.773132 0.954353
O O9 0.750000 0.089548 0.269645
O O10 0.595047 0.177163 0.176071
O O11 0.609964 0.131234 0.399329
O O12 0.250000 0.299845 0.094393
O O13 0.445290 0.283433 0.070011
O O14 0.000000 0.000000 0.051253
O O15 0.250000 0.891895 0.529755
O O16 0.101911 0.736217 0.596143
O O17 0.105456 0.067156 0.566273
O O18 0.750000 0.426864 0.619706
O O19 0.897088 0.599059 0.632141
O O20 0.250000 0.247827 0.564474
#
# Coordination Sequence:
#
# PCOD9339560 Si02
#       8
#     4   4   4   4   4   4   4   4
#     4   8  14  28  53  84 116 151 191 236 298 369
#     4  10  24  42  55  75 114 156 202 259 309 366
#     4   9  17  32  57  90 129 161 191 244 307 372
#     4  10  20  38  61  85 117 159 201 251 311 368
#     4  11  22  38  61  88 122 158 202 254 311 370
#     4   8  16  32  55  88 124 155 196 247 299 365
#     4  10  19  36  60  83 112 154 204 254 300 357
#     4   8  15  29  52  83 116 149 186 238 299 356
#
# _framework density 21.719919999999998
#
# number of rings (size 3 to 8) (size 9 to 14) (size 15 to 20)
#    0.000    2.750    1.250    1.875    0.000    2.000 
#    4.500    3.750    0.000    0.000    0.000    0.000 
#    0.000    0.000    0.000    0.000    0.000    0.000 
#
# Total GULP energy -178209.983214 kJ/mol
# GULP energy per Si atom -5569.061975 kJ/mol
# Density = 2.167048 g / cm^3
# Si number density = 21.719920 Si / 1000 Ang^3
#
#
#
# Elastic Constant Matrix: (Units=GPa)
#
#
# Indices 1 2 3 4 5 6 
#
# 1 44.0235 19.7795 15.6680 0.0000 0.0000 0.0000
# 2 19.7795 109.8557 75.9924 0.0000 0.0000 0.0000
# 3 15.6680 75.9924 122.6237 0.0000 0.0000 0.0000
# 4 0.0000 0.0000 0.0000 39.8369 0.0000 0.0000
# 5 0.0000 0.0000 0.0000 0.0000 17.3368 0.0000
# 6 0.0000 0.0000 0.0000 0.0000 0.0000 16.2698
#
#
#
# Elastic Compliance Matrix: (Units=1/GPa)
#
#
# Indices 1 2 3 4 5 6 
#
# 1 0.024749 -0.003971 -0.000701 0.000000 0.000000 0.000000
# 2 -0.003971 0.016570 -0.009762 0.000000 0.000000 0.000000
# 3 -0.000701 -0.009762 0.014294 0.000000 0.000000 0.000000
# 4 0.000000 0.000000 0.000000 0.025102 0.000000 0.000000
# 5 0.000000 0.000000 0.000000 0.000000 0.057681 0.000000
# 6 0.000000 0.000000 0.000000 0.000000 0.000000 0.061464
#
#
# Mechanical properties :
#
#
# Convention : Reuss Voigt Hill
#
# Bulk Modulus (GPa) = 37.38936 55.48697 46.43816
# Shear Modulus (GPa) = 21.03997 25.69292 23.36645
#
# Velocity S-wave (km/s) = 3.11576 3.44309 3.28351
# Velocity P-wave (km/s) = 5.49506 6.43495 5.98349
#
# Compressibility (1/GPa) = 0.02674558
#
# Stress axis : x y z
#
# Youngs Moduli (GPa) = 40.40599 60.34874 69.95880
#
# Poissons Ratio (x) = 0.23963 0.04907
# Poissons Ratio (y) = 0.16044 0.68291
# Poissons Ratio (z) = 0.02834 0.58910
#
# Static dielectric constant tensor:
#      x y z
#    x 1.879340 0.000000 0.000000 
#    y 0.000000 1.788470 0.000000 
#    z 0.000000 0.000000 1.776630 
# 
# From -- ./inp_files/5600.got.cif
#   From: 2010.05.17/outbox.cif.g08.bks.cpg/sg28_3_cif.got.tgz:5600.got - 2010.06.04 01:15:21.
