data_PCOD9339449
_publ_section_title
;
Structure prediction by ZEFSAII (Michael W. Deem and Ramdas Pophale) SiO2 
 PCOD9339449
Probable space group: P M A 2
;
_chemical_formula_sum "Si O2"
_cell_formula_units_Z 32
_cell_length_a 8.729670
_cell_length_b 14.619068
_cell_length_c 15.984060
_cell_angle_alpha 90.000000
_cell_angle_beta 90.000000
_cell_angle_gamma 90.000000
_cell_volume 2039.879973
_symmetry_space_group_name_H-M "P M A 2"
_symmetry_group_IT_number 28
_symmetry_cell_setting 'orthorhombic'
loop_
_space_group_symop_operation_xyz
x,y,z
-x,-y,z
1/2-x,y,z
1/2+x,-y,z
loop_
_atom_site_type_symbol
_atom_site_label
_atom_site_fract_x
_atom_site_fract_y
_atom_site_fract_z
Si Si1 0.933674 0.397222 0.343680
Si Si2 0.433253 0.903716 0.944689
Si Si3 0.066412 0.708210 0.013196
Si Si4 0.065968 0.096945 0.758038
Si Si5 0.065682 0.397992 0.853203
Si Si6 0.932902 0.397499 0.529205
Si Si7 0.932803 0.603099 0.171234
Si Si8 0.065889 0.288600 0.684064
O O1 0.750000 0.399483 0.334468
O O2 0.971895 0.360058 0.436051
O O3 0.007203 0.357073 0.259799
O O4 0.000000 0.500000 0.346065
O O5 0.250000 0.910965 0.936611
O O6 0.469489 0.815490 0.000590
O O7 0.503214 0.888635 0.852151
O O8 0.500000 0.000000 0.976008
O O9 0.250000 0.697741 0.017482
O O10 0.004209 0.655978 0.931492
O O11 0.991064 0.663654 0.094491
O O12 0.250000 0.092687 0.762061
O O13 0.020987 0.183811 0.702181
O O14 0.000000 0.000000 0.728416
O O15 0.250000 0.399741 0.860660
O O16 0.025241 0.346736 0.766883
O O17 0.000000 0.500000 0.851926
O O18 0.750000 0.405027 0.533733
O O19 0.000000 0.500000 0.538319
O O20 0.993112 0.333625 0.602740
O O21 0.250000 0.402944 0.172062
O O22 0.000000 0.500000 0.162052
O O23 0.250000 0.291926 0.675931
#
# Coordination Sequence:
#
# PCOD9339449 Si02
#       8
#     4   4   4   4   4   4   4   4
#     4   9  17  31  49  71  97 126 161 203 245 288
#     4  10  20  33  52  73  95 125 161 203 248 290
#     4  11  22  35  50  71  97 130 166 201 242 290
#     4  10  19  33  51  72  96 125 162 205 249 290
#     4  11  22  35  47  65  96 133 169 203 237 282
#     4  10  20  32  50  73 100 132 166 203 244 289
#     4  11  21  33  51  73  99 132 165 203 244 289
#     4  10  21  34  49  70  98 131 166 203 243 288
#
# _framework density 15.687196999999999
#
# number of rings (size 3 to 8) (size 9 to 14) (size 15 to 20)
#    0.000    1.750    1.250    5.625    0.000    6.000 
#    0.000    0.000    0.000    0.000    0.000    0.875 
#    0.000    6.000    0.000    0.000    0.000    0.000 
#
# Total GULP energy -178583.296170 kJ/mol
# GULP energy per Si atom -5580.728005 kJ/mol
# Density = 1.565149 g / cm^3
# Si number density = 15.687197 Si / 1000 Ang^3
#
#
#
# Elastic Constant Matrix: (Units=GPa)
#
#
# Indices 1 2 3 4 5 6 
#
# 1 78.1299 51.6965 59.6817 0.0000 0.0000 0.0000
# 2 51.6965 120.0177 75.1522 0.0000 0.0000 0.0000
# 3 59.6817 75.1522 149.5464 0.0000 0.0000 0.0000
# 4 0.0000 0.0000 0.0000 4.6748 0.0000 0.0000
# 5 0.0000 0.0000 0.0000 0.0000 21.0182 0.0000
# 6 0.0000 0.0000 0.0000 0.0000 0.0000 22.4853
#
#
#
# Elastic Compliance Matrix: (Units=1/GPa)
#
#
# Indices 1 2 3 4 5 6 
#
# 1 0.020583 -0.005431 -0.005485 0.000000 0.000000 0.000000
# 2 -0.005431 0.013591 -0.004662 0.000000 0.000000 0.000000
# 3 -0.005485 -0.004662 0.011219 0.000000 0.000000 0.000000
# 4 0.000000 0.000000 0.000000 0.213914 0.000000 0.000000
# 5 0.000000 0.000000 0.000000 0.000000 0.047578 0.000000
# 6 0.000000 0.000000 0.000000 0.000000 0.000000 0.044474
#
#
# Mechanical properties :
#
#
# Convention : Reuss Voigt Hill
#
# Bulk Modulus (GPa) = 70.24708 80.08385 75.16546
# Shear Modulus (GPa) = 12.91121 20.37989 16.64555
#
# Velocity S-wave (km/s) = 2.87198 3.60827 3.26097
# Velocity P-wave (km/s) = 7.47495 8.27773 7.88656
#
# Compressibility (1/GPa) = 0.01423547
#
# Stress axis : x y z
#
# Youngs Moduli (GPa) = 48.58445 73.57750 89.13593
#
# Poissons Ratio (x) = 0.39963 0.48889
# Poissons Ratio (y) = 0.26388 0.41559
# Poissons Ratio (z) = 0.26648 0.34305
#
# Static dielectric constant tensor:
#      x y z
#    x 1.526410 0.000000 0.000000 
#    y 0.000000 1.508300 0.000000 
#    z 0.000000 0.000000 1.526350 
# 
# From -- ./inp_files/6384.got.cif
#   From: 2010.05.17/outbox.cif.g08.bks.cpg/sg28_4_cif.got.tgz:6384.got - 2010.06.04 01:15:21.
