data_PCOD9339495
_publ_section_title
;
Structure prediction by ZEFSAII (Michael W. Deem and Ramdas Pophale) SiO2 
 PCOD9339495
Probable space group: P M A 2
;
_chemical_formula_sum "Si O2"
_cell_formula_units_Z 28
_cell_length_a 8.482210
_cell_length_b 9.470270
_cell_length_c 18.876511
_cell_angle_alpha 90.000000
_cell_angle_beta 90.000000
_cell_angle_gamma 90.000000
_cell_volume 1516.327834
_symmetry_space_group_name_H-M "P M A 2"
_symmetry_group_IT_number 28
_symmetry_cell_setting 'orthorhombic'
loop_
_space_group_symop_operation_xyz
x,y,z
-x,-y,z
1/2-x,y,z
1/2+x,-y,z
loop_
_atom_site_type_symbol
_atom_site_label
_atom_site_fract_x
_atom_site_fract_y
_atom_site_fract_z
Si Si1 0.060018 0.838955 0.477180
Si Si2 0.940887 0.160244 0.630811
Si Si3 0.438979 0.340336 0.189688
Si Si4 0.438881 0.159350 0.053543
Si Si5 0.439701 0.838558 0.321668
Si Si6 0.439263 0.659725 0.923203
Si Si7 0.059665 0.658399 0.763707
O O1 0.250000 0.838864 0.476965
O O2 0.009316 0.778355 0.553575
O O3 0.009921 0.783152 0.400090
O O4 0.000000 0.000000 0.477883
O O5 0.750000 0.159346 0.632117
O O6 0.997725 0.245806 0.699039
O O7 0.000000 0.000000 0.634970
O O8 0.500000 0.500000 0.187262
O O9 0.250000 0.342918 0.189335
O O10 0.493362 0.251951 0.120890
O O11 0.496249 0.259107 0.259550
O O12 0.250000 0.156701 0.054033
O O13 0.500000 0.000000 0.058404
O O14 0.496064 0.235810 0.982361
O O15 0.250000 0.841185 0.318724
O O16 0.500000 0.000000 0.313770
O O17 0.500000 0.500000 0.935318
O O18 0.250000 0.658082 0.926386
O O19 0.488501 0.702939 0.843237
O O20 0.250000 0.658445 0.762471
O O21 0.000000 0.500000 0.753557
#
# Coordination Sequence:
#
# PCOD9339495 Si02
#       7
#     4   4   4   4   4   4   4
#     4   8  15  28  48  73 102 136 172 213 259 307
#     4   9  17  31  50  74 104 136 174 217 260 306
#     4  11  24  40  58  80 107 140 176 214 260 313
#     4  11  24  40  59  83 109 138 173 214 260 310
#     4  10  19  33  55  81 108 139 177 220 265 312
#     4  10  20  36  57  80 107 140 178 218 263 314
#     4   9  19  34  52  75 104 139 176 214 257 308
#
# _framework density 18.465662999999999
#
# number of rings (size 3 to 8) (size 9 to 14) (size 15 to 20)
#    0.000    2.286    0.000    2.571    0.000    6.857 
#    0.000    2.143    0.000    1.714    0.000    0.000 
#    0.000    0.000    0.000    0.000    0.000    0.000 
#
# Total GULP energy -156156.752553 kJ/mol
# GULP energy per Si atom -5577.026877 kJ/mol
# Density = 1.842363 g / cm^3
# Si number density = 18.465663 Si / 1000 Ang^3
#
#
#
# Elastic Constant Matrix: (Units=GPa)
#
#
# Indices 1 2 3 4 5 6 
#
# 1 27.5313 24.2857 36.5932 0.0000 0.0000 0.0000
# 2 24.2857 107.5810 112.1665 0.0000 0.0000 0.0000
# 3 36.5932 112.1665 223.7996 0.0000 0.0000 0.0000
# 4 0.0000 0.0000 0.0000 24.4239 0.0000 0.0000
# 5 0.0000 0.0000 0.0000 0.0000 32.6242 0.0000
# 6 0.0000 0.0000 0.0000 0.0000 0.0000 30.3702
#
#
#
# Elastic Compliance Matrix: (Units=1/GPa)
#
#
# Indices 1 2 3 4 5 6 
#
# 1 0.047939 -0.005549 -0.005057 0.000000 0.000000 0.000000
# 2 -0.005549 0.020111 -0.009172 0.000000 0.000000 0.000000
# 3 -0.005057 -0.009172 0.009892 0.000000 0.000000 0.000000
# 4 0.000000 0.000000 0.000000 0.040943 0.000000 0.000000
# 5 0.000000 0.000000 0.000000 0.000000 0.030652 0.000000
# 6 0.000000 0.000000 0.000000 0.000000 0.000000 0.032927
#
#
# Mechanical properties :
#
#
# Convention : Reuss Voigt Hill
#
# Bulk Modulus (GPa) = 26.05166 78.33364 52.19265
# Shear Modulus (GPa) = 21.29314 29.87476 25.58395
#
# Velocity S-wave (km/s) = 3.39945 4.02662 3.72625
# Velocity P-wave (km/s) = 5.43573 8.00822 6.84393
#
# Compressibility (1/GPa) = 0.03838526
#
# Stress axis : x y z
#
# Youngs Moduli (GPa) = 20.85981 49.72354 101.08925
#
# Poissons Ratio (x) = 0.27592 0.51124
# Poissons Ratio (y) = 0.11575 0.92722
# Poissons Ratio (z) = 0.10549 0.45608
#
# Static dielectric constant tensor:
#      x y z
#    x 1.625960 0.000000 0.000000 
#    y 0.000000 1.579670 0.000000 
#    z 0.000000 0.000000 1.685530 
# 
# From -- ./inp_files/6720.got.cif
#   From: 2010.05.17/outbox.cif.g08.bks.cpg/sg28_4_cif.got.tgz:6720.got - 2010.06.04 01:15:21.
