data_PCOD9339322
_publ_section_title
;
Structure prediction by ZEFSAII (Michael W. Deem and Ramdas Pophale) SiO2 
 PCOD9339322
Probable space group: P M A 2
;
_chemical_formula_sum "Si O2"
_cell_formula_units_Z 20
_cell_length_a 8.628441
_cell_length_b 9.601085
_cell_length_c 13.365863
_cell_angle_alpha 90.000000
_cell_angle_beta 90.000000
_cell_angle_gamma 90.000000
_cell_volume 1107.260108
_symmetry_space_group_name_H-M "P M A 2"
_symmetry_group_IT_number 28
_symmetry_cell_setting 'orthorhombic'
loop_
_space_group_symop_operation_xyz
x,y,z
-x,-y,z
1/2-x,y,z
1/2+x,-y,z
loop_
_atom_site_type_symbol
_atom_site_label
_atom_site_fract_x
_atom_site_fract_y
_atom_site_fract_z
Si Si1 0.564433 0.343602 0.941380
Si Si2 0.935380 0.843154 0.346086
Si Si3 0.064091 0.844776 0.132222
Si Si4 0.564692 0.342536 0.525240
Si Si5 0.935090 0.658260 0.733825
O O1 0.500000 0.500000 0.954008
O O2 0.750000 0.350516 0.930341
O O3 0.493415 0.281209 0.839060
O O4 0.526029 0.252600 0.038387
O O5 0.750000 0.844872 0.350432
O O6 0.990906 0.793725 0.236472
O O7 0.003769 0.747464 0.433052
O O8 0.000000 0.000000 0.357291
O O9 0.250000 0.850714 0.143412
O O10 0.000000 0.000000 0.114918
O O11 0.500000 0.500000 0.516344
O O12 0.750000 0.347040 0.527126
O O13 0.502634 0.281718 0.630875
O O14 0.750000 0.656249 0.730108
O O15 0.000000 0.500000 0.735685
#
# Coordination Sequence:
#
# PCOD9339322 Si02
#       5
#     4   4   4   4   4
#     4  10  20  34  54  80 108 139 177 219 264 315
#     4  11  22  38  58  80 108 143 181 221 270 323
#     4  10  21  37  56  78 106 141 180 220 266 319
#     4  11  21  36  57  82 111 142 180 223 268 318
#     4  10  18  31  52  78 108 141 176 215 266 319
#
# _framework density 18.062604
#
# number of rings (size 3 to 8) (size 9 to 14) (size 15 to 20)
#    0.000    1.600    0.000   10.200    0.000    4.000 
#    0.000    3.000    0.000    2.400    0.000    0.000 
#    0.000    0.000    0.000    0.000    0.000    0.000 
#
# Total GULP energy -111686.893276 kJ/mol
# GULP energy per Si atom -5584.344664 kJ/mol
# Density = 1.802149 g / cm^3
# Si number density = 18.062604 Si / 1000 Ang^3
#
#
#
# Elastic Constant Matrix: (Units=GPa)
#
#
# Indices 1 2 3 4 5 6 
#
# 1 165.3646 40.4473 102.1796 0.0000 0.0000 0.0000
# 2 40.4473 44.8361 75.7225 0.0000 0.0000 0.0000
# 3 102.1796 75.7225 217.8073 0.0000 0.0000 0.0000
# 4 0.0000 0.0000 0.0000 -212.2858 0.0000 0.0000
# 5 0.0000 0.0000 0.0000 0.0000 28.7949 0.0000
# 6 0.0000 0.0000 0.0000 0.0000 0.0000 11.9654
#
#
#
# Elastic Compliance Matrix: (Units=1/GPa)
#
#
# Indices 1 2 3 4 5 6 
#
# 1 0.008612 -0.002291 -0.003244 0.000000 0.000000 0.000000
# 2 -0.002291 0.054633 -0.017919 0.000000 0.000000 0.000000
# 3 -0.003244 -0.017919 0.012343 0.000000 0.000000 0.000000
# 4 0.000000 0.000000 0.000000 -0.004711 0.000000 0.000000
# 5 0.000000 0.000000 0.000000 0.000000 0.034728 0.000000
# 6 0.000000 0.000000 0.000000 0.000000 0.000000 0.083574
#
#
# Mechanical properties :
#
#
# Convention : Reuss Voigt Hill
#
# Bulk Modulus (GPa) = 34.86682 96.07853 65.47267
# Shear Modulus (GPa) = 20.35454 -20.32785 0.01334
#
# Velocity S-wave (km/s) = 3.36056 -3.35835 0.08605
# Velocity P-wave (km/s) = 5.86541 6.18623 6.02795
#
# Compressibility (1/GPa) = 0.02868057
#
# Stress axis : x y z
#
# Youngs Moduli (GPa) = 116.11961 18.30408 81.02052
#
# Poissons Ratio (x) = 0.04193 0.26280
# Poissons Ratio (y) = 0.26599 1.45180
# Poissons Ratio (z) = 0.37665 0.32799
#
# Static dielectric constant tensor:
#      x y z
#    x 1.602390 0.000000 0.000000 
#    y 0.000000 1.602300 0.000000 
#    z 0.000000 0.000000 1.651410 
# 
# From -- ./inp_files/5965.got.cif
#   From: 2010.05.17/outbox.cif.g08.bks.cpg/sg28_3_cif.got.tgz:5965.got - 2010.06.04 01:15:21.
