data_PCOD9339987
_publ_section_title
;
Structure prediction by ZEFSAII (Michael W. Deem and Ramdas Pophale) SiO2 
 PCOD9339987
Probable space group: P C A 21
;
_chemical_formula_sum "Si O2"
_cell_formula_units_Z 28
_cell_length_a 31.361410
_cell_length_b 7.246605
_cell_length_c 5.206496
_cell_angle_alpha 90.000000
_cell_angle_beta 90.000000
_cell_angle_gamma 90.000000
_cell_volume 1183.247808
_symmetry_space_group_name_H-M "P C A 21"
_symmetry_group_IT_number 29
_symmetry_cell_setting 'orthorhombic'
loop_
_space_group_symop_operation_xyz
x,y,z
-x,-y,1/2+z
1/2-x,y,1/2+z
1/2+x,-y,z
loop_
_atom_site_type_symbol
_atom_site_label
_atom_site_fract_x
_atom_site_fract_y
_atom_site_fract_z
Si Si1 0.227915 0.779695 0.305280
Si Si2 0.870081 0.718841 0.856390
Si Si3 0.999998 0.372147 0.079543
Si Si4 0.413334 0.276403 0.359369
Si Si5 0.913328 0.276473 0.299748
Si Si6 0.629921 0.281262 0.302727
Si Si7 0.727914 0.779815 0.353732
O O1 0.240754 0.707415 0.584879
O O2 0.179075 0.745038 0.233408
O O3 0.233009 0.999940 0.329505
O O4 0.880316 0.792384 0.573217
O O5 0.877364 0.500050 0.829565
O O6 0.820924 0.745158 0.925639
O O7 0.901244 0.792999 0.077845
O O8 0.012336 0.499995 0.329544
O O9 0.960393 0.253599 0.183222
O O10 0.039598 0.253564 0.975869
O O11 0.410086 0.499964 0.329559
O O12 0.901242 0.207087 0.581287
O O13 0.880304 0.207707 0.085908
O O14 0.759248 0.707538 0.574127
#
# Coordination Sequence:
#
# PCOD9339987 Si02
#       7
#     4   4   4   4   4   4   4
#     4  10  21  36  52  70  94 126 165 203 240 290
#     4  10  19  31  48  72 100 125 157 199 242 283
#     4  10  16  26  44  68 102 136 160 188 236 286
#     4   9  17  28  44  70 101 129 156 193 236 282
#     4   9  17  28  44  70 101 129 156 193 236 282
#     4  10  19  31  48  72 100 125 157 199 242 283
#     4  10  21  36  52  70  94 126 165 203 240 290
#
# _framework density 23.663682000000001
#
# number of rings (size 3 to 8) (size 9 to 14) (size 15 to 20)
#    0.000    2.286    0.000    6.000    0.000    1.143 
#    0.000    0.000    0.000    0.000    0.000    4.000 
#    0.000    9.143    0.000    0.000    0.000    0.000 
#
# Total GULP energy -156358.659937 kJ/mol
# GULP energy per Si atom -5584.237855 kJ/mol
# Density = 2.360982 g / cm^3
# Si number density = 23.663682 Si / 1000 Ang^3
#
#
#
# Elastic Constant Matrix: (Units=GPa)
#
#
# Indices 1 2 3 4 5 6 
#
# 1 117.9929 -24.8279 50.1540 0.0000 0.0000 0.0000
# 2 -24.8279 69.1391 -0.5512 0.0000 0.0000 0.0000
# 3 50.1540 -0.5512 162.2365 0.0000 0.0000 0.0000
# 4 0.0000 0.0000 0.0000 -13.1042 0.0000 0.0000
# 5 0.0000 0.0000 0.0000 0.0000 4.2514 0.0000
# 6 0.0000 0.0000 0.0000 0.0000 0.0000 84.5240
#
#
#
# Elastic Compliance Matrix: (Units=1/GPa)
#
#
# Indices 1 2 3 4 5 6 
#
# 1 0.010673 0.003806 -0.003287 0.000000 0.000000 0.000000
# 2 0.003806 0.015822 -0.001123 0.000000 0.000000 0.000000
# 3 -0.003287 -0.001123 0.007176 0.000000 0.000000 0.000000
# 4 0.000000 0.000000 0.000000 -0.076311 0.000000 0.000000
# 5 0.000000 0.000000 0.000000 0.000000 0.235218 0.000000
# 6 0.000000 0.000000 0.000000 0.000000 0.000000 0.011831
#
#
# Mechanical properties :
#
#
# Convention : Reuss Voigt Hill
#
# Bulk Modulus (GPa) = 30.80284 44.32426 37.56355
# Shear Modulus (GPa) = 23.10155 36.77381 29.93768
#
# Velocity S-wave (km/s) = 3.12788 3.94638 3.56073
# Velocity P-wave (km/s) = 5.10784 6.28783 5.72830
#
# Compressibility (1/GPa) = 0.03246454
#
# Stress axis : x y z
#
# Youngs Moduli (GPa) = 93.69424 63.20487 139.35284
#
# Poissons Ratio (x) = -0.24059 0.45799
# Poissons Ratio (y) = -0.35665 0.15649
# Poissons Ratio (z) = 0.30793 0.07098
#
# Static dielectric constant tensor:
#      x y z
#    x 1.858220 0.000000 0.000000 
#    y 0.000000 1.947140 0.000000 
#    z 0.000000 0.000000 1.907430 
# 
# From -- ./inp_files/786.got.cif
#   From: 2010.05.17/outbox.cif.g08.bks.cpg/sg29_1_cif.got.tgz:786.got - 2010.06.04 01:19:37.
