data_PCOD9339198
_publ_section_title
;
Structure prediction by ZEFSAII (Michael W. Deem and Ramdas Pophale) SiO2 
 PCOD9339198
Probable space group: P C C 2
;
_chemical_formula_sum "Si O2"
_cell_formula_units_Z 32
_cell_length_a 14.759019
_cell_length_b 11.658966
_cell_length_c 8.525089
_cell_angle_alpha 90.000000
_cell_angle_beta 90.000000
_cell_angle_gamma 90.000000
_cell_volume 1466.953843
_symmetry_space_group_name_H-M "P C C 2"
_symmetry_group_IT_number 27
_symmetry_cell_setting 'orthorhombic'
loop_
_space_group_symop_operation_xyz
x,y,z
-x,-y,z
-x,y,1/2+z
x,-y,1/2+z
loop_
_atom_site_type_symbol
_atom_site_label
_atom_site_fract_x
_atom_site_fract_y
_atom_site_fract_z
Si Si1 0.393835 0.241131 0.352800
Si Si2 0.409794 0.715234 0.482576
Si Si3 0.889104 0.258351 0.841347
Si Si4 0.082721 0.318352 0.706187
Si Si5 0.678701 0.487776 0.922428
Si Si6 0.241211 0.835433 0.320039
Si Si7 0.193474 0.530971 0.677489
Si Si8 0.757694 0.076022 0.962246
O O1 0.494828 0.239276 0.420657
O O2 0.348339 0.354871 0.431048
O O3 0.334596 0.130002 0.393269
O O4 0.396924 0.256039 0.165364
O O5 0.398053 0.577909 0.466248
O O6 0.330047 0.768462 0.376338
O O7 0.824689 0.342691 0.741295
O O8 0.838965 0.137713 0.865690
O O9 0.985551 0.271944 0.757753
O O10 0.902441 0.296974 0.021363
O O11 0.156573 0.250237 0.808976
O O12 0.107907 0.452477 0.719413
O O13 0.708653 0.509818 0.743132
O O14 0.776981 0.518018 0.998408
O O15 0.231564 0.941454 0.438108
O O16 0.244678 0.887974 0.144485
#
# Coordination Sequence:
#
# PCOD9339198 Si02
#       8
#     4   4   4   4   4   4   4   4
#     4  12  26  43  67 101 136 175 224 273 333 401
#     4  12  26  42  68 100 134 178 220 276 333 400
#     4  11  25  42  65  98 136 175 223 276 332 400
#     4  11  25  41  65  98 134 177 221 276 333 397
#     4  12  23  40  69  95 137 177 217 267 328 393
#     4  11  25  46  71  94 129 173 223 282 341 399
#     4  12  22  41  66  97 135 179 218 268 329 392
#     4  11  24  47  69  95 129 172 224 282 339 400
#
# _framework density 21.813911999999998
#
# number of rings (size 3 to 8) (size 9 to 14) (size 15 to 20)
#    0.000    0.500    5.000    3.000    3.500    5.000 
#    0.000    5.000    0.000    0.000    0.000    0.000 
#    0.000    0.000    0.000    0.000    0.000    0.000 
#
# Total GULP energy -178787.257805 kJ/mol
# GULP energy per Si atom -5587.101806 kJ/mol
# Density = 2.176426 g / cm^3
# Si number density = 21.813912 Si / 1000 Ang^3
#
#
#
# Elastic Constant Matrix: (Units=GPa)
#
#
# Indices 1 2 3 4 5 6 
#
# 1 78.1120 -6.1792 8.7564 0.0000 0.0000 0.0000
# 2 -6.1792 60.9600 3.3940 0.0000 0.0000 0.0000
# 3 8.7564 3.3940 57.5097 0.0000 0.0000 0.0000
# 4 0.0000 0.0000 0.0000 33.4020 0.0000 0.0000
# 5 0.0000 0.0000 0.0000 0.0000 40.1766 0.0000
# 6 0.0000 0.0000 0.0000 0.0000 0.0000 13.0201
#
#
#
# Elastic Compliance Matrix: (Units=1/GPa)
#
#
# Indices 1 2 3 4 5 6 
#
# 1 0.013151 0.001449 -0.002088 0.000000 0.000000 0.000000
# 2 0.001449 0.016618 -0.001201 0.000000 0.000000 0.000000
# 3 -0.002088 -0.001201 0.017777 0.000000 0.000000 0.000000
# 4 0.000000 0.000000 0.000000 0.029938 0.000000 0.000000
# 5 0.000000 0.000000 0.000000 0.000000 0.024890 0.000000
# 6 0.000000 0.000000 0.000000 0.000000 0.000000 0.076804
#
#
# Mechanical properties :
#
#
# Convention : Reuss Voigt Hill
#
# Bulk Modulus (GPa) = 22.79672 23.16937 22.98304
# Shear Modulus (GPa) = 25.31896 30.02712 27.67304
#
# Velocity S-wave (km/s) = 3.41057 3.71416 3.56560
# Velocity P-wave (km/s) = 5.09731 5.38867 5.24501
#
# Compressibility (1/GPa) = 0.04386597
#
# Stress axis : x y z
#
# Youngs Moduli (GPa) = 76.04087 60.17575 56.25189
#
# Poissons Ratio (x) = -0.08721 0.11745
# Poissons Ratio (y) = -0.11020 0.06758
# Poissons Ratio (z) = 0.15876 0.07230
#
# Static dielectric constant tensor:
#      x y z
#    x 1.783810 0.000000 0.000000 
#    y 0.000000 1.770870 0.000000 
#    z 0.000000 0.000000 1.784160 
# 
# From -- ./inp_files/1618.got.cif
#   From: 2010.05.17/outbox.cif.g08.bks.cpg/sg27_1_cif.got.tgz:1618.got - 2010.06.04 01:11:05.
