data_PCOD9339101
_publ_section_title
;
Structure prediction by ZEFSAII (Michael W. Deem and Ramdas Pophale) SiO2 
 PCOD9339101
Probable space group: P C C 2
;
_chemical_formula_sum "Si O2"
_cell_formula_units_Z 24
_cell_length_a 6.848750
_cell_length_b 6.925353
_cell_length_c 25.184549
_cell_angle_alpha 90.000000
_cell_angle_beta 90.000000
_cell_angle_gamma 90.000000
_cell_volume 1194.503445
_symmetry_space_group_name_H-M "P C C 2"
_symmetry_group_IT_number 27
_symmetry_cell_setting 'orthorhombic'
loop_
_space_group_symop_operation_xyz
x,y,z
-x,-y,z
-x,y,1/2+z
x,-y,1/2+z
loop_
_atom_site_type_symbol
_atom_site_label
_atom_site_fract_x
_atom_site_fract_y
_atom_site_fract_z
Si Si1 0.649806 0.843911 0.584610
Si Si2 0.500000 0.500000 0.155811
Si Si3 0.155045 0.835200 0.979794
Si Si4 0.000000 0.000000 0.656486
Si Si5 0.344955 0.664800 0.332503
Si Si6 0.850194 0.343911 0.227687
Si Si7 0.500000 0.000000 0.407671
Si Si8 0.000000 0.500000 0.404626
O O1 0.525665 0.688273 0.618299
O O2 0.760266 0.750606 0.534742
O O3 0.808538 0.962728 0.619941
O O4 0.500000 0.000000 0.562519
O O5 0.691461 0.462728 0.192356
O O6 0.060342 0.674641 0.942759
O O7 0.323452 0.933457 0.944871
O O8 0.000000 0.000000 0.994213
O O9 0.974336 0.811727 0.693998
O O10 0.500000 0.500000 0.318083
O O11 0.260266 0.749394 0.277555
O O12 0.176548 0.566543 0.367426
O O13 0.439658 0.825359 0.369538
O O14 0.000000 0.500000 0.249778
#
# Coordination Sequence:
#
# PCOD9339101 Si02
#       8
#     4   2   4   2   4   4   2   2
#     4  11  23  43  68  95 134 174 219 269 330 390
#     4  10  24  42  64 102 132 172 218 270 328 390
#     4  12  25  43  68  98 134 175 219 278 333 391
#     4  10  24  42  64 102 132 172 218 270 328 390
#     4  12  25  43  68  98 134 175 219 278 333 391
#     4  11  23  43  68  95 134 174 219 269 330 390
#     4  12  26  44  70  96 134 172 224 274 332 392
#     4  12  26  44  70  96 134 172 224 274 332 392
#
# _framework density 20.092033000000001
#
# number of rings (size 3 to 8) (size 9 to 14) (size 15 to 20)
#    0.000    0.667    6.667    1.000    0.000    5.333 
#   12.000    0.000    0.000    0.000    0.000    0.000 
#    0.000    0.000    0.000    0.000    0.000    0.000 
#
# Total GULP energy -133940.547511 kJ/mol
# GULP energy per Si atom -5580.856146 kJ/mol
# Density = 2.004630 g / cm^3
# Si number density = 20.092033 Si / 1000 Ang^3
#
#
#
# Elastic Constant Matrix: (Units=GPa)
#
#
# Indices 1 2 3 4 5 6 
#
# 1 59.5861 33.6353 21.0409 0.0000 0.0000 0.0000
# 2 33.6353 63.9994 22.9783 0.0000 0.0000 0.0000
# 3 21.0409 22.9783 106.1504 0.0000 0.0000 0.0000
# 4 0.0000 0.0000 0.0000 29.6665 0.0000 0.0000
# 5 0.0000 0.0000 0.0000 0.0000 22.1497 0.0000
# 6 0.0000 0.0000 0.0000 0.0000 0.0000 44.8592
#
#
#
# Elastic Compliance Matrix: (Units=1/GPa)
#
#
# Indices 1 2 3 4 5 6 
#
# 1 0.024338 -0.011991 -0.002229 0.000000 0.000000 0.000000
# 2 -0.011991 0.022850 -0.002569 0.000000 0.000000 0.000000
# 3 -0.002229 -0.002569 0.010419 0.000000 0.000000 0.000000
# 4 0.000000 0.000000 0.000000 0.033708 0.000000 0.000000
# 5 0.000000 0.000000 0.000000 0.000000 0.045147 0.000000
# 6 0.000000 0.000000 0.000000 0.000000 0.000000 0.022292
#
#
# Mechanical properties :
#
#
# Convention : Reuss Voigt Hill
#
# Bulk Modulus (GPa) = 41.61743 42.78276 42.20010
# Shear Modulus (GPa) = 24.95749 29.47384 27.21567
#
# Velocity S-wave (km/s) = 3.52825 3.83422 3.68441
# Velocity P-wave (km/s) = 6.11199 6.39854 6.25691
#
# Compressibility (1/GPa) = 0.02402839
#
# Stress axis : x y z
#
# Youngs Moduli (GPa) = 41.08795 43.76455 95.98269
#
# Poissons Ratio (x) = 0.52477 0.21391
# Poissons Ratio (y) = 0.49268 0.24662
# Poissons Ratio (z) = 0.09157 0.11245
#
# Static dielectric constant tensor:
#      x y z
#    x 1.721850 0.000000 0.000000 
#    y 0.000000 1.662900 0.000000 
#    z 0.000000 0.000000 1.685240 
# 
# From -- ./inp_files/5011.got.cif
#   From: 2010.05.17/outbox.cif.g08.bks.cpg/sg27_3_cif.got.tgz:5011.got - 2010.06.04 01:11:05.
