data_PCOD9339445
_publ_section_title
;
Structure prediction by ZEFSAII (Michael W. Deem and Ramdas Pophale) SiO2 
 PCOD9339445
Probable space group: P M A 2
;
_chemical_formula_sum "Si O2"
_cell_formula_units_Z 32
_cell_length_a 8.906757
_cell_length_b 15.032629
_cell_length_c 12.548277
_cell_angle_alpha 90.000000
_cell_angle_beta 90.000000
_cell_angle_gamma 90.000000
_cell_volume 1680.113572
_symmetry_space_group_name_H-M "P M A 2"
_symmetry_group_IT_number 28
_symmetry_cell_setting 'orthorhombic'
loop_
_space_group_symop_operation_xyz
x,y,z
-x,-y,z
1/2-x,y,z
1/2+x,-y,z
loop_
_atom_site_type_symbol
_atom_site_label
_atom_site_fract_x
_atom_site_fract_y
_atom_site_fract_z
Si Si1 0.068426 0.900476 0.779010
Si Si2 0.924354 0.834713 0.205065
Si Si3 0.929802 0.781949 0.966603
Si Si4 0.573090 0.087935 0.397329
Si Si5 0.926316 0.406899 0.027000
Si Si6 0.070298 0.592052 0.504435
Si Si7 0.567830 0.219665 0.577235
Si Si8 0.074297 0.653979 0.266452
O O1 0.250000 0.906927 0.781881
O O2 0.022622 0.843589 0.674259
O O3 0.008790 0.840922 0.876844
O O4 0.000000 0.000000 0.779167
O O5 0.750000 0.854626 0.221582
O O6 0.022502 0.899462 0.276382
O O7 0.966157 0.736994 0.248033
O O8 0.956866 0.830488 0.079990
O O9 0.750000 0.777095 0.949980
O O10 0.995468 0.681797 0.979608
O O11 0.750000 0.080790 0.403739
O O12 0.523847 0.171744 0.467504
O O13 0.500000 0.000000 0.443984
O O14 0.750000 0.404875 0.000210
O O15 0.000000 0.500000 0.992747
O O16 0.937513 0.400888 0.156631
O O17 0.250000 0.587073 0.513812
O O18 0.016054 0.678477 0.569981
O O19 0.038066 0.607207 0.378107
O O20 0.000000 0.500000 0.540199
O O21 0.750000 0.222899 0.579820
O O22 0.250000 0.684349 0.274364
#
# Coordination Sequence:
#
# PCOD9339445 Si02
#       8
#     4   4   4   4   4   4   4   4
#     4  11  23  42  67  90 111 146 194 247 302 357
#     4  10  20  34  54  82 116 152 191 235 285 341
#     4  10  22  40  60  85 118 153 196 248 295 347
#     4  11  21  36  57  83 116 152 188 231 288 351
#     4  10  19  32  54  86 121 161 202 241 290 346
#     4  10  19  34  54  82 117 155 193 231 281 337
#     4   9  20  39  61  83 116 153 189 238 292 345
#     4   9  17  31  52  77 115 160 196 233 283 338
#
# _framework density 19.046330999999999
#
# number of rings (size 3 to 8) (size 9 to 14) (size 15 to 20)
#    0.000    2.000    1.250    2.625    0.000    3.000 
#    0.000    3.750    0.000    1.500    0.000    0.000 
#    0.000    0.000    0.000    0.000    0.000    0.000 
#
# Total GULP energy -178531.420500 kJ/mol
# GULP energy per Si atom -5579.106891 kJ/mol
# Density = 1.900298 g / cm^3
# Si number density = 19.046331 Si / 1000 Ang^3
#
#
#
# Elastic Constant Matrix: (Units=GPa)
#
#
# Indices 1 2 3 4 5 6 
#
# 1 56.7948 52.7526 49.2060 0.0000 0.0000 0.0000
# 2 52.7526 154.4813 62.3444 0.0000 0.0000 0.0000
# 3 49.2060 62.3444 86.1326 0.0000 0.0000 0.0000
# 4 0.0000 0.0000 0.0000 17.9169 0.0000 0.0000
# 5 0.0000 0.0000 0.0000 0.0000 13.4063 0.0000
# 6 0.0000 0.0000 0.0000 0.0000 0.0000 35.4447
#
#
#
# Elastic Compliance Matrix: (Units=1/GPa)
#
#
# Indices 1 2 3 4 5 6 
#
# 1 0.038463 -0.006027 -0.017611 0.000000 0.000000 0.000000
# 2 -0.006027 0.010089 -0.003859 0.000000 0.000000 0.000000
# 3 -0.017611 -0.003859 0.024464 0.000000 0.000000 0.000000
# 4 0.000000 0.000000 0.000000 0.055813 0.000000 0.000000
# 5 0.000000 0.000000 0.000000 0.000000 0.074592 0.000000
# 6 0.000000 0.000000 0.000000 0.000000 0.000000 0.028213
#
#
# Mechanical properties :
#
#
# Convention : Reuss Voigt Hill
#
# Bulk Modulus (GPa) = 55.48859 69.55720 62.52289
# Shear Modulus (GPa) = 17.08609 22.22729 19.65669
#
# Velocity S-wave (km/s) = 2.99838 3.41986 3.21603
# Velocity P-wave (km/s) = 6.41746 7.22449 6.83290
#
# Compressibility (1/GPa) = 0.01802172
#
# Stress axis : x y z
#
# Youngs Moduli (GPa) = 25.99893 99.11771 40.87619
#
# Poissons Ratio (x) = 0.59741 0.71986
# Poissons Ratio (y) = 0.15670 0.15775
# Poissons Ratio (z) = 0.45786 0.38253
#
# Static dielectric constant tensor:
#      x y z
#    x 1.652760 0.000000 0.000000 
#    y 0.000000 1.687980 0.000000 
#    z 0.000000 0.000000 1.668590 
# 
# From -- ./inp_files/5003.got.cif
#   From: 2010.05.17/outbox.cif.g08.bks.cpg/sg28_3_cif.got.tgz:5003.got - 2010.06.04 01:15:21.
