data_PCOD9339398
_publ_section_title
;
Structure prediction by ZEFSAII (Michael W. Deem and Ramdas Pophale) SiO2 
 PCOD9339398
Probable space group: P M A 2
;
_chemical_formula_sum "Si O2"
_cell_formula_units_Z 32
_cell_length_a 9.290817
_cell_length_b 14.824897
_cell_length_c 12.333272
_cell_angle_alpha 90.000000
_cell_angle_beta 90.000000
_cell_angle_gamma 90.000000
_cell_volume 1698.728215
_symmetry_space_group_name_H-M "P M A 2"
_symmetry_group_IT_number 28
_symmetry_cell_setting 'orthorhombic'
loop_
_space_group_symop_operation_xyz
x,y,z
-x,-y,z
1/2-x,y,z
1/2+x,-y,z
loop_
_atom_site_type_symbol
_atom_site_label
_atom_site_fract_x
_atom_site_fract_y
_atom_site_fract_z
Si Si1 0.579046 0.275888 0.252380
Si Si2 0.414862 0.419181 0.828225
Si Si3 0.918307 0.716288 0.636047
Si Si4 0.419192 0.669055 0.013012
Si Si5 0.916585 0.846708 0.957354
Si Si6 0.581671 0.909018 0.201557
Si Si7 0.922275 0.402864 0.458995
Si Si8 0.920816 0.910436 0.715027
O O1 0.750000 0.253998 0.252044
O O2 0.548123 0.328867 0.140528
O O3 0.490955 0.182237 0.248136
O O4 0.549478 0.341961 0.352246
O O5 0.500000 0.500000 0.771576
O O6 0.250000 0.444384 0.842280
O O7 0.422606 0.331141 0.753530
O O8 0.490235 0.399613 0.941853
O O9 0.750000 0.714748 0.601094
O O10 0.966032 0.819332 0.652945
O O11 0.014042 0.656745 0.556727
O O12 0.250000 0.655663 0.996740
O O13 0.470185 0.766684 0.970925
O O14 0.750000 0.811871 0.951659
O O15 0.944616 0.896694 0.844447
O O16 0.926201 0.901770 0.069593
O O17 0.750000 0.912137 0.230731
O O18 0.500000 0.000000 0.235368
O O19 0.750000 0.415470 0.469860
O O20 0.000000 0.500000 0.454022
O O21 0.750000 0.919535 0.700252
O O22 0.000000 0.000000 0.678020
#
# Coordination Sequence:
#
# PCOD9339398 Si02
#       8
#     4   4   4   4   4   4   4   4
#     4   9  21  40  59  84 118 152 194 244 291 344
#     4  11  22  37  56  82 117 152 189 234 289 350
#     4  10  22  41  62  84 117 153 192 243 290 342
#     4  10  19  33  55  83 116 153 191 233 286 343
#     4   9  17  32  51  77 116 159 197 234 282 335
#     4  10  19  31  54  85 120 160 200 240 287 343
#     4  11  24  43  67  90 113 145 192 246 298 353
#     4  10  20  35  55  83 118 155 193 235 284 339
#
# _framework density 18.837620999999999
#
# number of rings (size 3 to 8) (size 9 to 14) (size 15 to 20)
#    0.000    2.000    1.250    2.250    0.000    5.500 
#    0.000    1.875    0.000    1.500    0.000    0.000 
#    0.000    0.000    0.000    0.000    0.000    0.000 
#
# Total GULP energy -178589.237283 kJ/mol
# GULP energy per Si atom -5580.913665 kJ/mol
# Density = 1.879475 g / cm^3
# Si number density = 18.837621 Si / 1000 Ang^3
#
#
#
# Elastic Constant Matrix: (Units=GPa)
#
#
# Indices 1 2 3 4 5 6 
#
# 1 94.0207 74.7938 58.9365 0.0000 0.0000 0.0000
# 2 74.7938 145.8445 54.4411 0.0000 0.0000 0.0000
# 3 58.9365 54.4411 78.6399 0.0000 0.0000 0.0000
# 4 0.0000 0.0000 0.0000 16.3302 0.0000 0.0000
# 5 0.0000 0.0000 0.0000 0.0000 20.0267 0.0000
# 6 0.0000 0.0000 0.0000 0.0000 0.0000 35.8098
#
#
#
# Elastic Compliance Matrix: (Units=1/GPa)
#
#
# Indices 1 2 3 4 5 6 
#
# 1 0.025532 -0.008025 -0.013579 0.000000 0.000000 0.000000
# 2 -0.008025 0.011768 -0.002133 0.000000 0.000000 0.000000
# 3 -0.013579 -0.002133 0.024370 0.000000 0.000000 0.000000
# 4 0.000000 0.000000 0.000000 0.061236 0.000000 0.000000
# 5 0.000000 0.000000 0.000000 0.000000 0.049933 0.000000
# 6 0.000000 0.000000 0.000000 0.000000 0.000000 0.027925
#
#
# Mechanical properties :
#
#
# Convention : Reuss Voigt Hill
#
# Bulk Modulus (GPa) = 70.44276 77.20531 73.82404
# Shear Modulus (GPa) = 19.76517 23.12224 21.44371
#
# Velocity S-wave (km/s) = 3.24271 3.50730 3.37760
# Velocity P-wave (km/s) = 7.17608 7.58124 7.38144
#
# Compressibility (1/GPa) = 0.01419592
#
# Stress axis : x y z
#
# Youngs Moduli (GPa) = 39.16697 84.97623 41.03436
#
# Poissons Ratio (x) = 0.68189 0.55722
# Poissons Ratio (y) = 0.31430 0.08752
# Poissons Ratio (z) = 0.53187 0.18124
#
# Static dielectric constant tensor:
#      x y z
#    x 1.632840 0.000000 0.000000 
#    y 0.000000 1.665580 0.000000 
#    z 0.000000 0.000000 1.661940 
# 
# From -- ./inp_files/5080.got.cif
#   From: 2010.05.17/outbox.cif.g08.bks.cpg/sg28_3_cif.got.tgz:5080.got - 2010.06.04 01:15:21.
