data_PCOD9339012
_publ_section_title
;
Structure prediction by ZEFSAII (Michael W. Deem and Ramdas Pophale) SiO2 
 PCOD9339012
Probable space group: P C C 2
;
_chemical_formula_sum "Si O2"
_cell_formula_units_Z 24
_cell_length_a 9.519774
_cell_length_b 9.843209
_cell_length_c 11.394846
_cell_angle_alpha 90.000000
_cell_angle_beta 90.000000
_cell_angle_gamma 90.000000
_cell_volume 1067.755470
_symmetry_space_group_name_H-M "P C C 2"
_symmetry_group_IT_number 27
_symmetry_cell_setting 'orthorhombic'
loop_
_space_group_symop_operation_xyz
x,y,z
-x,-y,z
-x,y,1/2+z
x,-y,1/2+z
loop_
_atom_site_type_symbol
_atom_site_label
_atom_site_fract_x
_atom_site_fract_y
_atom_site_fract_z
Si Si1 0.232526 0.799387 0.557470
Si Si2 0.726212 0.337475 0.305170
Si Si3 0.959471 0.274914 0.154399
Si Si4 0.450378 0.765120 0.088719
Si Si5 0.199569 0.094889 0.488449
Si Si6 0.000000 0.000000 0.290148
Si Si7 0.500000 0.500000 0.933137
O O1 0.242947 0.748321 0.422976
O O2 0.388147 0.802648 0.609356
O O3 0.121524 0.703666 0.623976
O O4 0.174479 0.952944 0.557598
O O5 0.866957 0.374699 0.233287
O O6 0.633068 0.254793 0.210125
O O7 0.630618 0.459800 0.351383
O O8 0.880798 0.229429 0.034945
O O9 0.949635 0.133846 0.225061
O O10 0.362549 0.869495 0.007713
O O11 0.458266 0.624694 0.016508
O O12 0.131453 0.056760 0.365453
#
# Coordination Sequence:
#
# PCOD9339012 Si02
#       7
#     4   4   4   4   4   2   2
#     4  11  20  38  60 100 138 163 221 275 333 428
#     4  10  22  41  69  93 124 183 222 271 350 388
#     4  11  20  35  62  95 132 176 207 264 338 408
#     4  10  24  39  65  91 129 178 228 285 334 393
#     4  11  20  36  56  95 132 171 213 262 335 419
#     4  12  18  34  62  88 140 176 202 262 338 396
#     4  10  22  46  66  90 128 172 240 296 324 386
#
# _framework density 22.477056999999999
#
# number of rings (size 3 to 8) (size 9 to 14) (size 15 to 20)
#    0.000    1.333    5.000    1.000    0.000    2.667 
#    0.000    3.333    0.000   60.000    0.000    0.000 
#    0.000    0.000    0.000    0.000    0.000    0.000 
#
# Total GULP energy -133940.240680 kJ/mol
# GULP energy per Si atom -5580.843362 kJ/mol
# Density = 2.242590 g / cm^3
# Si number density = 22.477057 Si / 1000 Ang^3
#
#
#
# Elastic Constant Matrix: (Units=GPa)
#
#
# Indices 1 2 3 4 5 6 
#
# 1 148.0346 7.8611 39.1860 0.0000 0.0000 0.0000
# 2 7.8611 51.3508 9.6560 0.0000 0.0000 0.0000
# 3 39.1860 9.6560 80.0187 0.0000 0.0000 0.0000
# 4 0.0000 0.0000 0.0000 19.4952 0.0000 0.0000
# 5 0.0000 0.0000 0.0000 0.0000 16.0445 0.0000
# 6 0.0000 0.0000 0.0000 0.0000 0.0000 32.3769
#
#
#
# Elastic Compliance Matrix: (Units=1/GPa)
#
#
# Indices 1 2 3 4 5 6 
#
# 1 0.007773 -0.000485 -0.003748 0.000000 0.000000 0.000000
# 2 -0.000485 0.019956 -0.002171 0.000000 0.000000 0.000000
# 3 -0.003748 -0.002171 0.014594 0.000000 0.000000 0.000000
# 4 0.000000 0.000000 0.000000 0.051295 0.000000 0.000000
# 5 0.000000 0.000000 0.000000 0.000000 0.062327 0.000000
# 6 0.000000 0.000000 0.000000 0.000000 0.000000 0.030886
#
#
# Mechanical properties :
#
#
# Convention : Reuss Voigt Hill
#
# Bulk Modulus (GPa) = 33.87955 43.64558 38.76257
# Shear Modulus (GPa) = 23.86890 28.43005 26.14947
#
# Velocity S-wave (km/s) = 3.26225 3.56033 3.41454
# Velocity P-wave (km/s) = 5.41252 6.03003 5.72960
#
# Compressibility (1/GPa) = 0.02951633
#
# Stress axis : x y z
#
# Youngs Moduli (GPa) = 128.64921 50.10948 68.51922
#
# Poissons Ratio (x) = 0.02431 0.25681
# Poissons Ratio (y) = 0.06242 0.14873
# Poissons Ratio (z) = 0.48218 0.10877
#
# Static dielectric constant tensor:
#      x y z
#    x 1.905710 0.000000 0.000000 
#    y 0.000000 1.842710 0.000000 
#    z 0.000000 0.000000 1.875850 
# 
# From -- ./inp_files/2356.got.cif
#   From: 2010.05.17/outbox.cif.g08.bks.cpg/sg27_2_cif.got.tgz:2356.got - 2010.06.04 01:11:05.
