data_PCOD9339678
_publ_section_title
;
Structure prediction by ZEFSAII (Michael W. Deem and Ramdas Pophale) SiO2 
 PCOD9339678
Probable space group: P M A 2
;
_chemical_formula_sum "Si O2"
_cell_formula_units_Z 32
_cell_length_a 17.864828
_cell_length_b 11.866655
_cell_length_c 7.893529
_cell_angle_alpha 90.000000
_cell_angle_beta 90.000000
_cell_angle_gamma 90.000000
_cell_volume 1673.394605
_symmetry_space_group_name_H-M "P M A 2"
_symmetry_group_IT_number 28
_symmetry_cell_setting 'orthorhombic'
loop_
_space_group_symop_operation_xyz
x,y,z
-x,-y,z
1/2-x,y,z
1/2+x,-y,z
loop_
_atom_site_type_symbol
_atom_site_label
_atom_site_fract_x
_atom_site_fract_y
_atom_site_fract_z
Si Si1 0.607929 0.935488 0.012510
Si Si2 0.450563 0.591898 0.247251
Si Si3 0.832294 0.838561 0.350014
Si Si4 0.160822 0.538037 0.515847
Si Si5 0.336559 0.978725 0.646524
Si Si6 0.583269 0.247429 0.685509
Si Si7 0.938345 0.666802 0.533825
Si Si8 0.946330 0.178461 0.047259
O O1 0.656985 0.873863 0.155057
O O2 0.530452 0.865162 0.006649
O O3 0.593573 0.060594 0.089740
O O4 0.637968 0.957462 0.821018
O O5 0.500000 0.500000 0.142058
O O6 0.372032 0.547853 0.322977
O O7 0.502629 0.609503 0.409982
O O8 0.444870 0.716970 0.173353
O O9 0.750000 0.787824 0.371223
O O10 0.893234 0.752343 0.417049
O O11 0.838392 0.941673 0.482485
O O12 0.250000 0.528645 0.520051
O O13 0.132041 0.650731 0.610549
O O14 0.118756 0.429199 0.596312
O O15 0.250000 0.942327 0.671795
O O16 0.389899 0.872056 0.611209
O O17 0.494646 0.271568 0.661675
O O18 0.594293 0.228842 0.883415
#
# Coordination Sequence:
#
# PCOD9339678 Si02
#       8
#     4   4   4   4   4   4   4   4
#     4  10  21  36  57  84 123 158 197 247 296 353
#     4   9  19  35  56  81 111 144 188 242 288 350
#     4  11  22  35  59  86 116 162 199 238 303 365
#     4  10  21  38  58  82 115 153 192 249 309 360
#     4  10  22  38  54  86 125 157 199 247 298 360
#     4  10  21  36  60  84 113 153 195 248 301 352
#     4  10  20  37  58  84 111 147 199 244 293 359
#     4  10  20  36  56  86 112 152 199 243 295 350
#
# _framework density 19.122805
#
# number of rings (size 3 to 8) (size 9 to 14) (size 15 to 20)
#    0.000    2.000    1.250    3.000    3.500    2.500 
#    0.000    3.125    0.000    0.000    0.000    0.000 
#    0.000    0.000    0.000    0.000    0.000    0.000 
#
# Total GULP energy -178150.381852 kJ/mol
# GULP energy per Si atom -5567.199433 kJ/mol
# Density = 1.907928 g / cm^3
# Si number density = 19.122805 Si / 1000 Ang^3
#
#
#
# Elastic Constant Matrix: (Units=GPa)
#
#
# Indices 1 2 3 4 5 6 
#
# 1 97.4363 25.9026 -0.8122 0.0000 0.0000 0.0000
# 2 25.9026 68.1017 14.5206 0.0000 0.0000 0.0000
# 3 -0.8122 14.5206 24.3817 0.0000 0.0000 0.0000
# 4 0.0000 0.0000 0.0000 -13.2537 0.0000 0.0000
# 5 0.0000 0.0000 0.0000 0.0000 11.7107 0.0000
# 6 0.0000 0.0000 0.0000 0.0000 0.0000 19.2394
#
#
#
# Elastic Compliance Matrix: (Units=1/GPa)
#
#
# Indices 1 2 3 4 5 6 
#
# 1 0.011669 -0.005179 0.003473 0.000000 0.000000 0.000000
# 2 -0.005179 0.019118 -0.011558 0.000000 0.000000 0.000000
# 3 0.003473 -0.011558 0.048014 0.000000 0.000000 0.000000
# 4 0.000000 0.000000 0.000000 -0.075451 0.000000 0.000000
# 5 0.000000 0.000000 0.000000 0.000000 0.085392 0.000000
# 6 0.000000 0.000000 0.000000 0.000000 0.000000 0.051977
#
#
# Mechanical properties :
#
#
# Convention : Reuss Voigt Hill
#
# Bulk Modulus (GPa) = 19.13060 29.90460 24.51760
# Shear Modulus (GPa) = 27.07513 13.55986 20.31749
#
# Velocity S-wave (km/s) = 3.76687 2.66577 3.26310
# Velocity P-wave (km/s) = 5.38004 5.01470 5.20058
#
# Compressibility (1/GPa) = 0.05227229
#
# Stress axis : x y z
#
# Youngs Moduli (GPa) = 85.69869 52.30639 20.82739
#
# Poissons Ratio (x) = 0.27088 -0.07233
# Poissons Ratio (y) = 0.44381 0.24073
# Poissons Ratio (z) = -0.29763 0.60458
#
# Static dielectric constant tensor:
#      x y z
#    x 1.713400 0.000000 0.000000 
#    y 0.000000 2.005600 0.000000 
#    z 0.000000 0.000000 1.679100 
# 
# From -- ./inp_files/3948.got.cif
#   From: 2010.05.17/outbox.cif.g08.bks.cpg/sg28_2_cif.got.tgz:3948.got - 2010.06.04 01:15:21.
