data_PCOD9339274
_publ_section_title
;
Structure prediction by ZEFSAII (Michael W. Deem and Ramdas Pophale) SiO2 
 PCOD9339274
Probable space group: P M A 2
;
_chemical_formula_sum "Si O2"
_cell_formula_units_Z 16
_cell_length_a 10.346965
_cell_length_b 7.081458
_cell_length_c 10.249790
_cell_angle_alpha 90.000000
_cell_angle_beta 90.000000
_cell_angle_gamma 90.000000
_cell_volume 751.018493
_symmetry_space_group_name_H-M "P M A 2"
_symmetry_group_IT_number 28
_symmetry_cell_setting 'orthorhombic'
loop_
_space_group_symop_operation_xyz
x,y,z
-x,-y,z
1/2-x,y,z
1/2+x,-y,z
loop_
_atom_site_type_symbol
_atom_site_label
_atom_site_fract_x
_atom_site_fract_y
_atom_site_fract_z
Si Si1 0.500000 0.000000 0.713351
Si Si2 0.250000 0.750090 0.276826
Si Si3 0.398364 0.339950 0.885351
Si Si4 0.980523 0.772244 0.174376
Si Si5 0.750000 0.101658 0.554717
Si Si6 0.250000 0.178854 0.338463
O O1 0.571519 0.846518 0.802595
O O2 0.614539 0.102495 0.631405
O O3 0.380360 0.684972 0.208161
O O4 0.250000 0.746214 0.435280
O O5 0.250000 0.978748 0.260711
O O6 0.500000 0.500000 0.846209
O O7 0.250000 0.399412 0.868008
O O8 0.424651 0.292405 0.036923
O O9 0.880668 0.727302 0.290697
O O10 0.000000 0.000000 0.169121
O O11 0.750000 0.893832 0.485093
#
# Coordination Sequence:
#
# PCOD9339274 Si02
#       6
#     2   2   4   4   2   2
#     4  12  24  42  70  96 130 184 232 264 324 392
#     4   8  18  29  60 100 123 154 206 269 326 390
#     4  12  28  44  66  98 136 177 225 278 328 394
#     4  10  17  35  64  94 126 163 203 266 337 386
#     4  10  20  36  64 104 124 172 230 264 326 398
#     4   8  16  31  58  94 125 156 212 265 320 386
#
# _framework density 21.304402
#
# number of rings (size 3 to 8) (size 9 to 14) (size 15 to 20)
#    0.750    1.000    3.750    1.500    3.500    0.000 
#    0.000    0.000    0.000    9.000    0.000    0.000 
#    0.000    0.000    0.000    0.000    0.000    0.000 
#
# Total GULP energy -89242.610775 kJ/mol
# GULP energy per Si atom -5577.663173 kJ/mol
# Density = 2.125591 g / cm^3
# Si number density = 21.304402 Si / 1000 Ang^3
#
#
#
# Elastic Constant Matrix: (Units=GPa)
#
#
# Indices 1 2 3 4 5 6 
#
# 1 183.0580 6.7284 39.1713 0.0000 0.0000 0.0000
# 2 6.7284 62.4420 -7.6185 0.0000 0.0000 0.0000
# 3 39.1713 -7.6185 76.5442 0.0000 0.0000 0.0000
# 4 0.0000 0.0000 0.0000 6.9933 0.0000 0.0000
# 5 0.0000 0.0000 0.0000 0.0000 -286.1995 0.0000
# 6 0.0000 0.0000 0.0000 0.0000 0.0000 1.8033
#
#
#
# Elastic Compliance Matrix: (Units=1/GPa)
#
#
# Indices 1 2 3 4 5 6 
#
# 1 0.006204 -0.001069 -0.003281 0.000000 0.000000 0.000000
# 2 -0.001069 0.016396 0.002179 0.000000 0.000000 0.000000
# 3 -0.003281 0.002179 0.014960 0.000000 0.000000 0.000000
# 4 0.000000 0.000000 0.000000 0.142993 0.000000 0.000000
# 5 0.000000 0.000000 0.000000 0.000000 -0.003494 0.000000
# 6 0.000000 0.000000 0.000000 0.000000 0.000000 0.554525
#
#
# Mechanical properties :
#
#
# Convention : Reuss Voigt Hill
#
# Bulk Modulus (GPa) = 30.10434 44.28963 37.19699
# Shear Modulus (GPa) = 6.69344 -36.56302 -14.93479
#
# Velocity S-wave (km/s) = 1.77444 -4.14722 -2.65055
# Velocity P-wave (km/s) = 4.28479 1.44862 2.85140
#
# Compressibility (1/GPa) = 0.03321781
#
# Stress axis : x y z
#
# Youngs Moduli (GPa) = 161.18125 60.99091 66.84292
#
# Poissons Ratio (x) = 0.06519 0.21934
# Poissons Ratio (y) = 0.17229 -0.14564
# Poissons Ratio (z) = 0.52890 -0.13289
#
# Static dielectric constant tensor:
#      x y z
#    x 2.449680 0.000000 0.000000 
#    y 0.000000 1.811840 0.000000 
#    z 0.000000 0.000000 1.740080 
# 
# From -- ./inp_files/4525.got.cif
#   From: 2010.05.17/outbox.cif.g08.bks.cpg/sg28_3_cif.got.tgz:4525.got - 2010.06.04 01:15:21.
