data_PCOD9339650
_publ_section_title
;
Structure prediction by ZEFSAII (Michael W. Deem and Ramdas Pophale) SiO2 
 PCOD9339650
Probable space group: P M A 2
;
_chemical_formula_sum "Si O2"
_cell_formula_units_Z 28
_cell_length_a 8.600735
_cell_length_b 9.266370
_cell_length_c 18.524419
_cell_angle_alpha 90.000000
_cell_angle_beta 90.000000
_cell_angle_gamma 90.000000
_cell_volume 1476.351602
_symmetry_space_group_name_H-M "P M A 2"
_symmetry_group_IT_number 28
_symmetry_cell_setting 'orthorhombic'
loop_
_space_group_symop_operation_xyz
x,y,z
-x,-y,z
1/2-x,y,z
1/2+x,-y,z
loop_
_atom_site_type_symbol
_atom_site_label
_atom_site_fract_x
_atom_site_fract_y
_atom_site_fract_z
Si Si1 0.436945 0.662376 0.473370
Si Si2 0.562225 0.338574 0.189249
Si Si3 0.437504 0.338683 0.752344
Si Si4 0.436854 0.838053 0.048194
Si Si5 0.062344 0.838075 0.330397
Si Si6 0.436954 0.162264 0.610168
Si Si7 0.063087 0.162039 0.893057
O O1 0.500000 0.500000 0.472732
O O2 0.250000 0.659144 0.476175
O O3 0.485133 0.746647 0.400654
O O4 0.500418 0.748046 0.542329
O O5 0.500000 0.500000 0.194689
O O6 0.750000 0.342660 0.190284
O O7 0.514159 0.262759 0.114493
O O8 0.510517 0.243016 0.257579
O O9 0.500000 0.500000 0.746141
O O10 0.250000 0.343511 0.752228
O O11 0.486193 0.242210 0.683960
O O12 0.486944 0.263124 0.826993
O O13 0.250000 0.843491 0.045426
O O14 0.500000 0.000000 0.059770
O O15 0.500378 0.787704 0.970707
O O16 0.250000 0.843623 0.329659
O O17 0.000000 0.000000 0.333659
O O18 0.250000 0.159162 0.607699
O O19 0.500000 0.000000 0.608318
O O20 0.250000 0.156693 0.895369
O O21 0.000000 0.000000 0.881604
#
# Coordination Sequence:
#
# PCOD9339650 Si02
#       7
#     4   4   4   4   4   4   4
#     4  11  23  39  60  87 118 151 188 231 281 334
#     4  10  22  38  56  81 112 146 185 228 276 329
#     4  10  23  39  57  82 112 147 186 229 278 332
#     4  10  20  35  56  82 110 143 184 227 274 328
#     4  10  22  39  59  84 113 147 188 231 276 329
#     4  11  23  40  61  86 115 149 190 233 280 333
#     4  10  20  36  57  82 110 143 184 227 275 329
#
# _framework density 18.965672999999999
#
# number of rings (size 3 to 8) (size 9 to 14) (size 15 to 20)
#    0.000    1.714    0.000    4.714    0.000    8.000 
#    0.000    2.857    0.000    0.000    0.000    0.000 
#    0.000    0.000    0.000    0.000    0.000    0.000 
#
# Total GULP energy -156517.165410 kJ/mol
# GULP energy per Si atom -5589.898765 kJ/mol
# Density = 1.892251 g / cm^3
# Si number density = 18.965673 Si / 1000 Ang^3
#
#
#
# Elastic Constant Matrix: (Units=GPa)
#
#
# Indices 1 2 3 4 5 6 
#
# 1 39.1020 38.3067 46.6942 0.0000 0.0000 0.0000
# 2 38.3067 187.4988 135.5649 0.0000 0.0000 0.0000
# 3 46.6942 135.5649 208.8083 0.0000 0.0000 0.0000
# 4 0.0000 0.0000 0.0000 77.0797 0.0000 0.0000
# 5 0.0000 0.0000 0.0000 0.0000 2.8166 0.0000
# 6 0.0000 0.0000 0.0000 0.0000 0.0000 38.0680
#
#
#
# Elastic Compliance Matrix: (Units=1/GPa)
#
#
# Indices 1 2 3 4 5 6 
#
# 1 0.035691 -0.002867 -0.006120 0.000000 0.000000 0.000000
# 2 -0.002867 0.010282 -0.006034 0.000000 0.000000 0.000000
# 3 -0.006120 -0.006034 0.010075 0.000000 0.000000 0.000000
# 4 0.000000 0.000000 0.000000 0.012974 0.000000 0.000000
# 5 0.000000 0.000000 0.000000 0.000000 0.355037 0.000000
# 6 0.000000 0.000000 0.000000 0.000000 0.000000 0.026269
#
#
# Mechanical properties :
#
#
# Convention : Reuss Voigt Hill
#
# Bulk Modulus (GPa) = 38.45287 97.39340 67.92314
# Shear Modulus (GPa) = 10.22414 37.91576 24.06995
#
# Velocity S-wave (km/s) = 2.32434 4.47607 3.56635
# Velocity P-wave (km/s) = 5.24618 8.84181 7.26980
#
# Compressibility (1/GPa) = 0.02600586
#
# Stress axis : x y z
#
# Youngs Moduli (GPa) = 28.01826 97.25753 99.25280
#
# Poissons Ratio (x) = 0.27883 0.60743
# Poissons Ratio (y) = 0.08033 0.59892
# Poissons Ratio (z) = 0.17147 0.58688
#
# Static dielectric constant tensor:
#      x y z
#    x 1.647800 0.000000 0.000000 
#    y 0.000000 1.604240 0.000000 
#    z 0.000000 0.000000 1.655490 
# 
# From -- ./inp_files/6805.got.cif
#   From: 2010.05.17/outbox.cif.g08.bks.cpg/sg28_4_cif.got.tgz:6805.got - 2010.06.04 01:15:21.
