data_PCOD9339028
_publ_section_title
;
Structure prediction by ZEFSAII (Michael W. Deem and Ramdas Pophale) SiO2 
 PCOD9339028
Probable space group: P C C 2
;
_chemical_formula_sum "Si O2"
_cell_formula_units_Z 20
_cell_length_a 5.805455
_cell_length_b 11.377521
_cell_length_c 10.895978
_cell_angle_alpha 90.000000
_cell_angle_beta 90.000000
_cell_angle_gamma 90.000000
_cell_volume 719.697719
_symmetry_space_group_name_H-M "P C C 2"
_symmetry_group_IT_number 27
_symmetry_cell_setting 'orthorhombic'
loop_
_space_group_symop_operation_xyz
x,y,z
-x,-y,z
-x,y,1/2+z
x,-y,1/2+z
loop_
_atom_site_type_symbol
_atom_site_label
_atom_site_fract_x
_atom_site_fract_y
_atom_site_fract_z
Si Si1 0.669914 0.199491 0.711330
Si Si2 0.901684 0.664153 0.641981
Si Si3 0.378834 0.873407 0.980970
Si Si4 0.873517 0.622941 0.894011
Si Si5 0.500000 0.500000 0.550364
Si Si6 0.000000 0.000000 0.116902
O O1 0.603227 0.190657 0.852500
O O2 0.485458 0.190474 0.600831
O O3 0.827683 0.311707 0.681932
O O4 0.823535 0.079574 0.692939
O O5 0.705642 0.562084 0.627035
O O6 0.954962 0.676114 0.496064
O O7 0.824298 0.706129 0.778624
O O8 0.500000 0.000000 0.965886
O O9 0.128790 0.908873 0.029950
O O10 0.639120 0.585971 0.959593
O O11 0.000000 0.500000 0.853052
#
# Coordination Sequence:
#
# PCOD9339028 Si02
#       6
#     4   4   4   4   2   2
#     4  11  25  45  73 110 155 207 263 314 389 471
#     4  11  25  45  75 111 147 191 256 320 396 479
#     4  10  22  45  72 106 152 214 261 318 391 456
#     4  10  22  45  71 100 141 187 239 311 400 467
#     4  10  22  46  78 106 144 196 240 336 406 462
#     4  10  22  42  76 106 156 212 252 320 384 458
#
# _framework density 27.789448
#
# number of rings (size 3 to 8) (size 9 to 14) (size 15 to 20)
#    0.000    1.600    0.000    4.800    2.800    4.800 
#    7.200    0.000    0.000    0.000    0.000    0.000 
#    0.000    0.000    0.000    0.000    0.000    0.000 
#
# Total GULP energy -111465.478900 kJ/mol
# GULP energy per Si atom -5573.273945 kJ/mol
# Density = 2.772620 g / cm^3
# Si number density = 27.789448 Si / 1000 Ang^3
#
#
#
# Elastic Constant Matrix: (Units=GPa)
#
#
# Indices 1 2 3 4 5 6 
#
# 1 133.0868 67.0927 104.7503 0.0000 0.0000 0.0000
# 2 67.0927 115.6935 48.6360 0.0000 0.0000 0.0000
# 3 104.7503 48.6360 282.5344 0.0000 0.0000 0.0000
# 4 0.0000 0.0000 0.0000 16.0896 0.0000 0.0000
# 5 0.0000 0.0000 0.0000 0.0000 108.2691 0.0000
# 6 0.0000 0.0000 0.0000 0.0000 0.0000 56.9784
#
#
#
# Elastic Compliance Matrix: (Units=1/GPa)
#
#
# Indices 1 2 3 4 5 6 
#
# 1 0.013923 -0.006365 -0.004066 0.000000 0.000000 0.000000
# 2 -0.006365 0.012227 0.000255 0.000000 0.000000 0.000000
# 3 -0.004066 0.000255 0.005003 0.000000 0.000000 0.000000
# 4 0.000000 0.000000 0.000000 0.062152 0.000000 0.000000
# 5 0.000000 0.000000 0.000000 0.000000 0.009236 0.000000
# 6 0.000000 0.000000 0.000000 0.000000 0.000000 0.017551
#
#
# Mechanical properties :
#
#
# Convention : Reuss Voigt Hill
#
# Bulk Modulus (GPa) = 92.58286 108.03028 100.30657
# Shear Modulus (GPa) = 34.71128 56.98980 45.85054
#
# Velocity S-wave (km/s) = 3.53807 4.53346 4.06634
# Velocity P-wave (km/s) = 7.07663 8.14628 7.63023
#
# Compressibility (1/GPa) = 0.01080114
#
# Stress axis : x y z
#
# Youngs Moduli (GPa) = 71.82278 81.78335 199.87474
#
# Poissons Ratio (x) = 0.52054 0.81277
# Poissons Ratio (y) = 0.45714 -0.05095
# Poissons Ratio (z) = 0.29206 -0.02085
#
# Static dielectric constant tensor:
#      x y z
#    x 0.345710 0.000000 0.000000 
#    y 0.000000 2.775580 0.000000 
#    z 0.000000 0.000000 2.095100 
# 
# From -- ./inp_files/1949.got.cif
#   From: 2010.05.17/outbox.cif.g08.bks.cpg/sg27_1_cif.got.tgz:1949.got - 2010.06.04 01:11:05.
