data_PCOD9339631
_publ_section_title
;
Structure prediction by ZEFSAII (Michael W. Deem and Ramdas Pophale) SiO2 
 PCOD9339631
Probable space group: P M A 2
;
_chemical_formula_sum "Si O2"
_cell_formula_units_Z 32
_cell_length_a 8.159930
_cell_length_b 14.418857
_cell_length_c 13.473696
_cell_angle_alpha 90.000000
_cell_angle_beta 90.000000
_cell_angle_gamma 90.000000
_cell_volume 1585.272815
_symmetry_space_group_name_H-M "P M A 2"
_symmetry_group_IT_number 28
_symmetry_cell_setting 'orthorhombic'
loop_
_space_group_symop_operation_xyz
x,y,z
-x,-y,z
1/2-x,y,z
1/2+x,-y,z
loop_
_atom_site_type_symbol
_atom_site_label
_atom_site_fract_x
_atom_site_fract_y
_atom_site_fract_z
Si Si1 0.444195 0.713777 0.287130
Si Si2 0.945992 0.106186 0.817562
Si Si3 0.552570 0.107628 0.600607
Si Si4 0.447941 0.392722 0.702813
Si Si5 0.947129 0.607645 0.483514
Si Si6 0.551774 0.106162 0.383446
Si Si7 0.056406 0.394337 0.093963
Si Si8 0.052580 0.288900 0.899963
O O1 0.250000 0.716319 0.272048
O O2 0.479503 0.660873 0.390096
O O3 0.505461 0.819069 0.303289
O O4 0.517797 0.660406 0.194356
O O5 0.750000 0.107011 0.815681
O O6 0.008699 0.140149 0.708118
O O7 0.007021 0.180970 0.895931
O O8 0.000000 0.000000 0.833113
O O9 0.750000 0.115302 0.601075
O O10 0.493390 0.140821 0.492951
O O11 0.500000 0.000000 0.600004
O O12 0.500000 0.500000 0.711474
O O13 0.250000 0.389065 0.702653
O O14 0.502816 0.358408 0.593379
O O15 0.509694 0.337435 0.798685
O O16 0.750000 0.613294 0.478586
O O17 0.000000 0.500000 0.477354
O O18 0.750000 0.107415 0.385070
O O19 0.500000 0.000000 0.368073
O O20 0.250000 0.396494 0.082019
O O21 0.000000 0.500000 0.100218
O O22 0.987891 0.341772 0.996937
O O23 0.250000 0.295410 0.898837
#
# Coordination Sequence:
#
# PCOD9339631 Si02
#       8
#     4   4   4   4   4   4   4   4
#     4  11  23  38  59  85 116 152 194 241 288 345
#     4  10  20  34  56  84 118 157 196 240 285 340
#     4   8  15  29  48  75 109 147 187 225 272 325
#     4   9  19  35  55  82 115 148 184 230 288 351
#     4  10  20  35  55  82 115 150 186 230 287 350
#     4   9  19  35  55  81 115 152 191 235 282 336
#     4  11  24  43  66  88 114 148 192 245 295 348
#     4  10  22  39  59  85 116 150 192 240 292 347
#
# _framework density 20.185801000000001
#
# number of rings (size 3 to 8) (size 9 to 14) (size 15 to 20)
#    0.000    2.250    0.000    2.250    1.750    3.500 
#    0.000    0.625    0.000    1.500    0.000    0.000 
#    0.000    0.000    0.000    0.000    0.000    0.000 
#
# Total GULP energy -178572.538677 kJ/mol
# GULP energy per Si atom -5580.391834 kJ/mol
# Density = 2.013986 g / cm^3
# Si number density = 20.185801 Si / 1000 Ang^3
#
#
#
# Elastic Constant Matrix: (Units=GPa)
#
#
# Indices 1 2 3 4 5 6 
#
# 1 19.4711 1.8389 9.3334 0.0000 0.0000 0.0000
# 2 1.8389 128.7947 87.5077 0.0000 0.0000 0.0000
# 3 9.3334 87.5077 133.2694 0.0000 0.0000 0.0000
# 4 0.0000 0.0000 0.0000 35.4926 0.0000 0.0000
# 5 0.0000 0.0000 0.0000 0.0000 12.6679 0.0000
# 6 0.0000 0.0000 0.0000 0.0000 0.0000 22.2573
#
#
#
# Elastic Compliance Matrix: (Units=1/GPa)
#
#
# Indices 1 2 3 4 5 6 
#
# 1 0.053881 0.003240 -0.005901 0.000000 0.000000 0.000000
# 2 0.003240 0.014213 -0.009560 0.000000 0.000000 0.000000
# 3 -0.005901 -0.009560 0.014194 0.000000 0.000000 0.000000
# 4 0.000000 0.000000 0.000000 0.028175 0.000000 0.000000
# 5 0.000000 0.000000 0.000000 0.000000 0.078940 0.000000
# 6 0.000000 0.000000 0.000000 0.000000 0.000000 0.044929
#
#
# Mechanical properties :
#
#
# Convention : Reuss Voigt Hill
#
# Bulk Modulus (GPa) = 17.28703 53.21058 35.24880
# Shear Modulus (GPa) = 17.98205 26.27390 22.12797
#
# Velocity S-wave (km/s) = 2.98791 3.61169 3.31451
# Velocity P-wave (km/s) = 4.52615 6.61891 5.66992
#
# Compressibility (1/GPa) = 0.05784685
#
# Stress axis : x y z
#
# Youngs Moduli (GPa) = 18.55947 70.35733 70.45269
#
# Poissons Ratio (x) = -0.22796 0.41574
# Poissons Ratio (y) = -0.06013 0.67350
# Poissons Ratio (z) = 0.10952 0.67259
#
# Static dielectric constant tensor:
#      x y z
#    x 1.703720 0.000000 0.000000 
#    y 0.000000 1.676830 0.000000 
#    z 0.000000 0.000000 1.740610 
# 
# From -- ./inp_files/5044.got.cif
#   From: 2010.05.17/outbox.cif.g08.bks.cpg/sg28_3_cif.got.tgz:5044.got - 2010.06.04 01:15:21.
