data_PCOD9339974
_publ_section_title
;
Structure prediction by ZEFSAII (Michael W. Deem and Ramdas Pophale) SiO2 
 PCOD9339974
Probable space group: P M A 2
;
_chemical_formula_sum "Si O2"
_cell_formula_units_Z 32
_cell_length_a 9.000000
_cell_length_b 15.000000
_cell_length_c 12.000000
_cell_angle_alpha 90.000000
_cell_angle_beta 90.000000
_cell_angle_gamma 90.000000
_cell_volume 1620.000000
_symmetry_space_group_name_H-M "P M A 2"
_symmetry_group_IT_number 28
_symmetry_cell_setting 'orthorhombic'
loop_
_space_group_symop_operation_xyz
x,y,z
-x,-y,z
1/2-x,y,z
1/2+x,-y,z
loop_
_atom_site_type_symbol
_atom_site_label
_atom_site_fract_x
_atom_site_fract_y
_atom_site_fract_z
Si Si1 0.080088 0.413587 0.041440
Si Si2 0.429043 0.743016 0.916167
Si Si3 0.574245 0.092912 0.055305
Si Si4 0.083090 0.374538 0.297229
Si Si5 0.924352 0.093771 0.519747
Si Si6 0.923517 0.192387 0.284429
Si Si7 0.575140 0.413707 0.517399
Si Si8 0.931750 0.250610 0.665676
O O1 0.250000 0.408509 0.005682
O O2 0.077366 0.416488 0.175394
O O3 0.000000 0.500000 0.995102
O O4 0.990615 0.329600 0.999467
O O5 0.250000 0.740017 0.918446
O O6 0.479588 0.729194 0.790247
O O7 0.479572 0.837015 0.964363
O O8 0.750000 0.084603 0.042893
O O9 0.547999 0.129398 0.179614
O O10 0.500000 0.000000 0.039524
O O11 0.250000 0.385233 0.342034
O O12 0.038406 0.272405 0.279551
O O13 0.967751 0.408350 0.388111
O O14 0.750000 0.081079 0.538078
O O15 0.940271 0.143622 0.401887
O O16 0.983276 0.156567 0.617911
O O17 0.000000 0.000000 0.515139
O O18 0.750000 0.223844 0.276704
O O19 0.500000 0.500000 0.568201
O O20 0.750000 0.419211 0.528671
O O21 0.520728 0.325682 0.579012
O O22 0.750000 0.249501 0.664558
#
# Coordination Sequence:
#
# PCOD9339974 Si02
#       8
#     4   4   4   4   4   4   4   4
#     4  11  24  40  60  88 119 152 189 237 290 346
#     4  10  21  40  63  85 113 154 200 243 289 340
#     4  10  21  35  57  86 117 154 193 236 290 346
#     4  11  22  36  59  90 119 150 189 234 288 347
#     4  10  20  36  57  84 117 152 191 234 287 345
#     4  10  19  35  58  84 115 155 191 232 294 349
#     4  11  22  39  61  86 118 153 190 236 288 345
#     4   9  20  39  61  83 114 154 194 240 290 338
#
# _framework density 19.753086
#
# number of rings (size 3 to 8) (size 9 to 14) (size 15 to 20)
#    0.000    1.750    2.500    1.875    0.000    5.000 
#    0.000    3.125    0.000    0.000    0.000    0.000 
#    0.000    0.000    0.000    0.000    0.000    0.000 
#
# Total GULP energy -178502.017500 kJ/mol
# GULP energy per Si atom -5578.188047 kJ/mol
# Density = 1.970813 g / cm^3
# Si number density = 19.753086 Si / 1000 Ang^3
#
#
#
# Elastic Constant Matrix: (Units=GPa)
#
#
# Indices 1 2 3 4 5 6 
#
# 1 10.5148 51.4290 25.2225 0.0000 0.0000 0.0000
# 2 51.4290 27.4008 -35.2965 0.0000 0.0000 0.0000
# 3 25.2225 -35.2965 30.8409 0.0000 0.0000 0.0000
# 4 0.0000 0.0000 0.0000 -49.7029 0.0000 0.0000
# 5 0.0000 0.0000 0.0000 0.0000 -104.6740 0.0000
# 6 0.0000 0.0000 0.0000 0.0000 0.0000 22.2067
#
#
#
# Elastic Compliance Matrix: (Units=1/GPa)
#
#
# Indices 1 2 3 4 5 6 
#
# 1 0.002058 0.012713 0.012867 0.000000 0.000000 0.000000
# 2 0.012713 0.001601 -0.008565 0.000000 0.000000 0.000000
# 3 0.012867 -0.008565 0.012099 0.000000 0.000000 0.000000
# 4 0.000000 0.000000 0.000000 -0.020120 0.000000 0.000000
# 5 0.000000 0.000000 0.000000 0.000000 -0.009553 0.000000
# 6 0.000000 0.000000 0.000000 0.000000 0.000000 0.045031
#
#
# Mechanical properties :
#
#
# Convention : Reuss Voigt Hill
#
# Bulk Modulus (GPa) = 20.08461 16.82958 18.45710
# Shear Modulus (GPa) = 365.45223 -24.60728 170.42247
#
# Velocity S-wave (km/s) = 13.61660 -3.53334 9.29858
# Velocity P-wave (km/s) = 16.04387 2.84737 11.16464
#
# Compressibility (1/GPa) = 0.04978936
#
# Stress axis : x y z
#
# Youngs Moduli (GPa) = 486.02328 624.54835 82.64877
#
# Poissons Ratio (x) = -7.93998 -1.06345
# Poissons Ratio (y) = -6.17889 0.70786
# Poissons Ratio (z) = -6.25374 5.34905
#
# Static dielectric constant tensor:
#      x y z
#    x 1.707600 0.000000 0.000000 
#    y 0.000000 1.704460 0.000000 
#    z 0.000000 0.000000 1.679840 
# 
# From -- ./inp_files/5008.got.cif
#   From: 2010.05.17/outbox.ucp.g08.bks.cvg/sg28_3_cif.got.tgz:5008.got - 2010.06.11 15:23:59.
