data_PCOD9339897
_publ_section_title
;
Structure prediction by ZEFSAII (Michael W. Deem and Ramdas Pophale) SiO2 
 PCOD9339897
Probable space group: P M A 2
;
_chemical_formula_sum "Si O2"
_cell_formula_units_Z 20
_cell_length_a 14.589328
_cell_length_b 10.273431
_cell_length_c 5.092942
_cell_angle_alpha 90.000000
_cell_angle_beta 90.000000
_cell_angle_gamma 90.000000
_cell_volume 763.342648
_symmetry_space_group_name_H-M "P M A 2"
_symmetry_group_IT_number 28
_symmetry_cell_setting 'orthorhombic'
loop_
_space_group_symop_operation_xyz
x,y,z
-x,-y,z
1/2-x,y,z
1/2+x,-y,z
loop_
_atom_site_type_symbol
_atom_site_label
_atom_site_fract_x
_atom_site_fract_y
_atom_site_fract_z
Si Si1 0.539179 0.366408 0.082750
Si Si2 0.098540 0.018483 0.421612
Si Si3 0.250000 0.399981 0.369140
Si Si4 0.750000 0.335284 0.092042
Si Si5 0.750000 0.847054 0.065430
Si Si6 0.250000 0.912771 0.729948
Si Si7 0.060966 0.277645 0.571073
O O1 0.500000 0.500000 0.193895
O O2 0.645846 0.368146 0.011569
O O3 0.507086 0.275610 0.320658
O O4 0.484762 0.341896 0.818831
O O5 0.163791 0.096475 0.225051
O O6 0.075175 0.126480 0.641796
O O7 0.158825 0.902474 0.549601
O O8 0.000000 0.000000 0.292916
O O9 0.250000 0.557114 0.338458
O O10 0.250000 0.310009 0.098118
O O11 0.157013 0.349595 0.506804
O O12 0.750000 0.182636 0.981300
O O13 0.750000 0.934188 0.805976
#
# Coordination Sequence:
#
# PCOD9339897 Si02
#       7
#     4   4   2   2   2   2   4
#     4  12  27  48  73 116 153 210 260 325 390 480
#     4  10  23  43  70 101 145 198 252 318 386 463
#     4  10  23  49  75 109 143 215 248 338 375 474
#     4  12  27  47  78 112 171 198 260 338 411 456
#     4   9  23  42  68 101 138 186 267 307 373 467
#     4  11  25  44  69 114 146 197 249 325 391 465
#     4  11  26  47  76 111 151 201 276 309 391 479
#
# _framework density 26.200552999999999
#
# number of rings (size 3 to 8) (size 9 to 14) (size 15 to 20)
#    0.000    1.200    2.000    2.400    8.400    3.200 
#    0.000    0.000    0.000    0.000    0.000    0.000 
#    0.000    0.000    0.000    0.000    0.000    0.000 
#
# Total GULP energy -111512.230305 kJ/mol
# GULP energy per Si atom -5575.611515 kJ/mol
# Density = 2.614092 g / cm^3
# Si number density = 26.200553 Si / 1000 Ang^3
#
#
#
# Elastic Constant Matrix: (Units=GPa)
#
#
# Indices 1 2 3 4 5 6 
#
# 1 213.7992 25.8227 46.6162 0.0000 0.0000 0.0000
# 2 25.8227 77.6192 12.7358 0.0000 0.0000 0.0000
# 3 46.6162 12.7358 94.3541 0.0000 0.0000 0.0000
# 4 0.0000 0.0000 0.0000 50.2363 0.0000 0.0000
# 5 0.0000 0.0000 0.0000 0.0000 36.0085 0.0000
# 6 0.0000 0.0000 0.0000 0.0000 0.0000 29.4854
#
#
#
# Elastic Compliance Matrix: (Units=1/GPa)
#
#
# Indices 1 2 3 4 5 6 
#
# 1 0.005384 -0.001385 -0.002473 0.000000 0.000000 0.000000
# 2 -0.001385 0.013532 -0.001142 0.000000 0.000000 0.000000
# 3 -0.002473 -0.001142 0.011974 0.000000 0.000000 0.000000
# 4 0.000000 0.000000 0.000000 0.019906 0.000000 0.000000
# 5 0.000000 0.000000 0.000000 0.000000 0.027771 0.000000
# 6 0.000000 0.000000 0.000000 0.000000 0.000000 0.033915
#
#
# Mechanical properties :
#
#
# Convention : Reuss Voigt Hill
#
# Bulk Modulus (GPa) = 47.87175 61.79134 54.83155
# Shear Modulus (GPa) = 38.62624 43.18589 40.90606
#
# Velocity S-wave (km/s) = 3.84377 4.06431 3.95557
# Velocity P-wave (km/s) = 6.16525 6.75722 6.46801
#
# Compressibility (1/GPa) = 0.02088914
#
# Stress axis : x y z
#
# Youngs Moduli (GPa) = 185.74267 73.90062 83.51236
#
# Poissons Ratio (x) = 0.10238 0.20652
# Poissons Ratio (y) = 0.25732 0.09538
# Poissons Ratio (z) = 0.45932 0.08440
#
# Static dielectric constant tensor:
#      x y z
#    x 2.009350 0.000000 0.000000 
#    y 0.000000 -0.438760 0.000000 
#    z 0.000000 0.000000 2.071530 
# 
# From -- ./inp_files/687.got.cif
#   From: 2010.05.17/outbox.cif.g08.bks.cpg/sg28_1_cif.got.tgz:687.got - 2010.06.04 01:15:21.
