data_PCOD9339890
_publ_section_title
;
Structure prediction by ZEFSAII (Michael W. Deem and Ramdas Pophale) SiO2 
 PCOD9339890
Probable space group: P M A 2
;
_chemical_formula_sum "Si O2"
_cell_formula_units_Z 32
_cell_length_a 8.886993
_cell_length_b 14.919563
_cell_length_c 12.630549
_cell_angle_alpha 90.000000
_cell_angle_beta 90.000000
_cell_angle_gamma 90.000000
_cell_volume 1674.685148
_symmetry_space_group_name_H-M "P M A 2"
_symmetry_group_IT_number 28
_symmetry_cell_setting 'orthorhombic'
loop_
_space_group_symop_operation_xyz
x,y,z
-x,-y,z
1/2-x,y,z
1/2+x,-y,z
loop_
_atom_site_type_symbol
_atom_site_label
_atom_site_fract_x
_atom_site_fract_y
_atom_site_fract_z
Si Si1 0.431527 0.207730 0.836520
Si Si2 0.930899 0.228778 0.445426
Si Si3 0.568861 0.593662 0.369923
Si Si4 0.073037 0.910492 0.272201
Si Si5 0.430252 0.900686 0.642118
Si Si6 0.424517 0.365297 0.133048
Si Si7 0.932687 0.591703 0.899679
Si Si8 0.577321 0.843161 0.073052
O O1 0.250000 0.204204 0.824757
O O2 0.509654 0.151835 0.744865
O O3 0.473253 0.313647 0.844110
O O4 0.467279 0.163976 0.950777
O O5 0.750000 0.242083 0.444652
O O6 0.977011 0.174902 0.339820
O O7 0.968289 0.163390 0.542641
O O8 0.011921 0.323884 0.440495
O O9 0.500000 0.500000 0.406433
O O10 0.750000 0.591697 0.369627
O O11 0.512298 0.609013 0.247692
O O12 0.250000 0.917559 0.282428
O O13 0.026112 0.898694 0.150905
O O14 0.000000 0.000000 0.316768
O O15 0.250000 0.909445 0.646405
O O16 0.500000 0.000000 0.633705
O O17 0.250000 0.394490 0.135043
O O18 0.425834 0.258556 0.116795
O O19 0.489312 0.401403 0.022267
O O20 0.750000 0.588001 0.900646
O O21 0.000000 0.500000 0.853751
O O22 0.750000 0.875205 0.080270
#
# Coordination Sequence:
#
# PCOD9339890 Si02
#       8
#     4   4   4   4   4   4   4   4
#     4   9  20  38  60  85 117 153 193 241 288 341
#     4  10  23  42  60  84 116 149 192 245 291 341
#     4  11  21  34  57  86 119 158 196 237 286 343
#     4  11  22  35  55  83 115 149 188 233 289 353
#     4  11  24  43  67  89 112 144 191 246 297 352
#     4   8  15  29  50  78 113 154 193 228 274 329
#     4   9  17  31  52  81 118 156 193 233 278 334
#     4   9  17  34  56  80 115 154 191 232 283 341
#
# _framework density 19.108070999999999
#
# number of rings (size 3 to 8) (size 9 to 14) (size 15 to 20)
#    0.000    2.250    1.250    3.375    0.000    3.000 
#    0.000    3.125    0.000    1.500    0.000    0.000 
#    0.000    0.000    0.000    0.000    0.000    0.000 
#
# Total GULP energy -178492.756061 kJ/mol
# GULP energy per Si atom -5577.898627 kJ/mol
# Density = 1.906458 g / cm^3
# Si number density = 19.108071 Si / 1000 Ang^3
#
#
#
# Elastic Constant Matrix: (Units=GPa)
#
#
# Indices 1 2 3 4 5 6 
#
# 1 37.3408 53.5012 41.1763 0.0000 0.0000 0.0000
# 2 53.5012 152.2618 65.3146 0.0000 0.0000 0.0000
# 3 41.1763 65.3146 98.4750 0.0000 0.0000 0.0000
# 4 0.0000 0.0000 0.0000 16.2424 0.0000 0.0000
# 5 0.0000 0.0000 0.0000 0.0000 17.2831 0.0000
# 6 0.0000 0.0000 0.0000 0.0000 0.0000 34.0305
#
#
#
# Elastic Compliance Matrix: (Units=1/GPa)
#
#
# Indices 1 2 3 4 5 6 
#
# 1 0.072323 -0.017387 -0.018709 0.000000 0.000000 0.000000
# 2 -0.017387 0.013359 -0.001590 0.000000 0.000000 0.000000
# 3 -0.018709 -0.001590 0.019033 0.000000 0.000000 0.000000
# 4 0.000000 0.000000 0.000000 0.061567 0.000000 0.000000
# 5 0.000000 0.000000 0.000000 0.000000 0.057860 0.000000
# 6 0.000000 0.000000 0.000000 0.000000 0.000000 0.029385
#
#
# Mechanical properties :
#
#
# Convention : Reuss Voigt Hill
#
# Bulk Modulus (GPa) = 34.08093 67.56243 50.82168
# Shear Modulus (GPa) = 14.76316 22.05024 18.40670
#
# Velocity S-wave (km/s) = 2.78261 3.40071 3.10707
# Velocity P-wave (km/s) = 5.31022 7.13124 6.28701
#
# Compressibility (1/GPa) = 0.02934192
#
# Stress axis : x y z
#
# Youngs Moduli (GPa) = 13.82690 74.85422 52.54126
#
# Poissons Ratio (x) = 1.30150 0.98299
# Poissons Ratio (y) = 0.24041 0.08356
# Poissons Ratio (z) = 0.25869 0.11905
#
# Static dielectric constant tensor:
#      x y z
#    x 1.649510 0.000000 0.000000 
#    y 0.000000 1.675770 0.000000 
#    z 0.000000 0.000000 1.673920 
# 
# From -- ./inp_files/5063.got.cif
#   From: 2010.05.17/outbox.cif.g08.bks.cpg/sg28_3_cif.got.tgz:5063.got - 2010.06.04 01:15:21.
