data_PCOD9339279
_publ_section_title
;
Structure prediction by ZEFSAII (Michael W. Deem and Ramdas Pophale) SiO2 
 PCOD9339279
Probable space group: P M A 2
;
_chemical_formula_sum "Si O2"
_cell_formula_units_Z 32
_cell_length_a 8.557378
_cell_length_b 14.786437
_cell_length_c 16.125520
_cell_angle_alpha 90.000000
_cell_angle_beta 90.000000
_cell_angle_gamma 90.000000
_cell_volume 2040.412529
_symmetry_space_group_name_H-M "P M A 2"
_symmetry_group_IT_number 28
_symmetry_cell_setting 'orthorhombic'
loop_
_space_group_symop_operation_xyz
x,y,z
-x,-y,z
1/2-x,y,z
1/2+x,-y,z
loop_
_atom_site_type_symbol
_atom_site_label
_atom_site_fract_x
_atom_site_fract_y
_atom_site_fract_z
Si Si1 0.439012 0.712604 0.750000
Si Si2 0.438790 0.601596 0.586583
Si Si3 0.062893 0.397422 0.905258
Si Si4 0.062848 0.397362 0.088723
Si Si5 0.562610 0.397266 0.261828
Si Si6 0.440698 0.712129 0.423483
Si Si7 0.061719 0.902754 0.682088
Si Si8 0.438376 0.902732 0.488828
O O1 0.250000 0.711502 0.752315
O O2 0.488163 0.654741 0.669320
O O3 0.501321 0.665819 0.832446
O O4 0.489994 0.816022 0.734698
O O5 0.500000 0.500000 0.586956
O O6 0.250000 0.600321 0.586146
O O7 0.489845 0.654496 0.503926
O O8 0.250000 0.402017 0.901856
O O9 0.000000 0.500000 0.895383
O O10 0.018442 0.361791 0.997475
O O11 0.250000 0.397895 0.095178
O O12 0.000000 0.500000 0.087853
O O13 0.993347 0.358067 0.173358
O O14 0.500000 0.500000 0.270748
O O15 0.750000 0.401653 0.261754
O O16 0.508857 0.336630 0.339201
O O17 0.250000 0.712310 0.423229
O O18 0.491179 0.815677 0.436824
O O19 0.250000 0.904547 0.683015
O O20 0.013867 0.890068 0.585481
O O21 0.000000 0.000000 0.710181
O O22 0.250000 0.904656 0.487610
O O23 0.500000 0.000000 0.460741
#
# Coordination Sequence:
#
# PCOD9339279 Si02
#       8
#     4   4   4   4   4   4   4   4
#     4  10  19  31  47  66  91 123 155 186 226 269
#     4  10  19  31  43  59  88 125 156 181 212 256
#     4  10  20  32  47  67  92 122 154 189 229 271
#     4   9  17  30  46  64  88 117 148 187 230 267
#     4  10  18  28  45  67  90 120 153 186 222 263
#     4   9  17  30  46  63  89 123 152 179 220 268
#     4   9  17  30  48  67  88 118 152 190 231 269
#     4   9  16  30  48  65  87 116 150 188 226 265
#
# _framework density 15.683104
#
# number of rings (size 3 to 8) (size 9 to 14) (size 15 to 20)
#    0.000    2.500    1.250    2.625    0.000    3.500 
#    0.000    2.500    0.000    0.000    0.000    0.875 
#    0.000    2.000    0.000    0.000    0.000    0.000 
#
# Total GULP energy -178336.130409 kJ/mol
# GULP energy per Si atom -5573.004075 kJ/mol
# Density = 1.564741 g / cm^3
# Si number density = 15.683104 Si / 1000 Ang^3
#
#
#
# Elastic Constant Matrix: (Units=GPa)
#
#
# Indices 1 2 3 4 5 6 
#
# 1 19.0046 22.2264 28.4577 0.0000 0.0000 0.0000
# 2 22.2264 129.8637 81.6325 0.0000 0.0000 0.0000
# 3 28.4577 81.6325 153.0515 0.0000 0.0000 0.0000
# 4 0.0000 0.0000 0.0000 8.5518 0.0000 0.0000
# 5 0.0000 0.0000 0.0000 0.0000 21.9332 0.0000
# 6 0.0000 0.0000 0.0000 0.0000 0.0000 22.9846
#
#
#
# Elastic Compliance Matrix: (Units=1/GPa)
#
#
# Indices 1 2 3 4 5 6 
#
# 1 0.076116 -0.006215 -0.010838 0.000000 0.000000 0.000000
# 2 -0.006215 0.012092 -0.005294 0.000000 0.000000 0.000000
# 3 -0.010838 -0.005294 0.011372 0.000000 0.000000 0.000000
# 4 0.000000 0.000000 0.000000 0.116934 0.000000 0.000000
# 5 0.000000 0.000000 0.000000 0.000000 0.045593 0.000000
# 6 0.000000 0.000000 0.000000 0.000000 0.000000 0.043507
#
#
# Mechanical properties :
#
#
# Convention : Reuss Voigt Hill
#
# Bulk Modulus (GPa) = 18.21913 62.95032 40.58473
# Shear Modulus (GPa) = 13.56473 22.00081 17.78277
#
# Velocity S-wave (km/s) = 2.94415 3.74951 3.37097
# Velocity P-wave (km/s) = 4.81660 7.67927 6.40979
#
# Compressibility (1/GPa) = 0.05488737
#
# Stress axis : x y z
#
# Youngs Moduli (GPa) = 13.13784 82.70137 87.93170
#
# Poissons Ratio (x) = 0.51395 0.95301
# Poissons Ratio (y) = 0.08165 0.46549
# Poissons Ratio (z) = 0.14239 0.43780
#
# Static dielectric constant tensor:
#      x y z
#    x 1.540150 0.000000 0.000000 
#    y 0.000000 1.503120 0.000000 
#    z 0.000000 0.000000 1.539730 
# 
# From -- ./inp_files/6413.got.cif
#   From: 2010.05.17/outbox.cif.g08.bks.cpg/sg28_4_cif.got.tgz:6413.got - 2010.06.04 01:15:21.
