data_PCOD9339724
_publ_section_title
;
Structure prediction by ZEFSAII (Michael W. Deem and Ramdas Pophale) SiO2 
 PCOD9339724
Probable space group: P M A 2
;
_chemical_formula_sum "Si O2"
_cell_formula_units_Z 32
_cell_length_a 31.998711
_cell_length_b 7.989181
_cell_length_c 5.424882
_cell_angle_alpha 90.000000
_cell_angle_beta 90.000000
_cell_angle_gamma 90.000000
_cell_volume 1386.835789
_symmetry_space_group_name_H-M "P M A 2"
_symmetry_group_IT_number 28
_symmetry_cell_setting 'orthorhombic'
loop_
_space_group_symop_operation_xyz
x,y,z
-x,-y,z
1/2-x,y,z
1/2+x,-y,z
loop_
_atom_site_type_symbol
_atom_site_label
_atom_site_fract_x
_atom_site_fract_y
_atom_site_fract_z
Si Si1 0.841597 0.626250 0.052130
Si Si2 0.882476 0.003393 0.686181
Si Si3 0.000468 0.297863 0.006414
Si Si4 0.120474 0.615148 0.669990
Si Si5 0.795750 0.467033 0.421766
Si Si6 0.702939 0.834829 0.675700
Si Si7 0.589188 0.834731 0.199230
Si Si8 0.968872 0.342267 0.493467
O O1 0.808143 0.488837 0.138167
O O2 0.874626 0.695455 0.250070
O O3 0.871638 0.533778 0.859605
O O4 0.812315 0.770918 0.943502
O O5 0.834862 0.956920 0.605551
O O6 0.909954 0.947571 0.447123
O O7 0.886110 0.196380 0.758701
O O8 0.894647 0.911702 0.939867
O O9 0.044692 0.238606 0.115827
O O10 0.000000 0.500000 0.977557
O O11 0.969585 0.250672 0.229951
O O12 0.985430 0.241297 0.734502
O O13 0.164253 0.623991 0.528222
O O14 0.077086 0.584532 0.532976
O O15 0.750000 0.396749 0.465971
O O16 0.796357 0.659464 0.523297
O O17 0.750000 0.902756 0.672434
O O18 0.000000 0.500000 0.468543
#
# Coordination Sequence:
#
# PCOD9339724 Si02
#       8
#     4   4   4   4   4   4   4   4
#     4  10  20  37  68  93 124 170 223 277 327 389
#     4  11  25  43  63  97 134 183 217 267 348 410
#     4  10  21  37  65  95 125 156 225 273 320 376
#     4  11  26  40  66  94 141 171 223 281 339 396
#     4  10  21  38  66  97 126 167 225 282 332 390
#     4   9  19  38  61  91 126 168 219 273 328 407
#     4  11  23  43  68  95 134 177 223 271 332 406
#     4  10  22  38  62  96 127 168 219 270 328 389
#
# _framework density 23.074107999999999
#
# number of rings (size 3 to 8) (size 9 to 14) (size 15 to 20)
#    0.000    1.750    1.250    2.625    7.000    1.000 
#    0.000    3.750    0.000    0.000    0.000    0.000 
#    0.000    0.000    0.000    0.000    0.000    0.000 
#
# Total GULP energy -178353.590067 kJ/mol
# GULP energy per Si atom -5573.549690 kJ/mol
# Density = 2.302159 g / cm^3
# Si number density = 23.074108 Si / 1000 Ang^3
#
#
#
# Elastic Constant Matrix: (Units=GPa)
#
#
# Indices 1 2 3 4 5 6 
#
# 1 119.6637 15.4299 -1.7180 0.0000 0.0000 0.0000
# 2 15.4299 35.2172 -6.6995 0.0000 0.0000 0.0000
# 3 -1.7180 -6.6995 91.3951 0.0000 0.0000 0.0000
# 4 0.0000 0.0000 0.0000 2654.1605 0.0000 0.0000
# 5 0.0000 0.0000 0.0000 0.0000 27.7473 0.0000
# 6 0.0000 0.0000 0.0000 0.0000 0.0000 15.3208
#
#
#
# Elastic Compliance Matrix: (Units=1/GPa)
#
#
# Indices 1 2 3 4 5 6 
#
# 1 0.008858 -0.003904 -0.000120 0.000000 0.000000 0.000000
# 2 -0.003904 0.030517 0.002164 0.000000 0.000000 0.000000
# 3 -0.000120 0.002164 0.011098 0.000000 0.000000 0.000000
# 4 0.000000 0.000000 0.000000 0.000377 0.000000 0.000000
# 5 0.000000 0.000000 0.000000 0.000000 0.036040 0.000000
# 6 0.000000 0.000000 0.000000 0.000000 0.000000 0.065271
#
#
# Mechanical properties :
#
#
# Convention : Reuss Voigt Hill
#
# Bulk Modulus (GPa) = 21.38874 28.92229 25.15552
# Shear Modulus (GPa) = 29.16045 555.39664 292.27854
#
# Velocity S-wave (km/s) = 3.55882 15.53138 11.26696
# Velocity P-wave (km/s) = 5.11631 18.28096 13.42330
#
# Compressibility (1/GPa) = 0.04675358
#
# Stress axis : x y z
#
# Youngs Moduli (GPa) = 112.88691 32.76836 90.10753
#
# Poissons Ratio (x) = 0.12793 0.01078
# Poissons Ratio (y) = 0.44070 -0.19496
# Poissons Ratio (z) = 0.01351 -0.07090
#
# Static dielectric constant tensor:
#      x y z
#    x 1.852340 0.000000 0.000000 
#    y 0.000000 -23.715910 0.000000 
#    z 0.000000 0.000000 2.001390 
# 
# From -- ./inp_files/1917.got.cif
#   From: 2010.05.17/outbox.cif.g08.bks.cpg/sg28_1_cif.got.tgz:1917.got - 2010.06.04 01:15:21.
