data_PCOD9339173
_publ_section_title
;
Structure prediction by ZEFSAII (Michael W. Deem and Ramdas Pophale) SiO2 
 PCOD9339173
Probable space group: P C C 2
;
_chemical_formula_sum "Si O2"
_cell_formula_units_Z 32
_cell_length_a 13.202558
_cell_length_b 8.854978
_cell_length_c 13.609183
_cell_angle_alpha 90.000000
_cell_angle_beta 90.000000
_cell_angle_gamma 90.000000
_cell_volume 1591.027274
_symmetry_space_group_name_H-M "P C C 2"
_symmetry_group_IT_number 27
_symmetry_cell_setting 'orthorhombic'
loop_
_space_group_symop_operation_xyz
x,y,z
-x,-y,z
-x,y,1/2+z
x,-y,1/2+z
loop_
_atom_site_type_symbol
_atom_site_label
_atom_site_fract_x
_atom_site_fract_y
_atom_site_fract_z
Si Si1 0.606916 0.335533 0.810820
Si Si2 0.116166 0.953914 0.841469
Si Si3 0.388959 0.802782 0.307401
Si Si4 0.736779 0.136899 0.483184
Si Si5 0.701892 0.050734 0.706841
Si Si6 0.278542 0.449759 0.697732
Si Si7 0.259231 0.497660 0.477142
Si Si8 0.896224 0.409364 0.824829
O O1 0.492089 0.285781 0.823989
O O2 0.669905 0.189180 0.777424
O O3 0.624047 0.445227 0.718111
O O4 0.656927 0.577229 0.403690
O O5 0.189845 0.000533 0.751354
O O6 0.106905 0.771305 0.836404
O O7 0.000000 0.000000 0.833227
O O8 0.170347 0.040805 0.934175
O O9 0.354878 0.886350 0.406395
O O10 0.300820 0.690690 0.268649
O O11 0.386032 0.927902 0.222971
O O12 0.715448 0.087339 0.593541
O O13 0.740104 0.320606 0.487264
O O14 0.268717 0.421417 0.583276
O O15 0.181360 0.538882 0.739007
O O16 0.152908 0.464867 0.426110
O O17 0.000000 0.500000 0.808684
#
# Coordination Sequence:
#
# PCOD9339173 Si02
#       8
#     4   4   4   4   4   4   4   4
#     4  11  22  45  65 100 135 181 222 277 333 389
#     4  11  24  43  68  96 135 178 223 274 343 411
#     4  11  25  41  69  98 141 180 225 276 331 404
#     4  11  23  43  67  99 133 178 221 278 336 399
#     4  11  24  45  68  96 142 176 223 280 334 403
#     4  11  23  42  68 101 136 175 222 278 335 398
#     4  11  22  42  69  96 138 171 225 279 331 402
#     4  11  23  43  68  98 138 172 220 281 341 403
#
# _framework density 20.112791999999999
#
# number of rings (size 3 to 8) (size 9 to 14) (size 15 to 20)
#    0.000    1.000    6.250    1.500    3.500    2.000 
#    2.250    5.000    0.000    0.000    0.000    0.000 
#    0.000    0.000    0.000    0.000    0.000    0.000 
#
# Total GULP energy -178312.234632 kJ/mol
# GULP energy per Si atom -5572.257332 kJ/mol
# Density = 2.006701 g / cm^3
# Si number density = 20.112792 Si / 1000 Ang^3
#
#
#
# Elastic Constant Matrix: (Units=GPa)
#
#
# Indices 1 2 3 4 5 6 
#
# 1 127.5306 46.2632 47.9813 0.0000 0.0000 0.0000
# 2 46.2632 106.0006 37.3517 0.0000 0.0000 0.0000
# 3 47.9813 37.3517 147.1339 0.0000 0.0000 0.0000
# 4 0.0000 0.0000 0.0000 28.3310 0.0000 0.0000
# 5 0.0000 0.0000 0.0000 0.0000 9.5734 0.0000
# 6 0.0000 0.0000 0.0000 0.0000 0.0000 33.7459
#
#
#
# Elastic Compliance Matrix: (Units=1/GPa)
#
#
# Indices 1 2 3 4 5 6 
#
# 1 0.010015 -0.003537 -0.002368 0.000000 0.000000 0.000000
# 2 -0.003537 0.011610 -0.001794 0.000000 0.000000 0.000000
# 3 -0.002368 -0.001794 0.008024 0.000000 0.000000 0.000000
# 4 0.000000 0.000000 0.000000 0.035297 0.000000 0.000000
# 5 0.000000 0.000000 0.000000 0.000000 0.104456 0.000000
# 6 0.000000 0.000000 0.000000 0.000000 0.000000 0.029633
#
#
# Mechanical properties :
#
#
# Convention : Reuss Voigt Hill
#
# Bulk Modulus (GPa) = 70.16780 71.53972 70.85376
# Shear Modulus (GPa) = 22.81193 30.93465 26.87329
#
# Velocity S-wave (km/s) = 3.37144 3.92606 3.65928
# Velocity P-wave (km/s) = 7.07943 7.49656 7.29098
#
# Compressibility (1/GPa) = 0.01425155
#
# Stress axis : x y z
#
# Youngs Moduli (GPa) = 99.84843 86.13604 124.62259
#
# Poissons Ratio (x) = 0.30463 0.29513
# Poissons Ratio (y) = 0.35312 0.22356
# Poissons Ratio (z) = 0.23646 0.15452
#
# Static dielectric constant tensor:
#      x y z
#    x 1.730430 0.000000 0.000000 
#    y 0.000000 1.839200 0.000000 
#    z 0.000000 0.000000 1.695590 
# 
# From -- ./inp_files/3657.got.cif
#   From: 2010.05.17/outbox.cif.g08.bks.cpg/sg27_2_cif.got.tgz:3657.got - 2010.06.04 01:11:05.
