data_PCOD9339573
_publ_section_title
;
Structure prediction by ZEFSAII (Michael W. Deem and Ramdas Pophale) SiO2 
 PCOD9339573
Probable space group: P M A 2
;
_chemical_formula_sum "Si O2"
_cell_formula_units_Z 32
_cell_length_a 9.695698
_cell_length_b 17.462280
_cell_length_c 11.453066
_cell_angle_alpha 90.000000
_cell_angle_beta 90.000000
_cell_angle_gamma 90.000000
_cell_volume 1939.107074
_symmetry_space_group_name_H-M "P M A 2"
_symmetry_group_IT_number 28
_symmetry_cell_setting 'orthorhombic'
loop_
_space_group_symop_operation_xyz
x,y,z
-x,-y,z
1/2-x,y,z
1/2+x,-y,z
loop_
_atom_site_type_symbol
_atom_site_label
_atom_site_fract_x
_atom_site_fract_y
_atom_site_fract_z
Si Si1 0.404792 0.701447 0.309520
Si Si2 0.000771 0.824853 0.128646
Si Si3 0.088722 0.922322 0.911327
Si Si4 0.414993 0.578245 0.113418
Si Si5 0.595261 0.690474 0.968481
Si Si6 0.593465 0.926160 0.334798
Si Si7 0.913598 0.803146 0.762438
Si Si8 0.414296 0.216408 0.491477
O O1 0.250000 0.695242 0.355031
O O2 0.411759 0.771866 0.216715
O O3 0.437580 0.626734 0.232611
O O4 0.508003 0.720928 0.413717
O O5 0.916529 0.881009 0.212442
O O6 0.912196 0.763547 0.055663
O O7 0.080125 0.875429 0.033366
O O8 0.250000 0.936442 0.883778
O O9 0.011276 0.868574 0.816517
O O10 0.000000 0.000000 0.921966
O O11 0.500000 0.500000 0.117258
O O12 0.250000 0.568108 0.098875
O O13 0.481170 0.630986 0.011788
O O14 0.750000 0.657615 0.973690
O O15 0.569469 0.727658 0.842336
O O16 0.750000 0.949004 0.357310
O O17 0.549778 0.865503 0.433670
O O18 0.500000 0.000000 0.331467
O O19 0.750000 0.825037 0.770798
O O20 0.946026 0.785548 0.628152
O O21 0.250000 0.226324 0.477069
#
# Coordination Sequence:
#
# PCOD9339573 Si02
#       8
#     4   4   4   4   4   4   4   4
#     4   9  18  32  51  76 101 126 160 200 238 282
#     4   9  18  31  49  69  94 126 163 202 248 300
#     4  11  22  33  47  68  95 128 165 209 258 303
#     4  10  20  33  52  80 112 137 158 189 232 284
#     4   9  17  31  53  76  98 126 162 202 244 291
#     4  10  20  31  45  66  93 125 162 204 250 296
#     4   9  19  36  54  71  94 127 168 209 247 291
#     4   9  19  35  52  70  94 127 166 205 244 289
#
# _framework density 16.502443
#
# number of rings (size 3 to 8) (size 9 to 14) (size 15 to 20)
#    0.000    2.500    0.000    1.875    0.000   12.500 
#    0.000    1.250    0.000    0.750    0.000    1.750 
#    0.000    0.000    0.000    0.000    0.000    0.000 
#
# Total GULP energy -178335.629500 kJ/mol
# GULP energy per Si atom -5572.988422 kJ/mol
# Density = 1.646488 g / cm^3
# Si number density = 16.502443 Si / 1000 Ang^3
#
#
#
# Elastic Constant Matrix: (Units=GPa)
#
#
# Indices 1 2 3 4 5 6 
#
# 1 93.9995 66.2524 48.2247 0.0000 0.0000 0.0000
# 2 66.2524 99.2635 47.0094 0.0000 0.0000 0.0000
# 3 48.2247 47.0094 120.1407 0.0000 0.0000 0.0000
# 4 0.0000 0.0000 0.0000 7.8623 0.0000 0.0000
# 5 0.0000 0.0000 0.0000 0.0000 17.7413 0.0000
# 6 0.0000 0.0000 0.0000 0.0000 0.0000 17.2991
#
#
#
# Elastic Compliance Matrix: (Units=1/GPa)
#
#
# Indices 1 2 3 4 5 6 
#
# 1 0.021331 -0.012498 -0.003672 0.000000 0.000000 0.000000
# 2 -0.012498 0.019689 -0.002687 0.000000 0.000000 0.000000
# 3 -0.003672 -0.002687 0.010849 0.000000 0.000000 0.000000
# 4 0.000000 0.000000 0.000000 0.127189 0.000000 0.000000
# 5 0.000000 0.000000 0.000000 0.000000 0.056366 0.000000
# 6 0.000000 0.000000 0.000000 0.000000 0.000000 0.057806
#
#
# Mechanical properties :
#
#
# Convention : Reuss Voigt Hill
#
# Bulk Modulus (GPa) = 70.65097 70.70851 70.67974
# Shear Modulus (GPa) = 14.89592 18.70836 16.80214
#
# Velocity S-wave (km/s) = 3.00767 3.37066 3.19433
# Velocity P-wave (km/s) = 7.41396 7.62160 7.51850
#
# Compressibility (1/GPa) = 0.01415409
#
# Stress axis : x y z
#
# Youngs Moduli (GPa) = 46.87974 50.79092 92.17523
#
# Poissons Ratio (x) = 0.63480 0.33846
# Poissons Ratio (y) = 0.58592 0.24768
# Poissons Ratio (z) = 0.17214 0.13648
#
# Static dielectric constant tensor:
#      x y z
#    x 1.562450 0.000000 0.000000 
#    y 0.000000 1.541570 0.000000 
#    z 0.000000 0.000000 1.548950 
# 
# From -- ./inp_files/5156.got.cif
#   From: 2010.05.17/outbox.cif.g08.bks.cpg/sg28_3_cif.got.tgz:5156.got - 2010.06.04 01:15:21.
