data_PCOD9339044
_publ_section_title
;
Structure prediction by ZEFSAII (Michael W. Deem and Ramdas Pophale) SiO2 
 PCOD9339044
Probable space group: P C C 2
;
_chemical_formula_sum "Si O2"
_cell_formula_units_Z 28
_cell_length_a 16.146735
_cell_length_b 4.964000
_cell_length_c 13.806014
_cell_angle_alpha 90.000000
_cell_angle_beta 90.000000
_cell_angle_gamma 90.000000
_cell_volume 1106.585054
_symmetry_space_group_name_H-M "P C C 2"
_symmetry_group_IT_number 27
_symmetry_cell_setting 'orthorhombic'
loop_
_space_group_symop_operation_xyz
x,y,z
-x,-y,z
-x,y,1/2+z
x,-y,1/2+z
loop_
_atom_site_type_symbol
_atom_site_label
_atom_site_fract_x
_atom_site_fract_y
_atom_site_fract_z
Si Si1 0.741069 0.144943 0.341300
Si Si2 0.912336 0.858077 0.906587
Si Si3 0.500000 0.500000 0.971655
Si Si4 0.912015 0.111930 0.189205
Si Si5 0.833110 0.369935 0.599478
Si Si6 0.672867 0.660226 0.430564
Si Si7 0.500000 0.000000 0.113758
Si Si8 0.311554 0.034482 0.631720
O O1 0.671189 0.940027 0.374345
O O2 0.731007 0.162447 0.226484
O O3 0.823703 0.999743 0.383736
O O4 0.735473 0.440302 0.387381
O O5 0.923794 0.753442 0.795402
O O6 0.884935 0.695473 0.001484
O O7 0.000000 0.000000 0.926065
O O8 0.501121 0.749514 0.042638
O O9 0.415187 0.518848 0.915105
O O10 0.865482 0.825153 0.185378
O O11 0.864419 0.328261 0.123044
O O12 0.000000 0.000000 0.154050
O O13 0.688842 0.760722 0.540426
O O14 0.739464 0.234379 0.597045
O O15 0.591712 0.989824 0.160331
#
# Coordination Sequence:
#
# PCOD9339044 Si02
#       8
#     4   4   2   4   4   4   2   4
#     4  12  27  45  78 114 152 210 259 323 402 471
#     4  11  27  50  79 115 154 201 261 325 390 470
#     4  10  22  44  76 108 156 210 258 330 398 470
#     4  11  27  50  77 116 156 199 261 329 389 468
#     4  12  26  47  82 110 154 210 257 321 400 472
#     4  11  26  47  75 114 157 203 263 322 395 476
#     4  10  24  44  74 116 154 212 266 330 394 474
#     4  11  26  49  79 114 163 208 270 332 403 483
#
# _framework density 25.303069000000001
#
# number of rings (size 3 to 8) (size 9 to 14) (size 15 to 20)
#    0.000    0.857    2.857    2.571    4.000    6.857 
#    0.000    5.714    0.000    0.857    0.000    0.000 
#    0.000    0.000    0.000    0.000    0.000    0.000 
#
# Total GULP energy -156055.094961 kJ/mol
# GULP energy per Si atom -5573.396249 kJ/mol
# Density = 2.524548 g / cm^3
# Si number density = 25.303069 Si / 1000 Ang^3
#
#
#
# Elastic Constant Matrix: (Units=GPa)
#
#
# Indices 1 2 3 4 5 6 
#
# 1 169.3543 47.3078 34.6592 0.0000 0.0000 0.0000
# 2 47.3078 151.2753 36.2850 0.0000 0.0000 0.0000
# 3 34.6592 36.2850 158.6791 0.0000 0.0000 0.0000
# 4 0.0000 0.0000 0.0000 17.1397 0.0000 0.0000
# 5 0.0000 0.0000 0.0000 0.0000 24.5317 0.0000
# 6 0.0000 0.0000 0.0000 0.0000 0.0000 24.0460
#
#
#
# Elastic Compliance Matrix: (Units=1/GPa)
#
#
# Indices 1 2 3 4 5 6 
#
# 1 0.006625 -0.001825 -0.001030 0.000000 0.000000 0.000000
# 2 -0.001825 0.007497 -0.001316 0.000000 0.000000 0.000000
# 3 -0.001030 -0.001316 0.006828 0.000000 0.000000 0.000000
# 4 0.000000 0.000000 0.000000 0.058344 0.000000 0.000000
# 5 0.000000 0.000000 0.000000 0.000000 0.040764 0.000000
# 6 0.000000 0.000000 0.000000 0.000000 0.000000 0.041587
#
#
# Mechanical properties :
#
#
# Convention : Reuss Voigt Hill
#
# Bulk Modulus (GPa) = 79.30792 79.53474 79.42133
# Shear Modulus (GPa) = 28.70460 37.21394 32.95927
#
# Velocity S-wave (km/s) = 3.37179 3.83917 3.61304
# Velocity P-wave (km/s) = 6.82421 7.15216 6.99011
#
# Compressibility (1/GPa) = 0.01260908
#
# Stress axis : x y z
#
# Youngs Moduli (GPa) = 150.93638 133.39147 146.45962
#
# Poissons Ratio (x) = 0.24343 0.15083
# Poissons Ratio (y) = 0.27544 0.19269
# Poissons Ratio (z) = 0.15544 0.17550
#
# Static dielectric constant tensor:
#      x y z
#    x 2.244630 0.000000 0.000000 
#    y 0.000000 2.028910 0.000000 
#    z 0.000000 0.000000 2.047670 
# 
# From -- ./inp_files/4494.got.cif
#   From: 2010.05.17/outbox.cif.g08.bks.cpg/sg27_3_cif.got.tgz:4494.got - 2010.06.04 01:11:05.
