data_PCOD9339402
_publ_section_title
;
Structure prediction by ZEFSAII (Michael W. Deem and Ramdas Pophale) SiO2 
 PCOD9339402
Probable space group: P M A 2
;
_chemical_formula_sum "Si O2"
_cell_formula_units_Z 32
_cell_length_a 8.606774
_cell_length_b 14.579345
_cell_length_c 16.134478
_cell_angle_alpha 90.000000
_cell_angle_beta 90.000000
_cell_angle_gamma 90.000000
_cell_volume 2024.572491
_symmetry_space_group_name_H-M "P M A 2"
_symmetry_group_IT_number 28
_symmetry_cell_setting 'orthorhombic'
loop_
_space_group_symop_operation_xyz
x,y,z
-x,-y,z
1/2-x,y,z
1/2+x,-y,z
loop_
_atom_site_type_symbol
_atom_site_label
_atom_site_fract_x
_atom_site_fract_y
_atom_site_fract_z
Si Si1 0.436982 0.396495 0.627660
Si Si2 0.564949 0.098325 0.038744
Si Si3 0.562420 0.718706 0.968540
Si Si4 0.436532 0.396985 0.132893
Si Si5 0.562702 0.604285 0.445492
Si Si6 0.062061 0.396232 0.808903
Si Si7 0.935552 0.900743 0.224818
Si Si8 0.564694 0.284860 0.289919
O O1 0.500000 0.500000 0.627923
O O2 0.250000 0.398316 0.627602
O O3 0.483392 0.358928 0.537440
O O4 0.485489 0.358708 0.717679
O O5 0.750000 0.094033 0.045748
O O6 0.512503 0.182255 0.981805
O O7 0.494638 0.114746 0.130579
O O8 0.500000 0.000000 0.010345
O O9 0.750000 0.728435 0.967225
O O10 0.522499 0.656306 0.048299
O O11 0.511854 0.667190 0.884990
O O12 0.500000 0.500000 0.130650
O O13 0.250000 0.398385 0.140190
O O14 0.505525 0.343210 0.211127
O O15 0.500000 0.500000 0.437586
O O16 0.750000 0.601916 0.439806
O O17 0.495165 0.665776 0.372541
O O18 0.250000 0.400801 0.811174
O O19 0.000000 0.500000 0.818214
O O20 0.750000 0.901812 0.224310
O O21 0.997610 0.817209 0.279390
O O22 0.000000 0.000000 0.250791
O O23 0.750000 0.282153 0.289013
#
# Coordination Sequence:
#
# PCOD9339402 Si02
#       8
#     4   4   4   4   4   4   4   4
#     4   8  15  28  47  69  95 126 163 203 247 289
#     4  11  21  34  53  73  96 126 163 205 248 290
#     4  10  20  33  49  70  99 132 166 202 243 289
#     4  11  22  34  47  65  96 135 170 203 237 284
#     4  10  19  32  49  71  99 132 167 207 248 294
#     4   9  17  30  48  72 100 132 166 203 243 289
#     4  11  21  36  55  75  98 125 160 202 248 292
#     4  12  23  35  50  71  97 130 168 205 244 291
#
# _framework density 15.805807
#
# number of rings (size 3 to 8) (size 9 to 14) (size 15 to 20)
#    0.000    1.750    1.250    5.625    0.000    1.500 
#    0.000    0.000    0.000    0.000    0.000    0.875 
#    0.000    4.000    0.000    0.000    0.000    0.000 
#
# Total GULP energy -178553.456254 kJ/mol
# GULP energy per Si atom -5579.795508 kJ/mol
# Density = 1.576983 g / cm^3
# Si number density = 15.805807 Si / 1000 Ang^3
#
#
#
# Elastic Constant Matrix: (Units=GPa)
#
#
# Indices 1 2 3 4 5 6 
#
# 1 79.6735 44.3686 50.9870 0.0000 0.0000 0.0000
# 2 44.3686 120.0882 78.7280 0.0000 0.0000 0.0000
# 3 50.9870 78.7280 155.1976 0.0000 0.0000 0.0000
# 4 0.0000 0.0000 0.0000 5.2171 0.0000 0.0000
# 5 0.0000 0.0000 0.0000 0.0000 11.7217 0.0000
# 6 0.0000 0.0000 0.0000 0.0000 0.0000 27.0134
#
#
#
# Elastic Compliance Matrix: (Units=1/GPa)
#
#
# Indices 1 2 3 4 5 6 
#
# 1 0.017050 -0.003936 -0.003605 0.000000 0.000000 0.000000
# 2 -0.003936 0.013385 -0.005497 0.000000 0.000000 0.000000
# 3 -0.003605 -0.005497 0.010416 0.000000 0.000000 0.000000
# 4 0.000000 0.000000 0.000000 0.191678 0.000000 0.000000
# 5 0.000000 0.000000 0.000000 0.000000 0.085312 0.000000
# 6 0.000000 0.000000 0.000000 0.000000 0.000000 0.037019
#
#
# Mechanical properties :
#
#
# Convention : Reuss Voigt Hill
#
# Bulk Modulus (GPa) = 67.67829 78.12517 72.90173
# Shear Modulus (GPa) = 12.95805 20.84882 16.90343
#
# Velocity S-wave (km/s) = 2.86637 3.63583 3.27378
# Velocity P-wave (km/s) = 7.33937 8.19519 7.77906
#
# Compressibility (1/GPa) = 0.01477579
#
# Stress axis : x y z
#
# Youngs Moduli (GPa) = 58.65090 74.70974 96.00584
#
# Poissons Ratio (x) = 0.29408 0.34607
# Poissons Ratio (y) = 0.23086 0.52772
# Poissons Ratio (z) = 0.21142 0.41066
#
# Static dielectric constant tensor:
#      x y z
#    x 1.527020 0.000000 0.000000 
#    y 0.000000 1.501020 0.000000 
#    z 0.000000 0.000000 1.547880 
# 
# From -- ./inp_files/6424.got.cif
#   From: 2010.05.17/outbox.cif.g08.bks.cpg/sg28_4_cif.got.tgz:6424.got - 2010.06.04 01:15:21.
