data_PCOD9339815
_publ_section_title
;
Structure prediction by ZEFSAII (Michael W. Deem and Ramdas Pophale) SiO2 
 PCOD9339815
Probable space group: P M A 2
;
_chemical_formula_sum "Si O2"
_cell_formula_units_Z 32
_cell_length_a 14.525989
_cell_length_b 9.212376
_cell_length_c 11.834001
_cell_angle_alpha 90.000000
_cell_angle_beta 90.000000
_cell_angle_gamma 90.000000
_cell_volume 1583.612670
_symmetry_space_group_name_H-M "P M A 2"
_symmetry_group_IT_number 28
_symmetry_cell_setting 'orthorhombic'
loop_
_space_group_symop_operation_xyz
x,y,z
-x,-y,z
1/2-x,y,z
1/2+x,-y,z
loop_
_atom_site_type_symbol
_atom_site_label
_atom_site_fract_x
_atom_site_fract_y
_atom_site_fract_z
Si Si1 0.531629 0.352332 0.253060
Si Si2 0.354011 0.148475 0.715262
Si Si3 0.972004 0.346251 0.709730
Si Si4 0.143014 0.649382 0.478673
Si Si5 0.153480 0.170926 0.278201
Si Si6 0.597452 0.081555 0.113038
Si Si7 0.643665 0.117609 0.856778
Si Si8 0.610747 0.013520 0.491356
O O1 0.500000 0.500000 0.191676
O O2 0.587360 0.398286 0.366373
O O3 0.436359 0.269072 0.276936
O O4 0.587608 0.230478 0.183995
O O5 0.250000 0.206084 0.730143
O O6 0.431714 0.264643 0.685720
O O7 0.355557 0.034974 0.612890
O O8 0.382084 0.047223 0.820550
O O9 0.913698 0.378044 0.595005
O O10 0.915563 0.237997 0.791030
O O11 0.000000 0.500000 0.762844
O O12 0.250000 0.599864 0.483282
O O13 0.140607 0.823732 0.468159
O O14 0.250000 0.251897 0.263170
O O15 0.150115 0.092434 0.398216
O O16 0.148473 0.041071 0.186598
O O17 0.500000 0.000000 0.094878
O O18 0.635965 0.122507 0.991264
O O19 0.750000 0.136886 0.822473
O O20 0.500000 0.000000 0.487508
#
# Coordination Sequence:
#
# PCOD9339815 Si02
#       8
#     4   4   4   4   4   4   4   4
#     4  11  24  41  60  89 128 164 198 243 299 364
#     4  11  22  38  63  90 118 156 203 253 301 353
#     4  12  25  41  61  88 128 164 197 243 299 366
#     4  12  23  38  61  90 123 161 203 247 298 357
#     4  11  21  37  62  90 119 157 203 253 301 352
#     4  10  21  39  63  90 120 156 202 253 300 351
#     4  11  23  41  66  92 117 153 204 256 303 353
#     4  12  18  35  62  90 121 150 200 256 305 349
#
# _framework density 20.206962000000001
#
# number of rings (size 3 to 8) (size 9 to 14) (size 15 to 20)
#    0.000    0.750    5.000    3.750    0.000    2.500 
#    0.000    0.000    0.000    0.000    0.000    0.000 
#    0.000    0.000    0.000    0.000    0.000    0.000 
#
# Total GULP energy -178690.518696 kJ/mol
# GULP energy per Si atom -5584.078709 kJ/mol
# Density = 2.016097 g / cm^3
# Si number density = 20.206962 Si / 1000 Ang^3
#
#
#
# Elastic Constant Matrix: (Units=GPa)
#
#
# Indices 1 2 3 4 5 6 
#
# 1 144.0906 19.3338 30.6797 0.0000 0.0000 0.0000
# 2 19.3338 66.8851 5.8561 0.0000 0.0000 0.0000
# 3 30.6797 5.8561 91.2961 0.0000 0.0000 0.0000
# 4 0.0000 0.0000 0.0000 7.7837 0.0000 0.0000
# 5 0.0000 0.0000 0.0000 0.0000 27.9337 0.0000
# 6 0.0000 0.0000 0.0000 0.0000 0.0000 3.0447
#
#
#
# Elastic Compliance Matrix: (Units=1/GPa)
#
#
# Indices 1 2 3 4 5 6 
#
# 1 0.007737 -0.002020 -0.002470 0.000000 0.000000 0.000000
# 2 -0.002020 0.015563 -0.000319 0.000000 0.000000 0.000000
# 3 -0.002470 -0.000319 0.011804 0.000000 0.000000 0.000000
# 4 0.000000 0.000000 0.000000 0.128473 0.000000 0.000000
# 5 0.000000 0.000000 0.000000 0.000000 0.035799 0.000000
# 6 0.000000 0.000000 0.000000 0.000000 0.000000 0.328435
#
#
# Mechanical properties :
#
#
# Convention : Reuss Voigt Hill
#
# Bulk Modulus (GPa) = 39.24024 46.00122 42.62073
# Shear Modulus (GPa) = 9.15875 24.17925 16.66900
#
# Velocity S-wave (km/s) = 2.13127 3.46291 2.87525
# Velocity P-wave (km/s) = 5.05151 6.22924 5.67103
#
# Compressibility (1/GPa) = 0.02548404
#
# Stress axis : x y z
#
# Youngs Moduli (GPa) = 129.24655 64.25525 84.71676
#
# Poissons Ratio (x) = 0.12981 0.20929
# Poissons Ratio (y) = 0.26110 0.02706
# Poissons Ratio (z) = 0.31930 0.02052
#
# Static dielectric constant tensor:
#      x y z
#    x 1.777390 0.000000 0.000000 
#    y 0.000000 1.703480 0.000000 
#    z 0.000000 0.000000 1.700690 
# 
# From -- ./inp_files/5560.got.cif
#   From: 2010.05.17/outbox.cif.g08.bks.cpg/sg28_3_cif.got.tgz:5560.got - 2010.06.04 01:15:21.
