data_PCOD9339677
_publ_section_title
;
Structure prediction by ZEFSAII (Michael W. Deem and Ramdas Pophale) SiO2 
 PCOD9339677
Probable space group: P M A 2
;
_chemical_formula_sum "Si O2"
_cell_formula_units_Z 24
_cell_length_a 8.569987
_cell_length_b 9.453883
_cell_length_c 15.822023
_cell_angle_alpha 90.000000
_cell_angle_beta 90.000000
_cell_angle_gamma 90.000000
_cell_volume 1281.894836
_symmetry_space_group_name_H-M "P M A 2"
_symmetry_group_IT_number 28
_symmetry_cell_setting 'orthorhombic'
loop_
_space_group_symop_operation_xyz
x,y,z
-x,-y,z
1/2-x,y,z
1/2+x,-y,z
loop_
_atom_site_type_symbol
_atom_site_label
_atom_site_fract_x
_atom_site_fract_y
_atom_site_fract_z
Si Si1 0.063282 0.839461 0.273830
Si Si2 0.561943 0.841358 0.454987
Si Si3 0.437703 0.342588 0.614507
Si Si4 0.063527 0.840524 0.960117
Si Si5 0.936690 0.659673 0.117481
Si Si6 0.438074 0.340028 0.805434
O O1 0.250000 0.843244 0.271316
O O2 0.005763 0.788162 0.365876
O O3 0.998117 0.739509 0.200729
O O4 0.000000 0.000000 0.262526
O O5 0.750000 0.841462 0.450068
O O6 0.510261 0.753776 0.536843
O O7 0.500000 0.000000 0.464267
O O8 0.500000 0.500000 0.602439
O O9 0.250000 0.345398 0.613156
O O10 0.483221 0.296992 0.709474
O O11 0.250000 0.842535 0.964867
O O12 0.008849 0.764742 0.874135
O O13 0.000000 0.000000 0.964617
O O14 0.996702 0.748216 0.037206
O O15 0.750000 0.657378 0.117489
O O16 0.000000 0.500000 0.113896
O O17 0.500000 0.500000 0.819051
O O18 0.250000 0.340786 0.812265
#
# Coordination Sequence:
#
# PCOD9339677 Si02
#       6
#     4   4   4   4   4   4
#     4  11  22  39  61  87 117 154 194 239 289 343
#     4  10  20  36  56  83 115 152 194 240 288 342
#     4   9  20  36  57  83 115 151 193 238 286 340
#     4  12  25  42  62  88 118 153 192 237 287 342
#     4  12  25  43  64  89 118 152 191 236 285 342
#     4  10  20  38  60  86 117 154 195 240 289 343
#
# _framework density 18.722283000000001
#
# number of rings (size 3 to 8) (size 9 to 14) (size 15 to 20)
#    0.000    1.333    0.000    7.500    0.000    3.333 
#    0.000    3.333    0.000    0.000    0.000    0.000 
#    0.000    0.000    0.000    0.000    0.000    0.000 
#
# Total GULP energy -134178.084689 kJ/mol
# GULP energy per Si atom -5590.753529 kJ/mol
# Density = 1.867967 g / cm^3
# Si number density = 18.722283 Si / 1000 Ang^3
#
#
#
# Elastic Constant Matrix: (Units=GPa)
#
#
# Indices 1 2 3 4 5 6 
#
# 1 150.0534 60.4296 76.6525 0.0000 0.0000 0.0000
# 2 60.4296 127.0709 122.7108 0.0000 0.0000 0.0000
# 3 76.6525 122.7108 209.8302 0.0000 0.0000 0.0000
# 4 0.0000 0.0000 0.0000 49.3583 0.0000 0.0000
# 5 0.0000 0.0000 0.0000 0.0000 80.9761 0.0000
# 6 0.0000 0.0000 0.0000 0.0000 0.0000 33.1255
#
#
#
# Elastic Compliance Matrix: (Units=1/GPa)
#
#
# Indices 1 2 3 4 5 6 
#
# 1 0.008500 -0.002398 -0.001703 0.000000 0.000000 0.000000
# 2 -0.002398 0.018757 -0.010093 0.000000 0.000000 0.000000
# 3 -0.001703 -0.010093 0.011290 0.000000 0.000000 0.000000
# 4 0.000000 0.000000 0.000000 0.020260 0.000000 0.000000
# 5 0.000000 0.000000 0.000000 0.000000 0.012349 0.000000
# 6 0.000000 0.000000 0.000000 0.000000 0.000000 0.030188
#
#
# Mechanical properties :
#
#
# Convention : Reuss Voigt Hill
#
# Bulk Modulus (GPa) = 98.43098 111.83781 105.13440
# Shear Modulus (GPa) = 37.56048 47.83611 42.69830
#
# Velocity S-wave (km/s) = 4.48391 5.06022 4.78076
# Velocity P-wave (km/s) = 8.91603 9.69566 9.31401
#
# Compressibility (1/GPa) = 0.01015940
#
# Stress axis : x y z
#
# Youngs Moduli (GPa) = 117.65028 53.31393 88.57060
#
# Poissons Ratio (x) = 0.12783 0.15082
# Poissons Ratio (y) = 0.28210 0.89397
# Poissons Ratio (z) = 0.20033 0.53811
#
# Static dielectric constant tensor:
#      x y z
#    x 1.625610 0.000000 0.000000 
#    y 0.000000 1.593710 0.000000 
#    z 0.000000 0.000000 1.652860 
# 
# From -- ./inp_files/6080.got.cif
#   From: 2010.05.17/outbox.cif.g08.bks.cpg/sg28_4_cif.got.tgz:6080.got - 2010.06.04 01:15:21.
