data_PCOD9339471
_publ_section_title
;
Structure prediction by ZEFSAII (Michael W. Deem and Ramdas Pophale) SiO2 
 PCOD9339471
Probable space group: P M A 2
;
_chemical_formula_sum "Si O2"
_cell_formula_units_Z 32
_cell_length_a 8.381846
_cell_length_b 14.488052
_cell_length_c 13.428949
_cell_angle_alpha 90.000000
_cell_angle_beta 90.000000
_cell_angle_gamma 90.000000
_cell_volume 1630.766186
_symmetry_space_group_name_H-M "P M A 2"
_symmetry_group_IT_number 28
_symmetry_cell_setting 'orthorhombic'
loop_
_space_group_symop_operation_xyz
x,y,z
-x,-y,z
1/2-x,y,z
1/2+x,-y,z
loop_
_atom_site_type_symbol
_atom_site_label
_atom_site_fract_x
_atom_site_fract_y
_atom_site_fract_z
Si Si1 0.060550 0.104313 0.191230
Si Si2 0.442641 0.394624 0.083137
Si Si3 0.942233 0.606002 0.862822
Si Si4 0.059842 0.395272 0.475725
Si Si5 0.440481 0.712039 0.668405
Si Si6 0.557551 0.104405 0.758897
Si Si7 0.058714 0.893979 0.979514
Si Si8 0.445309 0.287154 0.280466
O O1 0.250000 0.099373 0.194316
O O2 0.004280 0.180403 0.270446
O O3 0.000000 0.000000 0.203957
O O4 0.013673 0.142958 0.081723
O O5 0.500000 0.500000 0.091266
O O6 0.250000 0.393499 0.083530
O O7 0.493275 0.359605 0.973287
O O8 0.497924 0.339308 0.179940
O O9 0.750000 0.608904 0.856831
O O10 0.000000 0.500000 0.856004
O O11 0.014460 0.661091 0.770886
O O12 0.250000 0.398180 0.469606
O O13 0.998887 0.340418 0.378435
O O14 0.000000 0.500000 0.477751
O O15 0.012414 0.341357 0.575316
O O16 0.250000 0.711476 0.658229
O O17 0.495508 0.818352 0.680720
O O18 0.750000 0.101859 0.759683
O O19 0.507459 0.138695 0.869957
O O20 0.500000 0.000000 0.742654
O O21 0.250000 0.889945 0.986526
O O22 0.000000 0.000000 0.979497
O O23 0.250000 0.288105 0.281185
#
# Coordination Sequence:
#
# PCOD9339471 Si02
#       8
#     4   4   4   4   4   4   4   4
#     4  10  19  33  53  79 113 151 188 229 273 326
#     4   9  18  34  54  80 111 143 178 222 278 338
#     4  10  20  34  55  82 113 148 185 226 282 344
#     4  11  23  42  65  87 111 144 189 239 290 343
#     4  11  23  39  58  83 115 149 190 236 284 336
#     4   9  20  36  55  80 114 151 189 234 281 332
#     4   9  16  29  48  75 108 146 185 224 270 321
#     4   9  20  37  58  82 111 146 186 230 281 336
#
# _framework density 19.622679000000002
#
# number of rings (size 3 to 8) (size 9 to 14) (size 15 to 20)
#    0.000    2.250    0.000    3.375    1.750    2.000 
#    0.000    5.000    0.000    3.000    0.000    0.000 
#    0.000    0.000    0.000    0.000    0.000    0.000 
#
# Total GULP energy -178562.913354 kJ/mol
# GULP energy per Si atom -5580.091042 kJ/mol
# Density = 1.957802 g / cm^3
# Si number density = 19.622679 Si / 1000 Ang^3
#
#
#
# Elastic Constant Matrix: (Units=GPa)
#
#
# Indices 1 2 3 4 5 6 
#
# 1 29.5546 17.0724 19.5425 0.0000 0.0000 0.0000
# 2 17.0724 141.4194 97.1507 0.0000 0.0000 0.0000
# 3 19.5425 97.1507 145.6643 0.0000 0.0000 0.0000
# 4 0.0000 0.0000 0.0000 37.5532 0.0000 0.0000
# 5 0.0000 0.0000 0.0000 0.0000 32.4136 0.0000
# 6 0.0000 0.0000 0.0000 0.0000 0.0000 6.6300
#
#
#
# Elastic Compliance Matrix: (Units=1/GPa)
#
#
# Indices 1 2 3 4 5 6 
#
# 1 0.037425 -0.001972 -0.003705 0.000000 0.000000 0.000000
# 2 -0.001972 0.013155 -0.008509 0.000000 0.000000 0.000000
# 3 -0.003705 -0.008509 0.013037 0.000000 0.000000 0.000000
# 4 0.000000 0.000000 0.000000 0.026629 0.000000 0.000000
# 5 0.000000 0.000000 0.000000 0.000000 0.030851 0.000000
# 6 0.000000 0.000000 0.000000 0.000000 0.000000 0.150829
#
#
# Mechanical properties :
#
#
# Convention : Reuss Voigt Hill
#
# Bulk Modulus (GPa) = 28.37400 64.90773 46.64086
# Shear Modulus (GPa) = 16.02322 27.51089 21.76705
#
# Velocity S-wave (km/s) = 2.86066 3.74838 3.33420
# Velocity P-wave (km/s) = 5.04008 7.20302 6.21635
#
# Compressibility (1/GPa) = 0.03524353
#
# Stress axis : x y z
#
# Youngs Moduli (GPa) = 26.71986 76.01928 76.70383
#
# Poissons Ratio (x) = 0.14995 0.28422
# Poissons Ratio (y) = 0.05270 0.65266
# Poissons Ratio (z) = 0.09901 0.64683
#
# Static dielectric constant tensor:
#      x y z
#    x 1.669870 0.000000 0.000000 
#    y 0.000000 1.663800 0.000000 
#    z 0.000000 0.000000 1.698790 
# 
# From -- ./inp_files/4998.got.cif
#   From: 2010.05.17/outbox.cif.g08.bks.cpg/sg28_3_cif.got.tgz:4998.got - 2010.06.04 01:15:21.
