data_PCOD9339120
_publ_section_title
;
Structure prediction by ZEFSAII (Michael W. Deem and Ramdas Pophale) SiO2 
 PCOD9339120
Probable space group: P C C 2
;
_chemical_formula_sum "Si O2"
_cell_formula_units_Z 20
_cell_length_a 10.981758
_cell_length_b 8.038394
_cell_length_c 8.929582
_cell_angle_alpha 90.000000
_cell_angle_beta 90.000000
_cell_angle_gamma 90.000000
_cell_volume 788.265080
_symmetry_space_group_name_H-M "P C C 2"
_symmetry_group_IT_number 27
_symmetry_cell_setting 'orthorhombic'
loop_
_space_group_symop_operation_xyz
x,y,z
-x,-y,z
-x,y,1/2+z
x,-y,1/2+z
loop_
_atom_site_type_symbol
_atom_site_label
_atom_site_fract_x
_atom_site_fract_y
_atom_site_fract_z
Si Si1 0.363175 0.992867 0.985420
Si Si2 0.905216 0.349996 0.434232
Si Si3 0.660587 0.669219 0.106108
Si Si4 0.500000 0.500000 0.856311
Si Si5 0.000000 0.000000 0.042424
Si Si6 0.222364 0.153564 0.711397
O O1 0.276437 0.061578 0.856634
O O2 0.500000 0.000000 0.930396
O O3 0.353880 0.132782 0.114954
O O4 0.318579 0.829343 0.074613
O O5 0.799987 0.368235 0.560377
O O6 0.973500 0.172454 0.456647
O O7 0.834813 0.322256 0.276822
O O8 0.000000 0.500000 0.433941
O O9 0.598702 0.589303 0.250312
O O10 0.577153 0.618332 0.964407
O O11 0.883734 0.041858 0.142342
#
# Coordination Sequence:
#
# PCOD9339120 Si02
#       6
#     4   4   4   2   2   4
#     4  11  25  43  77 112 149 199 260 319 389 462
#     4  11  27  50  75 115 154 206 260 320 392 456
#     4  10  24  47  71 107 150 201 254 319 386 461
#     4  10  24  46  72 106 154 196 256 318 386 462
#     4  12  24  50  78 108 156 204 260 328 378 468
#     4  11  24  46  75 113 152 201 258 318 384 459
#
# _framework density 25.372176
#
# number of rings (size 3 to 8) (size 9 to 14) (size 15 to 20)
#    0.000    1.200    4.000    1.200    8.400    5.600 
#    7.200    0.000    0.000    0.000    0.000    0.000 
#    0.000    0.000    0.000    0.000    0.000    0.000 
#
# Total GULP energy -112007.219656 kJ/mol
# GULP energy per Si atom -5600.360983 kJ/mol
# Density = 2.531443 g / cm^3
# Si number density = 25.372176 Si / 1000 Ang^3
#
#
#
# Elastic Constant Matrix: (Units=GPa)
#
#
# Indices 1 2 3 4 5 6 
#
# 1 155.7481 58.2636 43.2739 0.0000 0.0000 0.0000
# 2 58.2636 124.7850 48.2264 0.0000 0.0000 0.0000
# 3 43.2739 48.2264 93.9380 0.0000 0.0000 0.0000
# 4 0.0000 0.0000 0.0000 30.8910 0.0000 0.0000
# 5 0.0000 0.0000 0.0000 0.0000 24.5937 0.0000
# 6 0.0000 0.0000 0.0000 0.0000 0.0000 42.2312
#
#
#
# Elastic Compliance Matrix: (Units=1/GPa)
#
#
# Indices 1 2 3 4 5 6 
#
# 1 0.008142 -0.002934 -0.002244 0.000000 0.000000 0.000000
# 2 -0.002934 0.011055 -0.004324 0.000000 0.000000 0.000000
# 3 -0.002244 -0.004324 0.013899 0.000000 0.000000 0.000000
# 4 0.000000 0.000000 0.000000 0.032372 0.000000 0.000000
# 5 0.000000 0.000000 0.000000 0.000000 0.040661 0.000000
# 6 0.000000 0.000000 0.000000 0.000000 0.000000 0.023679
#
#
# Mechanical properties :
#
#
# Convention : Reuss Voigt Hill
#
# Bulk Modulus (GPa) = 70.96620 74.88875 72.92748
# Shear Modulus (GPa) = 32.57144 34.52366 33.54755
#
# Velocity S-wave (km/s) = 3.58683 3.69275 3.64018
# Velocity P-wave (km/s) = 6.72195 6.91101 6.81714
#
# Compressibility (1/GPa) = 0.01409121
#
# Stress axis : x y z
#
# Youngs Moduli (GPa) = 122.82256 90.45863 71.94812
#
# Poissons Ratio (x) = 0.26542 0.16147
# Poissons Ratio (y) = 0.36038 0.31108
# Poissons Ratio (z) = 0.27565 0.39112
#
# Static dielectric constant tensor:
#      x y z
#    x 2.067410 0.000000 0.000000 
#    y 0.000000 2.079820 0.000000 
#    z 0.000000 0.000000 1.978630 
# 
# From -- ./inp_files/1349.got.cif
#   From: 2010.05.17/outbox.cif.g08.bks.cpg/sg27_1_cif.got.tgz:1349.got - 2010.06.04 01:11:05.
