data_PCOD9339844
_publ_section_title
;
Structure prediction by ZEFSAII (Michael W. Deem and Ramdas Pophale) SiO2 
 PCOD9339844
Probable space group: P M A 2
;
_chemical_formula_sum "Si O2"
_cell_formula_units_Z 16
_cell_length_a 23.311792
_cell_length_b 5.034223
_cell_length_c 5.546057
_cell_angle_alpha 90.000000
_cell_angle_beta 90.000000
_cell_angle_gamma 90.000000
_cell_volume 650.867277
_symmetry_space_group_name_H-M "P M A 2"
_symmetry_group_IT_number 28
_symmetry_cell_setting 'orthorhombic'
loop_
_space_group_symop_operation_xyz
x,y,z
-x,-y,z
1/2-x,y,z
1/2+x,-y,z
loop_
_atom_site_type_symbol
_atom_site_label
_atom_site_fract_x
_atom_site_fract_y
_atom_site_fract_z
Si Si1 0.567031 0.975384 0.489590
Si Si2 0.649579 0.288232 0.184336
Si Si3 0.250000 0.446378 0.425760
Si Si4 0.433880 0.519886 0.830511
Si Si5 0.250000 0.498284 0.930106
O O1 0.612656 0.044039 0.281635
O O2 0.574285 0.201860 0.693985
O O3 0.500000 0.000000 0.407719
O O4 0.577859 0.703660 0.630982
O O5 0.691902 0.382477 0.397792
O O6 0.602458 0.486863 0.074076
O O7 0.695790 0.307178 0.966865
O O8 0.250000 0.331659 0.688627
O O9 0.250000 0.303891 0.165972
O O10 0.500000 0.500000 0.900278
#
# Coordination Sequence:
#
# PCOD9339844 Si02
#       5
#     4   4   2   4   2
#     4  10  22  39  61  94 134 177 223 277 340 411
#     4   9  20  36  66  90 134 173 224 276 338 403
#     4   8  18  36  64  95 128 175 225 281 334 400
#     4  10  22  39  61  94 134 177 223 277 340 411
#     4   8  18  36  64  95 128 175 225 281 334 400
#
# _framework density 24.582584000000001
#
# number of rings (size 3 to 8) (size 9 to 14) (size 15 to 20)
#    1.500    1.000    0.000    1.500    0.000    8.000 
#    0.000    5.000    0.000   15.000    0.000    0.000 
#    0.000    0.000    0.000    0.000    0.000    0.000 
#
# Total GULP energy -89143.392565 kJ/mol
# GULP energy per Si atom -5571.462035 kJ/mol
# Density = 2.452663 g / cm^3
# Si number density = 24.582584 Si / 1000 Ang^3
#
#
#
# Elastic Constant Matrix: (Units=GPa)
#
#
# Indices 1 2 3 4 5 6 
#
# 1 142.6575 22.1625 37.2736 0.0000 0.0000 0.0000
# 2 22.1625 35.2366 21.6066 0.0000 0.0000 0.0000
# 3 37.2736 21.6066 149.5040 0.0000 0.0000 0.0000
# 4 0.0000 0.0000 0.0000 14.6610 0.0000 0.0000
# 5 0.0000 0.0000 0.0000 0.0000 10.3396 0.0000
# 6 0.0000 0.0000 0.0000 0.0000 0.0000 -28.6997
#
#
#
# Elastic Compliance Matrix: (Units=1/GPa)
#
#
# Indices 1 2 3 4 5 6 
#
# 1 0.008026 -0.004192 -0.001395 0.000000 0.000000 0.000000
# 2 -0.004192 0.033329 -0.003772 0.000000 0.000000 0.000000
# 3 -0.001395 -0.003772 0.007582 0.000000 0.000000 0.000000
# 4 0.000000 0.000000 0.000000 0.068208 0.000000 0.000000
# 5 0.000000 0.000000 0.000000 0.000000 0.096715 0.000000
# 6 0.000000 0.000000 0.000000 0.000000 0.000000 -0.034844
#
#
# Mechanical properties :
#
#
# Convention : Reuss Voigt Hill
#
# Bulk Modulus (GPa) = 33.09242 54.38705 43.73973
# Shear Modulus (GPa) = 24.06083 15.68389 19.87236
#
# Velocity S-wave (km/s) = 3.13193 2.52862 2.84631
# Velocity P-wave (km/s) = 5.15457 5.54053 5.35103
#
# Compressibility (1/GPa) = 0.03021840
#
# Stress axis : x y z
#
# Youngs Moduli (GPa) = 124.60140 30.00386 131.89737
#
# Poissons Ratio (x) = 0.12579 0.18400
# Poissons Ratio (y) = 0.52238 0.49746
# Poissons Ratio (z) = 0.17382 0.11316
#
# Static dielectric constant tensor:
#      x y z
#    x 1.946660 0.000000 0.000000 
#    y 0.000000 1.912270 0.000000 
#    z 0.000000 0.000000 2.002860 
# 
# From -- ./inp_files/1465.got.cif
#   From: 2010.05.17/outbox.cif.g08.bks.cpg/sg28_1_cif.got.tgz:1465.got - 2010.06.04 01:15:21.
