data_PCOD9339252
_publ_section_title
;
Structure prediction by ZEFSAII (Michael W. Deem and Ramdas Pophale) SiO2 
 PCOD9339252
Probable space group: P M A 2
;
_chemical_formula_sum "Si O2"
_cell_formula_units_Z 24
_cell_length_a 8.574985
_cell_length_b 9.918623
_cell_length_c 16.227370
_cell_angle_alpha 90.000000
_cell_angle_beta 90.000000
_cell_angle_gamma 90.000000
_cell_volume 1380.170978
_symmetry_space_group_name_H-M "P M A 2"
_symmetry_group_IT_number 28
_symmetry_cell_setting 'orthorhombic'
loop_
_space_group_symop_operation_xyz
x,y,z
-x,-y,z
1/2-x,y,z
1/2+x,-y,z
loop_
_atom_site_type_symbol
_atom_site_label
_atom_site_fract_x
_atom_site_fract_y
_atom_site_fract_z
Si Si1 0.436851 0.653522 0.813610
Si Si2 0.061856 0.850042 0.325978
Si Si3 0.438543 0.849976 0.139236
Si Si4 0.435688 0.346189 0.644398
Si Si5 0.062589 0.652389 0.471757
Si Si6 0.561785 0.347948 0.995236
O O1 0.500000 0.500000 0.815969
O O2 0.250000 0.651118 0.806026
O O3 0.506720 0.716969 0.730516
O O4 0.480382 0.708289 0.904083
O O5 0.250000 0.853957 0.327305
O O6 0.013277 0.812298 0.232636
O O7 0.011290 0.744280 0.395220
O O8 0.000000 0.000000 0.342754
O O9 0.250000 0.852546 0.137290
O O10 0.500000 0.000000 0.123049
O O11 0.493135 0.746103 0.069660
O O12 0.500000 0.500000 0.645072
O O13 0.250000 0.349481 0.642612
O O14 0.500990 0.289334 0.558756
O O15 0.250000 0.647404 0.474735
O O16 0.000000 0.500000 0.462647
O O17 0.500000 0.500000 0.003370
O O18 0.750000 0.354026 0.997575
#
# Coordination Sequence:
#
# PCOD9339252 Si02
#       6
#     4   4   4   4   4   4
#     4   9  15  25  41  63  91 123 153 187 229 275
#     4   9  19  34  52  70  93 124 159 194 233 279
#     4   9  18  34  51  70  94 124 159 194 231 279
#     4  10  17  26  42  65  92 123 155 191 230 275
#     4  10  19  31  47  71  98 125 155 193 235 277
#     4   9  18  30  47  71  99 125 155 193 234 275
#
# _framework density 17.389150000000001
#
# number of rings (size 3 to 8) (size 9 to 14) (size 15 to 20)
#    0.000    2.667    0.000    4.500    0.000    3.333 
#    0.000    0.000    0.000    1.000    0.000    2.333 
#    0.000    0.000    0.000    0.000    0.000    0.000 
#
# Total GULP energy -133681.576229 kJ/mol
# GULP energy per Si atom -5570.065676 kJ/mol
# Density = 1.734957 g / cm^3
# Si number density = 17.389150 Si / 1000 Ang^3
#
#
#
# Elastic Constant Matrix: (Units=GPa)
#
#
# Indices 1 2 3 4 5 6 
#
# 1 49.2588 15.9253 43.1120 0.0000 0.0000 0.0000
# 2 15.9253 50.7812 84.1223 0.0000 0.0000 0.0000
# 3 43.1120 84.1223 206.2548 0.0000 0.0000 0.0000
# 4 0.0000 0.0000 0.0000 -6.5649 0.0000 0.0000
# 5 0.0000 0.0000 0.0000 0.0000 14.2611 0.0000
# 6 0.0000 0.0000 0.0000 0.0000 0.0000 19.8423
#
#
#
# Elastic Compliance Matrix: (Units=1/GPa)
#
#
# Indices 1 2 3 4 5 6 
#
# 1 0.024950 0.002512 -0.006240 0.000000 0.000000 0.000000
# 2 0.002512 0.060964 -0.025390 0.000000 0.000000 0.000000
# 3 -0.006240 -0.025390 0.016508 0.000000 0.000000 0.000000
# 4 0.000000 0.000000 0.000000 -0.152326 0.000000 0.000000
# 5 0.000000 0.000000 0.000000 0.000000 0.070121 0.000000
# 6 0.000000 0.000000 0.000000 0.000000 0.000000 0.050397
#
#
# Mechanical properties :
#
#
# Convention : Reuss Voigt Hill
#
# Bulk Modulus (GPa) = 22.63106 65.84603 44.23855
# Shear Modulus (GPa) = 34.82423 16.38338 25.60380
#
# Velocity S-wave (km/s) = 4.47994 3.07279 3.84135
# Velocity P-wave (km/s) = 6.30893 7.10899 6.72088
#
# Compressibility (1/GPa) = 0.04418705
#
# Stress axis : x y z
#
# Youngs Moduli (GPa) = 40.08045 16.40306 60.57701
#
# Poissons Ratio (x) = -0.04120 0.37797
# Poissons Ratio (y) = -0.10067 1.53803
# Poissons Ratio (z) = 0.25008 0.41647
#
# Static dielectric constant tensor:
#      x y z
#    x 1.585220 0.000000 0.000000 
#    y 0.000000 1.550180 0.000000 
#    z 0.000000 0.000000 1.662690 
# 
# From -- ./inp_files/6673.got.cif
#   From: 2010.05.17/outbox.cif.g08.bks.cpg/sg28_4_cif.got.tgz:6673.got - 2010.06.04 01:15:21.
