data_PCOD9339192
_publ_section_title
;
Structure prediction by ZEFSAII (Michael W. Deem and Ramdas Pophale) SiO2 
 PCOD9339192
Probable space group: P C C 2
;
_chemical_formula_sum "Si O2"
_cell_formula_units_Z 20
_cell_length_a 14.098965
_cell_length_b 10.817989
_cell_length_c 5.374992
_cell_angle_alpha 90.000000
_cell_angle_beta 90.000000
_cell_angle_gamma 90.000000
_cell_volume 819.806939
_symmetry_space_group_name_H-M "P C C 2"
_symmetry_group_IT_number 27
_symmetry_cell_setting 'orthorhombic'
loop_
_space_group_symop_operation_xyz
x,y,z
-x,-y,z
-x,y,1/2+z
x,-y,1/2+z
loop_
_atom_site_type_symbol
_atom_site_label
_atom_site_fract_x
_atom_site_fract_y
_atom_site_fract_z
Si Si1 0.560085 0.658750 0.050670
Si Si2 0.634719 0.934461 0.965971
Si Si3 0.161127 0.840214 0.419107
Si Si4 0.024078 0.760978 0.070547
Si Si5 0.770478 0.569353 0.073317
O O1 0.498306 0.638601 0.297539
O O2 0.594055 0.801417 0.036887
O O3 0.655997 0.579849 0.064509
O O4 0.606707 0.026943 0.187087
O O5 0.749690 0.925887 0.956585
O O6 0.192639 0.707194 0.525026
O O7 0.059308 0.865764 0.547093
O O8 0.126764 0.815157 0.134255
O O9 0.007685 0.689713 0.817510
O O10 0.799349 0.485252 0.838990
#
# Coordination Sequence:
#
# PCOD9339192 Si02
#       5
#     4   4   4   4   4
#     4  11  24  44  65  86 120 156 191 244 298 351
#     4  11  25  39  62  92 119 154 197 243 296 354
#     4   9  22  40  61  82 128 156 197 246 294 331
#     4   8  18  34  62  80 114 164 196 238 288 340
#     4  11  25  39  62  92 119 154 197 243 296 354
#
# _framework density 24.395985
#
# number of rings (size 3 to 8) (size 9 to 14) (size 15 to 20)
#    1.200    0.800    0.000    2.400    5.600    8.000 
#    0.000    6.000    0.000    0.000    0.000    0.000 
#    0.000    0.000    0.000    0.000    0.000    0.000 
#
# Total GULP energy -111650.811588 kJ/mol
# GULP energy per Si atom -5582.540579 kJ/mol
# Density = 2.434046 g / cm^3
# Si number density = 24.395985 Si / 1000 Ang^3
#
#
#
# Elastic Constant Matrix: (Units=GPa)
#
#
# Indices 1 2 3 4 5 6 
#
# 1 106.7544 1.3846 -9.7340 0.0000 0.0000 0.0000
# 2 1.3846 43.1802 -13.4809 0.0000 0.0000 0.0000
# 3 -9.7340 -13.4809 97.4805 0.0000 0.0000 0.0000
# 4 0.0000 0.0000 0.0000 -27.7259 0.0000 0.0000
# 5 0.0000 0.0000 0.0000 0.0000 -52.2676 0.0000
# 6 0.0000 0.0000 0.0000 0.0000 0.0000 25.9116
#
#
#
# Elastic Compliance Matrix: (Units=1/GPa)
#
#
# Indices 1 2 3 4 5 6 
#
# 1 0.009453 -0.000009 0.000943 0.000000 0.000000 0.000000
# 2 -0.000009 0.024204 0.003346 0.000000 0.000000 0.000000
# 3 0.000943 0.003346 0.010815 0.000000 0.000000 0.000000
# 4 0.000000 0.000000 0.000000 -0.036067 0.000000 0.000000
# 5 0.000000 0.000000 0.000000 0.000000 -0.019132 0.000000
# 6 0.000000 0.000000 0.000000 0.000000 0.000000 0.038593
#
#
# Mechanical properties :
#
#
# Convention : Reuss Voigt Hill
#
# Bulk Modulus (GPa) = 18.85615 22.63940 20.74778
# Shear Modulus (GPa) = 135.19836 7.13331 71.16584
#
# Velocity S-wave (km/s) = 7.45242 1.71182 5.40689
# Velocity P-wave (km/s) = 9.04419 3.63417 6.89219
#
# Compressibility (1/GPa) = 0.05303309
#
# Stress axis : x y z
#
# Youngs Moduli (GPa) = 105.78234 41.31589 92.46093
#
# Poissons Ratio (x) = 0.00036 -0.08717
# Poissons Ratio (y) = 0.00093 -0.30940
# Poissons Ratio (z) = -0.09973 -0.13826
#
# Static dielectric constant tensor:
#      x y z
#    x 2.018940 0.000000 0.000000 
#    y 0.000000 1.884680 0.000000 
#    z 0.000000 0.000000 1.998370 
# 
# From -- ./inp_files/437.got.cif
#   From: 2010.05.17/outbox.cif.g08.bks.cpg/sg27_1_cif.got.tgz:437.got - 2010.06.04 01:11:05.
