data_PCOD9339199
_publ_section_title
;
Structure prediction by ZEFSAII (Michael W. Deem and Ramdas Pophale) SiO2 
 PCOD9339199
Probable space group: P C C 2
;
_chemical_formula_sum "Si O2"
_cell_formula_units_Z 26
_cell_length_a 4.909904
_cell_length_b 14.317094
_cell_length_c 13.715501
_cell_angle_alpha 90.000000
_cell_angle_beta 90.000000
_cell_angle_gamma 90.000000
_cell_volume 964.138784
_symmetry_space_group_name_H-M "P C C 2"
_symmetry_group_IT_number 27
_symmetry_cell_setting 'orthorhombic'
loop_
_space_group_symop_operation_xyz
x,y,z
-x,-y,z
-x,y,1/2+z
x,-y,1/2+z
loop_
_atom_site_type_symbol
_atom_site_label
_atom_site_fract_x
_atom_site_fract_y
_atom_site_fract_z
Si Si1 0.559246 0.176673 0.875000
Si Si2 0.000000 0.000000 0.090256
Si Si3 0.000000 0.500000 0.321105
Si Si4 0.130776 0.181181 0.024905
Si Si5 0.401857 0.375203 0.690069
Si Si6 0.907181 0.256987 0.727709
Si Si7 0.500000 0.000000 0.236335
Si Si8 0.267213 0.649148 0.967829
O O1 0.711538 0.348397 0.716726
O O2 0.852566 0.198419 0.824719
O O3 0.401050 0.149155 0.971605
O O4 0.515379 0.290805 0.904162
O O5 0.052535 0.910685 0.022028
O O6 0.248143 0.006612 0.164036
O O7 0.234067 0.548118 0.252763
O O8 0.137754 0.427486 0.397565
O O9 0.194762 0.198992 0.136928
O O10 0.960820 0.273812 0.997737
O O11 0.378283 0.388835 0.572202
O O12 0.219503 0.283401 0.714423
O O13 0.466714 0.093273 0.802632
#
# Coordination Sequence:
#
# PCOD9339199 Si02
#       8
#     4   2   2   4   4   4   2   4
#     4  12  26  48  76 116 155 214 266 338 397 497
#     4  12  30  52  78 124 164 222 274 342 400 500
#     4  12  24  50  78 118 162 206 274 346 402 500
#     4  11  27  47  82 109 168 213 272 334 409 484
#     4  11  25  47  75 111 153 206 259 327 409 472
#     4  11  24  48  75 108 154 206 259 327 403 472
#     4  12  32  46  82 118 166 210 282 332 420 480
#     4  11  26  48  77 116 155 212 272 334 411 489
#
# _framework density 26.967074
#
# number of rings (size 3 to 8) (size 9 to 14) (size 15 to 20)
#    0.000    0.615    4.615    1.385   10.769    0.615 
#    2.769    0.000    0.000    0.000    0.000    0.000 
#    0.000    0.000    0.000    0.000    0.000    0.000 
#
# Total GULP energy -144944.809780 kJ/mol
# GULP energy per Si atom -5574.800376 kJ/mol
# Density = 2.690570 g / cm^3
# Si number density = 26.967074 Si / 1000 Ang^3
#
#
#
# Elastic Constant Matrix: (Units=GPa)
#
#
# Indices 1 2 3 4 5 6 
#
# 1 117.3514 27.6976 17.1284 0.0000 0.0000 0.0000
# 2 27.6976 149.9330 12.2270 0.0000 0.0000 0.0000
# 3 17.1284 12.2270 100.6645 0.0000 0.0000 0.0000
# 4 0.0000 0.0000 0.0000 77.5721 0.0000 0.0000
# 5 0.0000 0.0000 0.0000 0.0000 34.3035 0.0000
# 6 0.0000 0.0000 0.0000 0.0000 0.0000 44.9827
#
#
#
# Elastic Compliance Matrix: (Units=1/GPa)
#
#
# Indices 1 2 3 4 5 6 
#
# 1 0.009090 -0.001569 -0.001356 0.000000 0.000000 0.000000
# 2 -0.001569 0.007007 -0.000584 0.000000 0.000000 0.000000
# 3 -0.001356 -0.000584 0.010236 0.000000 0.000000 0.000000
# 4 0.000000 0.000000 0.000000 0.012891 0.000000 0.000000
# 5 0.000000 0.000000 0.000000 0.000000 0.029152 0.000000
# 6 0.000000 0.000000 0.000000 0.000000 0.000000 0.022231
#
#
# Mechanical properties :
#
#
# Convention : Reuss Voigt Hill
#
# Bulk Modulus (GPa) = 51.77430 53.56165 52.66798
# Shear Modulus (GPa) = 48.04838 52.09805 50.07322
#
# Velocity S-wave (km/s) = 4.22565 4.40012 4.31377
# Velocity P-wave (km/s) = 6.56117 6.76164 6.66216
#
# Compressibility (1/GPa) = 0.01931460
#
# Stress axis : x y z
#
# Youngs Moduli (GPa) = 110.01633 142.71342 97.69738
#
# Poissons Ratio (x) = 0.22385 0.13249
# Poissons Ratio (y) = 0.17257 0.05707
# Poissons Ratio (z) = 0.14919 0.08337
#
# Static dielectric constant tensor:
#      x y z
#    x 2.253350 0.000000 0.000000 
#    y 0.000000 2.261490 0.000000 
#    z 0.000000 0.000000 2.219900 
# 
# From -- ./inp_files/3110.got.cif
#   From: 2010.05.17/outbox.cif.g08.bks.cpg/sg27_2_cif.got.tgz:3110.got - 2010.06.04 01:11:05.
