data_PCOD9339201
_publ_section_title
;
Structure prediction by ZEFSAII (Michael W. Deem and Ramdas Pophale) SiO2 
 PCOD9339201
Probable space group: P C C 2
;
_chemical_formula_sum "Si O2"
_cell_formula_units_Z 22
_cell_length_a 11.640402
_cell_length_b 6.503641
_cell_length_c 14.186284
_cell_angle_alpha 90.000000
_cell_angle_beta 90.000000
_cell_angle_gamma 90.000000
_cell_volume 1073.972569
_symmetry_space_group_name_H-M "P C C 2"
_symmetry_group_IT_number 27
_symmetry_cell_setting 'orthorhombic'
loop_
_space_group_symop_operation_xyz
x,y,z
-x,-y,z
-x,y,1/2+z
x,-y,1/2+z
loop_
_atom_site_type_symbol
_atom_site_label
_atom_site_fract_x
_atom_site_fract_y
_atom_site_fract_z
Si Si1 0.000000 0.500000 0.268100
Si Si2 0.857614 0.894842 0.211806
Si Si3 0.404752 0.176495 0.169219
Si Si4 0.500000 0.500000 0.808800
Si Si5 0.000000 0.000000 0.550463
Si Si6 0.863919 0.178905 0.388986
Si Si7 0.599503 0.174947 0.448777
O O1 0.926977 0.676813 0.212122
O O2 0.903933 0.381709 0.331806
O O3 0.723066 0.888280 0.194580
O O4 0.900558 0.040181 0.126269
O O5 0.879402 0.996929 0.312805
O O6 0.426943 0.362278 0.238973
O O7 0.500000 0.000000 0.186187
O O8 0.411366 0.231868 0.058838
O O9 0.428713 0.355825 0.877267
O O10 0.051921 0.834670 0.478876
O O11 0.734524 0.138917 0.427300
O O12 0.500000 0.000000 0.432834
#
# Coordination Sequence:
#
# PCOD9339201 Si02
#       7
#     2   4   4   2   2   4   4
#     4  12  24  42  68 100 138 178 218 272 340 390
#     4  12  24  46  67 100 136 176 225 276 331 398
#     4  11  25  45  71  97 133 179 222 275 335 398
#     4  12  22  44  64 106 132 166 220 276 334 392
#     4  12  22  46  66  96 140 172 230 270 330 398
#     4  12  24  46  67 100 136 176 225 276 331 398
#     4  11  25  45  71  97 133 179 222 275 335 398
#
# _framework density 20.484694000000001
#
# number of rings (size 3 to 8) (size 9 to 14) (size 15 to 20)
#    0.000    0.364    5.455    4.364    0.000    0.727 
#    0.000    0.000    0.000    0.000    0.000    0.000 
#    0.000    0.000    0.000    0.000    0.000    0.000 
#
# Total GULP energy -122606.004911 kJ/mol
# GULP energy per Si atom -5573.000223 kJ/mol
# Density = 2.043807 g / cm^3
# Si number density = 20.484694 Si / 1000 Ang^3
#
#
#
# Elastic Constant Matrix: (Units=GPa)
#
#
# Indices 1 2 3 4 5 6 
#
# 1 168.9874 57.5615 62.8165 0.0000 0.0000 0.0000
# 2 57.5615 81.3691 58.1621 0.0000 0.0000 0.0000
# 3 62.8165 58.1621 160.0381 0.0000 0.0000 0.0000
# 4 0.0000 0.0000 0.0000 66.2233 0.0000 0.0000
# 5 0.0000 0.0000 0.0000 0.0000 94.3705 0.0000
# 6 0.0000 0.0000 0.0000 0.0000 0.0000 10.6411
#
#
#
# Elastic Compliance Matrix: (Units=1/GPa)
#
#
# Indices 1 2 3 4 5 6 
#
# 1 0.008045 -0.004639 -0.001472 0.000000 0.000000 0.000000
# 2 -0.004639 0.019278 -0.005185 0.000000 0.000000 0.000000
# 3 -0.001472 -0.005185 0.008711 0.000000 0.000000 0.000000
# 4 0.000000 0.000000 0.000000 0.015100 0.000000 0.000000
# 5 0.000000 0.000000 0.000000 0.000000 0.010597 0.000000
# 6 0.000000 0.000000 0.000000 0.000000 0.000000 0.093975
#
#
# Mechanical properties :
#
#
# Convention : Reuss Voigt Hill
#
# Bulk Modulus (GPa) = 74.39759 85.27499 79.83629
# Shear Modulus (GPa) = 27.35560 49.70393 38.52977
#
# Velocity S-wave (km/s) = 3.65830 4.93119 4.34165
# Velocity P-wave (km/s) = 7.36490 8.61053 8.01195
#
# Compressibility (1/GPa) = 0.01344130
#
# Stress axis : x y z
#
# Youngs Moduli (GPa) = 124.30301 51.87335 114.80256
#
# Poissons Ratio (x) = 0.24064 0.16896
# Poissons Ratio (y) = 0.57665 0.59527
# Poissons Ratio (z) = 0.18294 0.26897
#
# Static dielectric constant tensor:
#      x y z
#    x 1.768060 0.000000 0.000000 
#    y 0.000000 1.689150 0.000000 
#    z 0.000000 0.000000 1.710860 
# 
# From -- ./inp_files/3023.got.cif
#   From: 2010.05.17/outbox.cif.g08.bks.cpg/sg27_2_cif.got.tgz:3023.got - 2010.06.04 01:11:05.
