data_PCOD9339763
_publ_section_title
;
Structure prediction by ZEFSAII (Michael W. Deem and Ramdas Pophale) SiO2 
 PCOD9339763
Probable space group: P M A 2
;
_chemical_formula_sum "Si O2"
_cell_formula_units_Z 32
_cell_length_a 23.982841
_cell_length_b 7.641272
_cell_length_c 8.785834
_cell_angle_alpha 90.000000
_cell_angle_beta 90.000000
_cell_angle_gamma 90.000000
_cell_volume 1610.086768
_symmetry_space_group_name_H-M "P M A 2"
_symmetry_group_IT_number 28
_symmetry_cell_setting 'orthorhombic'
loop_
_space_group_symop_operation_xyz
x,y,z
-x,-y,z
1/2-x,y,z
1/2+x,-y,z
loop_
_atom_site_type_symbol
_atom_site_label
_atom_site_fract_x
_atom_site_fract_y
_atom_site_fract_z
Si Si1 0.185860 0.570304 0.526950
Si Si2 0.479416 0.198571 0.520773
Si Si3 0.315353 0.494064 0.171727
Si Si4 0.990533 0.789762 0.178860
Si Si5 0.915962 0.322933 0.707283
Si Si6 0.394757 0.775749 0.035171
Si Si7 0.624646 0.828085 0.038562
Si Si8 0.123478 0.301237 0.711529
O O1 0.250000 0.624108 0.550804
O O2 0.175443 0.543834 0.348172
O O3 0.138388 0.696237 0.598328
O O4 0.173547 0.386636 0.614393
O O5 0.475731 0.269750 0.349039
O O6 0.527498 0.295312 0.615755
O O7 0.419959 0.203901 0.602819
O O8 0.500000 0.000000 0.512250
O O9 0.250000 0.504850 0.140147
O O10 0.348333 0.630995 0.066446
O O11 0.336963 0.299724 0.136558
O O12 0.049343 0.717292 0.122833
O O13 0.938786 0.762963 0.067139
O O14 0.000000 0.000000 0.181184
O O15 0.910230 0.523585 0.761842
O O16 0.911156 0.208160 0.857918
O O17 0.374504 0.968455 0.085359
O O18 0.639505 0.803142 0.861460
#
# Coordination Sequence:
#
# PCOD9339763 Si02
#       8
#     4   4   4   4   4   4   4   4
#     4   9  21  40  63  84 115 155 203 253 298 351
#     4  11  20  35  56  86 124 159 197 246 293 356
#     4  11  23  42  63  88 119 157 203 253 298 355
#     4   9  21  36  57  89 122 157 203 246 295 358
#     4  10  21  36  58  88 120 153 201 238 300 355
#     4  11  22  40  63  91 123 159 198 247 302 357
#     4  11  22  40  63  91 123 159 198 247 302 357
#     4  10  21  36  58  88 120 153 201 238 300 355
#
# _framework density 19.874706
#
# number of rings (size 3 to 8) (size 9 to 14) (size 15 to 20)
#    0.750    1.000    1.250    3.375    0.000    4.000 
#    2.250    1.250    0.000    5.250    0.000    0.000 
#    0.000    0.000    0.000    0.000    0.000    0.000 
#
# Total GULP energy -178530.794670 kJ/mol
# GULP energy per Si atom -5579.087333 kJ/mol
# Density = 1.982947 g / cm^3
# Si number density = 19.874706 Si / 1000 Ang^3
#
#
#
# Elastic Constant Matrix: (Units=GPa)
#
#
# Indices 1 2 3 4 5 6 
#
# 1 64.2413 -8.9785 24.0435 0.0000 0.0000 0.0000
# 2 -8.9785 38.6084 -8.3595 0.0000 0.0000 0.0000
# 3 24.0435 -8.3595 75.3219 0.0000 0.0000 0.0000
# 4 0.0000 0.0000 0.0000 24.1131 0.0000 0.0000
# 5 0.0000 0.0000 0.0000 0.0000 5.5868 0.0000
# 6 0.0000 0.0000 0.0000 0.0000 0.0000 20.8051
#
#
#
# Elastic Compliance Matrix: (Units=1/GPa)
#
#
# Indices 1 2 3 4 5 6 
#
# 1 0.018015 0.003017 -0.005416 0.000000 0.000000 0.000000
# 2 0.003017 0.027044 0.002038 0.000000 0.000000 0.000000
# 3 -0.005416 0.002038 0.015231 0.000000 0.000000 0.000000
# 4 0.000000 0.000000 0.000000 0.041471 0.000000 0.000000
# 5 0.000000 0.000000 0.000000 0.000000 0.178993 0.000000
# 6 0.000000 0.000000 0.000000 0.000000 0.000000 0.048065
#
#
# Mechanical properties :
#
#
# Convention : Reuss Voigt Hill
#
# Bulk Modulus (GPa) = 16.78718 21.28697 19.03708
# Shear Modulus (GPa) = 14.31036 21.53207 17.92121
#
# Velocity S-wave (km/s) = 2.68625 3.29506 3.00611
# Velocity P-wave (km/s) = 4.25277 5.02100 4.65277
#
# Compressibility (1/GPa) = 0.05956926
#
# Stress axis : x y z
#
# Youngs Moduli (GPa) = 55.50965 36.97678 65.65409
#
# Poissons Ratio (x) = -0.11155 0.35556
# Poissons Ratio (y) = -0.16746 -0.13383
# Poissons Ratio (z) = 0.30063 -0.07538
#
# Static dielectric constant tensor:
#      x y z
#    x 1.672970 0.000000 0.000000 
#    y 0.000000 1.729160 0.000000 
#    z 0.000000 0.000000 1.715510 
# 
# From -- ./inp_files/4237.got.cif
#   From: 2010.05.17/outbox.cif.g08.bks.cpg/sg28_3_cif.got.tgz:4237.got - 2010.06.04 01:15:21.
