data_PCOD9339879
_publ_section_title
;
Structure prediction by ZEFSAII (Michael W. Deem and Ramdas Pophale) SiO2 
 PCOD9339879
Probable space group: P M A 2
;
_chemical_formula_sum "Si O2"
_cell_formula_units_Z 14
_cell_length_a 9.092990
_cell_length_b 5.991030
_cell_length_c 10.964642
_cell_angle_alpha 90.000000
_cell_angle_beta 90.000000
_cell_angle_gamma 90.000000
_cell_volume 597.313959
_symmetry_space_group_name_H-M "P M A 2"
_symmetry_group_IT_number 28
_symmetry_cell_setting 'orthorhombic'
loop_
_space_group_symop_operation_xyz
x,y,z
-x,-y,z
1/2-x,y,z
1/2+x,-y,z
loop_
_atom_site_type_symbol
_atom_site_label
_atom_site_fract_x
_atom_site_fract_y
_atom_site_fract_z
Si Si1 0.250000 0.317446 0.630570
Si Si2 0.250000 0.146801 0.058306
Si Si3 0.250000 0.670327 0.842158
Si Si4 0.250000 0.702397 0.428560
Si Si5 0.500000 0.000000 0.543905
Si Si6 0.250000 0.634580 0.139533
Si Si7 0.500000 0.000000 0.883731
O O1 0.250000 0.460542 0.753846
O O2 0.250000 0.488201 0.517303
O O3 0.392272 0.161700 0.619010
O O4 0.250000 0.359693 0.143073
O O5 0.250000 0.909913 0.127685
O O6 0.393758 0.142256 0.972648
O O7 0.391720 0.826081 0.819237
O O8 0.250000 0.619098 0.986539
O O9 0.250000 0.645969 0.287624
O O10 0.392998 0.846977 0.463319
#
# Coordination Sequence:
#
# PCOD9339879 Si02
#       7
#     2   2   2   2   2   2   2
#     4  11  25  54  77 113 156 209 269 332 401 483
#     4  10  22  45  69 115 159 209 258 327 400 483
#     4  10  23  48  75 117 159 206 263 330 403 483
#     4  11  25  50  80 114 155 206 264 331 397 487
#     4  10  26  52  78 114 156 214 266 330 406 482
#     4  10  25  47  77 117 155 206 266 324 403 476
#     4   8  20  46  72 110 160 206 254 330 402 482
#
# _framework density 23.438261000000001
#
# number of rings (size 3 to 8) (size 9 to 14) (size 15 to 20)
#    0.000    2.286    0.000    0.857    4.000   10.286 
#   36.000    4.286    0.000    0.000    0.000    0.000 
#    0.000    0.000    0.000    0.000    0.000    0.000 
#
# Total GULP energy -77950.543342 kJ/mol
# GULP energy per Si atom -5567.895953 kJ/mol
# Density = 2.338491 g / cm^3
# Si number density = 23.438261 Si / 1000 Ang^3
#
#
#
# Elastic Constant Matrix: (Units=GPa)
#
#
# Indices 1 2 3 4 5 6 
#
# 1 190.3488 94.4866 81.3874 0.0000 0.0000 0.0000
# 2 94.4866 248.4396 131.7349 0.0000 0.0000 0.0000
# 3 81.3874 131.7349 234.2927 0.0000 0.0000 0.0000
# 4 0.0000 0.0000 0.0000 49.9008 0.0000 0.0000
# 5 0.0000 0.0000 0.0000 0.0000 7.3561 0.0000
# 6 0.0000 0.0000 0.0000 0.0000 0.0000 -54.8683
#
#
#
# Elastic Compliance Matrix: (Units=1/GPa)
#
#
# Indices 1 2 3 4 5 6 
#
# 1 0.006736 -0.001882 -0.001282 0.000000 0.000000 0.000000
# 2 -0.001882 0.006261 -0.002866 0.000000 0.000000 0.000000
# 3 -0.001282 -0.002866 0.006325 0.000000 0.000000 0.000000
# 4 0.000000 0.000000 0.000000 0.020040 0.000000 0.000000
# 5 0.000000 0.000000 0.000000 0.000000 0.135942 0.000000
# 6 0.000000 0.000000 0.000000 0.000000 0.000000 -0.018225
#
#
# Mechanical properties :
#
#
# Convention : Reuss Voigt Hill
#
# Bulk Modulus (GPa) = 137.71625 143.14432 140.43028
# Shear Modulus (GPa) = 29.14450 24.84254 26.99352
#
# Velocity S-wave (km/s) = 3.53010 3.25916 3.39733
# Velocity P-wave (km/s) = 8.68907 8.68150 8.68529
#
# Compressibility (1/GPa) = 0.00726131
#
# Stress axis : x y z
#
# Youngs Moduli (GPa) = 148.46125 159.72124 158.10146
#
# Poissons Ratio (x) = 0.30063 0.20261
# Poissons Ratio (y) = 0.27944 0.45319
# Poissons Ratio (z) = 0.19026 0.45783
#
# Static dielectric constant tensor:
#      x y z
#    x 1.893420 0.000000 0.000000 
#    y 0.000000 1.893390 0.000000 
#    z 0.000000 0.000000 1.862100 
# 
# From -- ./inp_files/4442.got.cif
#   From: 2010.05.17/outbox.cif.g08.bks.cpg/sg28_3_cif.got.tgz:4442.got - 2010.06.04 01:15:21.
