data_PCOD9339290
_publ_section_title
;
Structure prediction by ZEFSAII (Michael W. Deem and Ramdas Pophale) SiO2 
 PCOD9339290
Probable space group: P M A 2
;
_chemical_formula_sum "Si O2"
_cell_formula_units_Z 32
_cell_length_a 21.303951
_cell_length_b 5.649915
_cell_length_c 11.188011
_cell_angle_alpha 90.000000
_cell_angle_beta 90.000000
_cell_angle_gamma 90.000000
_cell_volume 1346.650676
_symmetry_space_group_name_H-M "P M A 2"
_symmetry_group_IT_number 28
_symmetry_cell_setting 'orthorhombic'
loop_
_space_group_symop_operation_xyz
x,y,z
-x,-y,z
1/2-x,y,z
1/2+x,-y,z
loop_
_atom_site_type_symbol
_atom_site_label
_atom_site_fract_x
_atom_site_fract_y
_atom_site_fract_z
Si Si1 0.859249 0.330320 0.983770
Si Si2 0.057832 0.281970 0.892872
Si Si3 0.147935 0.925303 0.764363
Si Si4 0.434191 0.051295 0.139732
Si Si5 0.322772 0.631442 0.435239
Si Si6 0.678693 0.869677 0.519289
Si Si7 0.477136 0.749377 0.653678
Si Si8 0.681192 0.637946 0.194160
O O1 0.916711 0.459711 0.918160
O O2 0.821627 0.228360 0.869968
O O3 0.823338 0.519145 0.064220
O O4 0.892383 0.154724 0.078517
O O5 0.012112 0.254227 0.782142
O O6 0.114314 0.119419 0.846911
O O7 0.039804 0.195639 0.024122
O O8 0.095808 0.775918 0.688786
O O9 0.181587 0.065159 0.658917
O O10 0.381076 0.203689 0.206889
O O11 0.500000 0.000000 0.207032
O O12 0.250000 0.651960 0.479269
O O13 0.349950 0.391557 0.497126
O O14 0.321715 0.561745 0.296358
O O15 0.349810 0.894377 0.456955
O O16 0.750000 0.846120 0.472028
O O17 0.500000 0.500000 0.596757
O O18 0.500000 0.000000 0.596416
O O19 0.750000 0.757942 0.203889
#
# Coordination Sequence:
#
# PCOD9339290 Si02
#       8
#     4   4   4   4   4   4   4   4
#     4  10  20  35  59  90 125 165 203 257 326 395
#     4   9  18  32  50  83 123 160 205 245 297 383
#     4  10  20  32  55  86 119 152 194 251 318 374
#     4  10  21  35  59  93 126 171 211 263 320 396
#     4   9  21  42  65  86 110 156 218 268 312 380
#     4  10  22  39  63  87 114 158 212 263 312 379
#     4  10  18  29  50  78 114 150 197 239 282 364
#     4  10  23  40  62  91 124 164 218 277 331 389
#
# _framework density 23.762658999999999
#
# number of rings (size 3 to 8) (size 9 to 14) (size 15 to 20)
#    0.000    2.250    1.250    1.875    3.500    2.500 
#    0.000    5.000    0.000    3.750    0.000    0.000 
#    0.000    0.000    0.000    0.000    0.000    0.000 
#
# Total GULP energy -178205.759733 kJ/mol
# GULP energy per Si atom -5568.929992 kJ/mol
# Density = 2.370857 g / cm^3
# Si number density = 23.762659 Si / 1000 Ang^3
#
#
#
# Elastic Constant Matrix: (Units=GPa)
#
#
# Indices 1 2 3 4 5 6 
#
# 1 85.1583 11.2945 8.7537 0.0000 0.0000 0.0000
# 2 11.2945 122.5349 12.7403 0.0000 0.0000 0.0000
# 3 8.7537 12.7403 70.1286 0.0000 0.0000 0.0000
# 4 0.0000 0.0000 0.0000 37.0455 0.0000 0.0000
# 5 0.0000 0.0000 0.0000 0.0000 16.9791 0.0000
# 6 0.0000 0.0000 0.0000 0.0000 0.0000 11.7739
#
#
#
# Elastic Compliance Matrix: (Units=1/GPa)
#
#
# Indices 1 2 3 4 5 6 
#
# 1 0.012007 -0.000969 -0.001323 0.000000 0.000000 0.000000
# 2 -0.000969 0.008396 -0.001404 0.000000 0.000000 0.000000
# 3 -0.001323 -0.001404 0.014680 0.000000 0.000000 0.000000
# 4 0.000000 0.000000 0.000000 0.026994 0.000000 0.000000
# 5 0.000000 0.000000 0.000000 0.000000 0.058896 0.000000
# 6 0.000000 0.000000 0.000000 0.000000 0.000000 0.084934
#
#
# Mechanical properties :
#
#
# Convention : Reuss Voigt Hill
#
# Bulk Modulus (GPa) = 36.11315 38.15541 37.13428
# Shear Modulus (GPa) = 22.46892 29.49525 25.98208
#
# Velocity S-wave (km/s) = 3.07832 3.52695 3.31025
# Velocity P-wave (km/s) = 5.27875 5.71643 5.50194
#
# Compressibility (1/GPa) = 0.02769075
#
# Stress axis : x y z
#
# Youngs Moduli (GPa) = 83.28228 119.10011 68.12103
#
# Poissons Ratio (x) = 0.11544 0.09010
# Poissons Ratio (y) = 0.08072 0.09567
# Poissons Ratio (z) = 0.11016 0.16726
#
# Static dielectric constant tensor:
#      x y z
#    x 1.973490 0.000000 0.000000 
#    y 0.000000 2.069540 0.000000 
#    z 0.000000 0.000000 1.867370 
# 
# From -- ./inp_files/5882.got.cif
#   From: 2010.05.17/outbox.cif.g08.bks.cpg/sg28_3_cif.got.tgz:5882.got - 2010.06.04 01:15:21.
