data_PCOD9339004
_publ_section_title
;
Structure prediction by ZEFSAII (Michael W. Deem and Ramdas Pophale) SiO2 
 PCOD9339004
Probable space group: P C C 2
;
_chemical_formula_sum "Si O2"
_cell_formula_units_Z 22
_cell_length_a 7.747576
_cell_length_b 14.046621
_cell_length_c 8.883610
_cell_angle_alpha 90.000000
_cell_angle_beta 90.000000
_cell_angle_gamma 90.000000
_cell_volume 966.778968
_symmetry_space_group_name_H-M "P C C 2"
_symmetry_group_IT_number 27
_symmetry_cell_setting 'orthorhombic'
loop_
_space_group_symop_operation_xyz
x,y,z
-x,-y,z
-x,y,1/2+z
x,-y,1/2+z
loop_
_atom_site_type_symbol
_atom_site_label
_atom_site_fract_x
_atom_site_fract_y
_atom_site_fract_z
Si Si1 0.636155 0.080193 0.601710
Si Si2 0.831208 0.779827 0.539453
Si Si3 0.500000 0.500000 0.916175
Si Si4 0.477286 0.202624 0.860430
Si Si5 0.330803 0.380170 0.678055
Si Si6 0.014610 0.100376 0.280988
O O1 0.532089 0.125951 0.738743
O O2 0.663509 0.156006 0.468433
O O3 0.823565 0.068767 0.674681
O O4 0.500000 0.000000 0.544919
O O5 0.639733 0.782953 0.470266
O O6 0.839635 0.674306 0.614591
O O7 0.940379 0.814813 0.396381
O O8 0.871191 0.856134 0.669868
O O9 0.347072 0.463714 0.803920
O O10 0.571009 0.420572 0.031455
O O11 0.426372 0.296139 0.770040
O O12 0.000000 0.000000 0.368404
#
# Coordination Sequence:
#
# PCOD9339004 Si02
#       6
#     4   4   2   4   4   4
#     4  11  23  37  62  96 135 185 240 287 324 386
#     4  11  24  43  65  99 141 185 232 282 342 411
#     4  10  22  40  76 106 132 156 226 314 358 424
#     4  11  21  39  65  96 132 173 230 290 339 401
#     4  11  21  42  69 108 125 168 221 298 363 412
#     4  11  26  42  63  96 144 199 235 270 333 408
#
# _framework density 22.755977999999999
#
# number of rings (size 3 to 8) (size 9 to 14) (size 15 to 20)
#    0.000    1.091    3.636    2.182    2.545    2.909 
#    0.000    0.000    0.000    3.273    0.000    0.000 
#    0.000    0.000    0.000    0.000    0.000    0.000 
#
# Total GULP energy -122565.877727 kJ/mol
# GULP energy per Si atom -5571.176260 kJ/mol
# Density = 2.270418 g / cm^3
# Si number density = 22.755978 Si / 1000 Ang^3
#
#
#
# Elastic Constant Matrix: (Units=GPa)
#
#
# Indices 1 2 3 4 5 6 
#
# 1 55.1959 27.1008 25.0799 0.0000 0.0000 0.0000
# 2 27.1008 111.0732 57.2697 0.0000 0.0000 0.0000
# 3 25.0799 57.2697 162.1149 0.0000 0.0000 0.0000
# 4 0.0000 0.0000 0.0000 57.9621 0.0000 0.0000
# 5 0.0000 0.0000 0.0000 0.0000 23.3737 0.0000
# 6 0.0000 0.0000 0.0000 0.0000 0.0000 28.7664
#
#
#
# Elastic Compliance Matrix: (Units=1/GPa)
#
#
# Indices 1 2 3 4 5 6 
#
# 1 0.020985 -0.004214 -0.001758 0.000000 0.000000 0.000000
# 2 -0.004214 0.011854 -0.003536 0.000000 0.000000 0.000000
# 3 -0.001758 -0.003536 0.007690 0.000000 0.000000 0.000000
# 4 0.000000 0.000000 0.000000 0.017253 0.000000 0.000000
# 5 0.000000 0.000000 0.000000 0.000000 0.042783 0.000000
# 6 0.000000 0.000000 0.000000 0.000000 0.000000 0.034763
#
#
# Mechanical properties :
#
#
# Convention : Reuss Voigt Hill
#
# Bulk Modulus (GPa) = 46.48181 60.80942 53.64562
# Shear Modulus (GPa) = 30.95718 36.61603 33.78660
#
# Velocity S-wave (km/s) = 3.69236 4.01568 3.85741
# Velocity P-wave (km/s) = 6.21680 6.94847 6.59279
#
# Compressibility (1/GPa) = 0.02151379
#
# Stress axis : x y z
#
# Youngs Moduli (GPa) = 47.65319 84.35783 130.04741
#
# Poissons Ratio (x) = 0.35546 0.22861
# Poissons Ratio (y) = 0.20080 0.45982
# Poissons Ratio (z) = 0.08377 0.29827
#
# Static dielectric constant tensor:
#      x y z
#    x 1.907620 0.000000 0.000000 
#    y 0.000000 1.947860 0.000000 
#    z 0.000000 0.000000 1.871160 
# 
# From -- ./inp_files/1122.got.cif
#   From: 2010.05.17/outbox.cif.g08.bks.cpg/sg27_1_cif.got.tgz:1122.got - 2010.06.04 01:11:05.
