data_PCOD9339382
_publ_section_title
;
Structure prediction by ZEFSAII (Michael W. Deem and Ramdas Pophale) SiO2 
 PCOD9339382
Probable space group: P M A 2
;
_chemical_formula_sum "Si O2"
_cell_formula_units_Z 32
_cell_length_a 8.617640
_cell_length_b 14.638632
_cell_length_c 16.137624
_cell_angle_alpha 90.000000
_cell_angle_beta 90.000000
_cell_angle_gamma 90.000000
_cell_volume 2035.768702
_symmetry_space_group_name_H-M "P M A 2"
_symmetry_group_IT_number 28
_symmetry_cell_setting 'orthorhombic'
loop_
_space_group_symop_operation_xyz
x,y,z
-x,-y,z
1/2-x,y,z
1/2+x,-y,z
loop_
_atom_site_type_symbol
_atom_site_label
_atom_site_fract_x
_atom_site_fract_y
_atom_site_fract_z
Si Si1 0.064871 0.901615 0.697560
Si Si2 0.562840 0.602203 0.792660
Si Si3 0.563542 0.902020 0.883714
Si Si4 0.563769 0.396510 0.113603
Si Si5 0.436432 0.281963 0.630820
Si Si6 0.062692 0.288872 0.957416
Si Si7 0.562946 0.396173 0.477445
Si Si8 0.436644 0.602906 0.295247
O O1 0.250000 0.904414 0.700515
O O2 0.000131 0.886251 0.790790
O O3 0.006244 0.818609 0.641587
O O4 0.000000 0.000000 0.670421
O O5 0.500000 0.500000 0.789170
O O6 0.750000 0.599482 0.792994
O O7 0.514923 0.659634 0.711940
O O8 0.512660 0.652709 0.876879
O O9 0.750000 0.905395 0.878681
O O10 0.518156 0.816152 0.940280
O O11 0.500000 0.000000 0.912057
O O12 0.500000 0.500000 0.104130
O O13 0.750000 0.401109 0.110583
O O14 0.515397 0.359714 0.205169
O O15 0.503856 0.333501 0.039894
O O16 0.250000 0.276640 0.630512
O O17 0.495164 0.334032 0.549767
O O18 0.250000 0.292700 0.961039
O O19 0.500000 0.500000 0.485624
O O20 0.750000 0.398715 0.483039
O O21 0.517077 0.359573 0.385434
O O22 0.500000 0.500000 0.295229
O O23 0.250000 0.600814 0.295233
#
# Coordination Sequence:
#
# PCOD9339382 Si02
#       8
#     4   4   4   4   4   4   4   4
#     4  11  21  34  53  74  96 125 162 203 247 291
#     4  10  21  34  45  61  93 131 164 194 231 275
#     4  10  19  34  52  71  96 124 160 203 248 288
#     4  10  19  31  48  71  97 129 165 202 242 287
#     4  11  21  35  50  69  98 131 165 204 243 288
#     4  10  20  34  48  67  96 130 161 198 241 285
#     4  10  19  32  49  72  99 131 166 202 245 292
#     4   8  16  30  47  67  95 125 159 202 245 286
#
# _framework density 15.718878
#
# number of rings (size 3 to 8) (size 9 to 14) (size 15 to 20)
#    0.000    2.000    1.250    4.125    0.000    5.500 
#    0.000    0.000    0.000    0.000    0.000    0.875 
#    0.000    2.000    0.000    0.000    0.000    0.000 
#
# Total GULP energy -178469.742377 kJ/mol
# GULP energy per Si atom -5577.179449 kJ/mol
# Density = 1.568310 g / cm^3
# Si number density = 15.718878 Si / 1000 Ang^3
#
#
#
# Elastic Constant Matrix: (Units=GPa)
#
#
# Indices 1 2 3 4 5 6 
#
# 1 50.2483 37.0031 37.1373 0.0000 0.0000 0.0000
# 2 37.0031 121.3187 77.6029 0.0000 0.0000 0.0000
# 3 37.1373 77.6029 151.4619 0.0000 0.0000 0.0000
# 4 0.0000 0.0000 0.0000 6.3252 0.0000 0.0000
# 5 0.0000 0.0000 0.0000 0.0000 19.5061 0.0000
# 6 0.0000 0.0000 0.0000 0.0000 0.0000 25.5646
#
#
#
# Elastic Compliance Matrix: (Units=1/GPa)
#
#
# Indices 1 2 3 4 5 6 
#
# 1 0.026896 -0.005928 -0.003557 0.000000 0.000000 0.000000
# 2 -0.005928 0.013568 -0.005498 0.000000 0.000000 0.000000
# 3 -0.003557 -0.005498 0.010292 0.000000 0.000000 0.000000
# 4 0.000000 0.000000 0.000000 0.158099 0.000000 0.000000
# 5 0.000000 0.000000 0.000000 0.000000 0.051266 0.000000
# 6 0.000000 0.000000 0.000000 0.000000 0.000000 0.039117
#
#
# Mechanical properties :
#
#
# Convention : Reuss Voigt Hill
#
# Bulk Modulus (GPa) = 48.10407 69.61283 58.85845
# Shear Modulus (GPa) = 14.87510 21.69821 18.28666
#
# Velocity S-wave (km/s) = 3.07957 3.71939 3.41450
# Velocity P-wave (km/s) = 6.58135 7.92638 7.28497
#
# Compressibility (1/GPa) = 0.02078826
#
# Stress axis : x y z
#
# Youngs Moduli (GPa) = 37.18068 73.70451 97.16698
#
# Poissons Ratio (x) = 0.43691 0.34567
# Poissons Ratio (y) = 0.22040 0.53423
# Poissons Ratio (z) = 0.13227 0.40523
#
# Static dielectric constant tensor:
#      x y z
#    x 1.531380 0.000000 0.000000 
#    y 0.000000 1.501620 0.000000 
#    z 0.000000 0.000000 1.540300 
# 
# From -- ./inp_files/6416.got.cif
#   From: 2010.05.17/outbox.cif.g08.bks.cpg/sg28_4_cif.got.tgz:6416.got - 2010.06.04 01:15:21.
