data_PCOD9339652
_publ_section_title
;
Structure prediction by ZEFSAII (Michael W. Deem and Ramdas Pophale) SiO2 
 PCOD9339652
Probable space group: P M A 2
;
_chemical_formula_sum "Si O2"
_cell_formula_units_Z 32
_cell_length_a 8.757096
_cell_length_b 15.118658
_cell_length_c 12.508095
_cell_angle_alpha 90.000000
_cell_angle_beta 90.000000
_cell_angle_gamma 90.000000
_cell_volume 1656.015986
_symmetry_space_group_name_H-M "P M A 2"
_symmetry_group_IT_number 28
_symmetry_cell_setting 'orthorhombic'
loop_
_space_group_symop_operation_xyz
x,y,z
-x,-y,z
1/2-x,y,z
1/2+x,-y,z
loop_
_atom_site_type_symbol
_atom_site_label
_atom_site_fract_x
_atom_site_fract_y
_atom_site_fract_z
Si Si1 0.431107 0.788446 0.498500
Si Si2 0.929771 0.633780 0.200142
Si Si3 0.433253 0.590964 0.430261
Si Si4 0.431461 0.099502 0.689755
Si Si5 0.066195 0.776999 0.875313
Si Si6 0.566445 0.407956 0.967452
Si Si7 0.069944 0.912296 0.052646
Si Si8 0.931402 0.182622 0.253782
O O1 0.250000 0.790145 0.524492
O O2 0.476618 0.684170 0.487585
O O3 0.519520 0.848320 0.582480
O O4 0.451277 0.827935 0.379536
O O5 0.750000 0.613894 0.199595
O O6 0.006728 0.596198 0.308003
O O7 0.964636 0.737354 0.214128
O O8 0.003968 0.604483 0.088427
O O9 0.500000 0.500000 0.477654
O O10 0.250000 0.587628 0.428698
O O11 0.250000 0.091628 0.696365
O O12 0.491999 0.163964 0.783503
O O13 0.500000 0.000000 0.694616
O O14 0.250000 0.779035 0.860651
O O15 0.020664 0.675285 0.893349
O O16 0.026989 0.826387 0.985863
O O17 0.500000 0.500000 0.926178
O O18 0.750000 0.410042 0.972524
O O19 0.250000 0.921313 0.044751
O O20 0.030996 0.898099 0.176484
O O21 0.000000 0.000000 0.005239
O O22 0.750000 0.205604 0.236863
#
# Coordination Sequence:
#
# PCOD9339652 Si02
#       8
#     4   4   4   4   4   4   4   4
#     4   9  20  39  63  88 119 157 200 249 303 356
#     4  11  20  31  52  83 120 163 207 247 289 348
#     4  10  20  35  57  86 123 164 204 248 296 353
#     4  12  26  44  68  92 118 151 201 255 302 362
#     4  10  22  42  65  86 118 157 198 250 303 356
#     4  11  22  38  59  86 121 160 201 247 298 356
#     4  10  20  35  56  85 118 154 191 235 297 360
#     4   9  18  36  57  82 120 161 196 240 301 356
#
# _framework density 19.323485000000002
#
# number of rings (size 3 to 8) (size 9 to 14) (size 15 to 20)
#    0.000    1.750    1.250    4.500    0.000    6.000 
#    0.000    1.875    0.000    0.000    0.000    0.000 
#    0.000    0.000    0.000    0.000    0.000    0.000 
#
# Total GULP energy -178563.321537 kJ/mol
# GULP energy per Si atom -5580.103798 kJ/mol
# Density = 1.927950 g / cm^3
# Si number density = 19.323485 Si / 1000 Ang^3
#
#
#
# Elastic Constant Matrix: (Units=GPa)
#
#
# Indices 1 2 3 4 5 6 
#
# 1 70.9097 61.3462 45.8526 0.0000 0.0000 0.0000
# 2 61.3462 169.1024 64.1239 0.0000 0.0000 0.0000
# 3 45.8526 64.1239 76.5056 0.0000 0.0000 0.0000
# 4 0.0000 0.0000 0.0000 17.1731 0.0000 0.0000
# 5 0.0000 0.0000 0.0000 0.0000 23.8183 0.0000
# 6 0.0000 0.0000 0.0000 0.0000 0.0000 31.2941
#
#
#
# Elastic Compliance Matrix: (Units=1/GPa)
#
#
# Indices 1 2 3 4 5 6 
#
# 1 0.025722 -0.005109 -0.011134 0.000000 0.000000 0.000000
# 2 -0.005109 0.009684 -0.005054 0.000000 0.000000 0.000000
# 3 -0.011134 -0.005054 0.023980 0.000000 0.000000 0.000000
# 4 0.000000 0.000000 0.000000 0.058230 0.000000 0.000000
# 5 0.000000 0.000000 0.000000 0.000000 0.041984 0.000000
# 6 0.000000 0.000000 0.000000 0.000000 0.000000 0.031955
#
#
# Mechanical properties :
#
#
# Convention : Reuss Voigt Hill
#
# Bulk Modulus (GPa) = 59.55510 73.24035 66.39773
# Shear Modulus (GPa) = 20.85526 24.13679 22.49602
#
# Velocity S-wave (km/s) = 3.28879 3.53808 3.41571
# Velocity P-wave (km/s) = 6.73116 7.39427 7.07049
#
# Compressibility (1/GPa) = 0.01679117
#
# Stress axis : x y z
#
# Youngs Moduli (GPa) = 38.87691 103.26589 41.70141
#
# Poissons Ratio (x) = 0.52763 0.46429
# Poissons Ratio (y) = 0.19864 0.21077
# Poissons Ratio (z) = 0.43284 0.52193
#
# Static dielectric constant tensor:
#      x y z
#    x 1.669860 0.000000 0.000000 
#    y 0.000000 1.725400 0.000000 
#    z 0.000000 0.000000 1.677950 
# 
# From -- ./inp_files/5111.got.cif
#   From: 2010.05.17/outbox.cif.g08.bks.cpg/sg28_3_cif.got.tgz:5111.got - 2010.06.04 01:15:21.
