data_PCOD9339130
_publ_section_title
;
Structure prediction by ZEFSAII (Michael W. Deem and Ramdas Pophale) SiO2 
 PCOD9339130
Probable space group: P C C 2
;
_chemical_formula_sum "Si O2"
_cell_formula_units_Z 20
_cell_length_a 5.240535
_cell_length_b 16.322072
_cell_length_c 8.991858
_cell_angle_alpha 90.000000
_cell_angle_beta 90.000000
_cell_angle_gamma 90.000000
_cell_volume 769.131069
_symmetry_space_group_name_H-M "P C C 2"
_symmetry_group_IT_number 27
_symmetry_cell_setting 'orthorhombic'
loop_
_space_group_symop_operation_xyz
x,y,z
-x,-y,z
-x,y,1/2+z
x,-y,1/2+z
loop_
_atom_site_type_symbol
_atom_site_label
_atom_site_fract_x
_atom_site_fract_y
_atom_site_fract_z
Si Si1 0.000001 0.250000 0.291400
Si Si2 0.789286 0.141476 0.553843
Si Si3 0.500000 0.500000 0.426380
Si Si4 0.000000 0.500000 0.723831
Si Si5 0.000000 0.000000 0.723831
Si Si6 0.500000 0.000000 0.926380
Si Si7 0.789286 0.641476 0.553843
O O1 0.874578 0.184015 0.401662
O O2 0.789439 0.290285 0.182454
O O3 0.210563 0.209715 0.182454
O O4 0.125423 0.315985 0.401662
O O5 0.551720 0.082141 0.521634
O O6 0.998813 0.078402 0.617353
O O7 0.749566 0.492917 0.324168
O O8 0.551720 0.582141 0.521635
O O9 0.001187 0.421598 0.617354
O O10 0.749566 0.007083 0.824168
#
# Coordination Sequence:
#
# PCOD9339130 Si02
#       7
#     4   4   2   2   2   2   4
#     4  10  24  50  90 130 180 224 294 384 446 510
#     4  11  24  51  87 124 181 226 300 357 452 520
#     4  12  26  50  88 122 170 238 290 356 430 554
#     4  12  26  50  84 124 166 240 288 358 426 554
#     4  12  26  50  84 124 166 240 288 358 426 554
#     4  12  26  50  88 122 170 238 290 356 430 554
#     4  11  24  51  87 124 181 226 300 357 452 520
#
# _framework density 26.003371000000001
#
# number of rings (size 3 to 8) (size 9 to 14) (size 15 to 20)
#    0.000    0.800    4.000    2.400    0.000    0.000 
#    0.000    6.000    0.000    0.000    0.000    0.000 
#    0.000    0.000    0.000    0.000    0.000    0.000 
#
# Total GULP energy -112123.250521 kJ/mol
# GULP energy per Si atom -5606.162526 kJ/mol
# Density = 2.594419 g / cm^3
# Si number density = 26.003371 Si / 1000 Ang^3
#
#
#
# Elastic Constant Matrix: (Units=GPa)
#
#
# Indices 1 2 3 4 5 6 
#
# 1 201.1963 75.0215 98.9838 0.0000 0.0000 0.0000
# 2 75.0215 177.1152 108.8638 0.0000 0.0000 0.0000
# 3 98.9838 108.8638 215.5772 0.0000 0.0000 0.0000
# 4 0.0000 0.0000 0.0000 82.0106 0.0000 0.0000
# 5 0.0000 0.0000 0.0000 0.0000 51.8054 0.0000
# 6 0.0000 0.0000 0.0000 0.0000 0.0000 53.2366
#
#
#
# Elastic Compliance Matrix: (Units=1/GPa)
#
#
# Indices 1 2 3 4 5 6 
#
# 1 0.006639 -0.001361 -0.002361 0.000000 0.000000 0.000000
# 2 -0.001361 0.008466 -0.003650 0.000000 0.000000 0.000000
# 3 -0.002361 -0.003650 0.007566 0.000000 0.000000 0.000000
# 4 0.000000 0.000000 0.000000 0.012194 0.000000 0.000000
# 5 0.000000 0.000000 0.000000 0.000000 0.019303 0.000000
# 6 0.000000 0.000000 0.000000 0.000000 0.000000 0.018784
#
#
# Mechanical properties :
#
#
# Convention : Reuss Voigt Hill
#
# Bulk Modulus (GPa) = 126.15656 128.84745 127.50200
# Shear Modulus (GPa) = 55.34632 58.14517 56.74574
#
# Velocity S-wave (km/s) = 4.61849 4.73383 4.67652
# Velocity P-wave (km/s) = 8.77846 8.91834 8.84868
#
# Compressibility (1/GPa) = 0.00792666
#
# Stress axis : x y z
#
# Youngs Moduli (GPa) = 150.61538 118.11591 132.16404
#
# Poissons Ratio (x) = 0.16075 0.31208
# Poissons Ratio (y) = 0.20498 0.48246
# Poissons Ratio (z) = 0.35565 0.43118
#
# Static dielectric constant tensor:
#      x y z
#    x 2.019050 0.000000 0.000000 
#    y 0.000000 2.120010 0.000000 
#    z 0.000000 0.000000 2.070100 
# 
# From -- ./inp_files/889.got.cif
#   From: 2010.05.17/outbox.cif.g08.bks.cpg/sg27_1_cif.got.tgz:889.got - 2010.06.04 01:11:05.
