data_PCOD9339188
_publ_section_title
;
Structure prediction by ZEFSAII (Michael W. Deem and Ramdas Pophale) SiO2 
 PCOD9339188
Probable space group: P C C 2
;
_chemical_formula_sum "Si O2"
_cell_formula_units_Z 20
_cell_length_a 4.790363
_cell_length_b 15.142333
_cell_length_c 10.914623
_cell_angle_alpha 90.000000
_cell_angle_beta 90.000000
_cell_angle_gamma 90.000000
_cell_volume 791.716974
_symmetry_space_group_name_H-M "P C C 2"
_symmetry_group_IT_number 27
_symmetry_cell_setting 'orthorhombic'
loop_
_space_group_symop_operation_xyz
x,y,z
-x,-y,z
-x,y,1/2+z
x,-y,1/2+z
loop_
_atom_site_type_symbol
_atom_site_label
_atom_site_fract_x
_atom_site_fract_y
_atom_site_fract_z
Si Si1 0.792484 0.647447 0.778550
Si Si2 0.500000 0.500000 0.620125
Si Si3 0.750095 0.059065 0.268625
Si Si4 0.507959 0.791968 0.439672
Si Si5 0.013094 0.794900 0.598880
Si Si6 0.000000 0.500000 0.437818
O O1 0.599354 0.580211 0.703582
O O2 0.604003 0.707038 0.867699
O O3 0.943047 0.712061 0.683641
O O4 0.009954 0.585844 0.851874
O O5 0.748563 0.479355 0.527969
O O6 0.592764 0.123024 0.364029
O O7 0.906728 0.118640 0.168586
O O8 0.500000 0.000000 0.214805
O O9 0.000000 0.000000 0.325383
O O10 0.832892 0.788771 0.473298
O O11 0.337751 0.795809 0.567105
#
# Coordination Sequence:
#
# PCOD9339188 Si02
#       6
#     4   2   4   4   4   2
#     4  11  26  46  69 100 138 178 231 286 342 411
#     4  12  26  44  70 100 134 178 228 284 344 406
#     4  11  24  42  67 100 134 172 223 278 334 405
#     4  11  25  44  68  97 135 179 223 277 342 407
#     4  11  25  44  68  97 135 179 223 277 342 407
#     4  12  26  44  70 100 134 178 228 284 344 406
#
# _framework density 25.261555000000001
#
# number of rings (size 3 to 8) (size 9 to 14) (size 15 to 20)
#    0.000    0.800    0.000    6.000    0.000   16.000 
#    0.000    0.000    0.000    0.000    0.000    0.000 
#    0.000    0.000    0.000    0.000    0.000    0.000 
#
# Total GULP energy -112323.438947 kJ/mol
# GULP energy per Si atom -5616.171947 kJ/mol
# Density = 2.520406 g / cm^3
# Si number density = 25.261555 Si / 1000 Ang^3
#
#
#
# Elastic Constant Matrix: (Units=GPa)
#
#
# Indices 1 2 3 4 5 6 
#
# 1 83.9233 14.0418 9.0014 0.0000 0.0000 0.0000
# 2 14.0418 142.9553 39.8171 0.0000 0.0000 0.0000
# 3 9.0014 39.8171 77.7809 0.0000 0.0000 0.0000
# 4 0.0000 0.0000 0.0000 3.3580 0.0000 0.0000
# 5 0.0000 0.0000 0.0000 0.0000 45.8061 0.0000
# 6 0.0000 0.0000 0.0000 0.0000 0.0000 27.4034
#
#
#
# Elastic Compliance Matrix: (Units=1/GPa)
#
#
# Indices 1 2 3 4 5 6 
#
# 1 0.012172 -0.000937 -0.000929 0.000000 0.000000 0.000000
# 2 -0.000937 0.008231 -0.004105 0.000000 0.000000 0.000000
# 3 -0.000929 -0.004105 0.015066 0.000000 0.000000 0.000000
# 4 0.000000 0.000000 0.000000 0.297799 0.000000 0.000000
# 5 0.000000 0.000000 0.000000 0.000000 0.021831 0.000000
# 6 0.000000 0.000000 0.000000 0.000000 0.000000 0.036492
#
#
# Mechanical properties :
#
#
# Convention : Reuss Voigt Hill
#
# Bulk Modulus (GPa) = 42.50530 47.82001 45.16266
# Shear Modulus (GPa) = 12.15439 31.43344 21.79392
#
# Velocity S-wave (km/s) = 2.19587 3.53132 2.94041
# Velocity P-wave (km/s) = 4.82615 5.96641 5.42631
#
# Compressibility (1/GPa) = 0.02352648
#
# Stress axis : x y z
#
# Youngs Moduli (GPa) = 82.15549 121.49857 66.37675
#
# Poissons Ratio (x) = 0.11382 0.06167
# Poissons Ratio (y) = 0.07697 0.27247
# Poissons Ratio (z) = 0.07633 0.49874
#
# Static dielectric constant tensor:
#      x y z
#    x 1.915190 0.000000 0.000000 
#    y 0.000000 1.961310 0.000000 
#    z 0.000000 0.000000 1.980900 
# 
# From -- ./inp_files/1943.got.cif
#   From: 2010.05.17/outbox.cif.g08.bks.cpg/sg27_1_cif.got.tgz:1943.got - 2010.06.04 01:11:05.
