data_PCOD9339725
_publ_section_title
;
Structure prediction by ZEFSAII (Michael W. Deem and Ramdas Pophale) SiO2 
 PCOD9339725
Probable space group: P M A 2
;
_chemical_formula_sum "Si O2"
_cell_formula_units_Z 24
_cell_length_a 26.108472
_cell_length_b 5.089865
_cell_length_c 7.621005
_cell_angle_alpha 90.000000
_cell_angle_beta 90.000000
_cell_angle_gamma 90.000000
_cell_volume 1012.744669
_symmetry_space_group_name_H-M "P M A 2"
_symmetry_group_IT_number 28
_symmetry_cell_setting 'orthorhombic'
loop_
_space_group_symop_operation_xyz
x,y,z
-x,-y,z
1/2-x,y,z
1/2+x,-y,z
loop_
_atom_site_type_symbol
_atom_site_label
_atom_site_fract_x
_atom_site_fract_y
_atom_site_fract_z
Si Si1 0.250000 0.785479 0.805830
Si Si2 0.951640 0.806267 0.444172
Si Si3 0.861193 0.634016 0.031946
Si Si4 0.250000 0.272415 0.049923
Si Si5 0.600730 0.312780 0.328819
Si Si6 0.058614 0.062122 0.833712
Si Si7 0.356196 0.663858 0.688136
O O1 0.250000 0.513402 0.912879
O O2 0.302602 0.816337 0.701074
O O3 0.250000 0.999406 0.954023
O O4 0.945717 0.522758 0.355102
O O5 0.947860 0.764175 0.655236
O O6 0.908470 0.008348 0.372350
O O7 0.000000 0.000000 0.417556
O O8 0.877779 0.375958 0.138503
O O9 0.808182 0.718869 0.125897
O O10 0.910619 0.816679 0.997426
O O11 0.850253 0.568394 0.828092
O O12 0.636398 0.412171 0.487812
O O13 0.094318 0.826713 0.757776
O O14 0.000000 0.000000 0.886067
#
# Coordination Sequence:
#
# PCOD9339725 Si02
#       7
#     2   4   4   2   4   4   4
#     4  10  20  37  70  87 123 173 210 259 325 385
#     4  10  22  43  62  91 130 176 213 264 323 385
#     4  11  23  41  64  93 130 165 219 264 326 382
#     4  10  22  39  66  93 123 171 208 267 321 381
#     4  11  24  38  66  92 128 165 215 273 319 384
#     4  10  21  39  67  90 130 174 215 264 323 389
#     4  10  22  42  61  93 128 166 218 261 325 384
#
# _framework density 23.697975
#
# number of rings (size 3 to 8) (size 9 to 14) (size 15 to 20)
#    0.000    1.667    3.333    0.500    2.333    2.000 
#    3.000    0.000    0.000    6.000    0.000    0.000 
#    0.000    0.000    0.000    0.000    0.000    0.000 
#
# Total GULP energy -133685.905190 kJ/mol
# GULP energy per Si atom -5570.246050 kJ/mol
# Density = 2.364404 g / cm^3
# Si number density = 23.697975 Si / 1000 Ang^3
#
#
#
# Elastic Constant Matrix: (Units=GPa)
#
#
# Indices 1 2 3 4 5 6 
#
# 1 168.1820 13.0449 8.3892 0.0000 0.0000 0.0000
# 2 13.0449 100.0577 9.4237 0.0000 0.0000 0.0000
# 3 8.3892 9.4237 85.7171 0.0000 0.0000 0.0000
# 4 0.0000 0.0000 0.0000 34.8825 0.0000 0.0000
# 5 0.0000 0.0000 0.0000 0.0000 13.5569 0.0000
# 6 0.0000 0.0000 0.0000 0.0000 0.0000 23.4118
#
#
#
# Elastic Compliance Matrix: (Units=1/GPa)
#
#
# Indices 1 2 3 4 5 6 
#
# 1 0.006029 -0.000738 -0.000509 0.000000 0.000000 0.000000
# 2 -0.000738 0.010189 -0.001048 0.000000 0.000000 0.000000
# 3 -0.000509 -0.001048 0.011831 0.000000 0.000000 0.000000
# 4 0.000000 0.000000 0.000000 0.028668 0.000000 0.000000
# 5 0.000000 0.000000 0.000000 0.000000 0.073763 0.000000
# 6 0.000000 0.000000 0.000000 0.000000 0.000000 0.042713
#
#
# Mechanical properties :
#
#
# Convention : Reuss Voigt Hill
#
# Bulk Modulus (GPa) = 42.62710 46.18584 44.40647
# Shear Modulus (GPa) = 26.93924 35.91017 31.42471
#
# Velocity S-wave (km/s) = 3.37527 3.89694 3.64545
# Velocity P-wave (km/s) = 5.76338 6.30713 6.04138
#
# Compressibility (1/GPa) = 0.02345925
#
# Stress axis : x y z
#
# Youngs Moduli (GPa) = 165.87683 98.14358 84.52158
#
# Poissons Ratio (x) = 0.07243 0.04301
# Poissons Ratio (y) = 0.12242 0.08858
# Poissons Ratio (z) = 0.08441 0.10285
#
# Static dielectric constant tensor:
#      x y z
#    x 1.014380 0.000000 0.000000 
#    y 0.000000 1.952700 0.000000 
#    z 0.000000 0.000000 1.861570 
# 
# From -- ./inp_files/4177.got.cif
#   From: 2010.05.17/outbox.cif.g08.bks.cpg/sg28_3_cif.got.tgz:4177.got - 2010.06.04 01:15:21.
