data_PCOD9339370
_publ_section_title
;
Structure prediction by ZEFSAII (Michael W. Deem and Ramdas Pophale) SiO2 
 PCOD9339370
Probable space group: P M A 2
;
_chemical_formula_sum "Si O2"
_cell_formula_units_Z 32
_cell_length_a 8.715365
_cell_length_b 14.709666
_cell_length_c 15.993187
_cell_angle_alpha 90.000000
_cell_angle_beta 90.000000
_cell_angle_gamma 90.000000
_cell_volume 2050.328304
_symmetry_space_group_name_H-M "P M A 2"
_symmetry_group_IT_number 28
_symmetry_cell_setting 'orthorhombic'
loop_
_space_group_symop_operation_xyz
x,y,z
-x,-y,z
1/2-x,y,z
1/2+x,-y,z
loop_
_atom_site_type_symbol
_atom_site_label
_atom_site_fract_x
_atom_site_fract_y
_atom_site_fract_z
Si Si1 0.565269 0.290653 0.261190
Si Si2 0.433374 0.397903 0.918630
Si Si3 0.065869 0.397525 0.104734
Si Si4 0.434329 0.903877 0.519771
Si Si5 0.566502 0.601502 0.420184
Si Si6 0.064366 0.708333 0.579006
Si Si7 0.066318 0.602110 0.746976
Si Si8 0.065585 0.903801 0.325020
O O1 0.750000 0.295937 0.263448
O O2 0.503398 0.335056 0.176638
O O3 0.499001 0.346286 0.339610
O O4 0.519162 0.185328 0.273747
O O5 0.500000 0.500000 0.920103
O O6 0.250000 0.401076 0.910309
O O7 0.504269 0.357281 0.834340
O O8 0.470793 0.361236 0.011065
O O9 0.250000 0.402327 0.112625
O O10 0.000000 0.500000 0.112678
O O11 0.250000 0.909212 0.520880
O O12 0.480358 0.814058 0.570266
O O13 0.482298 0.891385 0.422395
O O14 0.500000 0.000000 0.549409
O O15 0.500000 0.500000 0.421245
O O16 0.750000 0.598815 0.416651
O O17 0.510918 0.653438 0.503126
O O18 0.250000 0.703043 0.569459
O O19 0.023684 0.662596 0.667063
O O20 0.250000 0.595468 0.751435
O O21 0.000000 0.500000 0.736790
O O22 0.250000 0.908600 0.324129
O O23 0.000000 0.000000 0.295509
#
# Coordination Sequence:
#
# PCOD9339370 Si02
#       8
#     4   4   4   4   4   4   4   4
#     4  11  21  35  51  70  97 129 161 198 240 284
#     4   9  17  30  48  68  95 124 157 199 240 279
#     4  10  20  33  49  72  98 129 163 200 240 284
#     4   9  17  32  50  69  94 122 157 199 242 284
#     4  12  24  35  48  66  94 132 168 199 232 279
#     4  10  20  35  50  69  98 129 161 200 240 283
#     4  10  19  30  48  70  96 128 161 197 238 282
#     4   9  18  32  51  70  93 123 156 198 242 283
#
# _framework density 15.607257000000001
#
# number of rings (size 3 to 8) (size 9 to 14) (size 15 to 20)
#    0.000    2.000    1.250    4.125    0.000    5.000 
#    0.000    0.000    0.000    0.000    0.000    0.875 
#    0.000    2.000    0.000    0.000    0.000    0.000 
#
# Total GULP energy -178495.866768 kJ/mol
# GULP energy per Si atom -5577.995836 kJ/mol
# Density = 1.557173 g / cm^3
# Si number density = 15.607257 Si / 1000 Ang^3
#
#
#
# Elastic Constant Matrix: (Units=GPa)
#
#
# Indices 1 2 3 4 5 6 
#
# 1 52.2780 39.9272 51.7205 0.0000 0.0000 0.0000
# 2 39.9272 129.9232 77.5609 0.0000 0.0000 0.0000
# 3 51.7205 77.5609 149.0130 0.0000 0.0000 0.0000
# 4 0.0000 0.0000 0.0000 4.0037 0.0000 0.0000
# 5 0.0000 0.0000 0.0000 0.0000 25.1014 0.0000
# 6 0.0000 0.0000 0.0000 0.0000 0.0000 23.3781
#
#
#
# Elastic Compliance Matrix: (Units=1/GPa)
#
#
# Indices 1 2 3 4 5 6 
#
# 1 0.030829 -0.004478 -0.008370 0.000000 0.000000 0.000000
# 2 -0.004478 0.011817 -0.004597 0.000000 0.000000 0.000000
# 3 -0.008370 -0.004597 0.012008 0.000000 0.000000 0.000000
# 4 0.000000 0.000000 0.000000 0.249767 0.000000 0.000000
# 5 0.000000 0.000000 0.000000 0.000000 0.039838 0.000000
# 6 0.000000 0.000000 0.000000 0.000000 0.000000 0.042775
#
#
# Mechanical properties :
#
#
# Convention : Reuss Voigt Hill
#
# Bulk Modulus (GPa) = 50.59118 74.40348 62.49733
# Shear Modulus (GPa) = 11.66833 21.29702 16.48267
#
# Velocity S-wave (km/s) = 2.73723 3.69800 3.25328
# Velocity P-wave (km/s) = 6.51732 8.12462 7.36495
#
# Compressibility (1/GPa) = 0.01976629
#
# Stress axis : x y z
#
# Youngs Moduli (GPa) = 32.43732 84.62450 83.27554
#
# Poissons Ratio (x) = 0.37891 0.69699
# Poissons Ratio (y) = 0.14524 0.38278
# Poissons Ratio (z) = 0.27149 0.38898
#
# Static dielectric constant tensor:
#      x y z
#    x 1.526990 0.000000 0.000000 
#    y 0.000000 1.500780 0.000000 
#    z 0.000000 0.000000 1.528890 
# 
# From -- ./inp_files/6435.got.cif
#   From: 2010.05.17/outbox.cif.g08.bks.cpg/sg28_4_cif.got.tgz:6435.got - 2010.06.04 01:15:21.
