data_PCOD9339765
_publ_section_title
;
Structure prediction by ZEFSAII (Michael W. Deem and Ramdas Pophale) SiO2 
 PCOD9339765
Probable space group: P M A 2
;
_chemical_formula_sum "Si O2"
_cell_formula_units_Z 24
_cell_length_a 17.953714
_cell_length_b 10.504697
_cell_length_c 5.289956
_cell_angle_alpha 90.000000
_cell_angle_beta 90.000000
_cell_angle_gamma 90.000000
_cell_volume 997.676844
_symmetry_space_group_name_H-M "P M A 2"
_symmetry_group_IT_number 28
_symmetry_cell_setting 'orthorhombic'
loop_
_space_group_symop_operation_xyz
x,y,z
-x,-y,z
1/2-x,y,z
1/2+x,-y,z
loop_
_atom_site_type_symbol
_atom_site_label
_atom_site_fract_x
_atom_site_fract_y
_atom_site_fract_z
Si Si1 0.604479 0.586719 0.426670
Si Si2 0.416551 0.552939 0.926691
Si Si3 0.169057 0.181643 0.680398
Si Si4 0.164511 0.918016 0.380633
Si Si5 0.564444 0.927698 0.024602
Si Si6 0.462396 0.748043 0.308620
O O1 0.616566 0.487393 0.657085
O O2 0.655072 0.709521 0.477320
O O3 0.518539 0.641584 0.419505
O O4 0.621217 0.522354 0.159517
O O5 0.500000 0.500000 0.914846
O O6 0.427965 0.693130 0.045769
O O7 0.250000 0.197501 0.798884
O O8 0.102303 0.186987 0.877507
O O9 0.164476 0.040021 0.565188
O O10 0.250000 0.877068 0.347407
O O11 0.107647 0.806078 0.457623
O O12 0.128078 0.978942 0.126949
O O13 0.500000 0.000000 0.870475
O O14 0.517628 0.864489 0.249969
#
# Coordination Sequence:
#
# PCOD9339765 Si02
#       6
#     4   4   4   4   4   4
#     4  11  22  39  64  93 126 166 217 267 325 380
#     4  10  21  39  62  95 125 161 214 276 321 377
#     4  11  23  38  60  91 128 172 215 270 332 398
#     4  10  22  41  60  91 133 170 214 270 337 401
#     4  10  21  36  61  92 124 168 216 268 329 397
#     4  10  21  40  65  96 125 170 221 273 335 397
#
# _framework density 24.055887999999999
#
# number of rings (size 3 to 8) (size 9 to 14) (size 15 to 20)
#    0.000    1.667    1.667    4.000    2.333    0.000 
#    3.000    1.667    0.000    0.000    0.000    4.667 
#    0.000    0.000    0.000    0.000    0.000    0.000 
#
# Total GULP energy -134036.445357 kJ/mol
# GULP energy per Si atom -5584.851890 kJ/mol
# Density = 2.400114 g / cm^3
# Si number density = 24.055888 Si / 1000 Ang^3
#
#
#
# Elastic Constant Matrix: (Units=GPa)
#
#
# Indices 1 2 3 4 5 6 
#
# 1 124.2832 24.3334 18.1904 0.0000 0.0000 0.0000
# 2 24.3334 101.5548 19.5628 0.0000 0.0000 0.0000
# 3 18.1904 19.5628 92.0675 0.0000 0.0000 0.0000
# 4 0.0000 0.0000 0.0000 33.6842 0.0000 0.0000
# 5 0.0000 0.0000 0.0000 0.0000 17.4855 0.0000
# 6 0.0000 0.0000 0.0000 0.0000 0.0000 6.5155
#
#
#
# Elastic Compliance Matrix: (Units=1/GPa)
#
#
# Indices 1 2 3 4 5 6 
#
# 1 0.008592 -0.001806 -0.001314 0.000000 0.000000 0.000000
# 2 -0.001806 0.010647 -0.001905 0.000000 0.000000 0.000000
# 3 -0.001314 -0.001905 0.011526 0.000000 0.000000 0.000000
# 4 0.000000 0.000000 0.000000 0.029688 0.000000 0.000000
# 5 0.000000 0.000000 0.000000 0.000000 0.057190 0.000000
# 6 0.000000 0.000000 0.000000 0.000000 0.000000 0.153479
#
#
# Mechanical properties :
#
#
# Convention : Reuss Voigt Hill
#
# Bulk Modulus (GPa) = 48.27501 49.11985 48.69743
# Shear Modulus (GPa) = 17.35649 28.59163 22.97406
#
# Velocity S-wave (km/s) = 2.68900 3.45128 3.09371
# Velocity P-wave (km/s) = 5.45458 6.02869 5.74881
#
# Compressibility (1/GPa) = 0.02071465
#
# Stress axis : x y z
#
# Youngs Moduli (GPa) = 116.38781 93.92669 86.75976
#
# Poissons Ratio (x) = 0.16959 0.11399
# Poissons Ratio (y) = 0.21015 0.16532
# Poissons Ratio (z) = 0.15292 0.17898
#
# Static dielectric constant tensor:
#      x y z
#    x 1.912610 0.000000 0.000000 
#    y 0.000000 2.024120 0.000000 
#    z 0.000000 0.000000 2.000770 
# 
# From -- ./inp_files/1124.got.cif
#   From: 2010.05.17/outbox.cif.g08.bks.cpg/sg28_1_cif.got.tgz:1124.got - 2010.06.04 01:15:21.
