data_PCOD9339085
_publ_section_title
;
Structure prediction by ZEFSAII (Michael W. Deem and Ramdas Pophale) SiO2 
 PCOD9339085
Probable space group: P C C 2
;
_chemical_formula_sum "Si O2"
_cell_formula_units_Z 18
_cell_length_a 5.731948
_cell_length_b 5.245126
_cell_length_c 24.720808
_cell_angle_alpha 90.000000
_cell_angle_beta 90.000000
_cell_angle_gamma 90.000000
_cell_volume 743.225888
_symmetry_space_group_name_H-M "P C C 2"
_symmetry_group_IT_number 27
_symmetry_cell_setting 'orthorhombic'
loop_
_space_group_symop_operation_xyz
x,y,z
-x,-y,z
-x,y,1/2+z
x,-y,1/2+z
loop_
_atom_site_type_symbol
_atom_site_label
_atom_site_fract_x
_atom_site_fract_y
_atom_site_fract_z
Si Si1 0.846199 0.742898 0.934700
Si Si2 0.363108 0.752139 0.547262
Si Si3 0.749532 0.848623 0.816382
Si Si4 0.347225 0.257545 0.699452
Si Si5 0.000000 0.000000 0.617530
O O1 0.754450 0.705551 0.873863
O O2 0.000000 0.500000 0.949266
O O3 0.661610 0.763829 0.982553
O O4 0.000000 0.000000 0.935384
O O5 0.500000 0.500000 0.561364
O O6 0.500000 0.000000 0.566338
O O7 0.121835 0.798171 0.577366
O O8 0.743761 0.692331 0.760536
O O9 0.500000 0.000000 0.818034
O O10 0.000000 0.000000 0.814399
O O11 0.500000 0.500000 0.683133
O O12 0.150006 0.176840 0.657672
O O13 0.500000 0.000000 0.702863
#
# Coordination Sequence:
#
# PCOD9339085 Si02
#       5
#     4   4   4   4   2
#     4  11  24  47  78 114 154 199 254 327 404 481
#     4  12  28  48  80 114 152 207 266 326 403 478
#     4  10  23  48  82 118 160 206 264 331 409 488
#     4  11  27  50  78 113 152 209 266 326 404 479
#     4  12  28  54  76 112 162 214 266 352 386 496
#
# _framework density 24.218748999999999
#
# number of rings (size 3 to 8) (size 9 to 14) (size 15 to 20)
#    0.000    0.889    2.222    2.667    0.000   16.000 
#    0.000    0.000    0.000    0.000    0.000    0.000 
#    0.000    0.000    0.000    0.000    0.000    0.000 
#
# Total GULP energy -100741.555795 kJ/mol
# GULP energy per Si atom -5596.753100 kJ/mol
# Density = 2.416363 g / cm^3
# Si number density = 24.218749 Si / 1000 Ang^3
#
#
#
# Elastic Constant Matrix: (Units=GPa)
#
#
# Indices 1 2 3 4 5 6 
#
# 1 98.5338 49.7004 38.3504 0.0000 0.0000 0.0000
# 2 49.7004 166.7198 28.5631 0.0000 0.0000 0.0000
# 3 38.3504 28.5631 190.2313 0.0000 0.0000 0.0000
# 4 0.0000 0.0000 0.0000 -10.1966 0.0000 0.0000
# 5 0.0000 0.0000 0.0000 0.0000 48.7152 0.0000
# 6 0.0000 0.0000 0.0000 0.0000 0.0000 50.8862
#
#
#
# Elastic Compliance Matrix: (Units=1/GPa)
#
#
# Indices 1 2 3 4 5 6 
#
# 1 0.012672 -0.003428 -0.002040 0.000000 0.000000 0.000000
# 2 -0.003428 0.007084 -0.000373 0.000000 0.000000 0.000000
# 3 -0.002040 -0.000373 0.005724 0.000000 0.000000 0.000000
# 4 0.000000 0.000000 0.000000 -0.098072 0.000000 0.000000
# 5 0.000000 0.000000 0.000000 0.000000 0.020527 0.000000
# 6 0.000000 0.000000 0.000000 0.000000 0.000000 0.019652
#
#
# Mechanical properties :
#
#
# Convention : Reuss Voigt Hill
#
# Bulk Modulus (GPa) = 72.47115 76.52363 74.49739
# Shear Modulus (GPa) = -309.93259 40.47236 -134.73011
#
# Velocity S-wave (km/s) = -11.32475 4.09236 -7.46668
# Velocity P-wave (km/s) = 11.87482 7.34815 6.59606
#
# Compressibility (1/GPa) = 0.01379859
#
# Stress axis : x y z
#
# Youngs Moduli (GPa) = 78.91490 141.16620 174.70487
#
# Poissons Ratio (x) = 0.48393 0.35638
# Poissons Ratio (y) = 0.27053 0.06508
# Poissons Ratio (z) = 0.16098 0.05259
#
# Static dielectric constant tensor:
#      x y z
#    x 1.970790 0.000000 0.000000 
#    y 0.000000 1.861640 0.000000 
#    z 0.000000 0.000000 1.914430 
# 
# From -- ./inp_files/5161.got.cif
#   From: 2010.05.17/outbox.cif.g08.bks.cpg/sg27_3_cif.got.tgz:5161.got - 2010.06.04 01:11:05.
