data_PCOD9339161
_publ_section_title
;
Structure prediction by ZEFSAII (Michael W. Deem and Ramdas Pophale) SiO2 
 PCOD9339161
Probable space group: P C C 2
;
_chemical_formula_sum "Si O2"
_cell_formula_units_Z 24
_cell_length_a 14.453012
_cell_length_b 4.999219
_cell_length_c 16.545776
_cell_angle_alpha 90.000000
_cell_angle_beta 90.000000
_cell_angle_gamma 90.000000
_cell_volume 1195.494730
_symmetry_space_group_name_H-M "P C C 2"
_symmetry_group_IT_number 27
_symmetry_cell_setting 'orthorhombic'
loop_
_space_group_symop_operation_xyz
x,y,z
-x,-y,z
-x,y,1/2+z
x,-y,1/2+z
loop_
_atom_site_type_symbol
_atom_site_label
_atom_site_fract_x
_atom_site_fract_y
_atom_site_fract_z
Si Si1 0.500000 0.000000 0.210060
Si Si2 0.935901 0.744395 0.044512
Si Si3 0.292212 0.892240 0.255410
Si Si4 0.500000 0.500000 0.096303
Si Si5 0.219195 0.607314 0.660953
Si Si6 0.679543 0.644735 0.506718
Si Si7 0.240002 0.839813 0.432732
O O1 0.405302 0.908571 0.256079
O O2 0.528016 0.745940 0.154413
O O3 0.884033 0.663378 0.128056
O O4 0.859661 0.805009 0.974948
O O5 0.000000 0.500000 0.018243
O O6 0.000000 0.000000 0.057203
O O7 0.248667 0.609415 0.227834
O O8 0.247368 0.949489 0.342331
O O9 0.259795 0.111801 0.190401
O O10 0.423354 0.617592 0.037374
O O11 0.263925 0.478058 0.581282
O O12 0.706846 0.443926 0.434868
O O13 0.706722 0.945027 0.487647
#
# Coordination Sequence:
#
# PCOD9339161 Si02
#       7
#     2   4   4   2   4   4   4
#     4  12  22  38  62  96 134 178 218 262 310 372
#     4  11  23  44  69  95 123 167 222 277 329 394
#     4  12  23  41  63  98 136 174 210 260 327 381
#     4  12  22  36  64  94 124 174 232 270 286 372
#     4  11  22  41  66  91 125 167 216 267 319 388
#     4  11  21  40  61  91 124 173 222 257 314 373
#     4  11  25  41  64  94 133 171 205 271 337 386
#
# _framework density 20.075372000000002
#
# number of rings (size 3 to 8) (size 9 to 14) (size 15 to 20)
#    0.000    0.667    3.333    7.000    0.000    1.333 
#    0.000    5.000    0.000    0.000    0.000    0.000 
#    0.000    0.000    0.000    0.000    0.000    0.000 
#
# Total GULP energy -133936.778694 kJ/mol
# GULP energy per Si atom -5580.699112 kJ/mol
# Density = 2.002968 g / cm^3
# Si number density = 20.075372 Si / 1000 Ang^3
#
#
#
# Elastic Constant Matrix: (Units=GPa)
#
#
# Indices 1 2 3 4 5 6 
#
# 1 145.7527 50.0435 37.8402 0.0000 0.0000 0.0000
# 2 50.0435 114.9132 11.7991 0.0000 0.0000 0.0000
# 3 37.8402 11.7991 70.0470 0.0000 0.0000 0.0000
# 4 0.0000 0.0000 0.0000 23.2551 0.0000 0.0000
# 5 0.0000 0.0000 0.0000 0.0000 -18.0030 0.0000
# 6 0.0000 0.0000 0.0000 0.0000 0.0000 32.0641
#
#
#
# Elastic Compliance Matrix: (Units=1/GPa)
#
#
# Indices 1 2 3 4 5 6 
#
# 1 0.009223 -0.003567 -0.004382 0.000000 0.000000 0.000000
# 2 -0.003567 0.010235 0.000203 0.000000 0.000000 0.000000
# 3 -0.004382 0.000203 0.016609 0.000000 0.000000 0.000000
# 4 0.000000 0.000000 0.000000 0.043001 0.000000 0.000000
# 5 0.000000 0.000000 0.000000 0.000000 -0.055546 0.000000
# 6 0.000000 0.000000 0.000000 0.000000 0.000000 0.031188
#
#
# Mechanical properties :
#
#
# Convention : Reuss Voigt Hill
#
# Bulk Modulus (GPa) = 48.60110 58.89762 53.74936
# Shear Modulus (GPa) = 64.88558 22.86526 43.87542
#
# Velocity S-wave (km/s) = 5.69132 3.37853 4.68004
# Velocity P-wave (km/s) = 8.21280 6.67991 7.48569
#
# Compressibility (1/GPa) = 0.02057567
#
# Stress axis : x y z
#
# Youngs Moduli (GPa) = 108.42352 97.70738 60.20836
#
# Poissons Ratio (x) = 0.34849 0.26381
# Poissons Ratio (y) = 0.38671 -0.01221
# Poissons Ratio (z) = 0.47507 -0.01981
#
# Static dielectric constant tensor:
#      x y z
#    x 1.781940 0.000000 0.000000 
#    y 0.000000 1.831820 0.000000 
#    z 0.000000 0.000000 1.773260 
# 
# From -- ./inp_files/3718.got.cif
#   From: 2010.05.17/outbox.cif.g08.bks.cpg/sg27_2_cif.got.tgz:3718.got - 2010.06.04 01:11:05.
