data_PCOD9339946
_publ_section_title
;
Structure prediction by ZEFSAII (Michael W. Deem and Ramdas Pophale) SiO2 
 PCOD9339946
Probable space group: P M A 2
;
_chemical_formula_sum "Si O2"
_cell_formula_units_Z 20
_cell_length_a 28.516288
_cell_length_b 5.079344
_cell_length_c 5.270331
_cell_angle_alpha 90.000000
_cell_angle_beta 90.000000
_cell_angle_gamma 90.000000
_cell_volume 763.376015
_symmetry_space_group_name_H-M "P M A 2"
_symmetry_group_IT_number 28
_symmetry_cell_setting 'orthorhombic'
loop_
_space_group_symop_operation_xyz
x,y,z
-x,-y,z
1/2-x,y,z
1/2+x,-y,z
loop_
_atom_site_type_symbol
_atom_site_label
_atom_site_fract_x
_atom_site_fract_y
_atom_site_fract_z
Si Si1 0.173506 0.361045 0.208650
Si Si2 0.800754 0.123099 0.906844
Si Si3 0.075580 0.084243 0.221045
Si Si4 0.044715 0.320101 0.729103
Si Si5 0.627704 0.313890 0.566132
O O1 0.118830 0.285080 0.192477
O O2 0.171474 0.503287 0.480200
O O3 0.197750 0.091150 0.132059
O O4 0.191977 0.589147 0.026297
O O5 0.750000 0.100040 0.779771
O O6 0.846480 0.088115 0.729566
O O7 0.043293 0.188098 0.450821
O O8 0.100371 0.823268 0.331595
O O9 0.051278 0.102694 0.948879
O O10 0.089637 0.514689 0.712812
O O11 0.000000 0.500000 0.779718
#
# Coordination Sequence:
#
# PCOD9339946 Si02
#       5
#     4   4   4   4   4
#     4  11  24  47  72 107 151 202 256 318 395 470
#     4  12  26  46  74 112 153 204 268 334 401 479
#     4  11  23  46  78 108 157 208 259 320 402 475
#     4  11  25  46  77 120 159 207 268 330 399 483
#     4  11  26  47  77 108 158 213 259 333 404 479
#
# _framework density 26.199407999999998
#
# number of rings (size 3 to 8) (size 9 to 14) (size 15 to 20)
#    0.000    0.800    4.000    2.400    2.800    2.400 
#    0.000    6.000    0.000    0.000    0.000    0.000 
#    0.000    0.000    0.000    0.000    0.000    0.000 
#
# Total GULP energy -111894.891550 kJ/mol
# GULP energy per Si atom -5594.744578 kJ/mol
# Density = 2.613978 g / cm^3
# Si number density = 26.199408 Si / 1000 Ang^3
#
#
#
# Elastic Constant Matrix: (Units=GPa)
#
#
# Indices 1 2 3 4 5 6 
#
# 1 117.5086 29.3903 51.0972 0.0000 0.0000 0.0000
# 2 29.3903 144.2138 41.8703 0.0000 0.0000 0.0000
# 3 51.0972 41.8703 142.5185 0.0000 0.0000 0.0000
# 4 0.0000 0.0000 0.0000 13.4214 0.0000 0.0000
# 5 0.0000 0.0000 0.0000 0.0000 13.1391 0.0000
# 6 0.0000 0.0000 0.0000 0.0000 0.0000 4.6858
#
#
#
# Elastic Compliance Matrix: (Units=1/GPa)
#
#
# Indices 1 2 3 4 5 6 
#
# 1 0.010244 -0.001117 -0.003345 0.000000 0.000000 0.000000
# 2 -0.001117 0.007702 -0.001863 0.000000 0.000000 0.000000
# 3 -0.003345 -0.001863 0.008763 0.000000 0.000000 0.000000
# 4 0.000000 0.000000 0.000000 0.074508 0.000000 0.000000
# 5 0.000000 0.000000 0.000000 0.000000 0.076109 0.000000
# 6 0.000000 0.000000 0.000000 0.000000 0.000000 0.213412
#
#
# Mechanical properties :
#
#
# Convention : Reuss Voigt Hill
#
# Bulk Modulus (GPa) = 71.11575 72.10628 71.61101
# Shear Modulus (GPa) = 12.25273 25.04146 18.64710
#
# Velocity S-wave (km/s) = 2.16492 3.09496 2.67073
# Velocity P-wave (km/s) = 5.78378 6.35244 6.07477
#
# Compressibility (1/GPa) = 0.01406158
#
# Stress axis : x y z
#
# Youngs Moduli (GPa) = 97.62145 129.82847 114.11634
#
# Poissons Ratio (x) = 0.14496 0.38168
# Poissons Ratio (y) = 0.10900 0.21255
# Poissons Ratio (z) = 0.32651 0.24182
#
# Static dielectric constant tensor:
#      x y z
#    x 2.154740 0.000000 0.000000 
#    y 0.000000 2.070220 0.000000 
#    z 0.000000 0.000000 2.125340 
# 
# From -- ./inp_files/1826.got.cif
#   From: 2010.05.17/outbox.cif.g08.bks.cpg/sg28_1_cif.got.tgz:1826.got - 2010.06.04 01:15:21.
