data_PCOD9339667
_publ_section_title
;
Structure prediction by ZEFSAII (Michael W. Deem and Ramdas Pophale) SiO2 
 PCOD9339667
Probable space group: P M A 2
;
_chemical_formula_sum "Si O2"
_cell_formula_units_Z 24
_cell_length_a 8.895699
_cell_length_b 16.168919
_cell_length_c 9.616871
_cell_angle_alpha 90.000000
_cell_angle_beta 90.000000
_cell_angle_gamma 90.000000
_cell_volume 1383.231452
_symmetry_space_group_name_H-M "P M A 2"
_symmetry_group_IT_number 28
_symmetry_cell_setting 'orthorhombic'
loop_
_space_group_symop_operation_xyz
x,y,z
-x,-y,z
1/2-x,y,z
1/2+x,-y,z
loop_
_atom_site_type_symbol
_atom_site_label
_atom_site_fract_x
_atom_site_fract_y
_atom_site_fract_z
Si Si1 0.922076 0.916891 0.553500
Si Si2 0.424515 0.085894 0.214613
Si Si3 0.069005 0.411460 0.052716
Si Si4 0.070314 0.413861 0.726520
Si Si5 0.569773 0.260201 0.224169
Si Si6 0.933557 0.737670 0.531687
O O1 0.750000 0.921092 0.596794
O O2 0.927758 0.916449 0.384217
O O3 0.982315 0.826683 0.593176
O O4 0.000000 0.000000 0.603046
O O5 0.250000 0.089969 0.173034
O O6 0.510026 0.170067 0.174654
O O7 0.500000 0.000000 0.167139
O O8 0.250000 0.412476 0.069087
O O9 0.000000 0.500000 0.097366
O O10 0.997929 0.334954 0.134560
O O11 0.032160 0.401733 0.888767
O O12 0.250000 0.420475 0.718186
O O13 0.024163 0.337056 0.631926
O O14 0.000000 0.500000 0.678620
O O15 0.750000 0.261265 0.222922
O O16 0.507193 0.271384 0.380827
O O17 0.750000 0.739919 0.516146
#
# Coordination Sequence:
#
# PCOD9339667 Si02
#       6
#     4   4   4   4   4   4
#     4   8  14  24  41  64  93 125 156 190 233 281
#     4   9  16  28  46  70 100 133 166 205 248 294
#     4  10  20  36  55  74  96 128 167 208 253 304
#     4   9  19  35  55  74  95 126 164 203 249 301
#     4  11  21  32  49  76 105 135 169 207 248 293
#     4   9  18  33  50  72 101 131 162 203 251 297
#
# _framework density 17.350674999999999
#
# number of rings (size 3 to 8) (size 9 to 14) (size 15 to 20)
#    0.000    2.667    0.000    3.500    0.000    6.000 
#    0.000    1.667    0.000    1.000    0.000    2.333 
#    0.000    0.000    0.000    0.000    0.000    0.000 
#
# Total GULP energy -133747.870415 kJ/mol
# GULP energy per Si atom -5572.827934 kJ/mol
# Density = 1.731118 g / cm^3
# Si number density = 17.350675 Si / 1000 Ang^3
#
#
#
# Elastic Constant Matrix: (Units=GPa)
#
#
# Indices 1 2 3 4 5 6 
#
# 1 79.8123 76.6960 28.9818 0.0000 0.0000 0.0000
# 2 76.6960 226.2460 67.9904 0.0000 0.0000 0.0000
# 3 28.9818 67.9904 33.4071 0.0000 0.0000 0.0000
# 4 0.0000 0.0000 0.0000 -16.3518 0.0000 0.0000
# 5 0.0000 0.0000 0.0000 0.0000 11.0883 0.0000
# 6 0.0000 0.0000 0.0000 0.0000 0.0000 36.2227
#
#
#
# Elastic Compliance Matrix: (Units=1/GPa)
#
#
# Indices 1 2 3 4 5 6 
#
# 1 0.019570 -0.003945 -0.008949 0.000000 0.000000 0.000000
# 2 -0.003945 0.012175 -0.021357 0.000000 0.000000 0.000000
# 3 -0.008949 -0.021357 0.081164 0.000000 0.000000 0.000000
# 4 0.000000 0.000000 0.000000 -0.061155 0.000000 0.000000
# 5 0.000000 0.000000 0.000000 0.000000 0.090185 0.000000
# 6 0.000000 0.000000 0.000000 0.000000 0.000000 0.027607
#
#
# Mechanical properties :
#
#
# Convention : Reuss Voigt Hill
#
# Bulk Modulus (GPa) = 22.51912 76.31131 49.41521
# Shear Modulus (GPa) = 19.77455 17.24498 18.50977
#
# Velocity S-wave (km/s) = 3.37961 3.15605 3.26974
# Velocity P-wave (km/s) = 5.31375 7.57351 6.54195
#
# Compressibility (1/GPa) = 0.04440671
#
# Stress axis : x y z
#
# Youngs Moduli (GPa) = 51.09947 82.13309 12.32076
#
# Poissons Ratio (x) = 0.32399 0.11026
# Poissons Ratio (y) = 0.20157 0.26314
# Poissons Ratio (z) = 0.45730 1.75414
#
# Static dielectric constant tensor:
#      x y z
#    x 1.586970 0.000000 0.000000 
#    y 0.000000 1.603130 0.000000 
#    z 0.000000 0.000000 1.570130 
# 
# From -- ./inp_files/2551.got.cif
#   From: 2010.05.17/outbox.cif.g08.bks.cpg/sg28_2_cif.got.tgz:2551.got - 2010.06.04 01:15:21.
