data_PCOD9339990
_publ_section_title
;
Structure prediction by ZEFSAII (Michael W. Deem and Ramdas Pophale) SiO2 
 PCOD9339990
Probable space group: P C A 21
;
_chemical_formula_sum "Si O2"
_cell_formula_units_Z 28
_cell_length_a 5.414386
_cell_length_b 7.009128
_cell_length_c 29.956267
_cell_angle_alpha 90.000000
_cell_angle_beta 90.000000
_cell_angle_gamma 90.000000
_cell_volume 1136.844063
_symmetry_space_group_name_H-M "P C A 21"
_symmetry_group_IT_number 29
_symmetry_cell_setting 'orthorhombic'
loop_
_space_group_symop_operation_xyz
x,y,z
-x,-y,1/2+z
1/2-x,y,1/2+z
1/2+x,-y,z
loop_
_atom_site_type_symbol
_atom_site_label
_atom_site_fract_x
_atom_site_fract_y
_atom_site_fract_z
Si Si1 0.589331 0.729478 0.412750
Si Si2 0.522423 0.626335 0.143954
Si Si3 0.090408 0.217993 0.515221
Si Si4 0.589948 0.215236 0.550264
Si Si5 0.420350 0.729213 0.241820
Si Si6 0.089077 0.703390 0.378407
Si Si7 0.920388 0.704750 0.276705
O O1 0.520375 0.768958 0.463624
O O2 0.360895 0.791412 0.381886
O O3 0.619146 0.504036 0.401510
O O4 0.864012 0.806151 0.403475
O O5 0.786846 0.518678 0.142868
O O6 0.492715 0.761519 0.101143
O O7 0.497737 0.738616 0.190456
O O8 0.365064 0.300500 0.521377
O O9 0.862808 0.300582 0.543519
O O10 0.119552 0.001341 0.532986
O O11 0.649324 0.794253 0.272267
O O12 0.389158 0.504431 0.254722
O O13 0.145751 0.804736 0.250906
O O14 0.003821 0.680961 0.327591
#
# Coordination Sequence:
#
# PCOD9339990 Si02
#       7
#     4   4   4   4   4   4   4
#     4  10  18  32  50  75 109 144 186 230 276 326
#     4  12  21  37  52  86 120 145 189 234 299 327
#     4  10  21  42  59  74 105 150 203 239 281 334
#     4  10  23  40  59  77 105 150 200 240 283 346
#     4  10  16  27  46  70 108 157 171 208 265 336
#     4  10  19  30  48  82 118 150 175 224 285 329
#     4  10  16  28  46  70 115 158 172 199 273 344
#
# _framework density 24.629584000000001
#
# number of rings (size 3 to 8) (size 9 to 14) (size 15 to 20)
#    0.000    1.714    2.857    6.000    0.000    0.000 
#   15.429    0.000    0.000    0.000    0.000    0.000 
#    0.000  155.429    0.000    0.000    0.000    0.000 
#
# Total GULP energy -156470.897131 kJ/mol
# GULP energy per Si atom -5588.246326 kJ/mol
# Density = 2.457353 g / cm^3
# Si number density = 24.629584 Si / 1000 Ang^3
#
#
#
# Elastic Constant Matrix: (Units=GPa)
#
#
# Indices 1 2 3 4 5 6 
#
# 1 185.9746 -29.4255 -30.3334 0.0000 0.0000 0.0000
# 2 -29.4255 94.4240 -17.7827 0.0000 0.0000 0.0000
# 3 -30.3334 -17.7827 117.8527 0.0000 0.0000 0.0000
# 4 0.0000 0.0000 0.0000 2.3527 0.0000 0.0000
# 5 0.0000 0.0000 0.0000 0.0000 49.3738 0.0000
# 6 0.0000 0.0000 0.0000 0.0000 0.0000 -47.3495
#
#
#
# Elastic Compliance Matrix: (Units=1/GPa)
#
#
# Indices 1 2 3 4 5 6 
#
# 1 0.006040 0.002239 0.001892 0.000000 0.000000 0.000000
# 2 0.002239 0.011730 0.002346 0.000000 0.000000 0.000000
# 3 0.001892 0.002346 0.009326 0.000000 0.000000 0.000000
# 4 0.000000 0.000000 0.000000 0.425050 0.000000 0.000000
# 5 0.000000 0.000000 0.000000 0.000000 0.020254 0.000000
# 6 0.000000 0.000000 0.000000 0.000000 0.000000 -0.021120
#
#
# Mechanical properties :
#
#
# Convention : Reuss Voigt Hill
#
# Bulk Modulus (GPa) = 24.96856 27.01867 25.99362
# Shear Modulus (GPa) = 11.06988 32.59492 21.83240
#
# Velocity S-wave (km/s) = 2.12233 3.64181 2.98053
# Velocity P-wave (km/s) = 4.02062 5.35514 4.73513
#
# Compressibility (1/GPa) = 0.04005037
#
# Stress axis : x y z
#
# Youngs Moduli (GPa) = 165.56468 85.25151 107.22442
#
# Poissons Ratio (x) = -0.19085 -0.20291
# Poissons Ratio (y) = -0.37064 -0.25156
# Poissons Ratio (z) = -0.31331 -0.20001
#
# Static dielectric constant tensor:
#      x y z
#    x 2.070020 0.000000 0.000000 
#    y 0.000000 1.942730 0.000000 
#    z 0.000000 0.000000 1.900220 
# 
# From -- ./inp_files/5636.got.cif
#   From: 2010.05.17/outbox.cif.g08.bks.cpg/sg29_3_cif.got.tgz:5636.got - 2010.06.04 01:19:37.
