data_PCOD9339733
_publ_section_title
;
Structure prediction by ZEFSAII (Michael W. Deem and Ramdas Pophale) SiO2 
 PCOD9339733
Probable space group: P M A 2
;
_chemical_formula_sum "Si O2"
_cell_formula_units_Z 28
_cell_length_a 19.940347
_cell_length_b 5.405013
_cell_length_c 11.678672
_cell_angle_alpha 90.000000
_cell_angle_beta 90.000000
_cell_angle_gamma 90.000000
_cell_volume 1258.701981
_symmetry_space_group_name_H-M "P M A 2"
_symmetry_group_IT_number 28
_symmetry_cell_setting 'orthorhombic'
loop_
_space_group_symop_operation_xyz
x,y,z
-x,-y,z
1/2-x,y,z
1/2+x,-y,z
loop_
_atom_site_type_symbol
_atom_site_label
_atom_site_fract_x
_atom_site_fract_y
_atom_site_fract_z
Si Si1 0.175053 0.465807 0.228020
Si Si2 0.462726 0.252375 0.225222
Si Si3 0.434328 0.111026 0.975905
Si Si4 0.827339 0.630624 0.814520
Si Si5 0.169369 0.819770 0.423299
Si Si6 0.331210 0.319808 0.546942
Si Si7 0.177400 0.740477 0.002081
O O1 0.250000 0.382127 0.263330
O O2 0.115445 0.280978 0.256735
O O3 0.160885 0.727859 0.291695
O O4 0.176269 0.515585 0.092494
O O5 0.500000 0.500000 0.266068
O O6 0.500000 0.000000 0.260736
O O7 0.461682 0.255812 0.086066
O O8 0.384884 0.241687 0.888464
O O9 0.500000 0.000000 0.916626
O O10 0.386718 0.900445 0.028207
O O11 0.750000 0.721829 0.830424
O O12 0.844449 0.661991 0.682125
O O13 0.825880 0.357495 0.871942
O O14 0.250000 0.833102 0.437449
O O15 0.144561 0.574400 0.489834
O O16 0.143946 0.070436 0.483592
O O17 0.250000 0.321106 0.536998
O O18 0.250000 0.864198 0.021253
#
# Coordination Sequence:
#
# PCOD9339733 Si02
#       7
#     4   4   4   4   4   4   4
#     4  10  20  38  64  93 127 163 211 272 319 371
#     4  11  24  41  60  87 129 174 210 251 320 402
#     4  11  23  35  58  84 124 168 206 251 307 386
#     4  10  21  36  58  86 121 159 203 260 315 368
#     4   9  19  35  57  87 117 155 203 254 306 357
#     4   9  19  35  56  83 119 159 201 248 305 366
#     4  10  21  37  58  92 127 161 206 259 322 378
#
# _framework density 22.245138000000001
#
# number of rings (size 3 to 8) (size 9 to 14) (size 15 to 20)
#    0.000    2.000    1.429    2.143    2.000    2.857 
#    0.000    5.000    0.000    2.571    0.000    0.000 
#    0.000    0.000    0.000    0.000    0.000    0.000 
#
# Total GULP energy -156216.725372 kJ/mol
# GULP energy per Si atom -5579.168763 kJ/mol
# Density = 2.219451 g / cm^3
# Si number density = 22.245138 Si / 1000 Ang^3
#
#
#
# Elastic Constant Matrix: (Units=GPa)
#
#
# Indices 1 2 3 4 5 6 
#
# 1 123.2605 43.8790 -1.3764 0.0000 0.0000 0.0000
# 2 43.8790 117.3572 37.0050 0.0000 0.0000 0.0000
# 3 -1.3764 37.0050 102.5991 0.0000 0.0000 0.0000
# 4 0.0000 0.0000 0.0000 22.5961 0.0000 0.0000
# 5 0.0000 0.0000 0.0000 0.0000 8.6350 0.0000
# 6 0.0000 0.0000 0.0000 0.0000 0.0000 0.4275
#
#
#
# Elastic Compliance Matrix: (Units=1/GPa)
#
#
# Indices 1 2 3 4 5 6 
#
# 1 0.009587 -0.004090 0.001604 0.000000 0.000000 0.000000
# 2 -0.004090 0.011359 -0.004152 0.000000 0.000000 0.000000
# 3 0.001604 -0.004152 0.011266 0.000000 0.000000 0.000000
# 4 0.000000 0.000000 0.000000 0.044256 0.000000 0.000000
# 5 0.000000 0.000000 0.000000 0.000000 0.115808 0.000000
# 6 0.000000 0.000000 0.000000 0.000000 0.000000 2.339396
#
#
# Mechanical properties :
#
#
# Convention : Reuss Voigt Hill
#
# Bulk Modulus (GPa) = 52.81105 55.80357 54.30731
# Shear Modulus (GPa) = 1.95982 23.91232 12.93607
#
# Velocity S-wave (km/s) = 0.93964 3.28219 2.41410
# Velocity P-wave (km/s) = 4.99692 6.28521 5.67773
#
# Compressibility (1/GPa) = 0.01893543
#
# Stress axis : x y z
#
# Youngs Moduli (GPa) = 104.30954 88.03229 88.76509
#
# Poissons Ratio (x) = 0.36007 -0.14236
# Poissons Ratio (y) = 0.42664 0.36855
# Poissons Ratio (z) = -0.16730 0.36551
#
# Static dielectric constant tensor:
#      x y z
#    x 1.816510 0.000000 0.000000 
#    y 0.000000 1.920420 0.000000 
#    z 0.000000 0.000000 1.809160 
# 
# From -- ./inp_files/5784.got.cif
#   From: 2010.05.17/outbox.cif.g08.bks.cpg/sg28_3_cif.got.tgz:5784.got - 2010.06.04 01:15:21.
