data_PCOD9339113
_publ_section_title
;
Structure prediction by ZEFSAII (Michael W. Deem and Ramdas Pophale) SiO2 
 PCOD9339113
Probable space group: P C C 2
;
_chemical_formula_sum "Si O2"
_cell_formula_units_Z 32
_cell_length_a 13.533316
_cell_length_b 8.982276
_cell_length_c 11.352800
_cell_angle_alpha 90.000000
_cell_angle_beta 90.000000
_cell_angle_gamma 90.000000
_cell_volume 1380.046135
_symmetry_space_group_name_H-M "P C C 2"
_symmetry_group_IT_number 27
_symmetry_cell_setting 'orthorhombic'
loop_
_space_group_symop_operation_xyz
x,y,z
-x,-y,z
-x,y,1/2+z
x,-y,1/2+z
loop_
_atom_site_type_symbol
_atom_site_label
_atom_site_fract_x
_atom_site_fract_y
_atom_site_fract_z
Si Si1 0.174313 0.735108 0.996430
Si Si2 0.722623 0.923386 0.668219
Si Si3 0.597259 0.444313 0.668989
Si Si4 0.899312 0.074195 0.798008
Si Si5 0.026212 0.338710 0.134150
Si Si6 0.373892 0.277568 0.843339
Si Si7 0.573331 0.859753 0.082748
Si Si8 0.781141 0.418238 0.491271
O O1 0.163918 0.867196 0.905736
O O2 0.258476 0.781301 0.086908
O O3 0.201157 0.580357 0.935978
O O4 0.071251 0.712848 0.064747
O O5 0.642119 0.865198 0.760992
O O6 0.827691 0.970601 0.721897
O O7 0.679870 0.062357 0.596772
O O8 0.500000 0.500000 0.598837
O O9 0.602312 0.566616 0.774818
O O10 0.571966 0.267795 0.684713
O O11 0.698595 0.440207 0.594383
O O12 0.936615 0.216061 0.724258
O O13 0.000000 0.000000 0.840696
O O14 0.116342 0.364816 0.044599
O O15 0.000000 0.500000 0.189256
O O16 0.436025 0.226928 0.957960
O O17 0.264982 0.309789 0.896567
O O18 0.500000 0.000000 0.087376
#
# Coordination Sequence:
#
# PCOD9339113 Si02
#       8
#     4   4   4   4   4   4   4   4
#     4  11  25  42  68 101 139 191 237 309 351 442
#     4  12  25  48  68 106 148 191 240 306 375 439
#     4  11  24  47  74 106 140 189 239 301 362 444
#     4  12  26  39  69 101 137 192 240 295 367 436
#     4  10  24  46  66  97 138 185 240 299 365 430
#     4  11  25  45  76 105 140 194 240 297 364 453
#     4  11  27  49  76 111 151 188 241 314 375 446
#     4  10  24  44  73 101 141 181 244 299 357 429
#
# _framework density 23.187629000000001
#
# number of rings (size 3 to 8) (size 9 to 14) (size 15 to 20)
#    0.000    1.000    2.500    3.000    7.000    5.000 
#    0.000    0.000    0.000    0.000    0.000    0.000 
#    0.000    0.000    0.000    0.000    0.000    0.000 
#
# Total GULP energy -178731.009493 kJ/mol
# GULP energy per Si atom -5585.344047 kJ/mol
# Density = 2.313485 g / cm^3
# Si number density = 23.187629 Si / 1000 Ang^3
#
#
#
# Elastic Constant Matrix: (Units=GPa)
#
#
# Indices 1 2 3 4 5 6 
#
# 1 52.2066 15.3918 -7.1511 0.0000 0.0000 0.0000
# 2 15.3918 123.3261 31.1057 0.0000 0.0000 0.0000
# 3 -7.1511 31.1057 50.0783 0.0000 0.0000 0.0000
# 4 0.0000 0.0000 0.0000 32.3419 0.0000 0.0000
# 5 0.0000 0.0000 0.0000 0.0000 18.6238 0.0000
# 6 0.0000 0.0000 0.0000 0.0000 0.0000 50.4780
#
#
#
# Elastic Compliance Matrix: (Units=1/GPa)
#
#
# Indices 1 2 3 4 5 6 
#
# 1 0.021096 -0.004023 0.005511 0.000000 0.000000 0.000000
# 2 -0.004023 0.010382 -0.007023 0.000000 0.000000 0.000000
# 3 0.005511 -0.007023 0.025118 0.000000 0.000000 0.000000
# 4 0.000000 0.000000 0.000000 0.030920 0.000000 0.000000
# 5 0.000000 0.000000 0.000000 0.000000 0.053695 0.000000
# 6 0.000000 0.000000 0.000000 0.000000 0.000000 0.019811
#
#
# Mechanical properties :
#
#
# Convention : Reuss Voigt Hill
#
# Bulk Modulus (GPa) = 21.96546 33.81155 27.88850
# Shear Modulus (GPa) = 26.69998 32.70636 29.70317
#
# Velocity S-wave (km/s) = 3.39702 3.75975 3.58298
# Velocity P-wave (km/s) = 4.98797 5.78455 5.40096
#
# Compressibility (1/GPa) = 0.04552603
#
# Stress axis : x y z
#
# Youngs Moduli (GPa) = 47.40316 96.31968 39.81187
#
# Poissons Ratio (x) = 0.38749 -0.21941
# Poissons Ratio (y) = 0.19070 0.27961
# Poissons Ratio (z) = -0.26125 0.67647
#
# Static dielectric constant tensor:
#      x y z
#    x 1.899470 0.000000 0.000000 
#    y 0.000000 2.012440 0.000000 
#    z 0.000000 0.000000 1.910870 
# 
# From -- ./inp_files/2442.got.cif
#   From: 2010.05.17/outbox.cif.g08.bks.cpg/sg27_2_cif.got.tgz:2442.got - 2010.06.04 01:11:05.
