data_PCOD9339461
_publ_section_title
;
Structure prediction by ZEFSAII (Michael W. Deem and Ramdas Pophale) SiO2 
 PCOD9339461
Probable space group: P M A 2
;
_chemical_formula_sum "Si O2"
_cell_formula_units_Z 32
_cell_length_a 15.626058
_cell_length_b 8.666928
_cell_length_c 14.426708
_cell_angle_alpha 90.000000
_cell_angle_beta 90.000000
_cell_angle_gamma 90.000000
_cell_volume 1953.807905
_symmetry_space_group_name_H-M "P M A 2"
_symmetry_group_IT_number 28
_symmetry_cell_setting 'orthorhombic'
loop_
_space_group_symop_operation_xyz
x,y,z
-x,-y,z
1/2-x,y,z
1/2+x,-y,z
loop_
_atom_site_type_symbol
_atom_site_label
_atom_site_fract_x
_atom_site_fract_y
_atom_site_fract_z
Si Si1 0.154764 0.116723 0.774370
Si Si2 0.011264 0.681823 0.287043
Si Si3 0.411881 0.903417 0.930401
Si Si4 0.151591 0.823813 0.644014
Si Si5 0.842605 0.884620 0.289961
Si Si6 0.915883 0.102085 0.444173
Si Si7 0.482799 0.680310 0.781381
Si Si8 0.587153 0.102880 0.139999
O O1 0.250000 0.187402 0.769652
O O2 0.073819 0.230758 0.771689
O O3 0.147749 0.011834 0.867296
O O4 0.145301 0.992959 0.691493
O O5 0.055851 0.757640 0.377220
O O6 0.063329 0.743583 0.197382
O O7 0.000000 0.500000 0.291015
O O8 0.918666 0.762923 0.282717
O O9 0.435250 0.751734 0.871438
O O10 0.500000 0.000000 0.936380
O O11 0.383130 0.872005 0.035041
O O12 0.250000 0.770855 0.657631
O O13 0.129492 0.840434 0.536346
O O14 0.080741 0.721238 0.696464
O O15 0.750000 0.810783 0.293031
O O16 0.858917 0.989291 0.380574
O O17 0.850572 0.000709 0.203075
O O18 0.000000 0.000000 0.468061
O O19 0.500000 0.500000 0.788844
O O20 0.500000 0.000000 0.137869
#
# Coordination Sequence:
#
# PCOD9339461 Si02
#       8
#     4   4   4   4   4   4   4   4
#     4   9  18  32  51  71  93 125 166 206 244 287
#     4   9  18  31  47  70 100 132 158 188 242 301
#     4   8  15  30  49  69  91 121 162 199 232 275
#     4  10  19  33  53  73  93 124 166 210 247 287
#     4   9  17  30  48  70  92 120 162 207 242 280
#     4   9  17  31  51  70  92 125 164 203 242 287
#     4  10  20  32  48  73 104 132 157 194 246 302
#     4   8  15  29  49  68  90 123 160 195 232 277
#
# _framework density 16.378273
#
# number of rings (size 3 to 8) (size 9 to 14) (size 15 to 20)
#    0.000    3.000    0.000    3.750    0.000    2.000 
#    0.000    3.125    0.000    0.000    0.000    3.500 
#    0.000    0.000    0.000    0.000    0.000    0.000 
#
# Total GULP energy -178185.300335 kJ/mol
# GULP energy per Si atom -5568.290635 kJ/mol
# Density = 1.634100 g / cm^3
# Si number density = 16.378273 Si / 1000 Ang^3
#
#
#
# Elastic Constant Matrix: (Units=GPa)
#
#
# Indices 1 2 3 4 5 6 
#
# 1 90.7073 31.6075 38.3635 0.0000 0.0000 0.0000
# 2 31.6075 104.3697 40.4061 0.0000 0.0000 0.0000
# 3 38.3635 40.4061 119.7683 0.0000 0.0000 0.0000
# 4 0.0000 0.0000 0.0000 7.5654 0.0000 0.0000
# 5 0.0000 0.0000 0.0000 0.0000 7.8377 0.0000
# 6 0.0000 0.0000 0.0000 0.0000 0.0000 6.5871
#
#
#
# Elastic Compliance Matrix: (Units=1/GPa)
#
#
# Indices 1 2 3 4 5 6 
#
# 1 0.013409 -0.002758 -0.003364 0.000000 0.000000 0.000000
# 2 -0.002758 0.011588 -0.003026 0.000000 0.000000 0.000000
# 3 -0.003364 -0.003026 0.010448 0.000000 0.000000 0.000000
# 4 0.000000 0.000000 0.000000 0.132180 0.000000 0.000000
# 5 0.000000 0.000000 0.000000 0.000000 0.127589 0.000000
# 6 0.000000 0.000000 0.000000 0.000000 0.000000 0.151812
#
#
# Mechanical properties :
#
#
# Convention : Reuss Voigt Hill
#
# Bulk Modulus (GPa) = 58.31758 59.51107 58.91433
# Shear Modulus (GPa) = 10.61485 18.02925 14.32205
#
# Velocity S-wave (km/s) = 2.54855 3.32143 2.96033
# Velocity P-wave (km/s) = 6.65914 7.15007 6.90897
#
# Compressibility (1/GPa) = 0.01714749
#
# Stress axis : x y z
#
# Youngs Moduli (GPa) = 74.57954 86.29547 95.71200
#
# Poissons Ratio (x) = 0.23801 0.32202
# Poissons Ratio (y) = 0.20570 0.28962
# Poissons Ratio (z) = 0.25092 0.26113
#
# Static dielectric constant tensor:
#      x y z
#    x 1.565270 0.000000 0.000000 
#    y 0.000000 1.508120 0.000000 
#    z 0.000000 0.000000 1.561860 
# 
# From -- ./inp_files/6566.got.cif
#   From: 2010.05.17/outbox.cif.g08.bks.cpg/sg28_4_cif.got.tgz:6566.got - 2010.06.04 01:15:21.
