data_PCOD9339283
_publ_section_title
;
Structure prediction by ZEFSAII (Michael W. Deem and Ramdas Pophale) SiO2 
 PCOD9339283
Probable space group: P M A 2
;
_chemical_formula_sum "Si O2"
_cell_formula_units_Z 32
_cell_length_a 16.851640
_cell_length_b 7.266470
_cell_length_c 11.224313
_cell_angle_alpha 90.000000
_cell_angle_beta 90.000000
_cell_angle_gamma 90.000000
_cell_volume 1374.438863
_symmetry_space_group_name_H-M "P M A 2"
_symmetry_group_IT_number 28
_symmetry_cell_setting 'orthorhombic'
loop_
_space_group_symop_operation_xyz
x,y,z
-x,-y,z
1/2-x,y,z
1/2+x,-y,z
loop_
_atom_site_type_symbol
_atom_site_label
_atom_site_fract_x
_atom_site_fract_y
_atom_site_fract_z
Si Si1 0.844294 0.447038 0.324100
Si Si2 0.406242 0.533636 0.574151
Si Si3 0.844294 0.447038 0.824202
Si Si4 0.594347 0.027900 0.318332
Si Si5 0.904622 0.027976 0.574150
Si Si6 0.905653 0.027900 0.829969
Si Si7 0.157057 0.948834 0.074150
Si Si8 0.406910 0.533973 0.074151
O O1 0.750000 0.423905 0.324383
O O2 0.871705 0.536108 0.448608
O O3 0.885467 0.245438 0.322521
O O4 0.870643 0.535747 0.198952
O O5 0.500000 0.500000 0.574153
O O6 0.371704 0.463892 0.699693
O O7 0.389358 0.753042 0.574151
O O8 0.750000 0.423904 0.823922
O O9 0.885467 0.245438 0.825780
O O10 0.870644 0.535747 0.949349
O O11 0.624099 0.955209 0.446574
O O12 0.633471 0.955927 0.197508
O O13 0.500000 0.000000 0.310798
O O14 0.875901 0.955209 0.701727
O O15 0.000000 0.000000 0.574150
O O16 0.866529 0.955927 0.950793
O O17 0.000000 0.000000 0.837503
O O18 0.250000 0.909198 0.074151
O O19 0.111577 0.753150 0.074151
O O20 0.500000 0.500000 0.074152
#
# Coordination Sequence:
#
# PCOD9339283 Si02
#       8
#     4   4   4   4   4   4   4   4
#     4  10  19  32  49  74 101 129 165 210 253 298
#     4  10  19  31  50  79 103 128 169 214 248 291
#     4  10  19  32  49  74 101 129 165 210 253 298
#     4   9  16  28  47  71  96 124 159 203 247 294
#     4   8  16  29  46  71  98 124 157 200 243 289
#     4   9  16  28  47  71  96 124 159 203 247 294
#     4  10  19  31  46  71  98 123 159 206 250 298
#     4  10  18  29  46  69  94 125 164 208 250 298
#
# _framework density 23.282228
#
# number of rings (size 3 to 8) (size 9 to 14) (size 15 to 20)
#    0.000    2.500    0.000    4.875    0.000    0.000 
#    0.000    1.875    0.000    0.000    0.000  220.500 
#    0.000    0.000    0.000    0.000    0.000    0.000 
#
# Total GULP energy -178598.219259 kJ/mol
# GULP energy per Si atom -5581.194352 kJ/mol
# Density = 2.322924 g / cm^3
# Si number density = 23.282228 Si / 1000 Ang^3
#
#
#
# Elastic Constant Matrix: (Units=GPa)
#
#
# Indices 1 2 3 4 5 6 
#
# 1 162.5848 22.7552 72.2579 0.0000 0.0000 0.0000
# 2 22.7552 105.2176 24.1783 0.0000 0.0000 0.0000
# 3 72.2579 24.1783 324.6261 0.0000 0.0000 0.0000
# 4 0.0000 0.0000 0.0000 -25.3168 0.0000 0.0000
# 5 0.0000 0.0000 0.0000 0.0000 -64.6690 0.0000
# 6 0.0000 0.0000 0.0000 0.0000 0.0000 28.9473
#
#
#
# Elastic Compliance Matrix: (Units=1/GPa)
#
#
# Indices 1 2 3 4 5 6 
#
# 1 0.006965 -0.001170 -0.001463 0.000000 0.000000 0.000000
# 2 -0.001170 0.009866 -0.000474 0.000000 0.000000 0.000000
# 3 -0.001463 -0.000474 0.003441 0.000000 0.000000 0.000000
# 4 0.000000 0.000000 0.000000 -0.039499 0.000000 0.000000
# 5 0.000000 0.000000 0.000000 0.000000 -0.015463 0.000000
# 6 0.000000 0.000000 0.000000 0.000000 0.000000 0.034546
#
#
# Mechanical properties :
#
#
# Convention : Reuss Voigt Hill
#
# Bulk Modulus (GPa) = 71.13780 92.31238 81.72509
# Shear Modulus (GPa) = 464.86354 19.34142 242.10248
#
# Velocity S-wave (km/s) = 14.14560 2.88538 10.20841
# Velocity P-wave (km/s) = 17.24582 7.12993 13.19572
#
# Compressibility (1/GPa) = 0.01405723
#
# Stress axis : x y z
#
# Youngs Moduli (GPa) = 143.58244 101.35650 290.57348
#
# Poissons Ratio (x) = 0.11859 0.42514
# Poissons Ratio (y) = 0.16799 0.13785
# Poissons Ratio (z) = 0.21008 0.04808
#
# Static dielectric constant tensor:
#      x y z
#    x 1.756190 0.000000 0.000000 
#    y 0.000000 1.900760 0.000000 
#    z 0.000000 0.000000 1.999170 
# 
# From -- ./inp_files/5597.got.cif
#   From: 2010.05.17/outbox.cif.g08.bks.cpg/sg28_3_cif.got.tgz:5597.got - 2010.06.04 01:15:21.
