data_PCOD9339563
_publ_section_title
;
Structure prediction by ZEFSAII (Michael W. Deem and Ramdas Pophale) SiO2 
 PCOD9339563
Probable space group: P M A 2
;
_chemical_formula_sum "Si O2"
_cell_formula_units_Z 32
_cell_length_a 8.619940
_cell_length_b 15.852866
_cell_length_c 12.169464
_cell_angle_alpha 90.000000
_cell_angle_beta 90.000000
_cell_angle_gamma 90.000000
_cell_volume 1662.966428
_symmetry_space_group_name_H-M "P M A 2"
_symmetry_group_IT_number 28
_symmetry_cell_setting 'orthorhombic'
loop_
_space_group_symop_operation_xyz
x,y,z
-x,-y,z
1/2-x,y,z
1/2+x,-y,z
loop_
_atom_site_type_symbol
_atom_site_label
_atom_site_fract_x
_atom_site_fract_y
_atom_site_fract_z
Si Si1 0.063843 0.409373 0.041440
Si Si2 0.436236 0.750164 0.908772
Si Si3 0.436485 0.090794 0.042257
Si Si4 0.062770 0.350578 0.283741
Si Si5 0.064099 0.090227 0.517309
Si Si6 0.061652 0.153632 0.280299
Si Si7 0.564714 0.410569 0.514281
Si Si8 0.937336 0.247439 0.652856
O O1 0.250000 0.408654 0.036424
O O2 0.017320 0.392498 0.168461
O O3 0.000000 0.500000 0.006014
O O4 0.999351 0.332697 0.969540
O O5 0.250000 0.751432 0.916468
O O6 0.480565 0.748998 0.780598
O O7 0.503326 0.833014 0.967564
O O8 0.250000 0.090289 0.040331
O O9 0.489721 0.109841 0.167730
O O10 0.500000 0.000000 0.007322
O O11 0.250000 0.354089 0.292623
O O12 0.016002 0.251993 0.281203
O O13 0.991041 0.393979 0.390040
O O14 0.250000 0.088509 0.517248
O O15 0.008911 0.109572 0.392381
O O16 0.006835 0.165996 0.593523
O O17 0.000000 0.000000 0.553170
O O18 0.250000 0.152189 0.280043
O O19 0.500000 0.500000 0.553291
O O20 0.750000 0.413385 0.516297
O O21 0.512047 0.331722 0.588437
O O22 0.750000 0.242782 0.645929
#
# Coordination Sequence:
#
# PCOD9339563 Si02
#       8
#     4   4   4   4   4   4   4   4
#     4  11  23  40  63  91 125 160 198 246 298 358
#     4  11  24  43  64  87 118 158 205 255 302 353
#     4  11  22  40  63  92 125 159 199 245 299 359
#     4  10  19  37  62  90 123 157 194 240 294 356
#     4  11  22  38  63  91 122 158 196 241 296 356
#     4   9  18  35  60  90 123 156 192 238 295 356
#     4  11  23  39  61  90 121 156 196 244 297 356
#     4  10  24  44  62  85 118 155 203 254 297 348
#
# _framework density 19.242723000000002
#
# number of rings (size 3 to 8) (size 9 to 14) (size 15 to 20)
#    0.000    1.500    2.500    2.625    0.000    4.500 
#    0.000    3.125    0.000    0.000    0.000    0.000 
#    0.000    0.000    0.000    0.000    0.000    0.000 
#
# Total GULP energy -178900.495029 kJ/mol
# GULP energy per Si atom -5590.640470 kJ/mol
# Density = 1.919893 g / cm^3
# Si number density = 19.242723 Si / 1000 Ang^3
#
#
#
# Elastic Constant Matrix: (Units=GPa)
#
#
# Indices 1 2 3 4 5 6 
#
# 1 41.1952 47.0084 46.9414 0.0000 0.0000 0.0000
# 2 47.0084 206.0254 90.8278 0.0000 0.0000 0.0000
# 3 46.9414 90.8278 151.9069 0.0000 0.0000 0.0000
# 4 0.0000 0.0000 0.0000 -4.4329 0.0000 0.0000
# 5 0.0000 0.0000 0.0000 0.0000 -30.2782 0.0000
# 6 0.0000 0.0000 0.0000 0.0000 0.0000 32.2835
#
#
#
# Elastic Compliance Matrix: (Units=1/GPa)
#
#
# Indices 1 2 3 4 5 6 
#
# 1 0.041110 -0.005132 -0.009635 0.000000 0.000000 0.000000
# 2 -0.005132 0.007232 -0.002738 0.000000 0.000000 0.000000
# 3 -0.009635 -0.002738 0.011197 0.000000 0.000000 0.000000
# 4 0.000000 0.000000 0.000000 -0.225586 0.000000 0.000000
# 5 0.000000 0.000000 0.000000 0.000000 -0.033027 0.000000
# 6 0.000000 0.000000 0.000000 0.000000 0.000000 0.030976
#
#
# Mechanical properties :
#
#
# Convention : Reuss Voigt Hill
#
# Bulk Modulus (GPa) = 40.76846 85.40920 63.08883
# Shear Modulus (GPa) = -40.02866 13.80447 -13.11210
#
# Velocity S-wave (km/s) = -4.56587 2.68131 -2.61321
# Velocity P-wave (km/s) = 2.56198 7.35306 4.87359
#
# Compressibility (1/GPa) = 0.02452877
#
# Stress axis : x y z
#
# Youngs Moduli (GPa) = 24.32487 138.27545 89.30597
#
# Poissons Ratio (x) = 0.70969 0.86045
# Poissons Ratio (y) = 0.12485 0.24453
# Poissons Ratio (z) = 0.23437 0.37861
#
# Static dielectric constant tensor:
#      x y z
#    x 1.647750 0.000000 0.000000 
#    y 0.000000 1.647660 0.000000 
#    z 0.000000 0.000000 1.655500 
# 
# From -- ./inp_files/5021.got.cif
#   From: 2010.05.17/outbox.cif.g08.bks.cpg/sg28_3_cif.got.tgz:5021.got - 2010.06.04 01:15:21.
