data_PCOD9339481
_publ_section_title
;
Structure prediction by ZEFSAII (Michael W. Deem and Ramdas Pophale) SiO2 
 PCOD9339481
Probable space group: P M A 2
;
_chemical_formula_sum "Si O2"
_cell_formula_units_Z 20
_cell_length_a 8.518807
_cell_length_b 9.759783
_cell_length_c 13.542727
_cell_angle_alpha 90.000000
_cell_angle_beta 90.000000
_cell_angle_gamma 90.000000
_cell_volume 1125.965450
_symmetry_space_group_name_H-M "P M A 2"
_symmetry_group_IT_number 28
_symmetry_cell_setting 'orthorhombic'
loop_
_space_group_symop_operation_xyz
x,y,z
-x,-y,z
1/2-x,y,z
1/2+x,-y,z
loop_
_atom_site_type_symbol
_atom_site_label
_atom_site_fract_x
_atom_site_fract_y
_atom_site_fract_z
Si Si1 0.561291 0.345837 0.954110
Si Si2 0.060910 0.844224 0.349635
Si Si3 0.560082 0.155506 0.134281
Si Si4 0.560984 0.156109 0.565917
Si Si5 0.063007 0.345798 0.740400
O O1 0.500000 0.500000 0.968964
O O2 0.750000 0.348177 0.951950
O O3 0.500426 0.298521 0.847189
O O4 0.507516 0.248791 0.043335
O O5 0.250000 0.844834 0.349840
O O6 0.010491 0.787555 0.242695
O O7 0.012003 0.787960 0.456766
O O8 0.000000 0.000000 0.349274
O O9 0.750000 0.151983 0.132697
O O10 0.500000 0.000000 0.124732
O O11 0.750000 0.154819 0.570861
O O12 0.494499 0.248121 0.653236
O O13 0.500000 0.000000 0.574193
O O14 0.250000 0.349556 0.743515
O O15 0.000000 0.500000 0.725040
#
# Coordination Sequence:
#
# PCOD9339481 Si02
#       5
#     4   4   4   4   4
#     4  10  20  35  53  73 100 133 169 207 251 302
#     4   8  15  29  49  73 102 133 163 200 246 294
#     4   9  18  32  52  77 103 131 165 205 247 294
#     4  10  19  33  54  79 106 135 170 210 252 299
#     4  11  22  37  55  74 100 134 172 212 258 307
#
# _framework density 17.762535
#
# number of rings (size 3 to 8) (size 9 to 14) (size 15 to 20)
#    0.000    2.400    0.000    4.200    0.000    3.200 
#    0.000    3.000    0.000    2.400    0.000    0.000 
#    0.000    0.000    0.000    0.000    0.000    0.000 
#
# Total GULP energy -111459.596956 kJ/mol
# GULP energy per Si atom -5572.979848 kJ/mol
# Density = 1.772211 g / cm^3
# Si number density = 17.762535 Si / 1000 Ang^3
#
#
#
# Elastic Constant Matrix: (Units=GPa)
#
#
# Indices 1 2 3 4 5 6 
#
# 1 62.0507 20.3363 46.8415 0.0000 0.0000 0.0000
# 2 20.3363 51.9122 88.3323 0.0000 0.0000 0.0000
# 3 46.8415 88.3323 233.0858 0.0000 0.0000 0.0000
# 4 0.0000 0.0000 0.0000 74.3745 0.0000 0.0000
# 5 0.0000 0.0000 0.0000 0.0000 -10.9860 0.0000
# 6 0.0000 0.0000 0.0000 0.0000 0.0000 26.0183
#
#
#
# Elastic Compliance Matrix: (Units=1/GPa)
#
#
# Indices 1 2 3 4 5 6 
#
# 1 0.019130 -0.002682 -0.002828 0.000000 0.000000 0.000000
# 2 -0.002682 0.054615 -0.020158 0.000000 0.000000 0.000000
# 3 -0.002828 -0.020158 0.012498 0.000000 0.000000 0.000000
# 4 0.000000 0.000000 0.000000 0.013445 0.000000 0.000000
# 5 0.000000 0.000000 0.000000 0.000000 -0.091025 0.000000
# 6 0.000000 0.000000 0.000000 0.000000 0.000000 0.038434
#
#
# Mechanical properties :
#
#
# Convention : Reuss Voigt Hill
#
# Bulk Modulus (GPa) = 28.64846 73.11875 50.88361
# Shear Modulus (GPa) = 45.42596 30.65061 38.03829
#
# Velocity S-wave (km/s) = 5.06256 4.15851 4.63264
# Velocity P-wave (km/s) = 7.09481 8.01945 7.57126
#
# Compressibility (1/GPa) = 0.03490588
#
# Stress axis : x y z
#
# Youngs Moduli (GPa) = 52.27489 18.31007 80.01308
#
# Poissons Ratio (x) = 0.04911 0.22627
# Poissons Ratio (y) = 0.14020 1.61293
# Poissons Ratio (z) = 0.14783 0.36910
#
# Static dielectric constant tensor:
#      x y z
#    x 1.595820 0.000000 0.000000 
#    y 0.000000 1.555620 0.000000 
#    z 0.000000 0.000000 1.657660 
# 
# From -- ./inp_files/5964.got.cif
#   From: 2010.05.17/outbox.cif.g08.bks.cpg/sg28_3_cif.got.tgz:5964.got - 2010.06.04 01:15:21.
