data_PCOD9339977
_publ_section_title
;
Structure prediction by ZEFSAII (Michael W. Deem and Ramdas Pophale) SiO2 
 PCOD9339977
Probable space group: P C A 21
;
_chemical_formula_sum "Si O2"
_cell_formula_units_Z 32
_cell_length_a 5.324665
_cell_length_b 19.234469
_cell_length_c 12.696383
_cell_angle_alpha 90.000000
_cell_angle_beta 90.000000
_cell_angle_gamma 90.000000
_cell_volume 1300.326777
_symmetry_space_group_name_H-M "P C A 21"
_symmetry_group_IT_number 29
_symmetry_cell_setting 'orthorhombic'
loop_
_space_group_symop_operation_xyz
x,y,z
-x,-y,1/2+z
1/2-x,y,1/2+z
1/2+x,-y,z
loop_
_atom_site_type_symbol
_atom_site_label
_atom_site_fract_x
_atom_site_fract_y
_atom_site_fract_z
Si Si1 0.306841 0.822331 0.540840
Si Si2 0.834865 0.977740 0.714781
Si Si3 0.300318 0.322795 0.184315
Si Si4 0.137603 0.964858 0.444684
Si Si5 0.138679 0.472040 0.239123
Si Si6 0.299990 0.676064 0.047319
Si Si7 0.308259 0.176486 0.680068
Si Si8 0.641388 0.473726 0.995055
O O1 0.245477 0.889606 0.472568
O O2 0.264576 0.747278 0.486255
O O3 0.583877 0.826815 0.592426
O O4 0.086554 0.820596 0.629749
O O5 0.799896 0.896872 0.738606
O O6 0.597863 0.010463 0.657078
O O7 0.865681 0.024788 0.818012
O O8 0.245219 0.394262 0.243143
O O9 0.582975 0.324203 0.138630
O O10 0.250593 0.248564 0.239709
O O11 0.083395 0.322682 0.092788
O O12 0.348873 0.022027 0.474621
O O13 0.355769 0.522982 0.279810
O O14 0.104626 0.498763 0.116753
O O15 0.253647 0.603311 0.991005
O O16 0.358021 0.475330 0.954077
#
# Coordination Sequence:
#
# PCOD9339977 Si02
#       8
#     4   4   4   4   4   4   4   4
#     4  10  21  32  48  73 101 129 160 203 254 292
#     4  10  21  37  55  72  93 126 165 208 244 297
#     4  10  16  25  36  57  89 121 157 188 229 277
#     4  10  21  37  55  72  93 126 165 208 244 297
#     4  10  14  20  34  52  77 120 164 178 211 271
#     4  10  16  25  36  57  89 121 157 188 229 277
#     4  10  21  32  48  73 101 129 160 203 254 292
#     4  10  14  20  34  52  77 120 164 178 211 271
#
# _framework density 24.609200999999999
#
# number of rings (size 3 to 8) (size 9 to 14) (size 15 to 20)
#    0.000    2.000    5.000    1.500    0.000    3.000 
#    0.000    0.000    0.000    0.000    0.000    0.000 
#    0.000    0.000    0.000   27.000    0.000    0.000 
#
# Total GULP energy -178657.951477 kJ/mol
# GULP energy per Si atom -5583.060984 kJ/mol
# Density = 2.455319 g / cm^3
# Si number density = 24.609201 Si / 1000 Ang^3
#
#
#
# Elastic Constant Matrix: (Units=GPa)
#
#
# Indices 1 2 3 4 5 6 
#
# 1 156.9116 -4.4682 9.0872 0.0000 0.0000 0.0000
# 2 -4.4682 172.4910 -4.8575 0.0000 0.0000 0.0000
# 3 9.0872 -4.8575 25.6470 0.0000 0.0000 0.0000
# 4 0.0000 0.0000 0.0000 19.7313 0.0000 0.0000
# 5 0.0000 0.0000 0.0000 0.0000 31.6644 0.0000
# 6 0.0000 0.0000 0.0000 0.0000 0.0000 38.8061
#
#
#
# Elastic Compliance Matrix: (Units=1/GPa)
#
#
# Indices 1 2 3 4 5 6 
#
# 1 0.006508 0.000104 -0.002286 0.000000 0.000000 0.000000
# 2 0.000104 0.005830 0.001067 0.000000 0.000000 0.000000
# 3 -0.002286 0.001067 0.040003 0.000000 0.000000 0.000000
# 4 0.000000 0.000000 0.000000 0.050681 0.000000 0.000000
# 5 0.000000 0.000000 0.000000 0.000000 0.031581 0.000000
# 6 0.000000 0.000000 0.000000 0.000000 0.000000 0.025769
#
#
# Mechanical properties :
#
#
# Convention : Reuss Voigt Hill
#
# Bulk Modulus (GPa) = 19.95525 39.39695 29.67610
# Shear Modulus (GPa) = 27.88519 41.72622 34.80571
#
# Velocity S-wave (km/s) = 3.36984 4.12218 3.76485
# Velocity P-wave (km/s) = 4.82364 6.22095 5.56632
#
# Compressibility (1/GPa) = 0.05011213
#
# Stress axis : x y z
#
# Youngs Moduli (GPa) = 153.64784 171.52188 24.99802
#
# Poissons Ratio (x) = -0.01787 0.05715
# Poissons Ratio (y) = -0.01601 -0.02668
# Poissons Ratio (z) = 0.35129 -0.18307
#
# Static dielectric constant tensor:
#      x y z
#    x 2.010360 0.000000 0.000000 
#    y 0.000000 1.952280 0.000000 
#    z 0.000000 0.000000 2.430390 
# 
# From -- ./inp_files/4148.got.cif
#   From: 2010.05.17/outbox.cif.g08.bks.cpg/sg29_3_cif.got.tgz:4148.got - 2010.06.04 01:19:37.
