data_PCOD9339099
_publ_section_title
;
Structure prediction by ZEFSAII (Michael W. Deem and Ramdas Pophale) SiO2 
 PCOD9339099
Probable space group: P C C 2
;
_chemical_formula_sum "Si O2"
_cell_formula_units_Z 24
_cell_length_a 10.592209
_cell_length_b 11.604114
_cell_length_c 8.502872
_cell_angle_alpha 90.000000
_cell_angle_beta 90.000000
_cell_angle_gamma 90.000000
_cell_volume 1045.115213
_symmetry_space_group_name_H-M "P C C 2"
_symmetry_group_IT_number 27
_symmetry_cell_setting 'orthorhombic'
loop_
_space_group_symop_operation_xyz
x,y,z
-x,-y,z
-x,y,1/2+z
x,-y,1/2+z
loop_
_atom_site_type_symbol
_atom_site_label
_atom_site_fract_x
_atom_site_fract_y
_atom_site_fract_z
Si Si1 0.500000 0.500000 0.105381
Si Si2 0.662642 0.116737 0.426532
Si Si3 0.097587 0.096349 0.111570
Si Si4 0.662642 0.383263 0.346183
Si Si5 0.902413 0.403651 0.161145
Si Si6 0.077915 0.750000 0.886357
Si Si7 0.500000 0.000000 0.167334
O O1 0.553394 0.399520 0.216652
O O2 0.388989 0.449768 0.997438
O O3 0.786012 0.059172 0.503613
O O4 0.688438 0.250000 0.386357
O O5 0.611011 0.050232 0.275277
O O6 0.553394 0.100480 0.556063
O O7 0.011745 0.173238 0.996320
O O8 0.148091 0.169859 0.259978
O O9 0.000000 0.000000 0.170897
O O10 0.786012 0.440827 0.269102
O O11 0.988255 0.326762 0.276395
O O12 0.000000 0.500000 0.101818
O O13 0.851909 0.330140 0.012737
#
# Coordination Sequence:
#
# PCOD9339099 Si02
#       7
#     2   4   4   4   4   4   2
#     4  10  26  44  74 104 136 188 238 282 340 400
#     4  11  24  48  70 102 141 184 233 289 340 414
#     4  11  24  42  70 102 137 178 228 282 349 415
#     4  11  24  48  70 102 141 184 233 289 340 414
#     4  11  24  42  70 102 137 178 228 282 349 415
#     4  10  24  42  62 104 134 180 220 274 362 406
#     4  10  26  44  74 104 136 188 238 282 340 400
#
# _framework density 22.963977
#
# number of rings (size 3 to 8) (size 9 to 14) (size 15 to 20)
#    0.000    1.333    1.667    2.000    9.333    0.000 
#    9.000    0.000    0.000    0.000    0.000    0.000 
#    0.000    0.000    0.000    0.000    0.000    0.000 
#
# Total GULP energy -134167.837612 kJ/mol
# GULP energy per Si atom -5590.326567 kJ/mol
# Density = 2.291171 g / cm^3
# Si number density = 22.963977 Si / 1000 Ang^3
#
#
#
# Elastic Constant Matrix: (Units=GPa)
#
#
# Indices 1 2 3 4 5 6 
#
# 1 73.5251 13.1092 21.2791 0.0000 0.0000 0.0000
# 2 13.1092 62.8902 31.8439 0.0000 0.0000 0.0000
# 3 21.2791 31.8439 116.6257 0.0000 0.0000 0.0000
# 4 0.0000 0.0000 0.0000 28.1516 0.0000 0.0000
# 5 0.0000 0.0000 0.0000 0.0000 32.9750 0.0000
# 6 0.0000 0.0000 0.0000 0.0000 0.0000 20.8509
#
#
#
# Elastic Compliance Matrix: (Units=1/GPa)
#
#
# Indices 1 2 3 4 5 6 
#
# 1 0.014565 -0.001962 -0.002122 0.000000 0.000000 0.000000
# 2 -0.001962 0.018716 -0.004752 0.000000 0.000000 0.000000
# 3 -0.002122 -0.004752 0.010259 0.000000 0.000000 0.000000
# 4 0.000000 0.000000 0.000000 0.035522 0.000000 0.000000
# 5 0.000000 0.000000 0.000000 0.000000 0.030326 0.000000
# 6 0.000000 0.000000 0.000000 0.000000 0.000000 0.047960
#
#
# Mechanical properties :
#
#
# Convention : Reuss Voigt Hill
#
# Bulk Modulus (GPa) = 38.65746 42.83394 40.74570
# Shear Modulus (GPa) = 27.22696 28.84942 28.03819
#
# Velocity S-wave (km/s) = 3.44704 3.54826 3.49802
# Velocity P-wave (km/s) = 5.71956 5.95651 5.83924
#
# Compressibility (1/GPa) = 0.02586823
#
# Stress axis : x y z
#
# Youngs Moduli (GPa) = 68.65956 53.43041 97.47372
#
# Poissons Ratio (x) = 0.10481 0.20682
# Poissons Ratio (y) = 0.13468 0.46323
# Poissons Ratio (z) = 0.14568 0.25392
#
# Static dielectric constant tensor:
#      x y z
#    x 1.824830 0.000000 0.000000 
#    y 0.000000 1.894720 0.000000 
#    z 0.000000 0.000000 1.833210 
# 
# From -- ./inp_files/1406.got.cif
#   From: 2010.05.17/outbox.cif.g08.bks.cpg/sg27_1_cif.got.tgz:1406.got - 2010.06.04 01:11:05.
