data_PCOD9339029
_publ_section_title
;
Structure prediction by ZEFSAII (Michael W. Deem and Ramdas Pophale) SiO2 
 PCOD9339029
Probable space group: P C C 2
;
_chemical_formula_sum "Si O2"
_cell_formula_units_Z 24
_cell_length_a 16.145686
_cell_length_b 5.305776
_cell_length_c 10.708675
_cell_angle_alpha 90.000000
_cell_angle_beta 90.000000
_cell_angle_gamma 90.000000
_cell_volume 917.362855
_symmetry_space_group_name_H-M "P C C 2"
_symmetry_group_IT_number 27
_symmetry_cell_setting 'orthorhombic'
loop_
_space_group_symop_operation_xyz
x,y,z
-x,-y,z
-x,y,1/2+z
x,-y,1/2+z
loop_
_atom_site_type_symbol
_atom_site_label
_atom_site_fract_x
_atom_site_fract_y
_atom_site_fract_z
Si Si1 0.135513 0.205114 0.940310
Si Si2 0.000000 0.500000 0.835187
Si Si3 0.666340 0.992270 0.705408
Si Si4 0.427484 0.363678 0.528841
Si Si5 0.718115 0.502471 0.344700
Si Si6 0.093519 0.888688 0.705455
Si Si7 0.500000 0.000000 0.355946
O O1 0.041329 0.301086 0.926806
O O2 0.198338 0.437589 0.921639
O O3 0.137231 0.013915 0.824476
O O4 0.143681 0.087657 0.077389
O O5 0.072054 0.603482 0.745591
O O6 0.628404 0.880294 0.575943
O O7 0.710005 0.744268 0.759160
O O8 0.710128 0.255119 0.750726
O O9 0.580790 0.015418 0.776891
O O10 0.500000 0.500000 0.618507
O O11 0.355416 0.496639 0.447670
O O12 0.496028 0.242881 0.440497
O O13 0.000000 0.000000 0.691118
#
# Coordination Sequence:
#
# PCOD9339029 Si02
#       7
#     4   2   4   4   4   4   2
#     4  11  25  48  79 112 166 214 274 341 419 491
#     4  10  22  42  78 120 152 216 278 330 414 490
#     4  11  26  45  73 106 150 198 258 323 397 474
#     4  11  24  44  77 108 146 210 259 333 397 493
#     4  11  28  50  71 113 157 201 263 330 407 488
#     4  10  22  45  78 118 157 216 276 341 405 502
#     4  10  22  44  68 106 136 188 256 316 388 472
#
# _framework density 26.161947000000001
#
# number of rings (size 3 to 8) (size 9 to 14) (size 15 to 20)
#    0.000    1.333    1.667    2.500    9.333    2.667 
#    6.000    0.000    0.000    0.000    0.000    0.000 
#    0.000    0.000    0.000    0.000    0.000    0.000 
#
# Total GULP energy -133713.240907 kJ/mol
# GULP energy per Si atom -5571.385038 kJ/mol
# Density = 2.610240 g / cm^3
# Si number density = 26.161947 Si / 1000 Ang^3
#
#
#
# Elastic Constant Matrix: (Units=GPa)
#
#
# Indices 1 2 3 4 5 6 
#
# 1 97.2648 35.3855 42.9149 0.0000 0.0000 0.0000
# 2 35.3855 134.9965 45.5041 0.0000 0.0000 0.0000
# 3 42.9149 45.5041 138.1569 0.0000 0.0000 0.0000
# 4 0.0000 0.0000 0.0000 23.3294 0.0000 0.0000
# 5 0.0000 0.0000 0.0000 0.0000 -438.5933 0.0000
# 6 0.0000 0.0000 0.0000 0.0000 0.0000 41.4657
#
#
#
# Elastic Compliance Matrix: (Units=1/GPa)
#
#
# Indices 1 2 3 4 5 6 
#
# 1 0.012473 -0.002209 -0.003147 0.000000 0.000000 0.000000
# 2 -0.002209 0.008724 -0.002187 0.000000 0.000000 0.000000
# 3 -0.003147 -0.002187 0.008936 0.000000 0.000000 0.000000
# 4 0.000000 0.000000 0.000000 0.042864 0.000000 0.000000
# 5 0.000000 0.000000 0.000000 0.000000 -0.002280 0.000000
# 6 0.000000 0.000000 0.000000 0.000000 0.000000 0.024116
#
#
# Mechanical properties :
#
#
# Convention : Reuss Voigt Hill
#
# Bulk Modulus (GPa) = 66.45751 68.66967 67.56359
# Shear Modulus (GPa) = 43.50262 -58.31872 -7.40805
#
# Velocity S-wave (km/s) = 4.08219 -4.72650 -1.68456
# Velocity P-wave (km/s) = 6.90482 1.86588 4.70080
#
# Compressibility (1/GPa) = 0.01504721
#
# Stress axis : x y z
#
# Youngs Moduli (GPa) = 80.17143 114.62870 111.90574
#
# Poissons Ratio (x) = 0.25318 0.35217
# Poissons Ratio (y) = 0.17708 0.24476
# Poissons Ratio (z) = 0.25230 0.25072
#
# Static dielectric constant tensor:
#      x y z
#    x 2.559390 0.000000 0.000000 
#    y 0.000000 2.137990 0.000000 
#    z 0.000000 0.000000 2.263880 
# 
# From -- ./inp_files/2804.got.cif
#   From: 2010.05.17/outbox.cif.g08.bks.cpg/sg27_2_cif.got.tgz:2804.got - 2010.06.04 01:11:05.
