data_PCOD9339530
_publ_section_title
;
Structure prediction by ZEFSAII (Michael W. Deem and Ramdas Pophale) SiO2 
 PCOD9339530
Probable space group: P M A 2
;
_chemical_formula_sum "Si O2"
_cell_formula_units_Z 32
_cell_length_a 9.226294
_cell_length_b 16.792152
_cell_length_c 11.008639
_cell_angle_alpha 90.000000
_cell_angle_beta 90.000000
_cell_angle_gamma 90.000000
_cell_volume 1705.561078
_symmetry_space_group_name_H-M "P M A 2"
_symmetry_group_IT_number 28
_symmetry_cell_setting 'orthorhombic'
loop_
_space_group_symop_operation_xyz
x,y,z
-x,-y,z
1/2-x,y,z
1/2+x,-y,z
loop_
_atom_site_type_symbol
_atom_site_label
_atom_site_fract_x
_atom_site_fract_y
_atom_site_fract_z
Si Si1 0.915674 0.111823 0.661760
Si Si2 0.414297 0.069328 0.421846
Si Si3 0.925068 0.256407 0.066137
Si Si4 0.086243 0.424004 0.694289
Si Si5 0.580717 0.753867 0.322422
Si Si6 0.074983 0.916368 0.942923
Si Si7 0.915947 0.290078 0.564269
Si Si8 0.082665 0.419167 0.985359
O O1 0.750000 0.082547 0.648077
O O2 0.961779 0.094376 0.799325
O O3 0.913501 0.205490 0.632421
O O4 0.017713 0.080328 0.555273
O O5 0.250000 0.044820 0.433092
O O6 0.422745 0.152351 0.353335
O O7 0.500000 0.000000 0.355248
O O8 0.750000 0.263100 0.060533
O O9 0.986605 0.258132 0.202647
O O10 0.963108 0.168897 0.007485
O O11 0.998182 0.335934 0.008714
O O12 0.250000 0.421182 0.648112
O O13 0.091114 0.427638 0.839777
O O14 0.000000 0.500000 0.647350
O O15 0.996094 0.348901 0.653464
O O16 0.750000 0.730458 0.308173
O O17 0.505725 0.714444 0.439441
O O18 0.250000 0.924805 0.953577
O O19 0.000000 0.000000 0.983913
O O20 0.750000 0.312985 0.539521
O O21 0.250000 0.415555 0.030958
O O22 0.000000 0.500000 0.029882
#
# Coordination Sequence:
#
# PCOD9339530 Si02
#       8
#     4   4   4   4   4   4   4   4
#     4   9  18  33  53  78 108 141 178 223 277 335
#     4  10  20  33  52  77 105 138 178 227 278 330
#     4  11  23  40  60  82 112 151 195 241 289 338
#     4  10  20  34  55  85 118 148 179 218 268 328
#     4  10  22  39  56  77 106 142 187 232 276 331
#     4  10  22  37  54  80 114 151 190 234 283 337
#     4  10  19  34  57  82 110 144 181 224 278 334
#     4  10  21  38  62  91 120 151 188 231 281 337
#
# _framework density 18.762155
#
# number of rings (size 3 to 8) (size 9 to 14) (size 15 to 20)
#    0.000    2.000    0.000    3.375    0.000    7.500 
#    0.000    3.125    0.000    0.000    0.000    0.000 
#    0.000    0.000    0.000    0.000    0.000    0.000 
#
# Total GULP energy -178400.686334 kJ/mol
# GULP energy per Si atom -5575.021448 kJ/mol
# Density = 1.871945 g / cm^3
# Si number density = 18.762155 Si / 1000 Ang^3
#
#
#
# Elastic Constant Matrix: (Units=GPa)
#
#
# Indices 1 2 3 4 5 6 
#
# 1 124.8162 59.5004 12.3752 0.0000 0.0000 0.0000
# 2 59.5004 99.0946 12.4744 0.0000 0.0000 0.0000
# 3 12.3752 12.4744 29.4421 0.0000 0.0000 0.0000
# 4 0.0000 0.0000 0.0000 11.8847 0.0000 0.0000
# 5 0.0000 0.0000 0.0000 0.0000 51.7140 0.0000
# 6 0.0000 0.0000 0.0000 0.0000 0.0000 33.3153
#
#
#
# Elastic Compliance Matrix: (Units=1/GPa)
#
#
# Indices 1 2 3 4 5 6 
#
# 1 0.011334 -0.006555 -0.001986 0.000000 0.000000 0.000000
# 2 -0.006555 0.014451 -0.003368 0.000000 0.000000 0.000000
# 3 -0.001986 -0.003368 0.036227 0.000000 0.000000 0.000000
# 4 0.000000 0.000000 0.000000 0.084142 0.000000 0.000000
# 5 0.000000 0.000000 0.000000 0.000000 0.019337 0.000000
# 6 0.000000 0.000000 0.000000 0.000000 0.000000 0.030016
#
#
# Mechanical properties :
#
#
# Convention : Reuss Voigt Hill
#
# Bulk Modulus (GPa) = 26.18259 46.89475 36.53867
# Shear Modulus (GPa) = 21.54653 30.64965 26.09809
#
# Velocity S-wave (km/s) = 3.39249 4.04615 3.73365
# Velocity P-wave (km/s) = 5.41577 6.84668 6.17283
#
# Compressibility (1/GPa) = 0.03819332
#
# Stress axis : x y z
#
# Youngs Moduli (GPa) = 88.23352 69.19822 27.60388
#
# Poissons Ratio (x) = 0.45360 0.05483
# Poissons Ratio (y) = 0.57838 0.09296
# Poissons Ratio (z) = 0.17527 0.23304
#
# Static dielectric constant tensor:
#      x y z
#    x 1.654880 0.000000 0.000000 
#    y 0.000000 1.644730 0.000000 
#    z 0.000000 0.000000 1.627100 
# 
# From -- ./inp_files/5067.got.cif
#   From: 2010.05.17/outbox.cif.g08.bks.cpg/sg28_3_cif.got.tgz:5067.got - 2010.06.04 01:15:21.
