data_PCOD9339658
_publ_section_title
;
Structure prediction by ZEFSAII (Michael W. Deem and Ramdas Pophale) SiO2 
 PCOD9339658
Probable space group: P M A 2
;
_chemical_formula_sum "Si O2"
_cell_formula_units_Z 32
_cell_length_a 9.321639
_cell_length_b 14.607756
_cell_length_c 12.419915
_cell_angle_alpha 90.000000
_cell_angle_beta 90.000000
_cell_angle_gamma 90.000000
_cell_volume 1691.197818
_symmetry_space_group_name_H-M "P M A 2"
_symmetry_group_IT_number 28
_symmetry_cell_setting 'orthorhombic'
loop_
_space_group_symop_operation_xyz
x,y,z
-x,-y,z
1/2-x,y,z
1/2+x,-y,z
loop_
_atom_site_type_symbol
_atom_site_label
_atom_site_fract_x
_atom_site_fract_y
_atom_site_fract_z
Si Si1 0.588641 0.593036 0.355800
Si Si2 0.576356 0.902154 0.921787
Si Si3 0.086114 0.799829 0.112222
Si Si4 0.076080 0.233004 0.734583
Si Si5 0.588642 0.593036 0.868642
Si Si6 0.923644 0.902154 0.302656
Si Si7 0.423920 0.233004 0.489859
Si Si8 0.471210 0.391156 0.112221
O O1 0.500000 0.500000 0.363749
O O2 0.750000 0.574467 0.393340
O O3 0.526813 0.676253 0.426084
O O4 0.597125 0.621961 0.230028
O O5 0.750000 0.907310 0.936457
O O6 0.502979 0.837457 0.010794
O O7 0.500000 0.000000 0.930578
O O8 0.544293 0.855413 0.806742
O O9 0.250000 0.834122 0.112223
O O10 0.088487 0.689279 0.112221
O O11 0.997021 0.837455 0.213650
O O12 0.250000 0.238719 0.732025
O O13 0.026813 0.323748 0.798358
O O14 0.023662 0.228876 0.612221
O O15 0.500000 0.500000 0.860693
O O16 0.750000 0.574467 0.831102
O O17 0.597126 0.621961 0.994414
O O18 0.750000 0.907310 0.287985
O O19 0.955706 0.855414 0.417701
O O20 0.000000 0.000000 0.293864
O O21 0.250000 0.238719 0.492417
O O22 0.500000 0.500000 0.112221
#
# Coordination Sequence:
#
# PCOD9339658 Si02
#       8
#     4   4   4   4   4   4   4   4
#     4  10  20  35  57  85 119 157 197 239 291 353
#     4  11  23  41  63  89 120 156 197 246 300 359
#     4  12  24  40  64  93 123 157 195 243 294 355
#     4   9  19  37  60  85 116 157 200 244 296 350
#     4  10  20  35  57  85 119 157 197 239 291 353
#     4  11  23  41  63  89 120 156 197 246 300 359
#     4   9  19  37  60  85 116 157 200 244 296 350
#     4  10  21  36  56  89 120 157 186 237 287 349
#
# _framework density 18.921500999999999
#
# number of rings (size 3 to 8) (size 9 to 14) (size 15 to 20)
#    0.000    1.750    2.500    1.875    0.000    6.000 
#    0.000    0.000    0.000    5.250    0.000    0.000 
#    0.000    0.000    0.000    0.000    0.000    0.000 
#
# Total GULP energy -178267.554196 kJ/mol
# GULP energy per Si atom -5570.861069 kJ/mol
# Density = 1.887844 g / cm^3
# Si number density = 18.921501 Si / 1000 Ang^3
#
#
#
# Elastic Constant Matrix: (Units=GPa)
#
#
# Indices 1 2 3 4 5 6 
#
# 1 84.3656 47.3515 27.5616 0.0000 0.0000 0.0000
# 2 47.3515 129.0381 46.7937 0.0000 0.0000 0.0000
# 3 27.5616 46.7937 130.2723 0.0000 0.0000 0.0000
# 4 0.0000 0.0000 0.0000 16.5499 0.0000 0.0000
# 5 0.0000 0.0000 0.0000 0.0000 13.6972 0.0000
# 6 0.0000 0.0000 0.0000 0.0000 0.0000 25.2841
#
#
#
# Elastic Compliance Matrix: (Units=1/GPa)
#
#
# Indices 1 2 3 4 5 6 
#
# 1 0.015143 -0.005053 -0.001389 0.000000 0.000000 0.000000
# 2 -0.005053 0.010597 -0.002737 0.000000 0.000000 0.000000
# 3 -0.001389 -0.002737 0.008953 0.000000 0.000000 0.000000
# 4 0.000000 0.000000 0.000000 0.060423 0.000000 0.000000
# 5 0.000000 0.000000 0.000000 0.000000 0.073008 0.000000
# 6 0.000000 0.000000 0.000000 0.000000 0.000000 0.039551
#
#
# Mechanical properties :
#
#
# Convention : Reuss Voigt Hill
#
# Bulk Modulus (GPa) = 61.21962 65.23217 63.22589
# Shear Modulus (GPa) = 21.60035 25.90417 23.75226
#
# Velocity S-wave (km/s) = 3.38239 3.70406 3.54687
# Velocity P-wave (km/s) = 6.90499 7.26935 7.08951
#
# Compressibility (1/GPa) = 0.01633463
#
# Stress axis : x y z
#
# Youngs Moduli (GPa) = 66.03679 94.37006 111.69167
#
# Poissons Ratio (x) = 0.47688 0.15510
# Poissons Ratio (y) = 0.33370 0.30572
# Poissons Ratio (z) = 0.09170 0.25831
#
# Static dielectric constant tensor:
#      x y z
#    x 1.710170 0.000000 0.000000 
#    y 0.000000 1.667940 0.000000 
#    z 0.000000 0.000000 1.664570 
# 
# From -- ./inp_files/5042.got.cif
#   From: 2010.05.17/outbox.cif.g08.bks.cpg/sg28_3_cif.got.tgz:5042.got - 2010.06.04 01:15:21.
