data_PCOD9339926
_publ_section_title
;
Structure prediction by ZEFSAII (Michael W. Deem and Ramdas Pophale) SiO2 
 PCOD9339926
Probable space group: P M A 2
;
_chemical_formula_sum "Si O2"
_cell_formula_units_Z 20
_cell_length_a 8.510535
_cell_length_b 9.276163
_cell_length_c 13.750523
_cell_angle_alpha 90.000000
_cell_angle_beta 90.000000
_cell_angle_gamma 90.000000
_cell_volume 1085.536549
_symmetry_space_group_name_H-M "P M A 2"
_symmetry_group_IT_number 28
_symmetry_cell_setting 'orthorhombic'
loop_
_space_group_symop_operation_xyz
x,y,z
-x,-y,z
1/2-x,y,z
1/2+x,-y,z
loop_
_atom_site_type_symbol
_atom_site_label
_atom_site_fract_x
_atom_site_fract_y
_atom_site_fract_z
Si Si1 0.438725 0.161983 0.563680
Si Si2 0.563050 0.336102 0.748298
Si Si3 0.059969 0.336147 0.373946
Si Si4 0.439535 0.335360 0.161985
Si Si5 0.438913 0.334661 0.951993
O O1 0.250000 0.162596 0.564635
O O2 0.499152 0.246424 0.657931
O O3 0.493464 0.242553 0.465351
O O4 0.500000 0.000000 0.564718
O O5 0.500000 0.500000 0.741115
O O6 0.750000 0.340285 0.746599
O O7 0.507131 0.272643 0.852238
O O8 0.250000 0.340004 0.375299
O O9 0.010219 0.276183 0.267384
O O10 0.000000 0.500000 0.383165
O O11 0.500000 0.500000 0.162264
O O12 0.250000 0.337551 0.161142
O O13 0.487786 0.270578 0.057288
O O14 0.500000 0.500000 0.953777
O O15 0.250000 0.335270 0.945523
#
# Coordination Sequence:
#
# PCOD9339926 Si02
#       5
#     4   4   4   4   4
#     4  11  23  38  54  73 100 134 172 213 259 307
#     4  11  21  34  53  77 105 135 171 212 254 300
#     4   9  18  32  52  77 103 131 165 205 249 298
#     4   8  14  25  43  70 101 130 159 197 245 294
#     4   9  15  25  44  71 102 132 163 201 248 297
#
# _framework density 18.424067999999998
#
# number of rings (size 3 to 8) (size 9 to 14) (size 15 to 20)
#    0.000    2.400    0.000    4.800    0.000    4.000 
#    0.000    0.000    0.000    1.200    0.000    2.800 
#    0.000    0.000    0.000    0.000    0.000    0.000 
#
# Total GULP energy -111429.666265 kJ/mol
# GULP energy per Si atom -5571.483313 kJ/mol
# Density = 1.838213 g / cm^3
# Si number density = 18.424068 Si / 1000 Ang^3
#
#
#
# Elastic Constant Matrix: (Units=GPa)
#
#
# Indices 1 2 3 4 5 6 
#
# 1 62.2088 17.2371 47.4490 0.0000 0.0000 0.0000
# 2 17.2371 53.6721 69.6976 0.0000 0.0000 0.0000
# 3 47.4490 69.6976 250.8862 0.0000 0.0000 0.0000
# 4 0.0000 0.0000 0.0000 -5.2224 0.0000 0.0000
# 5 0.0000 0.0000 0.0000 0.0000 19.8836 0.0000
# 6 0.0000 0.0000 0.0000 0.0000 0.0000 18.0356
#
#
#
# Elastic Compliance Matrix: (Units=1/GPa)
#
#
# Indices 1 2 3 4 5 6 
#
# 1 0.018955 -0.002241 -0.002963 0.000000 0.000000 0.000000
# 2 -0.002241 0.029411 -0.007747 0.000000 0.000000 0.000000
# 3 -0.002963 -0.007747 0.006698 0.000000 0.000000 0.000000
# 4 0.000000 0.000000 0.000000 -0.191484 0.000000 0.000000
# 5 0.000000 0.000000 0.000000 0.000000 0.050293 0.000000
# 6 0.000000 0.000000 0.000000 0.000000 0.000000 0.055446
#
#
# Mechanical properties :
#
#
# Convention : Reuss Voigt Hill
#
# Bulk Modulus (GPa) = 34.28774 70.61495 52.45135
# Shear Modulus (GPa) = 1011.87511 22.03158 516.95335
#
# Velocity S-wave (km/s) = 23.46073 3.46179 16.76887
# Velocity P-wave (km/s) = 27.43220 7.37492 20.08625
#
# Compressibility (1/GPa) = 0.02916495
#
# Stress axis : x y z
#
# Youngs Moduli (GPa) = 52.75558 34.00074 149.29225
#
# Poissons Ratio (x) = 0.07618 0.44228
# Poissons Ratio (y) = 0.11820 1.15654
# Poissons Ratio (z) = 0.15629 0.26340
#
# Static dielectric constant tensor:
#      x y z
#    x 1.615990 0.000000 0.000000 
#    y 0.000000 1.578960 0.000000 
#    z 0.000000 0.000000 1.719830 
# 
# From -- ./inp_files/5947.got.cif
#   From: 2010.05.17/outbox.cif.g08.bks.cpg/sg28_3_cif.got.tgz:5947.got - 2010.06.04 01:15:21.
