data_PCOD9339387
_publ_section_title
;
Structure prediction by ZEFSAII (Michael W. Deem and Ramdas Pophale) SiO2 
 PCOD9339387
Probable space group: P M A 2
;
_chemical_formula_sum "Si O2"
_cell_formula_units_Z 32
_cell_length_a 8.606301
_cell_length_b 14.581772
_cell_length_c 16.136033
_cell_angle_alpha 90.000000
_cell_angle_beta 90.000000
_cell_angle_gamma 90.000000
_cell_volume 2024.993381
_symmetry_space_group_name_H-M "P M A 2"
_symmetry_group_IT_number 28
_symmetry_cell_setting 'orthorhombic'
loop_
_space_group_symop_operation_xyz
x,y,z
-x,-y,z
1/2-x,y,z
1/2+x,-y,z
loop_
_atom_site_type_symbol
_atom_site_label
_atom_site_fract_x
_atom_site_fract_y
_atom_site_fract_z
Si Si1 0.435445 0.901067 0.677880
Si Si2 0.063363 0.603021 0.767725
Si Si3 0.436799 0.283861 0.611375
Si Si4 0.935304 0.901350 0.864060
Si Si5 0.062780 0.395782 0.086879
Si Si6 0.437043 0.396484 0.269013
Si Si7 0.562134 0.603747 0.450144
Si Si8 0.563863 0.282483 0.932693
O O1 0.250000 0.902919 0.680270
O O2 0.495002 0.817443 0.622668
O O3 0.497314 0.885307 0.771548
O O4 0.500000 0.000000 0.651214
O O5 0.250000 0.601794 0.760956
O O6 0.021268 0.657058 0.851763
O O7 0.000000 0.500000 0.770816
O O8 0.994165 0.655909 0.688998
O O9 0.250000 0.279348 0.612917
O O10 0.487686 0.333289 0.526555
O O11 0.750000 0.904835 0.858965
O O12 0.990342 0.817460 0.920354
O O13 0.000000 0.000000 0.891802
O O14 0.250000 0.398280 0.081592
O O15 0.016313 0.359002 0.178800
O O16 0.000000 0.500000 0.078866
O O17 0.995695 0.333921 0.014017
O O18 0.500000 0.500000 0.269319
O O19 0.250000 0.398157 0.268932
O O20 0.485826 0.358703 0.358998
O O21 0.500000 0.500000 0.459593
O O22 0.750000 0.599139 0.451933
O O23 0.750000 0.274745 0.934567
#
# Coordination Sequence:
#
# PCOD9339387 Si02
#       8
#     4   4   4   4   4   4   4   4
#     4  11  21  35  53  73  97 126 163 205 249 291
#     4  11  23  35  47  64  95 134 170 203 239 284
#     4  11  21  33  50  72  98 130 167 204 244 292
#     4  11  21  35  55  75  98 126 162 204 248 292
#     4  10  19  31  49  72  99 132 168 206 248 293
#     4   8  15  29  47  68  95 126 162 204 247 290
#     4   9  18  31  48  71  99 131 166 203 245 290
#     4  11  22  35  50  71  99 131 168 205 244 290
#
# _framework density 15.802519999999999
#
# number of rings (size 3 to 8) (size 9 to 14) (size 15 to 20)
#    0.000    1.750    1.250    5.250    0.000    5.000 
#    0.000    0.000    0.000    0.000    0.000    0.875 
#    0.000    4.000    0.000    0.000    0.000    0.000 
#
# Total GULP energy -178552.089576 kJ/mol
# GULP energy per Si atom -5579.752799 kJ/mol
# Density = 1.576655 g / cm^3
# Si number density = 15.802520 Si / 1000 Ang^3
#
#
#
# Elastic Constant Matrix: (Units=GPa)
#
#
# Indices 1 2 3 4 5 6 
#
# 1 70.0723 39.5285 45.5585 0.0000 0.0000 0.0000
# 2 39.5285 118.4203 76.4988 0.0000 0.0000 0.0000
# 3 45.5585 76.4988 153.2921 0.0000 0.0000 0.0000
# 4 0.0000 0.0000 0.0000 4.9324 0.0000 0.0000
# 5 0.0000 0.0000 0.0000 0.0000 12.2533 0.0000
# 6 0.0000 0.0000 0.0000 0.0000 0.0000 27.0293
#
#
#
# Elastic Compliance Matrix: (Units=1/GPa)
#
#
# Indices 1 2 3 4 5 6 
#
# 1 0.018862 -0.003947 -0.003636 0.000000 0.000000 0.000000
# 2 -0.003947 0.013288 -0.005458 0.000000 0.000000 0.000000
# 3 -0.003636 -0.005458 0.010328 0.000000 0.000000 0.000000
# 4 0.000000 0.000000 0.000000 0.202742 0.000000 0.000000
# 5 0.000000 0.000000 0.000000 0.000000 0.081610 0.000000
# 6 0.000000 0.000000 0.000000 0.000000 0.000000 0.036997
#
#
# Mechanical properties :
#
#
# Convention : Reuss Voigt Hill
#
# Bulk Modulus (GPa) = 60.99402 73.88404 67.43903
# Shear Modulus (GPa) = 12.64626 20.85626 16.75126
#
# Velocity S-wave (km/s) = 2.83197 3.63685 3.25935
# Velocity P-wave (km/s) = 7.02672 8.03067 7.54541
#
# Compressibility (1/GPa) = 0.01639505
#
# Stress axis : x y z
#
# Youngs Moduli (GPa) = 53.01795 75.25591 96.82525
#
# Poissons Ratio (x) = 0.29705 0.35204
# Poissons Ratio (y) = 0.20927 0.52848
# Poissons Ratio (z) = 0.19276 0.41076
#
# Static dielectric constant tensor:
#      x y z
#    x 1.529300 0.000000 0.000000 
#    y 0.000000 1.501770 0.000000 
#    z 0.000000 0.000000 1.546960 
# 
# From -- ./inp_files/6382.got.cif
#   From: 2010.05.17/outbox.cif.g08.bks.cpg/sg28_4_cif.got.tgz:6382.got - 2010.06.04 01:15:21.
