data_PCOD9339929
_publ_section_title
;
Structure prediction by ZEFSAII (Michael W. Deem and Ramdas Pophale) SiO2 
 PCOD9339929
Probable space group: P M A 2
;
_chemical_formula_sum "Si O2"
_cell_formula_units_Z 32
_cell_length_a 14.632505
_cell_length_b 8.982027
_cell_length_c 11.977138
_cell_angle_alpha 90.000000
_cell_angle_beta 90.000000
_cell_angle_gamma 90.000000
_cell_volume 1574.149917
_symmetry_space_group_name_H-M "P M A 2"
_symmetry_group_IT_number 28
_symmetry_cell_setting 'orthorhombic'
loop_
_space_group_symop_operation_xyz
x,y,z
-x,-y,z
1/2-x,y,z
1/2+x,-y,z
loop_
_atom_site_type_symbol
_atom_site_label
_atom_site_fract_x
_atom_site_fract_y
_atom_site_fract_z
Si Si1 0.109746 0.487435 0.897380
Si Si2 0.099125 0.421146 0.512663
Si Si3 0.600112 0.577498 0.260127
Si Si4 0.032911 0.158060 0.669419
Si Si5 0.965142 0.853757 0.124812
Si Si6 0.345254 0.681960 0.101441
Si Si7 0.643827 0.855468 0.902253
Si Si8 0.847417 0.344194 0.680120
O O1 0.141366 0.321999 0.920667
O O2 0.140445 0.533352 0.775698
O O3 0.000000 0.500000 0.906435
O O4 0.152374 0.600993 0.983184
O O5 0.130035 0.391799 0.386581
O O6 0.088653 0.271343 0.588089
O O7 0.153645 0.554987 0.570014
O O8 0.000000 0.500000 0.508530
O O9 0.500000 0.500000 0.265552
O O10 0.593646 0.732031 0.192106
O O11 0.652685 0.450620 0.192217
O O12 0.088913 0.124914 0.784576
O O13 0.937131 0.243342 0.692069
O O14 0.000000 0.000000 0.619576
O O15 0.060465 0.770013 0.102307
O O16 0.912288 0.907239 0.012312
O O17 0.000000 0.000000 0.189653
O O18 0.250000 0.768727 0.114942
O O19 0.750000 0.906428 0.896976
O O20 0.750000 0.263980 0.692502
#
# Coordination Sequence:
#
# PCOD9339929 Si02
#       8
#     4   4   4   4   4   4   4   4
#     4  12  18  35  60  86 115 144 196 249 293 343
#     4   9  19  37  59  83 111 147 193 242 288 336
#     4   9  19  37  59  83 111 147 193 242 288 336
#     4  11  23  39  58  86 123 157 193 237 291 362
#     4  11  23  39  58  86 123 157 193 237 291 362
#     4  11  21  36  60  86 114 151 196 246 293 345
#     4  12  23  37  58  85 118 157 197 243 297 350
#     4  11  21  36  60  86 114 151 196 246 293 345
#
# _framework density 20.328431999999999
#
# number of rings (size 3 to 8) (size 9 to 14) (size 15 to 20)
#    0.000    1.250    5.000    2.250    0.000    2.000 
#    0.000    0.000    0.000    0.000    0.000    3.500 
#    0.000    0.000    0.000    0.000    0.000    0.000 
#
# Total GULP energy -178382.079925 kJ/mol
# GULP energy per Si atom -5574.439998 kJ/mol
# Density = 2.028216 g / cm^3
# Si number density = 20.328432 Si / 1000 Ang^3
#
#
#
# Elastic Constant Matrix: (Units=GPa)
#
#
# Indices 1 2 3 4 5 6 
#
# 1 140.3611 -2.3835 29.9632 0.0000 0.0000 0.0000
# 2 -2.3835 65.9387 9.3418 0.0000 0.0000 0.0000
# 3 29.9632 9.3418 100.2596 0.0000 0.0000 0.0000
# 4 0.0000 0.0000 0.0000 10.6759 0.0000 0.0000
# 5 0.0000 0.0000 0.0000 0.0000 82.3715 0.0000
# 6 0.0000 0.0000 0.0000 0.0000 0.0000 4.2366
#
#
#
# Elastic Compliance Matrix: (Units=1/GPa)
#
#
# Indices 1 2 3 4 5 6 
#
# 1 0.007634 0.000607 -0.002338 0.000000 0.000000 0.000000
# 2 0.000607 0.015417 -0.001618 0.000000 0.000000 0.000000
# 3 -0.002338 -0.001618 0.010824 0.000000 0.000000 0.000000
# 4 0.000000 0.000000 0.000000 0.093669 0.000000 0.000000
# 5 0.000000 0.000000 0.000000 0.000000 0.012140 0.000000
# 6 0.000000 0.000000 0.000000 0.000000 0.000000 0.236038
#
#
# Mechanical properties :
#
#
# Convention : Reuss Voigt Hill
#
# Bulk Modulus (GPa) = 36.79620 42.26693 39.53156
# Shear Modulus (GPa) = 12.77211 37.43264 25.10238
#
# Velocity S-wave (km/s) = 2.50929 4.29580 3.51784
# Velocity P-wave (km/s) = 5.15126 6.74110 5.99908
#
# Compressibility (1/GPa) = 0.02717672
#
# Stress axis : x y z
#
# Youngs Moduli (GPa) = 130.99479 64.86446 92.39078
#
# Poissons Ratio (x) = -0.03938 0.21601
# Poissons Ratio (y) = -0.07954 0.14948
# Poissons Ratio (z) = 0.30627 0.10495
#
# Static dielectric constant tensor:
#      x y z
#    x 1.791220 0.000000 0.000000 
#    y 0.000000 1.690160 0.000000 
#    z 0.000000 0.000000 1.728980 
# 
# From -- ./inp_files/5610.got.cif
#   From: 2010.05.17/outbox.cif.g08.bks.cpg/sg28_3_cif.got.tgz:5610.got - 2010.06.04 01:15:21.
