data_PCOD9339841
_publ_section_title
;
Structure prediction by ZEFSAII (Michael W. Deem and Ramdas Pophale) SiO2 
 PCOD9339841
Probable space group: P M A 2
;
_chemical_formula_sum "Si O2"
_cell_formula_units_Z 28
_cell_length_a 8.616591
_cell_length_b 9.247030
_cell_length_c 18.987366
_cell_angle_alpha 90.000000
_cell_angle_beta 90.000000
_cell_angle_gamma 90.000000
_cell_volume 1512.872984
_symmetry_space_group_name_H-M "P M A 2"
_symmetry_group_IT_number 28
_symmetry_cell_setting 'orthorhombic'
loop_
_space_group_symop_operation_xyz
x,y,z
-x,-y,z
1/2-x,y,z
1/2+x,-y,z
loop_
_atom_site_type_symbol
_atom_site_label
_atom_site_fract_x
_atom_site_fract_y
_atom_site_fract_z
Si Si1 0.435680 0.164369 0.852750
Si Si2 0.936570 0.162136 0.427181
Si Si3 0.562628 0.338533 0.287804
Si Si4 0.435627 0.835647 0.996193
Si Si5 0.437163 0.163118 0.698010
Si Si6 0.436718 0.338111 0.560245
Si Si7 0.937427 0.163208 0.150981
O O1 0.250000 0.160202 0.857454
O O2 0.481443 0.222871 0.775633
O O3 0.500000 0.000000 0.851710
O O4 0.499972 0.233904 0.924484
O O5 0.750000 0.159550 0.430411
O O6 0.984116 0.245334 0.355877
O O7 0.001319 0.246553 0.494548
O O8 0.000000 0.000000 0.426317
O O9 0.500000 0.500000 0.292925
O O10 0.750000 0.343142 0.286676
O O11 0.509271 0.260674 0.215982
O O12 0.250000 0.840085 0.991413
O O13 0.480798 0.776773 0.073308
O O14 0.500000 0.000000 0.997310
O O15 0.250000 0.154880 0.696714
O O16 0.487822 0.261469 0.632991
O O17 0.500000 0.000000 0.690348
O O18 0.500000 0.500000 0.556403
O O19 0.250000 0.340125 0.558396
O O20 0.750000 0.155684 0.152903
O O21 0.000000 0.000000 0.158096
#
# Coordination Sequence:
#
# PCOD9339841 Si02
#       7
#     4   4   4   4   4   4   4
#     4   9  15  25  42  67  98 129 164 207 255 303
#     4  11  23  39  60  85 110 137 172 214 260 309
#     4  10  22  38  55  77 106 139 174 212 255 305
#     4   9  15  24  41  67  98 129 163 206 255 302
#     4   9  19  33  51  75 103 135 172 215 259 307
#     4  11  23  39  57  79 108 141 177 216 261 312
#     4   9  18  32  50  74 103 134 171 214 257 304
#
# _framework density 18.507833000000002
#
# number of rings (size 3 to 8) (size 9 to 14) (size 15 to 20)
#    0.000    2.286    0.000    3.857    0.000    6.286 
#    0.000    0.000    0.000    0.857    0.000    6.000 
#    0.000    0.000    0.000    0.000    0.000    0.000 
#
# Total GULP energy -156157.754034 kJ/mol
# GULP energy per Si atom -5577.062644 kJ/mol
# Density = 1.846571 g / cm^3
# Si number density = 18.507833 Si / 1000 Ang^3
#
#
#
# Elastic Constant Matrix: (Units=GPa)
#
#
# Indices 1 2 3 4 5 6 
#
# 1 36.6190 23.1758 49.7246 0.0000 0.0000 0.0000
# 2 23.1758 105.9491 93.9982 0.0000 0.0000 0.0000
# 3 49.7246 93.9982 236.7962 0.0000 0.0000 0.0000
# 4 0.0000 0.0000 0.0000 -0.5993 0.0000 0.0000
# 5 0.0000 0.0000 0.0000 0.0000 25.8500 0.0000
# 6 0.0000 0.0000 0.0000 0.0000 0.0000 23.0612
#
#
#
# Elastic Compliance Matrix: (Units=1/GPa)
#
#
# Indices 1 2 3 4 5 6 
#
# 1 0.038454 -0.001926 -0.007310 0.000000 0.000000 0.000000
# 2 -0.001926 0.014666 -0.005417 0.000000 0.000000 0.000000
# 3 -0.007310 -0.005417 0.007909 0.000000 0.000000 0.000000
# 4 0.000000 0.000000 0.000000 -1.668481 0.000000 0.000000
# 5 0.000000 0.000000 0.000000 0.000000 0.038685 0.000000
# 6 0.000000 0.000000 0.000000 0.000000 0.000000 0.043363
#
#
# Mechanical properties :
#
#
# Convention : Reuss Voigt Hill
#
# Bulk Modulus (GPa) = 31.52455 79.24017 55.38236
# Shear Modulus (GPa) = -3.36581 23.82675 10.23047
#
# Velocity S-wave (km/s) = -1.35001 3.59191 2.35364
# Velocity P-wave (km/s) = 3.82623 7.75305 6.11350
#
# Compressibility (1/GPa) = 0.03172131
#
# Stress axis : x y z
#
# Youngs Moduli (GPa) = 26.00526 68.18449 126.44383
#
# Poissons Ratio (x) = 0.13130 0.92436
# Poissons Ratio (y) = 0.05008 0.68500
# Poissons Ratio (z) = 0.19011 0.36939
#
# Static dielectric constant tensor:
#      x y z
#    x 1.630410 0.000000 0.000000 
#    y 0.000000 1.575500 0.000000 
#    z 0.000000 0.000000 1.699370 
# 
# From -- ./inp_files/6768.got.cif
#   From: 2010.05.17/outbox.cif.g08.bks.cpg/sg28_4_cif.got.tgz:6768.got - 2010.06.04 01:15:21.
