data_PCOD9339955
_publ_section_title
;
Structure prediction by ZEFSAII (Michael W. Deem and Ramdas Pophale) SiO2 
 PCOD9339955
Probable space group: P M A 2
;
_chemical_formula_sum "Si O2"
_cell_formula_units_Z 20
_cell_length_a 9.787470
_cell_length_b 7.711686
_cell_length_c 11.154484
_cell_angle_alpha 90.000000
_cell_angle_beta 90.000000
_cell_angle_gamma 90.000000
_cell_volume 841.916976
_symmetry_space_group_name_H-M "P M A 2"
_symmetry_group_IT_number 28
_symmetry_cell_setting 'orthorhombic'
loop_
_space_group_symop_operation_xyz
x,y,z
-x,-y,z
1/2-x,y,z
1/2+x,-y,z
loop_
_atom_site_type_symbol
_atom_site_label
_atom_site_fract_x
_atom_site_fract_y
_atom_site_fract_z
Si Si1 0.750000 0.778351 0.129190
Si Si2 0.000000 0.000000 0.546795
Si Si3 0.000000 0.500000 0.524911
Si Si4 0.001921 0.194069 0.960904
Si Si5 0.250000 0.642116 0.106786
Si Si6 0.250000 0.154495 0.395627
Si Si7 0.403166 0.262990 0.713915
Si Si8 0.250000 0.580743 0.380828
O O1 0.750000 0.568023 0.116553
O O2 0.750000 0.876463 0.254828
O O3 0.616688 0.831855 0.059568
O O4 0.878599 0.928240 0.464160
O O5 0.019052 0.847091 0.644309
O O6 0.895655 0.582178 0.619894
O O7 0.898810 0.384575 0.441061
O O8 0.052058 0.305924 0.847806
O O9 0.877102 0.280737 0.031906
O O10 0.000000 0.000000 0.905594
O O11 0.250000 0.674122 0.250898
O O12 0.250000 0.366928 0.387225
O O13 0.250000 0.182201 0.719064
#
# Coordination Sequence:
#
# PCOD9339955 Si02
#       8
#     2   2   2   4   2   2   4   2
#     4  11  27  49  71 105 158 196 250 317 363 454
#     4  12  22  48  74 106 152 194 240 300 384 434
#     4  12  24  48  76 108 142 198 240 310 372 448
#     4  12  27  49  77 109 150 198 249 315 374 444
#     4  11  29  47  79 114 141 204 259 303 383 439
#     4  11  26  46  72 109 148 195 246 308 366 441
#     4  12  26  47  74 111 153 190 247 308 375 447
#     4  11  26  50  72 106 157 187 251 312 368 444
#
# _framework density 23.755312
#
# number of rings (size 3 to 8) (size 9 to 14) (size 15 to 20)
#    0.000    0.400    6.000    1.200    9.800    2.400 
#    3.600    0.000    0.000    0.000    0.000    0.000 
#    0.000    0.000    0.000    0.000    0.000    0.000 
#
# Total GULP energy -111400.757725 kJ/mol
# GULP energy per Si atom -5570.037886 kJ/mol
# Density = 2.370124 g / cm^3
# Si number density = 23.755312 Si / 1000 Ang^3
#
#
#
# Elastic Constant Matrix: (Units=GPa)
#
#
# Indices 1 2 3 4 5 6 
#
# 1 138.0811 12.1495 76.0972 0.0000 0.0000 0.0000
# 2 12.1495 59.3596 9.8125 0.0000 0.0000 0.0000
# 3 76.0972 9.8125 228.7747 0.0000 0.0000 0.0000
# 4 0.0000 0.0000 0.0000 30.4826 0.0000 0.0000
# 5 0.0000 0.0000 0.0000 0.0000 31.9233 0.0000
# 6 0.0000 0.0000 0.0000 0.0000 0.0000 21.5006
#
#
#
# Elastic Compliance Matrix: (Units=1/GPa)
#
#
# Indices 1 2 3 4 5 6 
#
# 1 0.008974 -0.001353 -0.002927 0.000000 0.000000 0.000000
# 2 -0.001353 0.017171 -0.000286 0.000000 0.000000 0.000000
# 3 -0.002927 -0.000286 0.005357 0.000000 0.000000 0.000000
# 4 0.000000 0.000000 0.000000 0.032806 0.000000 0.000000
# 5 0.000000 0.000000 0.000000 0.000000 0.031325 0.000000
# 6 0.000000 0.000000 0.000000 0.000000 0.000000 0.046510
#
#
# Mechanical properties :
#
#
# Convention : Reuss Voigt Hill
#
# Bulk Modulus (GPa) = 44.70455 69.14821 56.92638
# Shear Modulus (GPa) = 31.49953 38.65836 35.07894
#
# Velocity S-wave (km/s) = 3.64538 4.03843 3.84693
# Velocity P-wave (km/s) = 6.04797 7.13561 6.61419
#
# Compressibility (1/GPa) = 0.02236909
#
# Stress axis : x y z
#
# Youngs Moduli (GPa) = 111.42935 58.23859 186.67045
#
# Poissons Ratio (x) = 0.07879 0.54640
# Poissons Ratio (y) = 0.15076 0.05347
# Poissons Ratio (z) = 0.32616 0.01668
#
# Static dielectric constant tensor:
#      x y z
#    x 1.865310 0.000000 0.000000 
#    y 0.000000 2.195270 0.000000 
#    z 0.000000 0.000000 1.874060 
# 
# From -- ./inp_files/4656.got.cif
#   From: 2010.05.17/outbox.cif.g08.bks.cpg/sg28_3_cif.got.tgz:4656.got - 2010.06.04 01:15:21.
