data_PCOD9339343
_publ_section_title
;
Structure prediction by ZEFSAII (Michael W. Deem and Ramdas Pophale) SiO2 
 PCOD9339343
Probable space group: P M A 2
;
_chemical_formula_sum "Si O2"
_cell_formula_units_Z 32
_cell_length_a 14.297071
_cell_length_b 9.618915
_cell_length_c 11.941272
_cell_angle_alpha 90.000000
_cell_angle_beta 90.000000
_cell_angle_gamma 90.000000
_cell_volume 1642.191318
_symmetry_space_group_name_H-M "P M A 2"
_symmetry_group_IT_number 28
_symmetry_cell_setting 'orthorhombic'
loop_
_space_group_symop_operation_xyz
x,y,z
-x,-y,z
1/2-x,y,z
1/2+x,-y,z
loop_
_atom_site_type_symbol
_atom_site_label
_atom_site_fract_x
_atom_site_fract_y
_atom_site_fract_z
Si Si1 0.362140 0.856248 0.395900
Si Si2 0.474198 0.353960 0.382891
Si Si3 0.135872 0.345602 0.613035
Si Si4 0.860543 0.874509 0.988112
Si Si5 0.032192 0.355576 0.841154
Si Si6 0.862191 0.878959 0.245243
Si Si7 0.852752 0.972849 0.600394
Si Si8 0.412158 0.902863 0.814440
O O1 0.250000 0.826085 0.400436
O O2 0.425856 0.721498 0.393575
O O3 0.399024 0.935844 0.506320
O O4 0.379380 0.968279 0.297476
O O5 0.500000 0.500000 0.326146
O O6 0.418193 0.387866 0.499191
O O7 0.411176 0.242706 0.315902
O O8 0.250000 0.366437 0.609502
O O9 0.089652 0.398501 0.728762
O O10 0.112875 0.180886 0.622278
O O11 0.750000 0.853353 0.985261
O O12 0.892971 0.874297 0.116111
O O13 0.906788 0.749746 0.917163
O O14 0.880310 0.023568 0.929058
O O15 0.000000 0.500000 0.895614
O O16 0.943065 0.255967 0.816853
O O17 0.750000 0.858022 0.250215
O O18 0.750000 0.946302 0.550821
O O19 0.845632 0.060580 0.712742
O O20 0.500000 0.000000 0.781698
#
# Coordination Sequence:
#
# PCOD9339343 Si02
#       8
#     4   4   4   4   4   4   4   4
#     4  10  22  38  60  89 117 151 198 250 295 350
#     4  12  25  38  59  88 124 161 192 239 300 363
#     4  11  21  37  61  87 120 160 202 242 292 352
#     4  10  21  40  63  85 112 150 200 255 301 347
#     4  11  23  37  56  88 124 160 194 237 295 364
#     4  10  22  41  64  87 111 151 207 255 298 348
#     4  10  18  32  57  85 110 142 194 246 289 336
#     4  10  19  32  57  84 112 145 192 239 287 343
#
# _framework density 19.486158
#
# number of rings (size 3 to 8) (size 9 to 14) (size 15 to 20)
#    0.000    1.500    3.750    2.625    0.000    4.500 
#    0.000    3.750    0.000    3.000    0.000    0.000 
#    0.000    0.000    0.000    0.000    0.000    0.000 
#
# Total GULP energy -178311.684726 kJ/mol
# GULP energy per Si atom -5572.240148 kJ/mol
# Density = 1.944181 g / cm^3
# Si number density = 19.486158 Si / 1000 Ang^3
#
#
#
# Elastic Constant Matrix: (Units=GPa)
#
#
# Indices 1 2 3 4 5 6 
#
# 1 74.3307 24.8316 26.6795 0.0000 0.0000 0.0000
# 2 24.8316 91.1097 5.0144 0.0000 0.0000 0.0000
# 3 26.6795 5.0144 95.1011 0.0000 0.0000 0.0000
# 4 0.0000 0.0000 0.0000 40.1486 0.0000 0.0000
# 5 0.0000 0.0000 0.0000 0.0000 28.2544 0.0000
# 6 0.0000 0.0000 0.0000 0.0000 0.0000 57.9453
#
#
#
# Elastic Compliance Matrix: (Units=1/GPa)
#
#
# Indices 1 2 3 4 5 6 
#
# 1 0.016446 -0.004241 -0.004390 0.000000 0.000000 0.000000
# 2 -0.004241 0.012101 0.000552 0.000000 0.000000 0.000000
# 3 -0.004390 0.000552 0.011718 0.000000 0.000000 0.000000
# 4 0.000000 0.000000 0.000000 0.024907 0.000000 0.000000
# 5 0.000000 0.000000 0.000000 0.000000 0.035393 0.000000
# 6 0.000000 0.000000 0.000000 0.000000 0.000000 0.017258
#
#
# Mechanical properties :
#
#
# Convention : Reuss Voigt Hill
#
# Bulk Modulus (GPa) = 41.48280 41.51031 41.49655
# Shear Modulus (GPa) = 35.20728 38.87073 37.03900
#
# Velocity S-wave (km/s) = 4.25524 4.47115 4.36453
# Velocity P-wave (km/s) = 6.74369 6.92846 6.83670
#
# Compressibility (1/GPa) = 0.02410638
#
# Stress axis : x y z
#
# Youngs Moduli (GPa) = 60.80585 82.63654 85.34149
#
# Poissons Ratio (x) = 0.35043 0.37466
# Poissons Ratio (y) = 0.25785 -0.04707
# Poissons Ratio (z) = 0.26694 -0.04558
#
# Static dielectric constant tensor:
#      x y z
#    x 1.745800 0.000000 0.000000 
#    y 0.000000 1.394320 0.000000 
#    z 0.000000 0.000000 1.744400 
# 
# From -- ./inp_files/5561.got.cif
#   From: 2010.05.17/outbox.cif.g08.bks.cpg/sg28_3_cif.got.tgz:5561.got - 2010.06.04 01:15:21.
