data_PCOD9339349
_publ_section_title
;
Structure prediction by ZEFSAII (Michael W. Deem and Ramdas Pophale) SiO2 
 PCOD9339349
Probable space group: P M A 2
;
_chemical_formula_sum "Si O2"
_cell_formula_units_Z 32
_cell_length_a 15.643093
_cell_length_b 8.242748
_cell_length_c 11.813297
_cell_angle_alpha 90.000000
_cell_angle_beta 90.000000
_cell_angle_gamma 90.000000
_cell_volume 1523.231011
_symmetry_space_group_name_H-M "P M A 2"
_symmetry_group_IT_number 28
_symmetry_cell_setting 'orthorhombic'
loop_
_space_group_symop_operation_xyz
x,y,z
-x,-y,z
1/2-x,y,z
1/2+x,-y,z
loop_
_atom_site_type_symbol
_atom_site_label
_atom_site_fract_x
_atom_site_fract_y
_atom_site_fract_z
Si Si1 0.651455 0.272719 0.418560
Si Si2 0.048764 0.133876 0.893272
Si Si3 0.907909 0.580194 0.297326
Si Si4 0.148548 0.393822 0.041298
Si Si5 0.416690 0.612038 0.851513
Si Si6 0.352396 0.162650 0.664915
Si Si7 0.651752 0.472753 0.623059
Si Si8 0.147761 0.080924 0.410596
O O1 0.750000 0.230215 0.445423
O O2 0.651058 0.430088 0.337979
O O3 0.611140 0.348743 0.533488
O O4 0.617068 0.099907 0.371680
O O5 0.100727 0.101190 0.777358
O O6 0.961353 0.217951 0.852721
O O7 0.107870 0.249161 0.967614
O O8 0.000000 0.000000 0.967741
O O9 0.891977 0.606262 0.164816
O O10 0.893340 0.752911 0.360681
O O11 0.000000 0.500000 0.317938
O O12 0.250000 0.377801 0.048849
O O13 0.123821 0.553467 0.968912
O O14 0.500000 0.500000 0.830359
O O15 0.352399 0.596070 0.748824
O O16 0.250000 0.169117 0.687916
O O17 0.383956 0.345984 0.636080
O O18 0.364937 0.071424 0.546607
O O19 0.750000 0.496637 0.586313
O O20 0.250000 0.101887 0.387758
#
# Coordination Sequence:
#
# PCOD9339349 Si02
#       8
#     4   4   4   4   4   4   4   4
#     4  10  22  40  64  95 129 170 223 272 319 392
#     4  11  24  40  60  95 136 167 204 271 336 391
#     4  12  25  43  68  94 128 174 218 279 339 389
#     4  11  23  46  72  88 116 169 227 269 323 398
#     4  10  20  36  59  89 122 160 208 264 321 383
#     4  10  19  37  64  90 129 181 221 259 320 394
#     4  10  18  33  60  89 124 169 214 260 316 386
#     4  10  22  42  65  95 134 175 222 269 319 390
#
# _framework density 21.007974999999998
#
# number of rings (size 3 to 8) (size 9 to 14) (size 15 to 20)
#    0.000    1.500    3.750    3.000    1.750    2.000 
#    4.500    1.875    0.000    0.000    0.000    0.000 
#    0.000    0.000    0.000    0.000    0.000    0.000 
#
# Total GULP energy -178183.789872 kJ/mol
# GULP energy per Si atom -5568.243433 kJ/mol
# Density = 2.096016 g / cm^3
# Si number density = 21.007975 Si / 1000 Ang^3
#
#
#
# Elastic Constant Matrix: (Units=GPa)
#
#
# Indices 1 2 3 4 5 6 
#
# 1 60.2039 33.6090 11.9705 0.0000 0.0000 0.0000
# 2 33.6090 95.1293 28.0080 0.0000 0.0000 0.0000
# 3 11.9705 28.0080 105.8341 0.0000 0.0000 0.0000
# 4 0.0000 0.0000 0.0000 13.4385 0.0000 0.0000
# 5 0.0000 0.0000 0.0000 0.0000 169.3752 0.0000
# 6 0.0000 0.0000 0.0000 0.0000 0.0000 4.9625
#
#
#
# Elastic Compliance Matrix: (Units=1/GPa)
#
#
# Indices 1 2 3 4 5 6 
#
# 1 0.020710 -0.007187 -0.000440 0.000000 0.000000 0.000000
# 2 -0.007187 0.013894 -0.002864 0.000000 0.000000 0.000000
# 3 -0.000440 -0.002864 0.010257 0.000000 0.000000 0.000000
# 4 0.000000 0.000000 0.000000 0.074413 0.000000 0.000000
# 5 0.000000 0.000000 0.000000 0.000000 0.005904 0.000000
# 6 0.000000 0.000000 0.000000 0.000000 0.000000 0.201511
#
#
# Mechanical properties :
#
#
# Convention : Reuss Voigt Hill
#
# Bulk Modulus (GPa) = 41.88018 45.37136 43.62577
# Shear Modulus (GPa) = 14.05948 50.06056 32.06002
#
# Velocity S-wave (km/s) = 2.58978 4.88682 3.91076
# Velocity P-wave (km/s) = 5.37785 7.31338 6.41899
#
# Compressibility (1/GPa) = 0.02387764
#
# Stress axis : x y z
#
# Youngs Moduli (GPa) = 48.28582 71.97107 97.49883
#
# Poissons Ratio (x) = 0.51727 0.04294
# Poissons Ratio (y) = 0.34704 0.27925
# Poissons Ratio (z) = 0.02127 0.20614
#
# Static dielectric constant tensor:
#      x y z
#    x 1.701430 0.000000 0.000000 
#    y 0.000000 1.804510 0.000000 
#    z 0.000000 0.000000 1.740510 
# 
# From -- ./inp_files/5552.got.cif
#   From: 2010.05.17/outbox.cif.g08.bks.cpg/sg28_3_cif.got.tgz:5552.got - 2010.06.04 01:15:21.
