data_PCOD9339556
_publ_section_title
;
Structure prediction by ZEFSAII (Michael W. Deem and Ramdas Pophale) SiO2 
 PCOD9339556
Probable space group: P M A 2
;
_chemical_formula_sum "Si O2"
_cell_formula_units_Z 32
_cell_length_a 15.702190
_cell_length_b 7.751220
_cell_length_c 11.789017
_cell_angle_alpha 90.000000
_cell_angle_beta 90.000000
_cell_angle_gamma 90.000000
_cell_volume 1434.854571
_symmetry_space_group_name_H-M "P M A 2"
_symmetry_group_IT_number 28
_symmetry_cell_setting 'orthorhombic'
loop_
_space_group_symop_operation_xyz
x,y,z
-x,-y,z
1/2-x,y,z
1/2+x,-y,z
loop_
_atom_site_type_symbol
_atom_site_label
_atom_site_fract_x
_atom_site_fract_y
_atom_site_fract_z
Si Si1 0.343957 0.391540 0.399130
Si Si2 0.496035 0.205151 0.812768
Si Si3 0.343024 0.804929 0.438326
Si Si4 0.991012 0.707181 0.549545
Si Si5 0.558320 0.636645 0.176084
Si Si6 0.078738 0.868776 0.211030
Si Si7 0.347171 0.716231 0.977989
Si Si8 0.346257 0.305443 0.975993
O O1 0.250000 0.319761 0.410689
O O2 0.340685 0.594365 0.432334
O O3 0.406603 0.271907 0.473393
O O4 0.370705 0.400313 0.267737
O O5 0.488113 0.264152 0.683600
O O6 0.581350 0.263749 0.880367
O O7 0.410425 0.269197 0.874801
O O8 0.500000 0.000000 0.817585
O O9 0.250000 0.857728 0.484247
O O10 0.430407 0.825329 0.507527
O O11 0.356565 0.890110 0.314053
O O12 0.000000 0.500000 0.533706
O O13 0.500000 0.500000 0.106239
O O14 0.478780 0.704649 0.249637
O O15 0.603970 0.761593 0.086783
O O16 0.121771 0.816032 0.091839
O O17 0.000000 0.000000 0.201028
O O18 0.250000 0.772040 0.948061
O O19 0.340901 0.510742 0.000356
O O20 0.250000 0.240760 0.961606
#
# Coordination Sequence:
#
# PCOD9339556 Si02
#       8
#     4   4   4   4   4   4   4   4
#     4  10  19  35  63  98 126 159 211 265 311 364
#     4  12  26  44  64  90 129 170 207 265 336 397
#     4  10  20  38  65  93 124 165 213 261 309 371
#     4  10  21  40  65  90 118 164 222 274 316 370
#     4  12  18  36  64  92 130 167 204 249 310 379
#     4  12  23  37  61  94 135 173 205 250 321 386
#     4  11  23  42  67  95 124 166 219 267 314 377
#     4  11  23  40  68  98 125 164 217 269 313 374
#
# _framework density 22.301911
#
# number of rings (size 3 to 8) (size 9 to 14) (size 15 to 20)
#    0.000    1.000    5.000    2.625    0.000    4.000 
#    0.000    4.375    0.000    0.000    0.000    0.000 
#    0.000    0.000    0.000    0.000    0.000    0.000 
#
# Total GULP energy -178311.872502 kJ/mol
# GULP energy per Si atom -5572.246016 kJ/mol
# Density = 2.225115 g / cm^3
# Si number density = 22.301911 Si / 1000 Ang^3
#
#
#
# Elastic Constant Matrix: (Units=GPa)
#
#
# Indices 1 2 3 4 5 6 
#
# 1 223.9641 18.3308 87.4695 0.0000 0.0000 0.0000
# 2 18.3308 38.9822 -1.6034 0.0000 0.0000 0.0000
# 3 87.4695 -1.6034 109.1335 0.0000 0.0000 0.0000
# 4 0.0000 0.0000 0.0000 -4.6224 0.0000 0.0000
# 5 0.0000 0.0000 0.0000 0.0000 8.4911 0.0000
# 6 0.0000 0.0000 0.0000 0.0000 0.0000 8.0821
#
#
#
# Elastic Compliance Matrix: (Units=1/GPa)
#
#
# Indices 1 2 3 4 5 6 
#
# 1 0.006945 -0.003497 -0.005618 0.000000 0.000000 0.000000
# 2 -0.003497 0.027429 0.003206 0.000000 0.000000 0.000000
# 3 -0.005618 0.003206 0.013713 0.000000 0.000000 0.000000
# 4 0.000000 0.000000 0.000000 -0.216337 0.000000 0.000000
# 5 0.000000 0.000000 0.000000 0.000000 0.117770 0.000000
# 6 0.000000 0.000000 0.000000 0.000000 0.000000 0.123730
#
#
# Mechanical properties :
#
#
# Convention : Reuss Voigt Hill
#
# Bulk Modulus (GPa) = 27.57183 64.49706 46.03445
# Shear Modulus (GPa) = 51.46273 20.24903 35.85588
#
# Velocity S-wave (km/s) = 4.80891 3.01649 4.01402
# Velocity P-wave (km/s) = 6.57449 6.41210 6.49380
#
# Compressibility (1/GPa) = 0.03626890
#
# Stress axis : x y z
#
# Youngs Moduli (GPa) = 143.98144 36.45775 72.92365
#
# Poissons Ratio (x) = 0.12749 0.40969
# Poissons Ratio (y) = 0.50350 -0.23378
# Poissons Ratio (z) = 0.80889 -0.11688
#
# Static dielectric constant tensor:
#      x y z
#    x 1.888690 0.000000 0.000000 
#    y 0.000000 2.149730 0.000000 
#    z 0.000000 0.000000 1.803340 
# 
# From -- ./inp_files/5627.got.cif
#   From: 2010.05.17/outbox.cif.g08.bks.cpg/sg28_3_cif.got.tgz:5627.got - 2010.06.04 01:15:21.
