data_PCOD9339784
_publ_section_title
;
Structure prediction by ZEFSAII (Michael W. Deem and Ramdas Pophale) SiO2 
 PCOD9339784
Probable space group: P M A 2
;
_chemical_formula_sum "Si O2"
_cell_formula_units_Z 20
_cell_length_a 28.142201
_cell_length_b 5.131900
_cell_length_c 4.872296
_cell_angle_alpha 90.000000
_cell_angle_beta 90.000000
_cell_angle_gamma 90.000000
_cell_volume 703.671417
_symmetry_space_group_name_H-M "P M A 2"
_symmetry_group_IT_number 28
_symmetry_cell_setting 'orthorhombic'
loop_
_space_group_symop_operation_xyz
x,y,z
-x,-y,z
1/2-x,y,z
1/2+x,-y,z
loop_
_atom_site_type_symbol
_atom_site_label
_atom_site_fract_x
_atom_site_fract_y
_atom_site_fract_z
Si Si1 0.549405 0.936754 0.699530
Si Si2 0.147104 0.916861 0.688899
Si Si3 0.853438 0.573229 0.335886
Si Si4 0.250000 0.062780 0.879817
Si Si5 0.750000 0.619183 0.354214
Si Si6 0.049341 0.563131 0.317942
O O1 0.548703 0.653080 0.563557
O O2 0.500000 0.000000 0.849970
O O3 0.599363 0.995231 0.847135
O O4 0.549325 0.151469 0.451352
O O5 0.141409 0.623872 0.590392
O O6 0.146985 0.129896 0.439791
O O7 0.199153 0.942259 0.813065
O O8 0.799762 0.507568 0.245131
O O9 0.900845 0.501333 0.170229
O O10 0.250000 0.323468 0.679390
O O11 0.250000 0.102605 0.204527
O O12 0.000000 0.500000 0.166136
#
# Coordination Sequence:
#
# PCOD9339784 Si02
#       6
#     4   4   4   2   2   4
#     4   8  13  22  40  68 100 135 175 220 270 324
#     4   9  17  31  50  76 109 144 184 229 278 332
#     4   9  17  31  50  76 109 144 184 229 278 332
#     4  10  21  38  58  84 114 150 190 234 282 336
#     4  10  21  38  58  84 114 150 190 234 282 336
#     4   8  13  22  40  68 100 135 175 220 270 324
#
# _framework density 28.422357999999999
#
# number of rings (size 3 to 8) (size 9 to 14) (size 15 to 20)
#    0.000    3.200    0.000    0.600    0.000    0.000 
#    0.000   16.000    0.000    0.000    0.000   53.200 
#    0.000    0.000    0.000    0.000    0.000    0.000 
#
# Total GULP energy -111757.327592 kJ/mol
# GULP energy per Si atom -5587.866380 kJ/mol
# Density = 2.835767 g / cm^3
# Si number density = 28.422358 Si / 1000 Ang^3
#
#
#
# Elastic Constant Matrix: (Units=GPa)
#
#
# Indices 1 2 3 4 5 6 
#
# 1 336.8115 12.6284 25.2742 0.0000 0.0000 0.0000
# 2 12.6284 146.3828 44.9596 0.0000 0.0000 0.0000
# 3 25.2742 44.9596 78.0510 0.0000 0.0000 0.0000
# 4 0.0000 0.0000 0.0000 51.0339 0.0000 0.0000
# 5 0.0000 0.0000 0.0000 0.0000 -50.4444 0.0000
# 6 0.0000 0.0000 0.0000 0.0000 0.0000 41.3104
#
#
#
# Elastic Compliance Matrix: (Units=1/GPa)
#
#
# Indices 1 2 3 4 5 6 
#
# 1 0.003043 0.000049 -0.001014 0.000000 0.000000 0.000000
# 2 0.000049 0.008301 -0.004797 0.000000 0.000000 0.000000
# 3 -0.001014 -0.004797 0.015904 0.000000 0.000000 0.000000
# 4 0.000000 0.000000 0.000000 0.019595 0.000000 0.000000
# 5 0.000000 0.000000 0.000000 0.000000 -0.019824 0.000000
# 6 0.000000 0.000000 0.000000 0.000000 0.000000 0.024207
#
#
# Mechanical properties :
#
#
# Convention : Reuss Voigt Hill
#
# Bulk Modulus (GPa) = 63.59876 80.77442 72.18659
# Shear Modulus (GPa) = 73.53960 40.27217 56.90589
#
# Velocity S-wave (km/s) = 5.09215 3.76828 4.47940
# Velocity P-wave (km/s) = 7.54972 6.88580 7.22539
#
# Compressibility (1/GPa) = 0.01572358
#
# Stress axis : x y z
#
# Youngs Moduli (GPa) = 328.59638 120.47342 62.87872
#
# Poissons Ratio (x) = -0.00587 0.06373
# Poissons Ratio (y) = -0.01602 0.30164
# Poissons Ratio (z) = 0.33304 0.57793
#
# Static dielectric constant tensor:
#      x y z
#    x 2.383390 0.000000 0.000000 
#    y 0.000000 2.210870 0.000000 
#    z 0.000000 0.000000 2.078490 
# 
# From -- ./inp_files/1811.got.cif
#   From: 2010.05.17/outbox.cif.g08.bks.cpg/sg28_1_cif.got.tgz:1811.got - 2010.06.04 01:15:21.
