data_PCOD9339426
_publ_section_title
;
Structure prediction by ZEFSAII (Michael W. Deem and Ramdas Pophale) SiO2 
 PCOD9339426
Probable space group: P M A 2
;
_chemical_formula_sum "Si O2"
_cell_formula_units_Z 32
_cell_length_a 8.497549
_cell_length_b 17.300665
_cell_length_c 11.601581
_cell_angle_alpha 90.000000
_cell_angle_beta 90.000000
_cell_angle_gamma 90.000000
_cell_volume 1705.586111
_symmetry_space_group_name_H-M "P M A 2"
_symmetry_group_IT_number 28
_symmetry_cell_setting 'orthorhombic'
loop_
_space_group_symop_operation_xyz
x,y,z
-x,-y,z
1/2-x,y,z
1/2+x,-y,z
loop_
_atom_site_type_symbol
_atom_site_label
_atom_site_fract_x
_atom_site_fract_y
_atom_site_fract_z
Si Si1 0.063270 0.215820 0.801560
Si Si2 0.431999 0.427334 0.904170
Si Si3 0.934183 0.281336 0.021836
Si Si4 0.440089 0.586854 0.420522
Si Si5 0.435103 0.634638 0.679224
Si Si6 0.060902 0.084909 0.374367
Si Si7 0.439133 0.080536 0.639422
Si Si8 0.061740 0.747612 0.289239
O O1 0.250000 0.210625 0.822837
O O2 0.004966 0.146663 0.723233
O O3 0.030241 0.290923 0.722884
O O4 0.974336 0.219506 0.923037
O O5 0.500000 0.500000 0.971347
O O6 0.250000 0.434139 0.875203
O O7 0.534579 0.420713 0.787740
O O8 0.461221 0.352670 0.980631
O O9 0.750000 0.302206 0.012497
O O10 0.967262 0.260006 0.152678
O O11 0.500000 0.500000 0.386775
O O12 0.250000 0.583994 0.412317
O O13 0.484258 0.601819 0.555203
O O14 0.490507 0.666206 0.351772
O O15 0.250000 0.653344 0.672052
O O16 0.250000 0.081798 0.368687
O O17 0.006251 0.088797 0.507854
O O18 0.007933 0.168553 0.324887
O O19 0.000000 0.000000 0.329824
O O20 0.250000 0.082593 0.636733
O O21 0.500000 0.000000 0.684683
O O22 0.250000 0.751863 0.309281
#
# Coordination Sequence:
#
# PCOD9339426 Si02
#       8
#     4   4   4   4   4   4   4   4
#     4  10  19  33  53  78 107 137 174 218 266 320
#     4  11  21  34  53  76 104 136 174 221 270 319
#     4  10  21  37  55  75 102 138 181 223 265 315
#     4  10  22  37  54  79 111 146 183 226 275 328
#     4  10  19  32  52  78 106 137 174 216 269 327
#     4  10  20  36  60  88 115 144 180 222 272 328
#     4   9  19  33  52  81 112 139 168 209 261 320
#     4  10  22  40  58  79 110 147 188 233 276 321
#
# _framework density 18.761877999999999
#
# number of rings (size 3 to 8) (size 9 to 14) (size 15 to 20)
#    0.000    2.000    0.000    5.250    0.000    5.500 
#    0.000    1.875    0.000    1.500    0.000    0.000 
#    0.000    0.000    0.000    0.000    0.000    0.000 
#
# Total GULP energy -178256.105944 kJ/mol
# GULP energy per Si atom -5570.503311 kJ/mol
# Density = 1.871917 g / cm^3
# Si number density = 18.761878 Si / 1000 Ang^3
#
#
#
# Elastic Constant Matrix: (Units=GPa)
#
#
# Indices 1 2 3 4 5 6 
#
# 1 33.8163 20.2543 28.3812 0.0000 0.0000 0.0000
# 2 20.2543 138.5065 56.5118 0.0000 0.0000 0.0000
# 3 28.3812 56.5118 69.7500 0.0000 0.0000 0.0000
# 4 0.0000 0.0000 0.0000 -0.4697 0.0000 0.0000
# 5 0.0000 0.0000 0.0000 0.0000 18.0757 0.0000
# 6 0.0000 0.0000 0.0000 0.0000 0.0000 33.9035
#
#
#
# Elastic Compliance Matrix: (Units=1/GPa)
#
#
# Indices 1 2 3 4 5 6 
#
# 1 0.045071 0.001332 -0.019419 0.000000 0.000000 0.000000
# 2 0.001332 0.010824 -0.009312 0.000000 0.000000 0.000000
# 3 -0.019419 -0.009312 0.029783 0.000000 0.000000 0.000000
# 4 0.000000 0.000000 0.000000 -2.128970 0.000000 0.000000
# 5 0.000000 0.000000 0.000000 0.000000 0.055323 0.000000
# 6 0.000000 0.000000 0.000000 0.000000 0.000000 0.029495
#
#
# Mechanical properties :
#
#
# Convention : Reuss Voigt Hill
#
# Bulk Modulus (GPa) = 32.38191 50.26305 41.32248
# Shear Modulus (GPa) = -2.64078 19.43026 8.39474
#
# Velocity S-wave (km/s) = -1.18768 3.22160 2.11756
# Velocity P-wave (km/s) = 3.92634 6.37859 5.29635
#
# Compressibility (1/GPa) = 0.03088144
#
# Stress axis : x y z
#
# Youngs Moduli (GPa) = 22.18700 92.38303 33.57606
#
# Poissons Ratio (x) = -0.12306 0.65201
# Poissons Ratio (y) = -0.02955 0.31266
# Poissons Ratio (z) = 0.43084 0.86028
#
# Static dielectric constant tensor:
#      x y z
#    x 1.636080 0.000000 0.000000 
#    y 0.000000 1.736160 0.000000 
#    z 0.000000 0.000000 1.637380 
# 
# From -- ./inp_files/5086.got.cif
#   From: 2010.05.17/outbox.cif.g08.bks.cpg/sg28_3_cif.got.tgz:5086.got - 2010.06.04 01:15:21.
