data_PCOD9339454
_publ_section_title
;
Structure prediction by ZEFSAII (Michael W. Deem and Ramdas Pophale) SiO2 
 PCOD9339454
Probable space group: P M A 2
;
_chemical_formula_sum "Si O2"
_cell_formula_units_Z 24
_cell_length_a 8.566597
_cell_length_b 9.260716
_cell_length_c 16.609190
_cell_angle_alpha 90.000000
_cell_angle_beta 90.000000
_cell_angle_gamma 90.000000
_cell_volume 1317.653912
_symmetry_space_group_name_H-M "P M A 2"
_symmetry_group_IT_number 28
_symmetry_cell_setting 'orthorhombic'
loop_
_space_group_symop_operation_xyz
x,y,z
-x,-y,z
1/2-x,y,z
1/2+x,-y,z
loop_
_atom_site_type_symbol
_atom_site_label
_atom_site_fract_x
_atom_site_fract_y
_atom_site_fract_z
Si Si1 0.562891 0.834668 0.153810
Si Si2 0.062177 0.163964 0.804048
Si Si3 0.438136 0.164202 0.980044
Si Si4 0.438434 0.836787 0.495376
Si Si5 0.562675 0.338566 0.652020
Si Si6 0.436750 0.835387 0.318951
O O1 0.750000 0.838804 0.157893
O O2 0.500614 0.766741 0.236617
O O3 0.500000 0.000000 0.152833
O O4 0.513968 0.770528 0.066681
O O5 0.250000 0.161633 0.799878
O O6 0.014500 0.224483 0.892725
O O7 0.995909 0.255030 0.730710
O O8 0.000000 0.000000 0.798227
O O9 0.250000 0.160129 0.980522
O O10 0.500000 0.000000 0.979949
O O11 0.250000 0.842694 0.496843
O O12 0.491930 0.743109 0.570989
O O13 0.483556 0.776213 0.406888
O O14 0.500000 0.000000 0.502853
O O15 0.500000 0.500000 0.652555
O O16 0.750000 0.339217 0.652060
O O17 0.250000 0.838884 0.313915
O O18 0.500000 0.000000 0.320185
#
# Coordination Sequence:
#
# PCOD9339454 Si02
#       6
#     4   4   4   4   4   4
#     4   9  14  21  34  57  89 123 153 185 224 270
#     4  10  19  33  52  75 101 131 164 202 243 288
#     4   8  15  25  39  61  92 125 156 189 230 275
#     4   9  19  33  50  71  97 126 159 196 238 285
#     4  11  23  38  53  72  96 126 162 203 249 298
#     4   9  15  24  38  60  89 121 152 187 228 274
#
# _framework density 18.214189999999999
#
# number of rings (size 3 to 8) (size 9 to 14) (size 15 to 20)
#    0.000    2.667    0.000    3.500    0.000    4.667 
#    0.000    0.000    0.000    0.000    0.000    1.167 
#    0.000    5.333    0.000    0.000    0.000    0.000 
#
# Total GULP energy -133606.538567 kJ/mol
# GULP energy per Si atom -5566.939107 kJ/mol
# Density = 1.817273 g / cm^3
# Si number density = 18.214190 Si / 1000 Ang^3
#
#
#
# Elastic Constant Matrix: (Units=GPa)
#
#
# Indices 1 2 3 4 5 6 
#
# 1 39.8974 11.6066 46.1180 0.0000 0.0000 0.0000
# 2 11.6066 40.8455 59.7117 0.0000 0.0000 0.0000
# 3 46.1180 59.7117 255.1306 0.0000 0.0000 0.0000
# 4 0.0000 0.0000 0.0000 -3.6858 0.0000 0.0000
# 5 0.0000 0.0000 0.0000 0.0000 29.4388 0.0000
# 6 0.0000 0.0000 0.0000 0.0000 0.0000 13.9201
#
#
#
# Elastic Compliance Matrix: (Units=1/GPa)
#
#
# Indices 1 2 3 4 5 6 
#
# 1 0.031709 -0.000959 -0.005507 0.000000 0.000000 0.000000
# 2 -0.000959 0.037245 -0.008543 0.000000 0.000000 0.000000
# 3 -0.005507 -0.008543 0.006915 0.000000 0.000000 0.000000
# 4 0.000000 0.000000 0.000000 -0.271309 0.000000 0.000000
# 5 0.000000 0.000000 0.000000 0.000000 0.033969 0.000000
# 6 0.000000 0.000000 0.000000 0.000000 0.000000 0.071838
#
#
# Mechanical properties :
#
#
# Convention : Reuss Voigt Hill
#
# Bulk Modulus (GPa) = 21.81100 63.41625 42.61363
# Shear Modulus (GPa) = -112.78988 22.49710 -45.14639
#
# Velocity S-wave (km/s) = -7.87773 3.51827 -4.98399
# Velocity P-wave (km/s) = 8.41095 7.16916 3.11025
#
# Compressibility (1/GPa) = 0.04584842
#
# Stress axis : x y z
#
# Youngs Moduli (GPa) = 31.53640 26.84945 144.62095
#
# Poissons Ratio (x) = 0.02576 0.79648
# Poissons Ratio (y) = 0.03025 1.23557
# Poissons Ratio (z) = 0.17368 0.22939
#
# Static dielectric constant tensor:
#      x y z
#    x 1.619600 0.000000 0.000000 
#    y 0.000000 1.548890 0.000000 
#    z 0.000000 0.000000 1.729410 
# 
# From -- ./inp_files/6661.got.cif
#   From: 2010.05.17/outbox.cif.g08.bks.cpg/sg28_4_cif.got.tgz:6661.got - 2010.06.04 01:15:21.
