data_PCOD9339436
_publ_section_title
;
Structure prediction by ZEFSAII (Michael W. Deem and Ramdas Pophale) SiO2 
 PCOD9339436
Probable space group: P M A 2
;
_chemical_formula_sum "Si O2"
_cell_formula_units_Z 32
_cell_length_a 16.738426
_cell_length_b 5.138283
_cell_length_c 19.701976
_cell_angle_alpha 90.000000
_cell_angle_beta 90.000000
_cell_angle_gamma 90.000000
_cell_volume 1694.503314
_symmetry_space_group_name_H-M "P M A 2"
_symmetry_group_IT_number 28
_symmetry_cell_setting 'orthorhombic'
loop_
_space_group_symop_operation_xyz
x,y,z
-x,-y,z
1/2-x,y,z
1/2+x,-y,z
loop_
_atom_site_type_symbol
_atom_site_label
_atom_site_fract_x
_atom_site_fract_y
_atom_site_fract_z
Si Si1 0.408648 0.095966 0.530740
Si Si2 0.557321 0.249849 0.880308
Si Si3 0.557289 0.249862 0.028037
Si Si4 0.345944 0.847541 0.162903
Si Si5 0.057566 0.749832 0.731847
Si Si6 0.343128 0.607555 0.601363
Si Si7 0.444575 0.247855 0.382138
Si Si8 0.846149 0.652835 0.247521
O O1 0.388070 0.346558 0.576446
O O2 0.400685 0.182495 0.452656
O O3 0.500000 0.000000 0.540850
O O4 0.356067 0.845098 0.548954
O O5 0.500000 0.500000 0.879775
O O6 0.598432 0.239936 0.806650
O O7 0.500000 0.000000 0.880992
O O8 0.599476 0.258046 0.953643
O O9 0.500000 0.500000 0.034835
O O10 0.615996 0.221506 0.091026
O O11 0.500000 0.000000 0.028731
O O12 0.250000 0.846292 0.156610
O O13 0.368714 0.626200 0.217073
O O14 0.370649 0.125524 0.193437
O O15 0.119281 0.713683 0.671179
O O16 0.000000 0.500000 0.730793
O O17 0.000000 0.000000 0.723076
O O18 0.250000 0.547103 0.608480
O O19 0.500000 0.500000 0.393402
O O20 0.386575 0.298900 0.319463
O O21 0.500000 0.000000 0.366379
O O22 0.750000 0.664542 0.254182
#
# Coordination Sequence:
#
# PCOD9339436 Si02
#       8
#     4   4   4   4   4   4   4   4
#     4  11  23  42  61  81 112 150 186 223 277 340
#     4   8  16  30  49  76 104 134 177 221 262 314
#     4  10  19  32  53  79 105 135 178 227 265 305
#     4  10  21  36  52  76 108 143 177 212 262 326
#     4  10  19  34  57  78 105 147 184 217 268 331
#     4  12  24  37  57  88 117 143 184 236 276 320
#     4  11  23  39  60  84 107 135 180 231 268 314
#     4  10  22  38  55  76 108 143 175 213 267 328
#
# _framework density 18.884588000000001
#
# number of rings (size 3 to 8) (size 9 to 14) (size 15 to 20)
#    0.000    1.750    0.000    5.625    0.000    4.000 
#    0.000    1.875    0.000    0.000    0.000   14.000 
#    0.000    0.000    0.000    0.000    0.000    0.000 
#
# Total GULP energy -178638.559085 kJ/mol
# GULP energy per Si atom -5582.454971 kJ/mol
# Density = 1.884161 g / cm^3
# Si number density = 18.884588 Si / 1000 Ang^3
#
#
#
# Elastic Constant Matrix: (Units=GPa)
#
#
# Indices 1 2 3 4 5 6 
#
# 1 32.0151 9.3835 38.8204 0.0000 0.0000 0.0000
# 2 9.3835 113.9540 4.3921 0.0000 0.0000 0.0000
# 3 38.8204 4.3921 126.9212 0.0000 0.0000 0.0000
# 4 0.0000 0.0000 0.0000 27.4249 0.0000 0.0000
# 5 0.0000 0.0000 0.0000 0.0000 19.2667 0.0000
# 6 0.0000 0.0000 0.0000 0.0000 0.0000 17.5289
#
#
#
# Elastic Compliance Matrix: (Units=1/GPa)
#
#
# Indices 1 2 3 4 5 6 
#
# 1 0.051090 -0.003609 -0.015501 0.000000 0.000000 0.000000
# 2 -0.003609 0.009042 0.000791 0.000000 0.000000 0.000000
# 3 -0.015501 0.000791 0.012593 0.000000 0.000000 0.000000
# 4 0.000000 0.000000 0.000000 0.036463 0.000000 0.000000
# 5 0.000000 0.000000 0.000000 0.000000 0.051903 0.000000
# 6 0.000000 0.000000 0.000000 0.000000 0.000000 0.057049
#
#
# Mechanical properties :
#
#
# Convention : Reuss Voigt Hill
#
# Bulk Modulus (GPa) = 27.71236 42.00913 34.86075
# Shear Modulus (GPa) = 18.74008 27.53039 23.13523
#
# Velocity S-wave (km/s) = 3.15357 3.82229 3.50392
# Velocity P-wave (km/s) = 5.28833 6.46323 5.90507
#
# Compressibility (1/GPa) = 0.03608498
#
# Stress axis : x y z
#
# Youngs Moduli (GPa) = 19.57344 110.59260 79.41022
#
# Poissons Ratio (x) = 0.39918 1.23097
# Poissons Ratio (y) = 0.07065 -0.06282
# Poissons Ratio (z) = 0.30342 -0.08749
#
# Static dielectric constant tensor:
#      x y z
#    x 0.948080 0.000000 0.000000 
#    y 0.000000 1.654880 0.000000 
#    z 0.000000 0.000000 1.695500 
# 
# From -- ./inp_files/6986.got.cif
#   From: 2010.05.17/outbox.cif.g08.bks.cpg/sg28_4_cif.got.tgz:6986.got - 2010.06.04 01:15:21.
