data_PCOD9339058
_publ_section_title
;
Structure prediction by ZEFSAII (Michael W. Deem and Ramdas Pophale) SiO2 
 PCOD9339058
Probable space group: P C C 2
;
_chemical_formula_sum "Si O2"
_cell_formula_units_Z 22
_cell_length_a 4.977072
_cell_length_b 11.598609
_cell_length_c 14.750528
_cell_angle_alpha 90.000000
_cell_angle_beta 90.000000
_cell_angle_gamma 90.000000
_cell_volume 851.505383
_symmetry_space_group_name_H-M "P C C 2"
_symmetry_group_IT_number 27
_symmetry_cell_setting 'orthorhombic'
loop_
_space_group_symop_operation_xyz
x,y,z
-x,-y,z
-x,y,1/2+z
x,-y,1/2+z
loop_
_atom_site_type_symbol
_atom_site_label
_atom_site_fract_x
_atom_site_fract_y
_atom_site_fract_z
Si Si1 0.500000 0.000000 0.590400
Si Si2 0.099752 0.374584 0.951517
Si Si3 0.402412 0.325388 0.334243
Si Si4 0.154909 0.111620 0.248157
Si Si5 0.280406 0.573247 0.160338
Si Si6 0.869154 0.200914 0.081283
O O1 0.322321 0.928044 0.660319
O O2 0.705362 0.909536 0.545360
O O3 0.892848 0.363480 0.866276
O O4 0.000000 0.500000 0.990092
O O5 0.396428 0.363468 0.912474
O O6 0.080386 0.255094 0.010981
O O7 0.341319 0.190375 0.310808
O O8 0.548940 0.382697 0.248149
O O9 0.942548 0.183303 0.188426
O O10 0.000000 0.000000 0.288238
O O11 0.500000 0.500000 0.109614
O O12 0.284148 0.682149 0.094996
O O13 0.000000 0.500000 0.177442
#
# Coordination Sequence:
#
# PCOD9339058 Si02
#       6
#     2   4   4   4   4   4
#     4  10  22  46  78 100 138 186 258 312 362 430
#     4  12  28  45  69 109 158 199 240 307 387 457
#     4  12  25  46  70 107 152 196 243 311 381 447
#     4  10  23  45  78 107 138 193 257 316 364 442
#     4  12  24  41  73 109 143 193 257 308 368 451
#     4  11  25  45  74 106 148 193 252 309 372 442
#
# _framework density 25.836594999999999
#
# number of rings (size 3 to 8) (size 9 to 14) (size 15 to 20)
#    0.000    0.727    1.818    6.000    5.091    1.455 
#    0.000    3.636    0.000    0.000    0.000    0.000 
#    0.000    0.000    0.000    0.000    0.000    0.000 
#
# Total GULP energy -122471.950048 kJ/mol
# GULP energy per Si atom -5566.906820 kJ/mol
# Density = 2.577779 g / cm^3
# Si number density = 25.836595 Si / 1000 Ang^3
#
#
#
# Elastic Constant Matrix: (Units=GPa)
#
#
# Indices 1 2 3 4 5 6 
#
# 1 124.8084 53.3079 18.7653 0.0000 0.0000 0.0000
# 2 53.3079 157.9429 19.4882 0.0000 0.0000 0.0000
# 3 18.7653 19.4882 58.7734 0.0000 0.0000 0.0000
# 4 0.0000 0.0000 0.0000 23.1294 0.0000 0.0000
# 5 0.0000 0.0000 0.0000 0.0000 28.1177 0.0000
# 6 0.0000 0.0000 0.0000 0.0000 0.0000 48.8666
#
#
#
# Elastic Compliance Matrix: (Units=1/GPa)
#
#
# Indices 1 2 3 4 5 6 
#
# 1 0.009599 -0.002984 -0.002075 0.000000 0.000000 0.000000
# 2 -0.002984 0.007529 -0.001544 0.000000 0.000000 0.000000
# 3 -0.002075 -0.001544 0.018189 0.000000 0.000000 0.000000
# 4 0.000000 0.000000 0.000000 0.043235 0.000000 0.000000
# 5 0.000000 0.000000 0.000000 0.000000 0.035565 0.000000
# 6 0.000000 0.000000 0.000000 0.000000 0.000000 0.020464
#
#
# Mechanical properties :
#
#
# Convention : Reuss Voigt Hill
#
# Bulk Modulus (GPa) = 45.22641 58.29416 51.76028
# Shear Modulus (GPa) = 32.22557 36.68696 34.45626
#
# Velocity S-wave (km/s) = 3.53552 3.77233 3.65584
# Velocity P-wave (km/s) = 5.84888 6.44868 6.15609
#
# Compressibility (1/GPa) = 0.02211098
#
# Stress axis : x y z
#
# Youngs Moduli (GPa) = 104.18108 132.82151 54.97822
#
# Poissons Ratio (x) = 0.39629 0.11410
# Poissons Ratio (y) = 0.31084 0.08488
# Poissons Ratio (z) = 0.21621 0.20505
#
# Static dielectric constant tensor:
#      x y z
#    x 2.035960 0.000000 0.000000 
#    y 0.000000 1.830900 0.000000 
#    z 0.000000 0.000000 2.166930 
# 
# From -- ./inp_files/3006.got.cif
#   From: 2010.05.17/outbox.cif.g08.bks.cpg/sg27_2_cif.got.tgz:3006.got - 2010.06.04 01:11:05.
