data_PCOD9339538
_publ_section_title
;
Structure prediction by ZEFSAII (Michael W. Deem and Ramdas Pophale) SiO2 
 PCOD9339538
Probable space group: P M A 2
;
_chemical_formula_sum "Si O2"
_cell_formula_units_Z 16
_cell_length_a 17.754342
_cell_length_b 7.107479
_cell_length_c 6.677160
_cell_angle_alpha 90.000000
_cell_angle_beta 90.000000
_cell_angle_gamma 90.000000
_cell_volume 842.581559
_symmetry_space_group_name_H-M "P M A 2"
_symmetry_group_IT_number 28
_symmetry_cell_setting 'orthorhombic'
loop_
_space_group_symop_operation_xyz
x,y,z
-x,-y,z
1/2-x,y,z
1/2+x,-y,z
loop_
_atom_site_type_symbol
_atom_site_label
_atom_site_fract_x
_atom_site_fract_y
_atom_site_fract_z
Si Si1 0.569402 0.696799 0.164350
Si Si2 0.036103 0.798137 0.512923
Si Si3 0.077195 0.696913 0.939566
Si Si4 0.163234 0.944525 0.208796
O O1 0.527943 0.695208 0.380197
O O2 0.502308 0.775724 0.024064
O O3 0.588282 0.498495 0.060772
O O4 0.637766 0.840046 0.180996
O O5 0.893326 0.148943 0.370437
O O6 0.000000 0.000000 0.574587
O O7 0.065199 0.684013 0.703623
O O8 0.143298 0.835955 0.003624
O O9 0.250000 0.926886 0.262717
#
# Coordination Sequence:
#
# PCOD9339538 Si02
#       4
#     4   4   4   4
#     4   9  20  35  56  82 107 142 184 233 280 324
#     4   9  18  36  59  82 111 146 186 231 282 333
#     4  10  19  34  59  83 105 141 189 234 275 325
#     4  10  21  36  52  78 116 149 180 223 278 337
#
# _framework density 18.989259000000001
#
# number of rings (size 3 to 8) (size 9 to 14) (size 15 to 20)
#    0.000    2.500    0.000    3.750    0.000   10.000 
#    0.000    0.000    0.000    0.000    0.000    0.000 
#    0.000    0.000    0.000    0.000    0.000    0.000 
#
# Total GULP energy -89170.812362 kJ/mol
# GULP energy per Si atom -5573.175773 kJ/mol
# Density = 1.894604 g / cm^3
# Si number density = 18.989259 Si / 1000 Ang^3
#
#
#
# Elastic Constant Matrix: (Units=GPa)
#
#
# Indices 1 2 3 4 5 6 
#
# 1 96.7339 27.5203 16.7693 0.0000 0.0000 0.0000
# 2 27.5203 111.5361 48.9517 0.0000 0.0000 0.0000
# 3 16.7693 48.9517 120.0102 0.0000 0.0000 0.0000
# 4 0.0000 0.0000 0.0000 24.5507 0.0000 0.0000
# 5 0.0000 0.0000 0.0000 0.0000 10.2744 0.0000
# 6 0.0000 0.0000 0.0000 0.0000 0.0000 13.3926
#
#
#
# Elastic Compliance Matrix: (Units=1/GPa)
#
#
# Indices 1 2 3 4 5 6 
#
# 1 0.011146 -0.002517 -0.000531 0.000000 0.000000 0.000000
# 2 -0.002517 0.011489 -0.004335 0.000000 0.000000 0.000000
# 3 -0.000531 -0.004335 0.010175 0.000000 0.000000 0.000000
# 4 0.000000 0.000000 0.000000 0.040732 0.000000 0.000000
# 5 0.000000 0.000000 0.000000 0.000000 0.097329 0.000000
# 6 0.000000 0.000000 0.000000 0.000000 0.000000 0.074668
#
#
# Mechanical properties :
#
#
# Convention : Reuss Voigt Hill
#
# Bulk Modulus (GPa) = 55.41766 57.19586 56.30676
# Shear Modulus (GPa) = 18.77449 25.31281 22.04365
#
# Velocity S-wave (km/s) = 3.14776 3.65500 3.41082
# Velocity P-wave (km/s) = 6.51600 6.92802 6.72517
#
# Compressibility (1/GPa) = 0.01804479
#
# Stress axis : x y z
#
# Youngs Moduli (GPa) = 89.72020 87.03805 98.28134
#
# Poissons Ratio (x) = 0.21909 0.05215
# Poissons Ratio (y) = 0.22584 0.42602
# Poissons Ratio (z) = 0.04761 0.37728
#
# Static dielectric constant tensor:
#      x y z
#    x 1.624420 0.000000 0.000000 
#    y 0.000000 1.729420 0.000000 
#    z 0.000000 0.000000 1.700950 
# 
# From -- ./inp_files/986.got.cif
#   From: 2010.05.17/outbox.cif.g08.bks.cpg/sg28_1_cif.got.tgz:986.got - 2010.06.04 01:15:21.
