data_PCOD9339345
_publ_section_title
;
Structure prediction by ZEFSAII (Michael W. Deem and Ramdas Pophale) SiO2 
 PCOD9339345
Probable space group: P M A 2
;
_chemical_formula_sum "Si O2"
_cell_formula_units_Z 32
_cell_length_a 8.630263
_cell_length_b 14.901794
_cell_length_c 12.795494
_cell_angle_alpha 90.000000
_cell_angle_beta 90.000000
_cell_angle_gamma 90.000000
_cell_volume 1645.582437
_symmetry_space_group_name_H-M "P M A 2"
_symmetry_group_IT_number 28
_symmetry_cell_setting 'orthorhombic'
loop_
_space_group_symop_operation_xyz
x,y,z
-x,-y,z
1/2-x,y,z
1/2+x,-y,z
loop_
_atom_site_type_symbol
_atom_site_label
_atom_site_fract_x
_atom_site_fract_y
_atom_site_fract_z
Si Si1 0.564244 0.601510 0.424170
Si Si2 0.561801 0.713748 0.629877
Si Si3 0.427736 0.135417 0.913564
Si Si4 0.063091 0.408280 0.062972
Si Si5 0.433686 0.905497 0.689407
Si Si6 0.564474 0.280451 0.234247
Si Si7 0.935465 0.095138 0.142479
Si Si8 0.072116 0.343624 0.850759
O O1 0.500000 0.500000 0.420349
O O2 0.750000 0.596019 0.420349
O O3 0.519068 0.654803 0.529893
O O4 0.506565 0.663420 0.329099
O O5 0.750000 0.718796 0.636059
O O6 0.501232 0.815961 0.634517
O O7 0.502755 0.664892 0.735784
O O8 0.250000 0.102404 0.910009
O O9 0.518155 0.100708 0.811941
O O10 0.424011 0.242639 0.896628
O O11 0.500182 0.112440 0.025234
O O12 0.250000 0.405790 0.063722
O O13 0.000000 0.500000 0.110798
O O14 0.996032 0.327564 0.129497
O O15 0.001331 0.400479 0.944215
O O16 0.250000 0.904844 0.680400
O O17 0.500000 0.000000 0.648694
O O18 0.750000 0.286119 0.240226
O O19 0.519673 0.176375 0.219796
O O20 0.750000 0.092905 0.136085
O O21 0.000000 0.000000 0.178531
O O22 0.250000 0.374395 0.837535
#
# Coordination Sequence:
#
# PCOD9339345 Si02
#       8
#     4   4   4   4   4   4   4   4
#     4  11  24  43  69  93 118 153 200 252 304 362
#     4   9  20  40  62  88 119 155 200 249 302 356
#     4  10  18  33  55  81 118 162 204 245 289 349
#     4  11  21  35  56  85 118 156 195 237 298 361
#     4  11  21  34  55  86 123 164 206 248 294 351
#     4  11  24  42  62  86 119 154 200 254 298 354
#     4  11  23  37  57  86 119 156 199 246 297 358
#     4   8  16  32  55  81 115 155 191 234 290 349
#
# _framework density 19.446002
#
# number of rings (size 3 to 8) (size 9 to 14) (size 15 to 20)
#    0.000    1.750    1.250    4.500    0.000    3.000 
#    0.000    1.250    0.000    1.500    0.000    0.000 
#    0.000    0.000    0.000    0.000    0.000    0.000 
#
# Total GULP energy -178623.820468 kJ/mol
# GULP energy per Si atom -5581.994390 kJ/mol
# Density = 1.940174 g / cm^3
# Si number density = 19.446002 Si / 1000 Ang^3
#
#
#
# Elastic Constant Matrix: (Units=GPa)
#
#
# Indices 1 2 3 4 5 6 
#
# 1 56.9691 40.7061 34.4518 0.0000 0.0000 0.0000
# 2 40.7061 147.3448 75.7661 0.0000 0.0000 0.0000
# 3 34.4518 75.7661 121.1488 0.0000 0.0000 0.0000
# 4 0.0000 0.0000 0.0000 18.5537 0.0000 0.0000
# 5 0.0000 0.0000 0.0000 0.0000 12.4457 0.0000
# 6 0.0000 0.0000 0.0000 0.0000 0.0000 24.0718
#
#
#
# Elastic Compliance Matrix: (Units=1/GPa)
#
#
# Indices 1 2 3 4 5 6 
#
# 1 0.022989 -0.004406 -0.003782 0.000000 0.000000 0.000000
# 2 -0.004406 0.010849 -0.005532 0.000000 0.000000 0.000000
# 3 -0.003782 -0.005532 0.012789 0.000000 0.000000 0.000000
# 4 0.000000 0.000000 0.000000 0.053898 0.000000 0.000000
# 5 0.000000 0.000000 0.000000 0.000000 0.080349 0.000000
# 6 0.000000 0.000000 0.000000 0.000000 0.000000 0.041542
#
#
# Mechanical properties :
#
#
# Convention : Reuss Voigt Hill
#
# Bulk Modulus (GPa) = 52.11817 69.70120 60.90968
# Shear Modulus (GPa) = 19.51212 22.65014 21.08113
#
# Velocity S-wave (km/s) = 3.17109 3.41658 3.29612
# Velocity P-wave (km/s) = 6.34566 7.17532 6.77321
#
# Compressibility (1/GPa) = 0.01918717
#
# Stress axis : x y z
#
# Youngs Moduli (GPa) = 43.49936 92.17858 78.19122
#
# Poissons Ratio (x) = 0.40617 0.29570
# Poissons Ratio (y) = 0.19168 0.43252
# Poissons Ratio (z) = 0.16450 0.50989
#
# Static dielectric constant tensor:
#      x y z
#    x 1.658650 0.000000 0.000000 
#    y 0.000000 1.660280 0.000000 
#    z 0.000000 0.000000 1.683170 
# 
# From -- ./inp_files/5077.got.cif
#   From: 2010.05.17/outbox.cif.g08.bks.cpg/sg28_3_cif.got.tgz:5077.got - 2010.06.04 01:15:21.
