data_PCOD9339063
_publ_section_title
;
Structure prediction by ZEFSAII (Michael W. Deem and Ramdas Pophale) SiO2 
 PCOD9339063
Probable space group: P C C 2
;
_chemical_formula_sum "Si O2"
_cell_formula_units_Z 24
_cell_length_a 5.325141
_cell_length_b 17.289067
_cell_length_c 9.089542
_cell_angle_alpha 90.000000
_cell_angle_beta 90.000000
_cell_angle_gamma 90.000000
_cell_volume 836.844314
_symmetry_space_group_name_H-M "P C C 2"
_symmetry_group_IT_number 27
_symmetry_cell_setting 'orthorhombic'
loop_
_space_group_symop_operation_xyz
x,y,z
-x,-y,z
-x,y,1/2+z
x,-y,1/2+z
loop_
_atom_site_type_symbol
_atom_site_label
_atom_site_fract_x
_atom_site_fract_y
_atom_site_fract_z
Si Si1 0.500000 0.000000 0.806880
Si Si2 0.686133 0.433089 0.782954
Si Si3 0.987377 0.250968 0.985192
Si Si4 0.506537 0.721288 0.155519
Si Si5 0.000000 0.500000 0.518321
Si Si6 0.113574 0.075942 0.582645
Si Si7 0.254624 0.152761 0.319509
O O1 0.685586 0.954463 0.698527
O O2 0.390954 0.927718 0.901688
O O3 0.500000 0.500000 0.834772
O O4 0.544792 0.354523 0.752419
O O5 0.801667 0.462050 0.628938
O O6 0.898855 0.433964 0.907820
O O7 0.753391 0.288391 0.067346
O O8 0.891963 0.157582 0.989570
O O9 0.263634 0.269586 0.037000
O O10 0.926668 0.240639 0.813779
O O11 0.507825 0.800035 0.251449
O O12 0.889420 0.105388 0.694238
O O13 0.000000 0.000000 0.003869
#
# Coordination Sequence:
#
# PCOD9339063 Si02
#       7
#     2   4   4   4   2   4   4
#     4  12  20  44  62 100 136 200 252 316 370 464
#     4  11  27  49  85 118 164 213 266 330 410 501
#     4  10  27  45  68 110 143 189 254 311 380 457
#     4  12  26  50  76 108 154 194 252 321 392 464
#     4  10  26  50  76 128 160 206 272 320 408 498
#     4  10  23  40  64  94 142 185 254 304 372 446
#     4  10  24  41  71  99 145 198 250 316 389 444
#
# _framework density 28.679168000000001
#
# number of rings (size 3 to 8) (size 9 to 14) (size 15 to 20)
#    1.000    0.333    1.667    2.000    7.000    4.667 
#    6.000    0.000    0.000    0.000    0.000    0.000 
#    0.000    0.000    0.000    0.000    0.000    0.000 
#
# Total GULP energy -134149.564036 kJ/mol
# GULP energy per Si atom -5589.565168 kJ/mol
# Density = 2.861389 g / cm^3
# Si number density = 28.679168 Si / 1000 Ang^3
#
#
#
# Elastic Constant Matrix: (Units=GPa)
#
#
# Indices 1 2 3 4 5 6 
#
# 1 104.3933 27.8973 23.3758 0.0000 0.0000 0.0000
# 2 27.8973 149.9326 24.5700 0.0000 0.0000 0.0000
# 3 23.3758 24.5700 89.3187 0.0000 0.0000 0.0000
# 4 0.0000 0.0000 0.0000 43.5244 0.0000 0.0000
# 5 0.0000 0.0000 0.0000 0.0000 -13.7207 0.0000
# 6 0.0000 0.0000 0.0000 0.0000 0.0000 41.2857
#
#
#
# Elastic Compliance Matrix: (Units=1/GPa)
#
#
# Indices 1 2 3 4 5 6 
#
# 1 0.010520 -0.001577 -0.002319 0.000000 0.000000 0.000000
# 2 -0.001577 0.007221 -0.001574 0.000000 0.000000 0.000000
# 3 -0.002319 -0.001574 0.012236 0.000000 0.000000 0.000000
# 4 0.000000 0.000000 0.000000 0.022976 0.000000 0.000000
# 5 0.000000 0.000000 0.000000 0.000000 -0.072883 0.000000
# 6 0.000000 0.000000 0.000000 0.000000 0.000000 0.024221
#
#
# Mechanical properties :
#
#
# Convention : Reuss Voigt Hill
#
# Bulk Modulus (GPa) = 52.53121 55.03677 53.78399
# Shear Modulus (GPa) = 231.72819 32.07132 131.89975
#
# Velocity S-wave (km/s) = 8.99864 3.34770 6.78906
# Velocity P-wave (km/s) = 11.23940 5.84593 8.95821
#
# Compressibility (1/GPa) = 0.01903630
#
# Stress axis : x y z
#
# Youngs Moduli (GPa) = 95.05683 138.48458 81.72789
#
# Poissons Ratio (x) = 0.21844 0.18955
# Poissons Ratio (y) = 0.14994 0.12860
# Poissons Ratio (z) = 0.22047 0.21792
#
# Static dielectric constant tensor:
#      x y z
#    x 2.591930 0.000000 0.000000 
#    y 0.000000 2.782130 0.000000 
#    z 0.000000 0.000000 2.383820 
# 
# From -- ./inp_files/2057.got.cif
#   From: 2010.05.17/outbox.cif.g08.bks.cpg/sg27_2_cif.got.tgz:2057.got - 2010.06.04 01:11:05.
