data_PCOD9339628
_publ_section_title
;
Structure prediction by ZEFSAII (Michael W. Deem and Ramdas Pophale) SiO2 
 PCOD9339628
Probable space group: P M A 2
;
_chemical_formula_sum "Si O2"
_cell_formula_units_Z 32
_cell_length_a 8.499781
_cell_length_b 14.468756
_cell_length_c 13.421820
_cell_angle_alpha 90.000000
_cell_angle_beta 90.000000
_cell_angle_gamma 90.000000
_cell_volume 1650.632299
_symmetry_space_group_name_H-M "P M A 2"
_symmetry_group_IT_number 28
_symmetry_cell_setting 'orthorhombic'
loop_
_space_group_symop_operation_xyz
x,y,z
-x,-y,z
1/2-x,y,z
1/2+x,-y,z
loop_
_atom_site_type_symbol
_atom_site_label
_atom_site_fract_x
_atom_site_fract_y
_atom_site_fract_z
Si Si1 0.438245 0.713228 0.287130
Si Si2 0.060663 0.103690 0.814329
Si Si3 0.561478 0.894692 0.592529
Si Si4 0.439954 0.395262 0.700631
Si Si5 0.939632 0.605520 0.479384
Si Si6 0.562432 0.104010 0.381712
Si Si7 0.061816 0.395676 0.096527
Si Si8 0.057696 0.289310 0.899082
O O1 0.250000 0.710343 0.278820
O O2 0.488600 0.660878 0.387786
O O3 0.488299 0.820246 0.300728
O O4 0.510726 0.662028 0.192842
O O5 0.250000 0.098687 0.815312
O O6 0.016716 0.139234 0.702667
O O7 0.008736 0.182133 0.891497
O O8 0.000000 0.000000 0.829873
O O9 0.750000 0.891215 0.584798
O O10 0.492282 0.857773 0.489748
O O11 0.500000 0.000000 0.593668
O O12 0.500000 0.500000 0.707988
O O13 0.250000 0.395458 0.702366
O O14 0.484880 0.359051 0.590417
O O15 0.494045 0.339553 0.797368
O O16 0.750000 0.607323 0.472101
O O17 0.000000 0.500000 0.473689
O O18 0.750000 0.098792 0.382948
O O19 0.500000 0.000000 0.367433
O O20 0.250000 0.399233 0.093073
O O21 0.000000 0.500000 0.101582
O O22 0.004207 0.344101 0.996399
O O23 0.250000 0.290239 0.899481
#
# Coordination Sequence:
#
# PCOD9339628 Si02
#       8
#     4   4   4   4   4   4   4   4
#     4  11  24  40  58  82 114 148 190 238 285 336
#     4   9  18  33  53  79 114 151 189 229 273 328
#     4   9  16  27  49  76 109 149 187 226 269 324
#     4   9  18  33  54  80 112 145 178 222 277 336
#     4  10  20  34  56  83 114 149 185 226 282 344
#     4  10  21  36  55  80 113 150 188 235 282 333
#     4  11  23  41  65  87 111 145 189 239 289 343
#     4   9  19  36  58  83 111 147 188 229 279 336
#
# _framework density 19.386510999999999
#
# number of rings (size 3 to 8) (size 9 to 14) (size 15 to 20)
#    0.000    2.250    0.000    3.375    1.750    3.000 
#    0.000    3.125    0.000    3.000    0.000    0.000 
#    0.000    0.000    0.000    0.000    0.000    0.000 
#
# Total GULP energy -178553.970164 kJ/mol
# GULP energy per Si atom -5579.811568 kJ/mol
# Density = 1.934239 g / cm^3
# Si number density = 19.386511 Si / 1000 Ang^3
#
#
#
# Elastic Constant Matrix: (Units=GPa)
#
#
# Indices 1 2 3 4 5 6 
#
# 1 28.5053 26.0023 27.3444 0.0000 0.0000 0.0000
# 2 26.0023 137.5511 93.7653 0.0000 0.0000 0.0000
# 3 27.3444 93.7653 143.0849 0.0000 0.0000 0.0000
# 4 0.0000 0.0000 0.0000 37.9283 0.0000 0.0000
# 5 0.0000 0.0000 0.0000 0.0000 30.8048 0.0000
# 6 0.0000 0.0000 0.0000 0.0000 0.0000 8.7941
#
#
#
# Elastic Compliance Matrix: (Units=1/GPa)
#
#
# Indices 1 2 3 4 5 6 
#
# 1 0.044601 -0.004737 -0.005419 0.000000 0.000000 0.000000
# 2 -0.004737 0.013643 -0.008035 0.000000 0.000000 0.000000
# 3 -0.005419 -0.008035 0.013290 0.000000 0.000000 0.000000
# 4 0.000000 0.000000 0.000000 0.026366 0.000000 0.000000
# 5 0.000000 0.000000 0.000000 0.000000 0.032462 0.000000
# 6 0.000000 0.000000 0.000000 0.000000 0.000000 0.113713
#
#
# Mechanical properties :
#
#
# Convention : Reuss Voigt Hill
#
# Bulk Modulus (GPa) = 28.44875 67.04060 47.74468
# Shear Modulus (GPa) = 17.11308 26.30739 21.71023
#
# Velocity S-wave (km/s) = 2.97430 3.68774 3.35007
# Velocity P-wave (km/s) = 5.14798 7.26558 6.29644
#
# Compressibility (1/GPa) = 0.03515092
#
# Stress axis : x y z
#
# Youngs Moduli (GPa) = 22.42113 73.29887 75.24480
#
# Poissons Ratio (x) = 0.34722 0.40777
# Poissons Ratio (y) = 0.10621 0.60459
# Poissons Ratio (z) = 0.12151 0.58896
#
# Static dielectric constant tensor:
#      x y z
#    x 1.658470 0.000000 0.000000 
#    y 0.000000 1.663290 0.000000 
#    z 0.000000 0.000000 1.686390 
# 
# From -- ./inp_files/5043.got.cif
#   From: 2010.05.17/outbox.cif.g08.bks.cpg/sg28_3_cif.got.tgz:5043.got - 2010.06.04 01:15:21.
