data_PCOD9339869
_publ_section_title
;
Structure prediction by ZEFSAII (Michael W. Deem and Ramdas Pophale) SiO2 
 PCOD9339869
Probable space group: P M A 2
;
_chemical_formula_sum "Si O2"
_cell_formula_units_Z 14
_cell_length_a 20.139397
_cell_length_b 4.965100
_cell_length_c 5.511872
_cell_angle_alpha 90.000000
_cell_angle_beta 90.000000
_cell_angle_gamma 90.000000
_cell_volume 551.154790
_symmetry_space_group_name_H-M "P M A 2"
_symmetry_group_IT_number 28
_symmetry_cell_setting 'orthorhombic'
loop_
_space_group_symop_operation_xyz
x,y,z
-x,-y,z
1/2-x,y,z
1/2+x,-y,z
loop_
_atom_site_type_symbol
_atom_site_label
_atom_site_fract_x
_atom_site_fract_y
_atom_site_fract_z
Si Si1 0.433253 0.400139 0.401360
Si Si2 0.133501 0.036746 0.013435
Si Si3 0.176713 0.561917 0.726105
Si Si4 0.000000 0.000000 0.776802
O O1 0.500000 0.500000 0.259435
O O2 0.383995 0.201931 0.255456
O O3 0.382574 0.609719 0.530418
O O4 0.470639 0.232024 0.609119
O O5 0.162245 0.266659 0.834747
O O6 0.061208 0.925634 0.942382
O O7 0.175110 0.771513 0.950821
O O8 0.250000 0.573354 0.614100
#
# Coordination Sequence:
#
# PCOD9339869 Si02
#       4
#     4   4   4   2
#     4  11  24  43  75 107 142 194 246 312 373 437
#     4  11  25  41  73 103 141 187 242 300 370 437
#     4  11  26  47  67 102 149 192 243 303 367 445
#     4  10  22  42  66 108 144 176 236 308 370 428
#
# _framework density 25.401216000000002
#
# number of rings (size 3 to 8) (size 9 to 14) (size 15 to 20)
#    0.000    1.143    2.857    1.714    8.000    2.286 
#    0.000    0.000    0.000    0.000    0.000    0.000 
#    0.000    0.000    0.000    0.000    0.000    0.000 
#
# Total GULP energy -78112.519456 kJ/mol
# GULP energy per Si atom -5579.465675 kJ/mol
# Density = 2.534340 g / cm^3
# Si number density = 25.401216 Si / 1000 Ang^3
#
#
#
# Elastic Constant Matrix: (Units=GPa)
#
#
# Indices 1 2 3 4 5 6 
#
# 1 187.4156 29.5578 20.2974 0.0000 0.0000 0.0000
# 2 29.5578 112.1815 18.6557 0.0000 0.0000 0.0000
# 3 20.2974 18.6557 59.8706 0.0000 0.0000 0.0000
# 4 0.0000 0.0000 0.0000 44.4742 0.0000 0.0000
# 5 0.0000 0.0000 0.0000 0.0000 4.5012 0.0000
# 6 0.0000 0.0000 0.0000 0.0000 0.0000 14.8997
#
#
#
# Elastic Compliance Matrix: (Units=1/GPa)
#
#
# Indices 1 2 3 4 5 6 
#
# 1 0.005699 -0.001245 -0.001544 0.000000 0.000000 0.000000
# 2 -0.001245 0.009673 -0.002592 0.000000 0.000000 0.000000
# 3 -0.001544 -0.002592 0.018034 0.000000 0.000000 0.000000
# 4 0.000000 0.000000 0.000000 0.022485 0.000000 0.000000
# 5 0.000000 0.000000 0.000000 0.000000 0.222164 0.000000
# 6 0.000000 0.000000 0.000000 0.000000 0.000000 0.067116
#
#
# Mechanical properties :
#
#
# Convention : Reuss Voigt Hill
#
# Bulk Modulus (GPa) = 44.16201 55.16549 49.66375
# Shear Modulus (GPa) = 13.75587 32.17214 22.96400
#
# Velocity S-wave (km/s) = 2.32963 3.56274 3.01001
# Velocity P-wave (km/s) = 4.96586 6.22004 5.62800
#
# Compressibility (1/GPa) = 0.02264390
#
# Stress axis : x y z
#
# Youngs Moduli (GPa) = 175.45974 103.37855 55.45094
#
# Poissons Ratio (x) = 0.12869 0.08563
# Poissons Ratio (y) = 0.21842 0.14374
# Poissons Ratio (z) = 0.27096 0.26797
#
# Static dielectric constant tensor:
#      x y z
#    x 2.488640 0.000000 0.000000 
#    y 0.000000 2.128090 0.000000 
#    z 0.000000 0.000000 2.066780 
# 
# From -- ./inp_files/1285.got.cif
#   From: 2010.05.17/outbox.cif.g08.bks.cpg/sg28_1_cif.got.tgz:1285.got - 2010.06.04 01:15:21.
