data_PCOD9339288
_publ_section_title
;
Structure prediction by ZEFSAII (Michael W. Deem and Ramdas Pophale) SiO2 
 PCOD9339288
Probable space group: P M A 2
;
_chemical_formula_sum "Si O2"
_cell_formula_units_Z 32
_cell_length_a 9.628361
_cell_length_b 16.475457
_cell_length_c 10.817937
_cell_angle_alpha 90.000000
_cell_angle_beta 90.000000
_cell_angle_gamma 90.000000
_cell_volume 1716.067170
_symmetry_space_group_name_H-M "P M A 2"
_symmetry_group_IT_number 28
_symmetry_cell_setting 'orthorhombic'
loop_
_space_group_symop_operation_xyz
x,y,z
-x,-y,z
1/2-x,y,z
1/2+x,-y,z
loop_
_atom_site_type_symbol
_atom_site_label
_atom_site_fract_x
_atom_site_fract_y
_atom_site_fract_z
Si Si1 0.411757 0.579789 0.937000
Si Si2 0.085992 0.918488 0.110083
Si Si3 0.905426 0.183431 0.348113
Si Si4 0.914190 0.419182 0.639852
Si Si5 0.405517 0.171249 0.728846
Si Si6 0.414844 0.758953 0.940920
Si Si7 0.404368 0.931878 0.580126
Si Si8 0.406744 0.288511 0.494955
O O1 0.500000 0.500000 0.971117
O O2 0.250000 0.561995 0.960148
O O3 0.428088 0.593308 0.788280
O O4 0.444087 0.668659 0.994618
O O5 0.250000 0.938081 0.103793
O O6 0.054850 0.883563 0.246910
O O7 0.062965 0.838579 0.025168
O O8 0.000000 0.000000 0.081717
O O9 0.750000 0.214447 0.313933
O O10 0.891654 0.138781 0.479774
O O11 0.020961 0.251178 0.373350
O O12 0.750000 0.425167 0.613917
O O13 0.000000 0.500000 0.612147
O O14 0.987373 0.350688 0.558536
O O15 0.250000 0.147987 0.768669
O O16 0.482713 0.227628 0.826581
O O17 0.510802 0.098443 0.698926
O O18 0.392361 0.218968 0.599689
O O19 0.250000 0.758011 0.905411
O O20 0.250000 0.960912 0.610699
O O21 0.500000 0.000000 0.520756
O O22 0.250000 0.319968 0.473166
#
# Coordination Sequence:
#
# PCOD9339288 Si02
#       8
#     4   4   4   4   4   4   4   4
#     4   9  18  31  51  78 109 144 181 219 266 321
#     4  10  22  39  59  80 105 139 186 235 281 331
#     4   9  19  35  54  75  98 132 173 219 272 323
#     4  10  18  29  48  76 111 146 178 215 264 323
#     4  10  20  32  48  72 102 134 170 209 257 317
#     4  10  20  36  55  77 108 146 182 223 276 331
#     4  10  19  31  49  71  98 128 164 209 262 318
#     4  10  19  31  50  77 106 137 173 217 264 318
#
# _framework density 18.647290000000002
#
# number of rings (size 3 to 8) (size 9 to 14) (size 15 to 20)
#    0.000    2.250    1.250    1.875    0.000    4.000 
#    0.000    1.250    0.000    0.750    0.000    1.750 
#    0.000    0.000    0.000    0.000    0.000    0.000 
#
# Total GULP energy -178157.084028 kJ/mol
# GULP energy per Si atom -5567.408876 kJ/mol
# Density = 1.860485 g / cm^3
# Si number density = 18.647290 Si / 1000 Ang^3
#
#
#
# Elastic Constant Matrix: (Units=GPa)
#
#
# Indices 1 2 3 4 5 6 
#
# 1 128.9087 63.0023 25.3718 0.0000 0.0000 0.0000
# 2 63.0023 99.1340 21.6050 0.0000 0.0000 0.0000
# 3 25.3718 21.6050 18.1738 0.0000 0.0000 0.0000
# 4 0.0000 0.0000 0.0000 20.8963 0.0000 0.0000
# 5 0.0000 0.0000 0.0000 0.0000 9.6839 0.0000
# 6 0.0000 0.0000 0.0000 0.0000 0.0000 30.2064
#
#
#
# Elastic Compliance Matrix: (Units=1/GPa)
#
#
# Indices 1 2 3 4 5 6 
#
# 1 0.012690 -0.005674 -0.010971 0.000000 0.000000 0.000000
# 2 -0.005674 0.016151 -0.011280 0.000000 0.000000 0.000000
# 3 -0.010971 -0.011280 0.083750 0.000000 0.000000 0.000000
# 4 0.000000 0.000000 0.000000 0.047855 0.000000 0.000000
# 5 0.000000 0.000000 0.000000 0.000000 0.103264 0.000000
# 6 0.000000 0.000000 0.000000 0.000000 0.000000 0.033106
#
#
# Mechanical properties :
#
#
# Convention : Reuss Voigt Hill
#
# Bulk Modulus (GPa) = 17.62364 51.79720 34.71042
# Shear Modulus (GPa) = 13.45610 21.23981 17.34795
#
# Velocity S-wave (km/s) = 2.68920 3.37861 3.05342
# Velocity P-wave (km/s) = 4.37195 6.56183 5.57546
#
# Compressibility (1/GPa) = 0.05674198
#
# Stress axis : x y z
#
# Youngs Moduli (GPa) = 78.80468 61.91384 11.94035
#
# Poissons Ratio (x) = 0.35128 0.13099
# Poissons Ratio (y) = 0.44711 0.13469
# Poissons Ratio (z) = 0.86454 0.69839
#
# Static dielectric constant tensor:
#      x y z
#    x 1.669580 0.000000 0.000000 
#    y 0.000000 1.700870 0.000000 
#    z 0.000000 0.000000 1.653970 
# 
# From -- ./inp_files/4995.got.cif
#   From: 2010.05.17/outbox.cif.g08.bks.cpg/sg28_3_cif.got.tgz:4995.got - 2010.06.04 01:15:21.
