data_PCOD9339936
_publ_section_title
;
Structure prediction by ZEFSAII (Michael W. Deem and Ramdas Pophale) SiO2 
 PCOD9339936
Probable space group: P M A 2
;
_chemical_formula_sum "Si O2"
_cell_formula_units_Z 20
_cell_length_a 8.636640
_cell_length_b 9.339150
_cell_length_c 12.932178
_cell_angle_alpha 90.000000
_cell_angle_beta 90.000000
_cell_angle_gamma 90.000000
_cell_volume 1043.094948
_symmetry_space_group_name_H-M "P M A 2"
_symmetry_group_IT_number 28
_symmetry_cell_setting 'orthorhombic'
loop_
_space_group_symop_operation_xyz
x,y,z
-x,-y,z
1/2-x,y,z
1/2+x,-y,z
loop_
_atom_site_type_symbol
_atom_site_label
_atom_site_fract_x
_atom_site_fract_y
_atom_site_fract_z
Si Si1 0.564626 0.159003 0.074740
Si Si2 0.435143 0.342068 0.261701
Si Si3 0.435048 0.159692 0.677036
Si Si4 0.935521 0.339759 0.868762
Si Si5 0.064521 0.658837 0.488900
O O1 0.750000 0.154423 0.087005
O O2 0.489675 0.231693 0.175092
O O3 0.500000 0.000000 0.059862
O O4 0.528771 0.255321 0.974467
O O5 0.500000 0.500000 0.235103
O O6 0.250000 0.348262 0.267705
O O7 0.503622 0.304975 0.374254
O O8 0.250000 0.156606 0.672506
O O9 0.490261 0.255719 0.773095
O O10 0.502103 0.231077 0.573287
O O11 0.500000 0.000000 0.689374
O O12 0.750000 0.343247 0.855707
O O13 0.000000 0.500000 0.873744
O O14 0.250000 0.655085 0.489293
O O15 0.000000 0.500000 0.513474
#
# Coordination Sequence:
#
# PCOD9339936 Si02
#       5
#     4   4   4   4   4
#     4  11  24  41  62  90 124 161 202 249 303 360
#     4  11  22  39  63  91 123 160 204 251 301 356
#     4  12  25  42  63  90 124 160 201 249 304 361
#     4  11  24  42  65  92 122 159 203 249 299 357
#     4  11  22  40  64  91 123 160 204 250 300 356
#
# _framework density 19.173711000000001
#
# number of rings (size 3 to 8) (size 9 to 14) (size 15 to 20)
#    0.000    0.800    0.000    9.600    0.000    7.200 
#    0.000    4.000    0.000    0.000    0.000    0.000 
#    0.000    0.000    0.000    0.000    0.000    0.000 
#
# Total GULP energy -111979.209621 kJ/mol
# GULP energy per Si atom -5598.960481 kJ/mol
# Density = 1.913007 g / cm^3
# Si number density = 19.173711 Si / 1000 Ang^3
#
#
#
# Elastic Constant Matrix: (Units=GPa)
#
#
# Indices 1 2 3 4 5 6 
#
# 1 178.2863 95.2427 83.4190 0.0000 0.0000 0.0000
# 2 95.2427 182.8849 114.1011 0.0000 0.0000 0.0000
# 3 83.4190 114.1011 110.9479 0.0000 0.0000 0.0000
# 4 0.0000 0.0000 0.0000 130.1738 0.0000 0.0000
# 5 0.0000 0.0000 0.0000 0.0000 -492.6736 0.0000
# 6 0.0000 0.0000 0.0000 0.0000 0.0000 38.3853
#
#
#
# Elastic Compliance Matrix: (Units=1/GPa)
#
#
# Indices 1 2 3 4 5 6 
#
# 1 0.008756 -0.001263 -0.005285 0.000000 0.000000 0.000000
# 2 -0.001263 0.015440 -0.014929 0.000000 0.000000 0.000000
# 3 -0.005285 -0.014929 0.028340 0.000000 0.000000 0.000000
# 4 0.000000 0.000000 0.000000 0.007682 0.000000 0.000000
# 5 0.000000 0.000000 0.000000 0.000000 -0.002030 0.000000
# 6 0.000000 0.000000 0.000000 0.000000 0.000000 0.026052
#
#
# Mechanical properties :
#
#
# Convention : Reuss Voigt Hill
#
# Bulk Modulus (GPa) = 104.35559 117.51608 110.93584
# Shear Modulus (GPa) = 38.34701 -52.86582 -7.25941
#
# Velocity S-wave (km/s) = 4.47696 -5.25660 -1.94791
# Velocity P-wave (km/s) = 9.01492 4.95790 7.27494
#
# Compressibility (1/GPa) = 0.00958262
#
# Stress axis : x y z
#
# Youngs Moduli (GPa) = 114.20218 64.76767 35.28558
#
# Poissons Ratio (x) = 0.08180 0.18648
# Poissons Ratio (y) = 0.14423 0.52678
# Poissons Ratio (z) = 0.60355 0.96692
#
# Static dielectric constant tensor:
#      x y z
#    x 1.640530 0.000000 0.000000 
#    y 0.000000 1.629700 0.000000 
#    z 0.000000 0.000000 1.640640 
# 
# From -- ./inp_files/4554.got.cif
#   From: 2010.05.17/outbox.cif.g08.bks.cpg/sg28_3_cif.got.tgz:4554.got - 2010.06.04 01:15:21.
