data_PCOD9339041
_publ_section_title
;
Structure prediction by ZEFSAII (Michael W. Deem and Ramdas Pophale) SiO2 
 PCOD9339041
Probable space group: P C C 2
;
_chemical_formula_sum "Si O2"
_cell_formula_units_Z 22
_cell_length_a 14.267363
_cell_length_b 4.966689
_cell_length_c 11.459322
_cell_angle_alpha 90.000000
_cell_angle_beta 90.000000
_cell_angle_gamma 90.000000
_cell_volume 812.025375
_symmetry_space_group_name_H-M "P C C 2"
_symmetry_group_IT_number 27
_symmetry_cell_setting 'orthorhombic'
loop_
_space_group_symop_operation_xyz
x,y,z
-x,-y,z
-x,y,1/2+z
x,-y,1/2+z
loop_
_atom_site_type_symbol
_atom_site_label
_atom_site_fract_x
_atom_site_fract_y
_atom_site_fract_z
Si Si1 0.686184 0.971879 0.900380
Si Si2 0.614652 0.534815 0.504662
Si Si3 0.892089 0.603877 0.616990
Si Si4 0.561090 0.239852 0.707867
Si Si5 0.143288 0.672808 0.853553
Si Si6 0.000000 0.000000 0.237186
O O1 0.657386 0.168587 0.008288
O O2 0.609513 0.091905 0.812854
O O3 0.787296 0.070655 0.861767
O O4 0.665888 0.657356 0.911540
O O5 0.500000 0.500000 0.495801
O O6 0.634934 0.374500 0.622657
O O7 0.839449 0.491108 0.732663
O O8 0.853693 0.557399 0.486434
O O9 0.000000 0.500000 0.614763
O O10 0.914333 0.913522 0.652941
O O11 0.500000 0.500000 0.743508
O O12 0.500000 0.000000 0.651130
O O13 0.039036 0.779489 0.826494
#
# Coordination Sequence:
#
# PCOD9339041 Si02
#       6
#     4   4   4   4   4   2
#     4  12  26  41  70 105 141 182 237 306 365 429
#     4  11  24  45  69  98 139 188 237 294 366 440
#     4  10  22  45  71 100 142 198 248 302 374 455
#     4  11  23  42  69  95 135 183 237 286 358 432
#     4  11  26  42  73 105 149 189 247 307 375 444
#     4  10  22  44  72 102 142 194 250 296 378 444
#
# _framework density 27.092749000000001
#
# number of rings (size 3 to 8) (size 9 to 14) (size 15 to 20)
#    0.000    1.091    0.000    7.636    5.091    2.909 
#    0.000    0.000    0.000    0.000    0.000    0.000 
#    0.000    0.000    0.000    0.000    0.000    0.000 
#
# Total GULP energy -122805.705323 kJ/mol
# GULP energy per Si atom -5582.077515 kJ/mol
# Density = 2.703109 g / cm^3
# Si number density = 27.092749 Si / 1000 Ang^3
#
#
#
# Elastic Constant Matrix: (Units=GPa)
#
#
# Indices 1 2 3 4 5 6 
#
# 1 94.1968 24.7176 34.1440 0.0000 0.0000 0.0000
# 2 24.7176 101.5652 33.2954 0.0000 0.0000 0.0000
# 3 34.1440 33.2954 157.5528 0.0000 0.0000 0.0000
# 4 0.0000 0.0000 0.0000 35.7461 0.0000 0.0000
# 5 0.0000 0.0000 0.0000 0.0000 19.8142 0.0000
# 6 0.0000 0.0000 0.0000 0.0000 0.0000 46.6073
#
#
#
# Elastic Compliance Matrix: (Units=1/GPa)
#
#
# Indices 1 2 3 4 5 6 
#
# 1 0.011968 -0.002216 -0.002125 0.000000 0.000000 0.000000
# 2 -0.002216 0.010989 -0.001842 0.000000 0.000000 0.000000
# 3 -0.002125 -0.001842 0.007197 0.000000 0.000000 0.000000
# 4 0.000000 0.000000 0.000000 0.027975 0.000000 0.000000
# 5 0.000000 0.000000 0.000000 0.000000 0.050469 0.000000
# 6 0.000000 0.000000 0.000000 0.000000 0.000000 0.021456
#
#
# Mechanical properties :
#
#
# Convention : Reuss Voigt Hill
#
# Bulk Modulus (GPa) = 56.21984 59.73654 57.97819
# Shear Modulus (GPa) = 33.70422 37.84406 35.77414
#
# Velocity S-wave (km/s) = 3.53091 3.74148 3.63772
# Velocity P-wave (km/s) = 6.11711 6.38448 6.25223
#
# Compressibility (1/GPa) = 0.01778731
#
# Stress axis : x y z
#
# Youngs Moduli (GPa) = 83.55681 90.99981 138.94761
#
# Poissons Ratio (x) = 0.20164 0.29531
# Poissons Ratio (y) = 0.18515 0.25595
# Poissons Ratio (z) = 0.17759 0.16763
#
# Static dielectric constant tensor:
#      x y z
#    x 2.124490 0.000000 0.000000 
#    y 0.000000 2.413460 0.000000 
#    z 0.000000 0.000000 2.255940 
# 
# From -- ./inp_files/2714.got.cif
#   From: 2010.05.17/outbox.cif.g08.bks.cpg/sg27_2_cif.got.tgz:2714.got - 2010.06.04 01:11:05.
