data_PCOD9339964
_publ_section_title
;
Structure prediction by ZEFSAII (Michael W. Deem and Ramdas Pophale) SiO2 
 PCOD9339964
Probable space group: P M A 2
;
_chemical_formula_sum "Si O2"
_cell_formula_units_Z 32
_cell_length_a 7.224856
_cell_length_b 7.378151
_cell_length_c 23.054476
_cell_angle_alpha 90.000000
_cell_angle_beta 90.000000
_cell_angle_gamma 90.000000
_cell_volume 1228.943708
_symmetry_space_group_name_H-M "P M A 2"
_symmetry_group_IT_number 28
_symmetry_cell_setting 'orthorhombic'
loop_
_space_group_symop_operation_xyz
x,y,z
-x,-y,z
1/2-x,y,z
1/2+x,-y,z
loop_
_atom_site_type_symbol
_atom_site_label
_atom_site_fract_x
_atom_site_fract_y
_atom_site_fract_z
Si Si1 0.470848 0.218930 0.784060
Si Si2 0.468902 0.287131 0.532131
Si Si3 0.468953 0.213076 0.907797
Si Si4 0.031047 0.213077 0.660323
Si Si5 0.970361 0.718453 0.284060
Si Si6 0.470622 0.281307 0.159658
Si Si7 0.029378 0.281307 0.408462
Si Si8 0.468901 0.287131 0.035989
O O1 0.250000 0.245959 0.784060
O O2 0.541840 0.289685 0.846334
O O3 0.541839 0.289686 0.721787
O O4 0.500000 0.000000 0.784060
O O5 0.500000 0.500000 0.525790
O O6 0.250000 0.243223 0.534416
O O7 0.545714 0.250855 0.596274
O O8 0.542033 0.210589 0.470722
O O9 0.250000 0.256732 0.909766
O O10 0.500000 0.000000 0.902064
O O11 0.545713 0.250854 0.971846
O O12 0.250000 0.256732 0.658353
O O13 0.000000 0.000000 0.666056
O O14 0.750000 0.748052 0.284060
O O15 0.042918 0.786649 0.221863
O O16 0.042919 0.786650 0.346257
O O17 0.000000 0.500000 0.284060
O O18 0.500000 0.500000 0.160789
O O19 0.250000 0.253153 0.159003
O O20 0.542033 0.210590 0.097398
O O21 0.250000 0.253153 0.409117
O O22 0.000000 0.500000 0.407331
O O23 0.500000 0.500000 0.042329
O O24 0.250000 0.243223 0.033704
#
# Coordination Sequence:
#
# PCOD9339964 Si02
#       8
#     4   4   4   4   4   4   4   4
#     4   8  14  26  43  60  78 100 128 164 201 232
#     4   9  17  28  41  59  84 110 133 160 197 239
#     4   9  17  29  45  63  81 103 133 167 200 235
#     4   9  17  29  45  63  81 103 133 167 200 235
#     4   8  12  18  30  48  69  94 124 156 188 222
#     4   8  13  21  33  50  73  99 126 156 190 227
#     4   8  13  21  33  50  73  99 126 156 190 227
#     4   9  17  28  41  59  84 110 133 160 197 239
#
# _framework density 26.038623000000001
#
# number of rings (size 3 to 8) (size 9 to 14) (size 15 to 20)
#    0.000    3.500    0.000    0.000    0.000    1.000 
#    0.000    0.625    0.000    0.000    0.000    0.875 
#    0.000    0.000    0.000    0.000    0.000    0.000 
#
# Total GULP energy -178220.472960 kJ/mol
# GULP energy per Si atom -5569.389780 kJ/mol
# Density = 2.597936 g / cm^3
# Si number density = 26.038623 Si / 1000 Ang^3
#
#
#
# Elastic Constant Matrix: (Units=GPa)
#
#
# Indices 1 2 3 4 5 6 
#
# 1 145.0266 -19.1998 29.1400 0.0000 0.0000 0.0000
# 2 -19.1998 59.5461 18.7061 0.0000 0.0000 0.0000
# 3 29.1400 18.7061 437.0195 0.0000 0.0000 0.0000
# 4 0.0000 0.0000 0.0000 26.5313 0.0000 0.0000
# 5 0.0000 0.0000 0.0000 0.0000 1.4589 0.0000
# 6 0.0000 0.0000 0.0000 0.0000 0.0000 1.6991
#
#
#
# Elastic Compliance Matrix: (Units=1/GPa)
#
#
# Indices 1 2 3 4 5 6 
#
# 1 0.007355 0.002560 -0.000600 0.000000 0.000000 0.000000
# 2 0.002560 0.017914 -0.000937 0.000000 0.000000 0.000000
# 3 -0.000600 -0.000937 0.002368 0.000000 0.000000 0.000000
# 4 0.000000 0.000000 0.000000 0.037691 0.000000 0.000000
# 5 0.000000 0.000000 0.000000 0.000000 0.685431 0.000000
# 6 0.000000 0.000000 0.000000 0.000000 0.000000 0.588553
#
#
# Mechanical properties :
#
#
# Convention : Reuss Voigt Hill
#
# Bulk Modulus (GPa) = 33.69082 77.65386 55.67234
# Shear Modulus (GPa) = 3.71151 46.80091 25.25621
#
# Velocity S-wave (km/s) = 1.19519 4.24413 3.11778
# Velocity P-wave (km/s) = 3.85636 7.34195 5.86412
#
# Compressibility (1/GPa) = 0.02968167
#
# Stress axis : x y z
#
# Youngs Moduli (GPa) = 135.96665 55.82343 422.23297
#
# Poissons Ratio (x) = -0.14290 0.25333
# Poissons Ratio (y) = -0.34806 0.39583
# Poissons Ratio (z) = 0.08158 0.05233
#
# Static dielectric constant tensor:
#      x y z
#    x 1.946950 0.000000 0.000000 
#    y 0.000000 2.012440 0.000000 
#    z 0.000000 0.000000 2.222970 
# 
# From -- ./inp_files/6973.got.cif
#   From: 2010.05.17/outbox.cif.g08.bks.cpg/sg28_4_cif.got.tgz:6973.got - 2010.06.04 01:15:21.
