data_PCOD9339171
_publ_section_title
;
Structure prediction by ZEFSAII (Michael W. Deem and Ramdas Pophale) SiO2 
 PCOD9339171
Probable space group: P C C 2
;
_chemical_formula_sum "Si O2"
_cell_formula_units_Z 32
_cell_length_a 11.266858
_cell_length_b 13.979429
_cell_length_c 9.725756
_cell_angle_alpha 90.000000
_cell_angle_beta 90.000000
_cell_angle_gamma 90.000000
_cell_volume 1531.847821
_symmetry_space_group_name_H-M "P C C 2"
_symmetry_group_IT_number 27
_symmetry_cell_setting 'orthorhombic'
loop_
_space_group_symop_operation_xyz
x,y,z
-x,-y,z
-x,y,1/2+z
x,-y,1/2+z
loop_
_atom_site_type_symbol
_atom_site_label
_atom_site_fract_x
_atom_site_fract_y
_atom_site_fract_z
Si Si1 0.868873 0.736926 0.753030
Si Si2 0.614928 0.176560 0.342078
Si Si3 0.604440 0.785891 0.164146
Si Si4 0.209449 0.617054 0.635290
Si Si5 0.033999 0.225387 0.027046
Si Si6 0.713946 0.016850 0.761259
Si Si7 0.864836 0.974518 0.015462
Si Si8 0.136061 0.473460 0.866503
O O1 0.744515 0.780132 0.804807
O O2 0.863093 0.622865 0.772978
O O3 0.910348 0.777529 0.606755
O O4 0.971020 0.767823 0.862688
O O5 0.518599 0.226116 0.244926
O O6 0.587773 0.188496 0.503226
O O7 0.622174 0.063365 0.310441
O O8 0.683735 0.690412 0.160924
O O9 0.664646 0.876736 0.242020
O O10 0.097605 0.681967 0.589286
O O11 0.183589 0.557854 0.771375
O O12 0.215348 0.548067 0.501353
O O13 0.125720 0.138461 0.046761
O O14 0.765930 0.984816 0.615097
O O15 0.824771 0.006061 0.865117
O O16 0.000000 0.000000 0.041465
O O17 0.000000 0.500000 0.906172
#
# Coordination Sequence:
#
# PCOD9339171 Si02
#       8
#     4   4   4   4   4   4   4   4
#     4  11  23  44  71 104 145 180 233 292 356 425
#     4  12  26  51  70 102 139 192 243 298 344 417
#     4  12  27  50  74  96 145 189 244 304 344 409
#     4  11  23  46  68 106 140 177 234 291 355 422
#     4  11  22  43  67  99 151 179 221 293 360 425
#     4  12  23  46  70 101 140 191 245 293 344 423
#     4  12  25  39  65 104 148 191 229 287 363 436
#     4  11  22  40  77 108 139 181 229 289 363 439
#
# _framework density 20.889804000000002
#
# number of rings (size 3 to 8) (size 9 to 14) (size 15 to 20)
#    0.000    0.500    7.500    1.875    5.250    1.000 
#    4.500    0.625    0.000    0.000    0.000    0.000 
#    0.000    0.000    0.000    0.000    0.000    0.000 
#
# Total GULP energy -178727.450095 kJ/mol
# GULP energy per Si atom -5585.232815 kJ/mol
# Density = 2.084226 g / cm^3
# Si number density = 20.889804 Si / 1000 Ang^3
#
#
#
# Elastic Constant Matrix: (Units=GPa)
#
#
# Indices 1 2 3 4 5 6 
#
# 1 78.7541 40.1014 39.1650 0.0000 0.0000 0.0000
# 2 40.1014 101.0794 53.5637 0.0000 0.0000 0.0000
# 3 39.1650 53.5637 89.1662 0.0000 0.0000 0.0000
# 4 0.0000 0.0000 0.0000 31.4973 0.0000 0.0000
# 5 0.0000 0.0000 0.0000 0.0000 33.7188 0.0000
# 6 0.0000 0.0000 0.0000 0.0000 0.0000 19.2232
#
#
#
# Elastic Compliance Matrix: (Units=1/GPa)
#
#
# Indices 1 2 3 4 5 6 
#
# 1 0.017372 -0.004179 -0.005120 0.000000 0.000000 0.000000
# 2 -0.004179 0.015518 -0.007487 0.000000 0.000000 0.000000
# 3 -0.005120 -0.007487 0.017961 0.000000 0.000000 0.000000
# 4 0.000000 0.000000 0.000000 0.031749 0.000000 0.000000
# 5 0.000000 0.000000 0.000000 0.000000 0.029657 0.000000
# 6 0.000000 0.000000 0.000000 0.000000 0.000000 0.052020
#
#
# Mechanical properties :
#
#
# Convention : Reuss Voigt Hill
#
# Bulk Modulus (GPa) = 57.86879 59.40664 58.63772
# Shear Modulus (GPa) = 24.55688 25.96584 25.26136
#
# Velocity S-wave (km/s) = 3.43234 3.52943 3.48123
# Velocity P-wave (km/s) = 6.59318 6.71633 6.65504
#
# Compressibility (1/GPa) = 0.01728047
#
# Stress axis : x y z
#
# Youngs Moduli (GPa) = 57.56460 64.43972 55.67517
#
# Poissons Ratio (x) = 0.26928 0.28506
# Poissons Ratio (y) = 0.24055 0.41682
# Poissons Ratio (z) = 0.29474 0.48244
#
# Static dielectric constant tensor:
#      x y z
#    x 1.784310 0.000000 0.000000 
#    y 0.000000 1.830090 0.000000 
#    z 0.000000 0.000000 1.771640 
# 
# From -- ./inp_files/1491.got.cif
#   From: 2010.05.17/outbox.cif.g08.bks.cpg/sg27_1_cif.got.tgz:1491.got - 2010.06.04 01:11:05.
