data_PCOD9339076
_publ_section_title
;
Structure prediction by ZEFSAII (Michael W. Deem and Ramdas Pophale) SiO2 
 PCOD9339076
Probable space group: P C C 2
;
_chemical_formula_sum "Si O2"
_cell_formula_units_Z 30
_cell_length_a 19.241499
_cell_length_b 4.785200
_cell_length_c 12.258850
_cell_angle_alpha 90.000000
_cell_angle_beta 90.000000
_cell_angle_gamma 90.000000
_cell_volume 1128.726516
_symmetry_space_group_name_H-M "P C C 2"
_symmetry_group_IT_number 27
_symmetry_cell_setting 'orthorhombic'
loop_
_space_group_symop_operation_xyz
x,y,z
-x,-y,z
-x,y,1/2+z
x,-y,1/2+z
loop_
_atom_site_type_symbol
_atom_site_label
_atom_site_fract_x
_atom_site_fract_y
_atom_site_fract_z
Si Si1 0.663374 0.525208 0.005390
Si Si2 0.329434 0.842957 0.789244
Si Si3 0.761741 0.652206 0.730953
Si Si4 0.204105 0.925620 0.533299
Si Si5 0.133531 0.722533 0.861168
Si Si6 0.067813 0.384060 0.044516
Si Si7 0.581949 0.009229 0.099385
Si Si8 0.000000 0.000000 0.860291
O O1 0.775801 0.168762 0.120246
O O2 0.623992 0.301375 0.086404
O O3 0.613669 0.793446 0.011565
O O4 0.739204 0.680432 0.012960
O O5 0.291254 0.140018 0.792003
O O6 0.336399 0.671070 0.899296
O O7 0.398087 0.892095 0.718860
O O8 0.280281 0.636541 0.718594
O O9 0.830028 0.527335 0.793998
O O10 0.133783 0.790602 0.584150
O O11 0.187317 0.056440 0.413131
O O12 0.103576 0.631245 0.978591
O O13 0.065818 0.855826 0.801730
O O14 0.000000 0.500000 0.108357
O O15 0.036133 0.214175 0.942561
O O16 0.500000 0.000000 0.085769
#
# Coordination Sequence:
#
# PCOD9339076 Si02
#       8
#     4   4   4   4   4   4   4   2
#     4  12  28  52  87 127 170 223 283 343 436 503
#     4  12  29  49  80 125 169 217 282 348 421 514
#     4  12  28  44  76 129 162 215 285 353 423 487
#     4  11  26  46  80 122 170 220 282 357 417 505
#     4  10  23  43  76 118 157 223 278 348 430 506
#     4   9  19  39  72 111 151 214 273 335 429 495
#     4  12  29  57  88 123 170 220 277 350 420 513
#     4   8  18  40  68 110 154 210 276 344 422 506
#
# _framework density 26.578626
#
# number of rings (size 3 to 8) (size 9 to 14) (size 15 to 20)
#    0.000    1.067    1.333    2.800   11.200    1.600 
#    0.000    2.667    0.000   17.600   38.133    0.000 
#    0.000    0.000    0.000    0.000    0.000    0.000 
#
# Total GULP energy -167514.628867 kJ/mol
# GULP energy per Si atom -5583.820962 kJ/mol
# Density = 2.651813 g / cm^3
# Si number density = 26.578626 Si / 1000 Ang^3
#
#
#
# Elastic Constant Matrix: (Units=GPa)
#
#
# Indices 1 2 3 4 5 6 
#
# 1 213.8853 80.2088 55.0216 0.0000 0.0000 0.0000
# 2 80.2088 193.3613 51.4655 0.0000 0.0000 0.0000
# 3 55.0216 51.4655 101.6280 0.0000 0.0000 0.0000
# 4 0.0000 0.0000 0.0000 49.8650 0.0000 0.0000
# 5 0.0000 0.0000 0.0000 0.0000 60.8173 0.0000
# 6 0.0000 0.0000 0.0000 0.0000 0.0000 44.1140
#
#
#
# Elastic Compliance Matrix: (Units=1/GPa)
#
#
# Indices 1 2 3 4 5 6 
#
# 1 0.005962 -0.001866 -0.002283 0.000000 0.000000 0.000000
# 2 -0.001866 0.006561 -0.002313 0.000000 0.000000 0.000000
# 3 -0.002283 -0.002313 0.012247 0.000000 0.000000 0.000000
# 4 0.000000 0.000000 0.000000 0.020054 0.000000 0.000000
# 5 0.000000 0.000000 0.000000 0.000000 0.016443 0.000000
# 6 0.000000 0.000000 0.000000 0.000000 0.000000 0.022669
#
#
# Mechanical properties :
#
#
# Convention : Reuss Voigt Hill
#
# Bulk Modulus (GPa) = 84.40477 98.02960 91.21718
# Shear Modulus (GPa) = 49.59927 52.43785 51.01856
#
# Velocity S-wave (km/s) = 4.32456 4.44659 4.38600
# Velocity P-wave (km/s) = 7.53401 7.95775 7.74878
#
# Compressibility (1/GPa) = 0.01184767
#
# Stress axis : x y z
#
# Youngs Moduli (GPa) = 167.71840 152.41494 81.65195
#
# Poissons Ratio (x) = 0.28434 0.18644
# Poissons Ratio (y) = 0.31289 0.18883
# Poissons Ratio (z) = 0.38295 0.35247
#
# Static dielectric constant tensor:
#      x y z
#    x 0.903210 0.000000 0.000000 
#    y 0.000000 1.697110 0.000000 
#    z 0.000000 0.000000 2.295180 
# 
# From -- ./inp_files/4498.got.cif
#   From: 2010.05.17/outbox.cif.g08.bks.cpg/sg27_3_cif.got.tgz:4498.got - 2010.06.04 01:11:05.
