data_PCOD9339532
_publ_section_title
;
Structure prediction by ZEFSAII (Michael W. Deem and Ramdas Pophale) SiO2 
 PCOD9339532
Probable space group: P M A 2
;
_chemical_formula_sum "Si O2"
_cell_formula_units_Z 28
_cell_length_a 8.612406
_cell_length_b 9.469611
_cell_length_c 18.661948
_cell_angle_alpha 90.000000
_cell_angle_beta 90.000000
_cell_angle_gamma 90.000000
_cell_volume 1521.996343
_symmetry_space_group_name_H-M "P M A 2"
_symmetry_group_IT_number 28
_symmetry_cell_setting 'orthorhombic'
loop_
_space_group_symop_operation_xyz
x,y,z
-x,-y,z
1/2-x,y,z
1/2+x,-y,z
loop_
_atom_site_type_symbol
_atom_site_label
_atom_site_fract_x
_atom_site_fract_y
_atom_site_fract_z
Si Si1 0.935707 0.657980 0.501770
Si Si2 0.063274 0.656722 0.345671
Si Si3 0.563211 0.660107 0.077575
Si Si4 0.435512 0.841771 0.631725
Si Si5 0.935970 0.157759 0.208628
Si Si6 0.562608 0.660593 0.763388
Si Si7 0.063348 0.340723 0.920694
O O1 0.750000 0.654557 0.503604
O O2 0.000000 0.500000 0.515411
O O3 0.993536 0.699127 0.422429
O O4 0.000175 0.762339 0.561685
O O5 0.250000 0.650685 0.351353
O O6 0.019130 0.761463 0.281758
O O7 0.000000 0.500000 0.329450
O O8 0.500000 0.500000 0.084113
O O9 0.750000 0.655634 0.081191
O O10 0.498956 0.755019 0.141118
O O11 0.516010 0.718350 0.998373
O O12 0.250000 0.843390 0.629790
O O13 0.493255 0.755014 0.700771
O O14 0.500000 0.000000 0.634467
O O15 0.750000 0.155058 0.205316
O O16 0.000000 0.000000 0.208163
O O17 0.500000 0.500000 0.757259
O O18 0.750000 0.657903 0.758009
O O19 0.517248 0.718183 0.842881
O O20 0.250000 0.344828 0.920684
O O21 0.000000 0.500000 0.920731
#
# Coordination Sequence:
#
# PCOD9339532 Si02
#       7
#     4   4   4   4   4   4   4
#     4  11  22  39  63  89 115 146 184 227 274 324
#     4  10  21  38  60  86 113 143 183 229 277 328
#     4  10  19  34  57  84 113 146 186 231 278 329
#     4  12  25  41  58  81 113 149 188 229 277 331
#     4  11  24  39  56  80 112 150 189 230 278 331
#     4  10  19  35  58  85 114 146 186 230 277 328
#     4   8  16  30  52  81 111 142 180 228 277 325
#
# _framework density 18.396889999999999
#
# number of rings (size 3 to 8) (size 9 to 14) (size 15 to 20)
#    0.000    1.714    0.000    6.000    0.000    5.143 
#    0.000    2.143    0.000    0.000    0.000    0.000 
#    0.000    0.000    0.000    0.000    0.000    0.000 
#
# Total GULP energy -156347.038715 kJ/mol
# GULP energy per Si atom -5583.822811 kJ/mol
# Density = 1.835502 g / cm^3
# Si number density = 18.396890 Si / 1000 Ang^3
#
#
#
# Elastic Constant Matrix: (Units=GPa)
#
#
# Indices 1 2 3 4 5 6 
#
# 1 102.7031 49.8217 75.6901 0.0000 0.0000 0.0000
# 2 49.8217 107.8292 122.5586 0.0000 0.0000 0.0000
# 3 75.6901 122.5586 207.7303 0.0000 0.0000 0.0000
# 4 0.0000 0.0000 0.0000 -12.6103 0.0000 0.0000
# 5 0.0000 0.0000 0.0000 0.0000 24.1306 0.0000
# 6 0.0000 0.0000 0.0000 0.0000 0.0000 31.0291
#
#
#
# Elastic Compliance Matrix: (Units=1/GPa)
#
#
# Indices 1 2 3 4 5 6 
#
# 1 0.013446 -0.001955 -0.003746 0.000000 0.000000 0.000000
# 2 -0.001955 0.028437 -0.016065 0.000000 0.000000 0.000000
# 3 -0.003746 -0.016065 0.015657 0.000000 0.000000 0.000000
# 4 0.000000 0.000000 0.000000 -0.079300 0.000000 0.000000
# 5 0.000000 0.000000 0.000000 0.000000 0.041441 0.000000
# 6 0.000000 0.000000 0.000000 0.000000 0.000000 0.032228
#
#
# Mechanical properties :
#
#
# Convention : Reuss Voigt Hill
#
# Bulk Modulus (GPa) = 71.38910 101.60037 86.49473
# Shear Modulus (GPa) = 49.94558 19.85602 34.90080
#
# Velocity S-wave (km/s) = 5.21612 3.28886 4.36030
# Velocity P-wave (km/s) = 8.66985 8.35278 8.51279
#
# Compressibility (1/GPa) = 0.01400774
#
# Stress axis : x y z
#
# Youngs Moduli (GPa) = 74.37304 35.16578 63.86978
#
# Poissons Ratio (x) = 0.06876 0.23923
# Poissons Ratio (y) = 0.14542 1.02606
# Poissons Ratio (z) = 0.27857 0.56494
#
# Static dielectric constant tensor:
#      x y z
#    x 1.617630 0.000000 0.000000 
#    y 0.000000 1.584000 0.000000 
#    z 0.000000 0.000000 1.659760 
# 
# From -- ./inp_files/6745.got.cif
#   From: 2010.05.17/outbox.cif.g08.bks.cpg/sg28_4_cif.got.tgz:6745.got - 2010.06.04 01:15:21.
