data_PCOD9339564
_publ_section_title
;
Structure prediction by ZEFSAII (Michael W. Deem and Ramdas Pophale) SiO2 
 PCOD9339564
Probable space group: P M A 2
;
_chemical_formula_sum "Si O2"
_cell_formula_units_Z 32
_cell_length_a 8.793650
_cell_length_b 15.770798
_cell_length_c 12.085445
_cell_angle_alpha 90.000000
_cell_angle_beta 90.000000
_cell_angle_gamma 90.000000
_cell_volume 1676.044292
_symmetry_space_group_name_H-M "P M A 2"
_symmetry_group_IT_number 28
_symmetry_cell_setting 'orthorhombic'
loop_
_space_group_symop_operation_xyz
x,y,z
-x,-y,z
1/2-x,y,z
1/2+x,-y,z
loop_
_atom_site_type_symbol
_atom_site_label
_atom_site_fract_x
_atom_site_fract_y
_atom_site_fract_z
Si Si1 0.932920 0.753939 0.508200
Si Si2 0.930674 0.909474 0.893844
Si Si3 0.566933 0.244994 0.753479
Si Si4 0.931438 0.589474 0.365381
Si Si5 0.932037 0.090721 0.369321
Si Si6 0.567001 0.410809 0.893063
Si Si7 0.930898 0.149090 0.121248
Si Si8 0.067848 0.649408 0.135346
O O1 0.750000 0.757937 0.513088
O O2 0.977150 0.667987 0.443301
O O3 0.002017 0.754164 0.630289
O O4 0.995762 0.833926 0.440290
O O5 0.750000 0.910557 0.882064
O O6 0.001941 0.834549 0.820919
O O7 0.000000 0.000000 0.861419
O O8 0.976691 0.890999 0.020939
O O9 0.750000 0.240111 0.752166
O O10 0.522412 0.331289 0.817388
O O11 0.750000 0.583786 0.365382
O O12 0.000000 0.500000 0.402053
O O13 0.988132 0.609919 0.241603
O O14 0.750000 0.091388 0.382541
O O15 0.965950 0.108408 0.239852
O O16 0.000000 0.000000 0.401199
O O17 0.500000 0.500000 0.855402
O O18 0.750000 0.415161 0.892562
O O19 0.518588 0.391868 0.019538
O O20 0.750000 0.138683 0.098815
O O21 0.961511 0.249772 0.128803
O O22 0.250000 0.638440 0.146992
#
# Coordination Sequence:
#
# PCOD9339564 Si02
#       8
#     4   4   4   4   4   4   4   4
#     4  11  25  44  64  91 123 159 210 263 310 367
#     4  12  25  41  65  95 128 165 206 254 309 369
#     4  11  24  45  67  89 121 163 210 259 313 367
#     4  11  24  40  62  92 127 164 207 256 308 369
#     4  11  23  40  65  94 126 166 205 252 308 368
#     4  10  22  39  62  91 125 161 200 250 304 365
#     4  10  20  38  64  94 129 165 204 249 308 371
#     4  10  19  37  63  92 127 163 202 249 308 370
#
# _framework density 19.092573000000002
#
# number of rings (size 3 to 8) (size 9 to 14) (size 15 to 20)
#    0.000    1.250    2.500    3.375    0.000    7.500 
#    0.000    5.000    0.000    0.000    0.000    0.000 
#    0.000    0.000    0.000    0.000    0.000    0.000 
#
# Total GULP energy -179003.331032 kJ/mol
# GULP energy per Si atom -5593.854095 kJ/mol
# Density = 1.904912 g / cm^3
# Si number density = 19.092573 Si / 1000 Ang^3
#
#
#
# Elastic Constant Matrix: (Units=GPa)
#
#
# Indices 1 2 3 4 5 6 
#
# 1 69.4451 71.1200 62.4308 0.0000 0.0000 0.0000
# 2 71.1200 198.1254 89.7577 0.0000 0.0000 0.0000
# 3 62.4308 89.7577 141.7228 0.0000 0.0000 0.0000
# 4 0.0000 0.0000 0.0000 -2.2520 0.0000 0.0000
# 5 0.0000 0.0000 0.0000 0.0000 -29.1153 0.0000
# 6 0.0000 0.0000 0.0000 0.0000 0.0000 59.3352
#
#
#
# Elastic Compliance Matrix: (Units=1/GPa)
#
#
# Indices 1 2 3 4 5 6 
#
# 1 0.028666 -0.006408 -0.008570 0.000000 0.000000 0.000000
# 2 -0.006408 0.008511 -0.002567 0.000000 0.000000 0.000000
# 3 -0.008570 -0.002567 0.012457 0.000000 0.000000 0.000000
# 4 0.000000 0.000000 0.000000 -0.444052 0.000000 0.000000
# 5 0.000000 0.000000 0.000000 0.000000 -0.034346 0.000000
# 6 0.000000 0.000000 0.000000 0.000000 0.000000 0.016853
#
#
# Mechanical properties :
#
#
# Convention : Reuss Voigt Hill
#
# Bulk Modulus (GPa) = 68.75491 95.10116 81.92804
# Shear Modulus (GPa) = -13.44182 17.99255 2.27537
#
# Velocity S-wave (km/s) = -2.65624 3.07316 1.09286
# Velocity P-wave (km/s) = 5.16546 7.90640 6.67807
#
# Compressibility (1/GPa) = 0.01454442
#
# Stress axis : x y z
#
# Youngs Moduli (GPa) = 34.88416 117.50088 80.27629
#
# Poissons Ratio (x) = 0.75293 0.68793
# Poissons Ratio (y) = 0.22353 0.20609
# Poissons Ratio (z) = 0.29894 0.30166
#
# Static dielectric constant tensor:
#      x y z
#    x 1.639620 0.000000 0.000000 
#    y 0.000000 1.640670 0.000000 
#    z 0.000000 0.000000 1.635050 
# 
# From -- ./inp_files/5078.got.cif
#   From: 2010.05.17/outbox.cif.g08.bks.cpg/sg28_3_cif.got.tgz:5078.got - 2010.06.04 01:15:21.
