data_PCOD9339281
_publ_section_title
;
Structure prediction by ZEFSAII (Michael W. Deem and Ramdas Pophale) SiO2 
 PCOD9339281
Probable space group: P M A 2
;
_chemical_formula_sum "Si O2"
_cell_formula_units_Z 28
_cell_length_a 20.778948
_cell_length_b 5.237729
_cell_length_c 14.210611
_cell_angle_alpha 90.000000
_cell_angle_beta 90.000000
_cell_angle_gamma 90.000000
_cell_volume 1546.604722
_symmetry_space_group_name_H-M "P M A 2"
_symmetry_group_IT_number 28
_symmetry_cell_setting 'orthorhombic'
loop_
_space_group_symop_operation_xyz
x,y,z
-x,-y,z
1/2-x,y,z
1/2+x,-y,z
loop_
_atom_site_type_symbol
_atom_site_label
_atom_site_fract_x
_atom_site_fract_y
_atom_site_fract_z
Si Si1 0.177291 0.348482 0.870490
Si Si2 0.172023 0.646119 0.055330
Si Si3 0.328076 0.995488 0.371234
Si Si4 0.671444 0.857162 0.161609
Si Si5 0.172077 0.497388 0.485150
Si Si6 0.882474 0.449495 0.693138
Si Si7 0.430489 0.062697 0.782538
O O1 0.250000 0.259620 0.890452
O O2 0.173608 0.490231 0.769730
O O3 0.125500 0.123906 0.857672
O O4 0.155630 0.540512 0.952291
O O5 0.250000 0.655357 0.057416
O O6 0.151616 0.424363 0.128504
O O7 0.150285 0.924376 0.088234
O O8 0.250000 0.989571 0.367169
O O9 0.349853 0.060325 0.265695
O O10 0.347910 0.725354 0.414894
O O11 0.345894 0.226105 0.440413
O O12 0.750000 0.853848 0.162305
O O13 0.250000 0.505593 0.493560
O O14 0.142050 0.532965 0.587615
O O15 0.909629 0.173788 0.718442
O O16 0.931399 0.678882 0.719860
O O17 0.500000 0.000000 0.823807
#
# Coordination Sequence:
#
# PCOD9339281 Si02
#       7
#     4   4   4   4   4   4   4
#     4   9  21  33  52  79 109 142 175 217 264 317
#     4   9  17  27  42  65  96 131 172 206 251 308
#     4   9  17  27  42  63  97 137 172 207 254 309
#     4   9  16  27  41  61  94 137 171 204 249 308
#     4  10  18  29  45  71 101 134 172 209 256 312
#     4  10  21  34  53  72 104 137 173 217 260 311
#     4  10  22  38  55  73 105 147 179 220 258 311
#
# _framework density 18.104172999999999
#
# number of rings (size 3 to 8) (size 9 to 14) (size 15 to 20)
#    0.857    1.714    0.000    2.571    2.000    4.571 
#    0.000    0.000    0.000    0.000    0.000    0.000 
#    0.000   17.143    0.000    0.000    0.000    0.000 
#
# Total GULP energy -155912.700746 kJ/mol
# GULP energy per Si atom -5568.310741 kJ/mol
# Density = 1.806297 g / cm^3
# Si number density = 18.104173 Si / 1000 Ang^3
#
#
#
# Elastic Constant Matrix: (Units=GPa)
#
#
# Indices 1 2 3 4 5 6 
#
# 1 36.4759 2.1581 2.5987 0.0000 0.0000 0.0000
# 2 2.1581 70.1236 -16.0955 0.0000 0.0000 0.0000
# 3 2.5987 -16.0955 58.7091 0.0000 0.0000 0.0000
# 4 0.0000 0.0000 0.0000 25.5329 0.0000 0.0000
# 5 0.0000 0.0000 0.0000 0.0000 -2.0406 0.0000
# 6 0.0000 0.0000 0.0000 0.0000 0.0000 -10.5665
#
#
#
# Elastic Compliance Matrix: (Units=1/GPa)
#
#
# Indices 1 2 3 4 5 6 
#
# 1 0.027597 -0.001206 -0.001552 0.000000 0.000000 0.000000
# 2 -0.001206 0.015271 0.004240 0.000000 0.000000 0.000000
# 3 -0.001552 0.004240 0.018264 0.000000 0.000000 0.000000
# 4 0.000000 0.000000 0.000000 0.039165 0.000000 0.000000
# 5 0.000000 0.000000 0.000000 0.000000 -0.490045 0.000000
# 6 0.000000 0.000000 0.000000 0.000000 0.000000 -0.094638
#
#
# Mechanical properties :
#
#
# Convention : Reuss Voigt Hill
#
# Bulk Modulus (GPa) = 15.60134 15.84789 15.72462
# Shear Modulus (GPa) = -10.72997 14.36163 1.81583
#
# Velocity S-wave (km/s) = -2.43714 2.81957 1.00258
# Velocity P-wave (km/s) = 0.84658 4.40145 3.16934
#
# Compressibility (1/GPa) = 0.06409705
#
# Stress axis : x y z
#
# Youngs Moduli (GPa) = 36.23550 65.48428 54.75172
#
# Poissons Ratio (x) = 0.07895 0.08498
# Poissons Ratio (y) = 0.04368 -0.23215
# Poissons Ratio (z) = 0.05624 -0.27765
#
# Static dielectric constant tensor:
#      x y z
#    x 1.610110 0.000000 0.000000 
#    y 0.000000 1.638830 0.000000 
#    z 0.000000 0.000000 1.621240 
# 
# From -- ./inp_files/5906.got.cif
#   From: 2010.05.17/outbox.cif.g08.bks.cpg/sg28_3_cif.got.tgz:5906.got - 2010.06.04 01:15:21.
