data_PCOD9339996
_publ_section_title
;
Structure prediction by ZEFSAII (Michael W. Deem and Ramdas Pophale) SiO2 
 PCOD9339996
Probable space group: P C A 21
;
_chemical_formula_sum "Si O2"
_cell_formula_units_Z 24
_cell_length_a 5.439258
_cell_length_b 13.590931
_cell_length_c 13.039032
_cell_angle_alpha 90.000000
_cell_angle_beta 90.000000
_cell_angle_gamma 90.000000
_cell_volume 963.904966
_symmetry_space_group_name_H-M "P C A 21"
_symmetry_group_IT_number 29
_symmetry_cell_setting 'orthorhombic'
loop_
_space_group_symop_operation_xyz
x,y,z
-x,-y,1/2+z
1/2-x,y,1/2+z
1/2+x,-y,z
loop_
_atom_site_type_symbol
_atom_site_label
_atom_site_fract_x
_atom_site_fract_y
_atom_site_fract_z
Si Si1 0.739657 0.749577 0.133160
Si Si2 0.259762 0.754070 0.764933
Si Si3 0.159559 0.970542 0.304509
Si Si4 0.632232 0.458937 0.822801
Si Si5 0.846281 0.533728 0.084396
Si Si6 0.132623 0.049139 0.531241
O O1 0.483086 0.764792 0.193414
O O2 0.735311 0.642994 0.081101
O O3 0.786622 0.841293 0.059293
O O4 0.982619 0.742633 0.204858
O O5 0.292789 0.856092 0.824634
O O6 0.211549 0.654381 0.826533
O O7 0.396698 0.016852 0.250570
O O8 0.130077 0.032692 0.408299
O O9 0.357950 0.475917 0.862924
O O10 0.614348 0.494032 0.702232
O O11 0.625057 0.465872 0.043570
O O12 0.354606 0.976239 0.563806
#
# Coordination Sequence:
#
# PCOD9339996 Si02
#       6
#     4   4   4   4   4   4
#     4  12  21  32  58  90 116 149 188 236 285 334
#     4  12  21  32  58  90 116 149 188 236 285 334
#     4  10  23  42  57  76 112 161 196 232 282 338
#     4  10  16  30  48  78 125 143 168 221 281 351
#     4  10  16  30  48  78 125 143 168 221 281 351
#     4  10  23  42  57  76 112 161 196 232 282 338
#
# _framework density 24.898723
#
# number of rings (size 3 to 8) (size 9 to 14) (size 15 to 20)
#    0.000    1.333    6.667    2.000    0.000    4.000 
#    0.000    0.000    0.000    0.000    0.000   28.000 
#    0.000    0.000    0.000    0.000    0.000    0.000 
#
# Total GULP energy -134249.526507 kJ/mol
# GULP energy per Si atom -5593.730271 kJ/mol
# Density = 2.484205 g / cm^3
# Si number density = 24.898723 Si / 1000 Ang^3
#
#
#
# Elastic Constant Matrix: (Units=GPa)
#
#
# Indices 1 2 3 4 5 6 
#
# 1 188.3566 -15.1999 17.0415 0.0000 0.0000 0.0000
# 2 -15.1999 125.3319 -12.8235 0.0000 0.0000 0.0000
# 3 17.0415 -12.8235 40.4318 0.0000 0.0000 0.0000
# 4 0.0000 0.0000 0.0000 27.3219 0.0000 0.0000
# 5 0.0000 0.0000 0.0000 0.0000 46.7539 0.0000
# 6 0.0000 0.0000 0.0000 0.0000 0.0000 48.5575
#
#
#
# Elastic Compliance Matrix: (Units=1/GPa)
#
#
# Indices 1 2 3 4 5 6 
#
# 1 0.005544 0.000448 -0.002195 0.000000 0.000000 0.000000
# 2 0.000448 0.008283 0.002438 0.000000 0.000000 0.000000
# 3 -0.002195 0.002438 0.026431 0.000000 0.000000 0.000000
# 4 0.000000 0.000000 0.000000 0.036601 0.000000 0.000000
# 5 0.000000 0.000000 0.000000 0.000000 0.021389 0.000000
# 6 0.000000 0.000000 0.000000 0.000000 0.000000 0.020594
#
#
# Mechanical properties :
#
#
# Convention : Reuss Voigt Hill
#
# Bulk Modulus (GPa) = 24.01511 36.90628 30.46070
# Shear Modulus (GPa) = 38.06956 48.86680 43.46818
#
# Velocity S-wave (km/s) = 3.91446 4.43496 4.18281
# Velocity P-wave (km/s) = 5.48604 6.40936 5.96559
#
# Compressibility (1/GPa) = 0.04164044
#
# Stress axis : x y z
#
# Youngs Moduli (GPa) = 180.38263 120.73524 37.83388
#
# Poissons Ratio (x) = -0.05406 0.08303
# Poissons Ratio (y) = -0.08077 -0.09225
# Poissons Ratio (z) = 0.39587 -0.29438
#
# Static dielectric constant tensor:
#      x y z
#    x 2.036880 0.000000 0.000000 
#    y 0.000000 1.886980 0.000000 
#    z 0.000000 0.000000 2.310500 
# 
# From -- ./inp_files/4015.got.cif
#   From: 2010.05.17/outbox.cif.g08.bks.cpg/sg29_3_cif.got.tgz:4015.got - 2010.06.04 01:19:37.
