data_PCOD9339510
_publ_section_title
;
Structure prediction by ZEFSAII (Michael W. Deem and Ramdas Pophale) SiO2 
 PCOD9339510
Probable space group: P M A 2
;
_chemical_formula_sum "Si O2"
_cell_formula_units_Z 28
_cell_length_a 8.717354
_cell_length_b 14.737366
_cell_length_c 13.058960
_cell_angle_alpha 90.000000
_cell_angle_beta 90.000000
_cell_angle_gamma 90.000000
_cell_volume 1677.695514
_symmetry_space_group_name_H-M "P M A 2"
_symmetry_group_IT_number 28
_symmetry_cell_setting 'orthorhombic'
loop_
_space_group_symop_operation_xyz
x,y,z
-x,-y,z
1/2-x,y,z
1/2+x,-y,z
loop_
_atom_site_type_symbol
_atom_site_label
_atom_site_fract_x
_atom_site_fract_y
_atom_site_fract_z
Si Si1 0.432836 0.599597 0.670470
Si Si2 0.434803 0.398972 0.058775
Si Si3 0.565960 0.599044 0.447557
Si Si4 0.067288 0.903820 0.174778
Si Si5 0.065045 0.287803 0.855064
Si Si6 0.434904 0.277873 0.254326
Si Si7 0.565882 0.904024 0.946070
O O1 0.500000 0.500000 0.696546
O O2 0.250000 0.593758 0.666789
O O3 0.497466 0.623282 0.558188
O O4 0.487283 0.670136 0.755722
O O5 0.500000 0.500000 0.061322
O O6 0.250000 0.403882 0.060000
O O7 0.481910 0.340786 0.158022
O O8 0.479945 0.346368 0.955218
O O9 0.500000 0.500000 0.419998
O O10 0.750000 0.592626 0.455463
O O11 0.527229 0.670396 0.359078
O O12 0.250000 0.908938 0.169394
O O13 0.012748 0.819342 0.241975
O O14 0.000000 0.000000 0.211133
O O15 0.000411 0.889463 0.060190
O O16 0.250000 0.294103 0.844757
O O17 0.025967 0.183129 0.877938
O O18 0.250000 0.266785 0.248996
O O19 0.750000 0.909297 0.953931
O O20 0.500000 0.000000 0.908510
#
# Coordination Sequence:
#
# PCOD9339510 Si02
#       7
#     4   4   4   4   4   4   4
#     4  11  22  36  55  77 106 139 182 226 262 313
#     4  10  20  33  48  72 107 140 170 208 258 313
#     4  10  20  35  57  79 106 141 180 222 264 312
#     4  11  21  33  53  78 107 141 178 218 260 315
#     4  10  20  35  54  75 106 142 175 217 265 314
#     4  10  20  36  54  76 107 141 175 217 267 314
#     4  10  19  34  54  77 108 140 175 218 262 315
#
# _framework density 16.68956
#
# number of rings (size 3 to 8) (size 9 to 14) (size 15 to 20)
#    0.000    1.714    1.429    6.000    0.000    4.571 
#    0.000    0.000    0.000    0.857    0.000    4.000 
#    0.000    0.000    0.000    0.000    0.000    0.000 
#
# Total GULP energy -156387.791509 kJ/mol
# GULP energy per Si atom -5585.278268 kJ/mol
# Density = 1.665157 g / cm^3
# Si number density = 16.689560 Si / 1000 Ang^3
#
#
#
# Elastic Constant Matrix: (Units=GPa)
#
#
# Indices 1 2 3 4 5 6 
#
# 1 77.2805 69.1676 56.4774 0.0000 0.0000 0.0000
# 2 69.1676 169.6326 97.6659 0.0000 0.0000 0.0000
# 3 56.4774 97.6659 104.4103 0.0000 0.0000 0.0000
# 4 0.0000 0.0000 0.0000 20.5073 0.0000 0.0000
# 5 0.0000 0.0000 0.0000 0.0000 19.0443 0.0000
# 6 0.0000 0.0000 0.0000 0.0000 0.0000 32.2235
#
#
#
# Elastic Compliance Matrix: (Units=1/GPa)
#
#
# Indices 1 2 3 4 5 6 
#
# 1 0.023084 -0.004818 -0.007979 0.000000 0.000000 0.000000
# 2 -0.004818 0.013781 -0.010285 0.000000 0.000000 0.000000
# 3 -0.007979 -0.010285 0.023514 0.000000 0.000000 0.000000
# 4 0.000000 0.000000 0.000000 0.048763 0.000000 0.000000
# 5 0.000000 0.000000 0.000000 0.000000 0.052509 0.000000
# 6 0.000000 0.000000 0.000000 0.000000 0.000000 0.031033
#
#
# Mechanical properties :
#
#
# Convention : Reuss Voigt Hill
#
# Bulk Modulus (GPa) = 70.35132 88.66058 79.50595
# Shear Modulus (GPa) = 20.52654 22.88918 21.70786
#
# Velocity S-wave (km/s) = 3.51080 3.70735 3.61041
# Velocity P-wave (km/s) = 7.66020 8.45959 8.06980
#
# Compressibility (1/GPa) = 0.01421438
#
# Stress axis : x y z
#
# Youngs Moduli (GPa) = 43.32062 72.56306 42.52765
#
# Poissons Ratio (x) = 0.34963 0.33934
# Poissons Ratio (y) = 0.20873 0.43738
# Poissons Ratio (z) = 0.34567 0.74629
#
# Static dielectric constant tensor:
#      x y z
#    x 1.559280 0.000000 0.000000 
#    y 0.000000 1.553030 0.000000 
#    z 0.000000 0.000000 1.542370 
# 
# From -- ./inp_files/4827.got.cif
#   From: 2010.05.17/outbox.cif.g08.bks.cpg/sg28_3_cif.got.tgz:4827.got - 2010.06.04 01:15:21.
