data_PCOD9339352
_publ_section_title
;
Structure prediction by ZEFSAII (Michael W. Deem and Ramdas Pophale) SiO2 
 PCOD9339352
Probable space group: P M A 2
;
_chemical_formula_sum "Si O2"
_cell_formula_units_Z 16
_cell_length_a 5.415262
_cell_length_b 7.221486
_cell_length_c 19.275869
_cell_angle_alpha 90.000000
_cell_angle_beta 90.000000
_cell_angle_gamma 90.000000
_cell_volume 753.806735
_symmetry_space_group_name_H-M "P M A 2"
_symmetry_group_IT_number 28
_symmetry_cell_setting 'orthorhombic'
loop_
_space_group_symop_operation_xyz
x,y,z
-x,-y,z
1/2-x,y,z
1/2+x,-y,z
loop_
_atom_site_type_symbol
_atom_site_label
_atom_site_fract_x
_atom_site_fract_y
_atom_site_fract_z
Si Si1 0.250000 0.120458 0.336251
Si Si2 0.250000 0.707908 0.540448
Si Si3 0.250000 0.877574 0.841063
Si Si4 0.750000 0.710713 0.481334
Si Si5 0.250000 0.287017 0.043697
Si Si6 0.250000 0.877357 0.683536
Si Si7 0.750000 0.620727 0.204135
Si Si8 0.750000 0.292404 0.984471
O O1 0.250000 0.269005 0.398857
O O2 0.250000 0.223720 0.262844
O O3 0.500000 0.000000 0.342546
O O4 0.499608 0.795031 0.511181
O O5 0.250000 0.499452 0.510163
O O6 0.250000 0.724921 0.623159
O O7 0.250000 0.803107 0.762298
O O8 0.500000 0.000000 0.848616
O O9 0.250000 0.726672 0.901844
O O10 0.250000 0.298314 0.126397
O O11 0.501945 0.204822 0.014835
O O12 0.250000 0.497253 0.012767
O O13 0.500000 0.000000 0.675774
O O14 0.500000 0.500000 0.211480
#
# Coordination Sequence:
#
# PCOD9339352 Si02
#       8
#     2   2   2   2   2   2   2   2
#     4  12  28  46  65  99 134 168 213 271 330 391
#     4  10  21  39  62  94 116 168 214 262 312 385
#     4  10  21  37  55  85 125 169 204 248 320 382
#     4  10  23  40  63  88 130 156 210 262 318 383
#     4  10  19  37  61  87 113 152 208 253 307 352
#     4  10  21  37  60  86 124 167 212 263 319 376
#     4  12  23  43  74  93 127 180 215 262 328 393
#     4  10  18  35  58  86 117 152 204 253 296 372
#
# _framework density 21.225598000000002
#
# number of rings (size 3 to 8) (size 9 to 14) (size 15 to 20)
#    0.000    1.500    2.500    3.000    3.500    3.000 
#    0.000    8.750    0.000    0.000    0.000    0.000 
#    0.000    0.000    0.000    0.000    0.000    0.000 
#
# Total GULP energy -89348.398656 kJ/mol
# GULP energy per Si atom -5584.274916 kJ/mol
# Density = 2.117729 g / cm^3
# Si number density = 21.225598 Si / 1000 Ang^3
#
#
#
# Elastic Constant Matrix: (Units=GPa)
#
#
# Indices 1 2 3 4 5 6 
#
# 1 225.0478 26.4467 44.8420 0.0000 0.0000 0.0000
# 2 26.4467 85.0815 69.0528 0.0000 0.0000 0.0000
# 3 44.8420 69.0528 230.0219 0.0000 0.0000 0.0000
# 4 0.0000 0.0000 0.0000 1671.1538 0.0000 0.0000
# 5 0.0000 0.0000 0.0000 0.0000 31.3677 0.0000
# 6 0.0000 0.0000 0.0000 0.0000 0.0000 -7.0050
#
#
#
# Elastic Compliance Matrix: (Units=1/GPa)
#
#
# Indices 1 2 3 4 5 6 
#
# 1 0.004680 -0.000944 -0.000629 0.000000 0.000000 0.000000
# 2 -0.000944 0.015730 -0.004538 0.000000 0.000000 0.000000
# 3 -0.000629 -0.004538 0.005832 0.000000 0.000000 0.000000
# 4 0.000000 0.000000 0.000000 0.000598 0.000000 0.000000
# 5 0.000000 0.000000 0.000000 0.000000 0.031880 0.000000
# 6 0.000000 0.000000 0.000000 0.000000 0.000000 -0.142756
#
#
# Mechanical properties :
#
#
# Convention : Reuss Voigt Hill
#
# Bulk Modulus (GPa) = 71.32785 91.20380 81.26582
# Shear Modulus (GPa) = -74.47201 365.75728 145.64264
#
# Velocity S-wave (km/s) = -5.92976 13.14127 8.29249
# Velocity P-wave (km/s) = 3.63390 16.53238 11.40426
#
# Compressibility (1/GPa) = 0.01401977
#
# Stress axis : x y z
#
# Youngs Moduli (GPa) = 213.68586 63.57228 171.45766
#
# Poissons Ratio (x) = 0.06003 0.10782
# Poissons Ratio (y) = 0.20178 0.77809
# Poissons Ratio (z) = 0.13437 0.28850
#
# Static dielectric constant tensor:
#      x y z
#    x 1.801850 0.000000 0.000000 
#    y 0.000000 0.940860 0.000000 
#    z 0.000000 0.000000 1.730050 
# 
# From -- ./inp_files/5927.got.cif
#   From: 2010.05.17/outbox.cif.g08.bks.cpg/sg28_3_cif.got.tgz:5927.got - 2010.06.04 01:15:21.
