data_PCOD9339450
_publ_section_title
;
Structure prediction by ZEFSAII (Michael W. Deem and Ramdas Pophale) SiO2 
 PCOD9339450
Probable space group: P M A 2
;
_chemical_formula_sum "Si O2"
_cell_formula_units_Z 32
_cell_length_a 8.653606
_cell_length_b 9.214421
_cell_length_c 22.144294
_cell_angle_alpha 90.000000
_cell_angle_beta 90.000000
_cell_angle_gamma 90.000000
_cell_volume 1765.741025
_symmetry_space_group_name_H-M "P M A 2"
_symmetry_group_IT_number 28
_symmetry_cell_setting 'orthorhombic'
loop_
_space_group_symop_operation_xyz
x,y,z
-x,-y,z
1/2-x,y,z
1/2+x,-y,z
loop_
_atom_site_type_symbol
_atom_site_label
_atom_site_fract_x
_atom_site_fract_y
_atom_site_fract_z
Si Si1 0.064833 0.664818 0.730860
Si Si2 0.065098 0.337155 0.606875
Si Si3 0.063967 0.335908 0.116023
Si Si4 0.065030 0.664938 0.862444
Si Si5 0.935524 0.837329 0.487132
Si Si6 0.435428 0.334579 0.985535
Si Si7 0.563828 0.663829 0.247812
Si Si8 0.065672 0.837025 0.361175
O O1 0.250000 0.659303 0.726620
O O2 0.023416 0.729767 0.796659
O O3 0.000000 0.500000 0.731693
O O4 0.997763 0.730780 0.669420
O O5 0.250000 0.343243 0.610404
O O6 0.020071 0.250715 0.546854
O O7 0.000000 0.500000 0.602389
O O8 0.250000 0.343261 0.115640
O O9 0.018242 0.269515 0.051012
O O10 0.019151 0.272866 0.181374
O O11 0.000000 0.500000 0.116163
O O12 0.250000 0.658175 0.866589
O O13 0.000000 0.500000 0.861315
O O14 0.999899 0.733919 0.923880
O O15 0.750000 0.841448 0.482686
O O16 0.003004 0.774602 0.424698
O O17 0.000000 0.000000 0.492583
O O18 0.500000 0.500000 0.986663
O O19 0.250000 0.339728 0.981633
O O20 0.500000 0.500000 0.250066
O O21 0.750000 0.662394 0.252106
O O22 0.493817 0.750551 0.303393
O O23 0.250000 0.840630 0.362572
O O24 0.000000 0.000000 0.357330
#
# Coordination Sequence:
#
# PCOD9339450 Si02
#       8
#     4   4   4   4   4   4   4   4
#     4   9  16  25  38  56  83 117 152 188 230 274
#     4  10  20  32  49  72  97 124 157 193 233 280
#     4   8  15  25  38  57  84 117 152 189 231 275
#     4   9  15  21  30  48  74 109 149 186 223 267
#     4  10  21  37  55  75  97 124 157 194 235 283
#     4   9  14  20  31  49  74 109 149 186 224 268
#     4  10  19  33  51  73 101 131 163 201 242 288
#     4  11  22  37  56  76  98 127 160 197 240 287
#
# _framework density 18.122703999999999
#
# number of rings (size 3 to 8) (size 9 to 14) (size 15 to 20)
#    0.000    2.500    0.000    5.625    0.000    5.000 
#    0.000    1.250    0.000    0.000    0.000    0.000 
#    0.000    1.000    0.000    9.000    0.000   10.000 
#
# Total GULP energy -178182.073518 kJ/mol
# GULP energy per Si atom -5568.189797 kJ/mol
# Density = 1.808146 g / cm^3
# Si number density = 18.122704 Si / 1000 Ang^3
#
#
#
# Elastic Constant Matrix: (Units=GPa)
#
#
# Indices 1 2 3 4 5 6 
#
# 1 70.9736 10.7398 64.8966 0.0000 0.0000 0.0000
# 2 10.7398 13.3520 39.8336 0.0000 0.0000 0.0000
# 3 64.8966 39.8336 253.1040 0.0000 0.0000 0.0000
# 4 0.0000 0.0000 0.0000 -10.1604 0.0000 0.0000
# 5 0.0000 0.0000 0.0000 0.0000 19.2912 0.0000
# 6 0.0000 0.0000 0.0000 0.0000 0.0000 14.9835
#
#
#
# Elastic Compliance Matrix: (Units=1/GPa)
#
#
# Indices 1 2 3 4 5 6 
#
# 1 0.018418 -0.001369 -0.004507 0.000000 0.000000 0.000000
# 2 -0.001369 0.141285 -0.021885 0.000000 0.000000 0.000000
# 3 -0.004507 -0.021885 0.008551 0.000000 0.000000 0.000000
# 4 0.000000 0.000000 0.000000 -0.098421 0.000000 0.000000
# 5 0.000000 0.000000 0.000000 0.000000 0.051837 0.000000
# 6 0.000000 0.000000 0.000000 0.000000 0.000000 0.066740
#
#
# Mechanical properties :
#
#
# Convention : Reuss Voigt Hill
#
# Bulk Modulus (GPa) = 8.87048 63.15219 36.01133
# Shear Modulus (GPa) = 17.76145 19.62017 18.69081
#
# Velocity S-wave (km/s) = 3.13400 3.29390 3.21494
# Velocity P-wave (km/s) = 4.24278 7.02773 5.80475
#
# Compressibility (1/GPa) = 0.11273347
#
# Stress axis : x y z
#
# Youngs Moduli (GPa) = 54.29477 7.07787 116.94866
#
# Poissons Ratio (x) = 0.00969 0.52709
# Poissons Ratio (y) = 0.07432 2.55937
# Poissons Ratio (z) = 0.24471 0.15490
#
# Static dielectric constant tensor:
#      x y z
#    x 1.606010 0.000000 0.000000 
#    y 0.000000 1.582540 0.000000 
#    z 0.000000 0.000000 1.722620 
# 
# From -- ./inp_files/7207.got.cif
#   From: 2010.05.17/outbox.cif.g08.bks.cpg/sg28_4_cif.got.tgz:7207.got - 2010.06.04 01:15:21.
