data_PCOD9339273
_publ_section_title
;
Structure prediction by ZEFSAII (Michael W. Deem and Ramdas Pophale) SiO2 
 PCOD9339273
Probable space group: P M A 2
;
_chemical_formula_sum "Si O2"
_cell_formula_units_Z 32
_cell_length_a 7.799872
_cell_length_b 19.892318
_cell_length_c 10.739535
_cell_angle_alpha 90.000000
_cell_angle_beta 90.000000
_cell_angle_gamma 90.000000
_cell_volume 1666.319769
_symmetry_space_group_name_H-M "P M A 2"
_symmetry_group_IT_number 28
_symmetry_cell_setting 'orthorhombic'
loop_
_space_group_symop_operation_xyz
x,y,z
-x,-y,z
1/2-x,y,z
1/2+x,-y,z
loop_
_atom_site_type_symbol
_atom_site_label
_atom_site_fract_x
_atom_site_fract_y
_atom_site_fract_z
Si Si1 0.953861 0.924215 0.289730
Si Si2 0.454220 0.075677 0.573727
Si Si3 0.952221 0.211596 0.683345
Si Si4 0.454649 0.784261 0.186176
Si Si5 0.455864 0.575042 0.831324
Si Si6 0.539527 0.287413 0.436485
Si Si7 0.539277 0.284027 0.932842
Si Si8 0.455592 0.574599 0.545359
O O1 0.750000 0.920461 0.296432
O O2 0.022353 0.914179 0.431715
O O3 0.014103 0.863557 0.203279
O O4 0.000000 0.000000 0.250628
O O5 0.250000 0.082119 0.570145
O O6 0.523437 0.132556 0.664695
O O7 0.500000 0.000000 0.610488
O O8 0.750000 0.226636 0.684225
O O9 0.020746 0.246579 0.558095
O O10 0.019521 0.242719 0.811094
O O11 0.250000 0.774770 0.185335
O O12 0.521935 0.746847 0.309827
O O13 0.521022 0.751063 0.059396
O O14 0.500000 0.500000 0.875261
O O15 0.250000 0.579013 0.825878
O O16 0.514090 0.638450 0.912664
O O17 0.520233 0.582204 0.688163
O O18 0.750000 0.285091 0.434321
O O19 0.485985 0.364305 0.459100
O O20 0.750000 0.282912 0.934802
O O21 0.500000 0.500000 0.501638
O O22 0.250000 0.579427 0.551992
#
# Coordination Sequence:
#
# PCOD9339273 Si02
#       8
#     4   4   4   4   4   4   4   4
#     4  10  20  34  53  77 104 133 166 207 251 298
#     4  10  20  33  51  78 106 132 165 208 253 299
#     4  10  17  31  53  75  99 130 165 206 252 296
#     4  10  19  33  53  77 101 132 172 209 249 300
#     4   9  16  29  48  70  96 128 167 207 248 297
#     4   9  16  28  50  73  96 127 165 204 247 298
#     4   9  18  32  52  76 103 134 170 209 250 301
#     4   9  16  28  46  70  97 128 166 208 252 297
#
# _framework density 19.203996
#
# number of rings (size 3 to 8) (size 9 to 14) (size 15 to 20)
#    0.000    2.500    2.500    0.750    0.000    1.000 
#    0.000    4.375    0.000    0.000    0.000    0.000 
#    0.000    0.000    0.000    0.000    0.000    0.000 
#
# Total GULP energy -178479.778580 kJ/mol
# GULP energy per Si atom -5577.493081 kJ/mol
# Density = 1.916029 g / cm^3
# Si number density = 19.203996 Si / 1000 Ang^3
#
#
#
# Elastic Constant Matrix: (Units=GPa)
#
#
# Indices 1 2 3 4 5 6 
#
# 1 20.8670 -6.8560 11.2281 0.0000 0.0000 0.0000
# 2 -6.8560 178.5758 100.4706 0.0000 0.0000 0.0000
# 3 11.2281 100.4706 134.6336 0.0000 0.0000 0.0000
# 4 0.0000 0.0000 0.0000 29.3856 0.0000 0.0000
# 5 0.0000 0.0000 0.0000 0.0000 5.0347 0.0000
# 6 0.0000 0.0000 0.0000 0.0000 0.0000 24.7747
#
#
#
# Elastic Compliance Matrix: (Units=1/GPa)
#
#
# Indices 1 2 3 4 5 6 
#
# 1 0.056529 0.008313 -0.010918 0.000000 0.000000 0.000000
# 2 0.008313 0.010875 -0.008809 0.000000 0.000000 0.000000
# 3 -0.010918 -0.008809 0.014912 0.000000 0.000000 0.000000
# 4 0.000000 0.000000 0.000000 0.034030 0.000000 0.000000
# 5 0.000000 0.000000 0.000000 0.000000 0.198622 0.000000
# 6 0.000000 0.000000 0.000000 0.000000 0.000000 0.040364
#
#
# Mechanical properties :
#
#
# Convention : Reuss Voigt Hill
#
# Bulk Modulus (GPa) = 16.81017 60.41798 38.61408
# Shear Modulus (GPa) = 12.56319 27.12124 19.84222
#
# Velocity S-wave (km/s) = 2.56050 3.76210 3.21788
# Velocity P-wave (km/s) = 4.18498 7.09934 5.82729
#
# Compressibility (1/GPa) = 0.05948778
#
# Stress axis : x y z
#
# Youngs Moduli (GPa) = 17.69017 91.95368 67.06157
#
# Poissons Ratio (x) = -0.76440 0.73217
# Poissons Ratio (y) = -0.14706 0.59073
# Poissons Ratio (z) = 0.19314 0.81000
#
# Static dielectric constant tensor:
#      x y z
#    x 1.701150 0.000000 0.000000 
#    y 0.000000 1.673530 0.000000 
#    z 0.000000 0.000000 1.660180 
# 
# From -- ./inp_files/5211.got.cif
#   From: 2010.05.17/outbox.cif.g08.bks.cpg/sg28_3_cif.got.tgz:5211.got - 2010.06.04 01:15:21.
