data_PCOD9339554
_publ_section_title
;
Structure prediction by ZEFSAII (Michael W. Deem and Ramdas Pophale) SiO2 
 PCOD9339554
Probable space group: P M A 2
;
_chemical_formula_sum "Si O2"
_cell_formula_units_Z 32
_cell_length_a 8.817054
_cell_length_b 15.854893
_cell_length_c 12.190336
_cell_angle_alpha 90.000000
_cell_angle_beta 90.000000
_cell_angle_gamma 90.000000
_cell_volume 1704.129099
_symmetry_space_group_name_H-M "P M A 2"
_symmetry_group_IT_number 28
_symmetry_cell_setting 'orthorhombic'
loop_
_space_group_symop_operation_xyz
x,y,z
-x,-y,z
1/2-x,y,z
1/2+x,-y,z
loop_
_atom_site_type_symbol
_atom_site_label
_atom_site_fract_x
_atom_site_fract_y
_atom_site_fract_z
Si Si1 0.933144 0.250000 0.641940
Si Si2 0.432973 0.410361 0.029822
Si Si3 0.068222 0.350236 0.271663
Si Si4 0.566601 0.750000 0.884281
Si Si5 0.567027 0.910361 0.029822
Si Si6 0.931778 0.850236 0.271663
Si Si7 0.068659 0.588660 0.497847
Si Si8 0.068659 0.911340 0.497847
O O1 0.750000 0.250000 0.648016
O O2 0.979731 0.333184 0.574231
O O3 0.979732 0.166816 0.574231
O O4 0.000816 0.250000 0.762851
O O5 0.500000 0.500000 0.996295
O O6 0.250000 0.414071 0.027971
O O7 0.478738 0.388987 0.154993
O O8 0.480180 0.333360 0.951634
O O9 0.250000 0.361089 0.283019
O O10 0.037279 0.250000 0.270618
O O11 0.987184 0.392112 0.374752
O O12 0.750000 0.750000 0.879730
O O13 0.519820 0.833360 0.951634
O O14 0.750000 0.914071 0.027970
O O15 0.521263 0.888987 0.154993
O O16 0.500000 0.000000 0.996296
O O17 0.750000 0.861089 0.283019
O O18 0.012816 0.892112 0.374752
O O19 0.250000 0.583921 0.498840
O O20 0.000000 0.500000 0.535070
O O21 0.250000 0.916079 0.498841
O O22 0.000000 0.000000 0.535070
#
# Coordination Sequence:
#
# PCOD9339554 Si02
#       8
#     4   4   4   4   4   4   4   4
#     4  10  24  43  60  82 116 151 193 246 291 336
#     4  10  21  38  59  87 119 152 189 235 285 341
#     4  10  19  35  61  89 120 155 190 232 288 349
#     4  10  22  41  62  82 112 153 197 238 285 342
#     4  10  21  38  59  87 119 152 189 235 285 341
#     4  10  19  35  61  89 120 155 190 232 288 349
#     4  11  23  40  60  87 120 153 192 240 290 345
#     4  11  23  40  60  87 120 153 192 240 290 345
#
# _framework density 18.777920000000002
#
# number of rings (size 3 to 8) (size 9 to 14) (size 15 to 20)
#    0.000    1.750    2.500    1.500    0.000    7.000 
#    0.000    5.000    0.000    0.000    0.000    0.000 
#    0.000    0.000    0.000    0.000    0.000    0.000 
#
# Total GULP energy -178825.203926 kJ/mol
# GULP energy per Si atom -5588.287623 kJ/mol
# Density = 1.873518 g / cm^3
# Si number density = 18.777920 Si / 1000 Ang^3
#
#
#
# Elastic Constant Matrix: (Units=GPa)
#
#
# Indices 1 2 3 4 5 6 
#
# 1 17.6239 46.3408 32.9443 0.0000 0.0000 0.0000
# 2 46.3408 198.5702 95.8493 0.0000 0.0000 0.0000
# 3 32.9443 95.8493 155.1225 0.0000 0.0000 0.0000
# 4 0.0000 0.0000 0.0000 1.0941 0.0000 0.0000
# 5 0.0000 0.0000 0.0000 0.0000 49.9803 0.0000
# 6 0.0000 0.0000 0.0000 0.0000 0.0000 31.5355
#
#
#
# Elastic Compliance Matrix: (Units=1/GPa)
#
#
# Indices 1 2 3 4 5 6 
#
# 1 0.172957 -0.032253 -0.016803 0.000000 0.000000 0.000000
# 2 -0.032253 0.013191 -0.001301 0.000000 0.000000 0.000000
# 3 -0.016803 -0.001301 0.010819 0.000000 0.000000 0.000000
# 4 0.000000 0.000000 0.000000 0.913987 0.000000 0.000000
# 5 0.000000 0.000000 0.000000 0.000000 0.020008 0.000000
# 6 0.000000 0.000000 0.000000 0.000000 0.000000 0.031710
#
#
# Mechanical properties :
#
#
# Convention : Reuss Voigt Hill
#
# Bulk Modulus (GPa) = 10.38922 80.17614 45.28268
# Shear Modulus (GPa) = 3.85960 29.60080 16.73020
#
# Velocity S-wave (km/s) = 1.43522 3.97465 2.98812
# Velocity P-wave (km/s) = 2.87944 7.99084 6.00602
#
# Compressibility (1/GPa) = 0.09625361
#
# Stress axis : x y z
#
# Youngs Moduli (GPa) = 5.78178 75.81063 92.43085
#
# Poissons Ratio (x) = 2.44508 1.55314
# Poissons Ratio (y) = 0.18648 0.12024
# Poissons Ratio (z) = 0.09715 0.09862
#
# Static dielectric constant tensor:
#      x y z
#    x 1.630930 0.000000 0.000000 
#    y 0.000000 1.648060 0.000000 
#    z 0.000000 0.000000 1.615710 
# 
# From -- ./inp_files/4983.got.cif
#   From: 2010.05.17/outbox.cif.g08.bks.cpg/sg28_3_cif.got.tgz:4983.got - 2010.06.04 01:15:21.
