data_PCOD9339710
_publ_section_title
;
Structure prediction by ZEFSAII (Michael W. Deem and Ramdas Pophale) SiO2 
 PCOD9339710
Probable space group: P M A 2
;
_chemical_formula_sum "Si O2"
_cell_formula_units_Z 32
_cell_length_a 11.155271
_cell_length_b 15.729296
_cell_length_c 8.276474
_cell_angle_alpha 90.000000
_cell_angle_beta 90.000000
_cell_angle_gamma 90.000000
_cell_volume 1452.227865
_symmetry_space_group_name_H-M "P M A 2"
_symmetry_group_IT_number 28
_symmetry_cell_setting 'orthorhombic'
loop_
_space_group_symop_operation_xyz
x,y,z
-x,-y,z
1/2-x,y,z
1/2+x,-y,z
loop_
_atom_site_type_symbol
_atom_site_label
_atom_site_fract_x
_atom_site_fract_y
_atom_site_fract_z
Si Si1 0.379369 0.718387 0.200880
Si Si2 0.965830 0.843550 0.009370
Si Si3 0.112799 0.064979 0.323183
Si Si4 0.620714 0.478800 0.295683
Si Si5 0.620240 0.722653 0.752378
Si Si6 0.380820 0.452991 0.937111
Si Si7 0.537735 0.194485 0.517038
Si Si8 0.884680 0.059350 0.769691
O O1 0.250000 0.733512 0.122885
O O2 0.387746 0.618608 0.236020
O O3 0.388475 0.768936 0.368740
O O4 0.481524 0.759690 0.093614
O O5 0.891526 0.808695 0.858302
O O6 0.076990 0.897741 0.939367
O O7 0.895531 0.897473 0.141720
O O8 0.250000 0.034764 0.354262
O O9 0.074164 0.140922 0.443669
O O10 0.000000 0.000000 0.337247
O O11 0.500000 0.500000 0.391072
O O12 0.750000 0.490839 0.376351
O O13 0.618951 0.536514 0.132476
O O14 0.750000 0.719549 0.671687
O O15 0.613118 0.642043 0.869815
O O16 0.515157 0.729095 0.623273
O O17 0.500000 0.500000 0.879148
O O18 0.250000 0.488792 0.886470
O O19 0.610393 0.131867 0.633053
O O20 0.750000 0.022570 0.775449
O O21 0.000000 0.000000 0.734495
#
# Coordination Sequence:
#
# PCOD9339710 Si02
#       8
#     4   4   4   4   4   4   4   4
#     4  10  20  37  60  85 117 155 194 240 290 342
#     4  10  21  36  59  88 118 148 192 246 297 348
#     4  11  24  40  60  86 116 153 196 243 296 353
#     4   9  17  31  54  84 114 145 183 227 279 337
#     4  10  20  37  60  85 117 155 194 240 290 342
#     4   9  17  31  54  84 114 145 183 227 279 337
#     4  10  23  40  59  82 114 154 200 242 287 344
#     4  11  24  40  60  86 116 153 196 243 296 353
#
# _framework density 22.03511
#
# number of rings (size 3 to 8) (size 9 to 14) (size 15 to 20)
#    0.000    2.000    0.000    3.750    0.000    8.000 
#    0.000    6.875    0.000    3.000    0.000    0.000 
#    0.000    0.000    0.000    0.000    0.000    0.000 
#
# Total GULP energy -178525.105365 kJ/mol
# GULP energy per Si atom -5578.909543 kJ/mol
# Density = 2.198496 g / cm^3
# Si number density = 22.035110 Si / 1000 Ang^3
#
#
#
# Elastic Constant Matrix: (Units=GPa)
#
#
# Indices 1 2 3 4 5 6 
#
# 1 187.1829 37.7336 3.6623 0.0000 0.0000 0.0000
# 2 37.7336 38.3678 -5.8313 0.0000 0.0000 0.0000
# 3 3.6623 -5.8313 38.3428 0.0000 0.0000 0.0000
# 4 0.0000 0.0000 0.0000 20.0186 0.0000 0.0000
# 5 0.0000 0.0000 0.0000 0.0000 -7.3262 0.0000
# 6 0.0000 0.0000 0.0000 0.0000 0.0000 20.9735
#
#
#
# Elastic Compliance Matrix: (Units=1/GPa)
#
#
# Indices 1 2 3 4 5 6 
#
# 1 0.006770 -0.006916 -0.001698 0.000000 0.000000 0.000000
# 2 -0.006916 0.033746 0.005793 0.000000 0.000000 0.000000
# 3 -0.001698 0.005793 0.027124 0.000000 0.000000 0.000000
# 4 0.000000 0.000000 0.000000 0.049953 0.000000 0.000000
# 5 0.000000 0.000000 0.000000 0.000000 -0.136496 0.000000
# 6 0.000000 0.000000 0.000000 0.000000 0.000000 0.047679
#
#
# Mechanical properties :
#
#
# Convention : Reuss Voigt Hill
#
# Bulk Modulus (GPa) = 16.13014 37.22475 26.67745
# Shear Modulus (GPa) = 90.77030 21.95511 56.36270
#
# Velocity S-wave (km/s) = 6.42518 3.15996 5.06301
# Velocity P-wave (km/s) = 7.89810 5.49944 6.80528
#
# Compressibility (1/GPa) = 0.06199573
#
# Stress axis : x y z
#
# Youngs Moduli (GPa) = 147.71543 29.63349 36.86806
#
# Poissons Ratio (x) = 0.20495 0.06262
# Poissons Ratio (y) = 1.02160 -0.21357
# Poissons Ratio (z) = 0.25088 -0.17166
#
# Static dielectric constant tensor:
#      x y z
#    x 1.877650 0.000000 0.000000 
#    y 0.000000 1.809810 0.000000 
#    z 0.000000 0.000000 1.790180 
# 
# From -- ./inp_files/3114.got.cif
#   From: 2010.05.17/outbox.cif.g08.bks.cpg/sg28_2_cif.got.tgz:3114.got - 2010.06.04 01:15:21.
