data_PCOD9339511
_publ_section_title
;
Structure prediction by ZEFSAII (Michael W. Deem and Ramdas Pophale) SiO2 
 PCOD9339511
Probable space group: P M A 2
;
_chemical_formula_sum "Si O2"
_cell_formula_units_Z 24
_cell_length_a 8.622301
_cell_length_b 16.840702
_cell_length_c 9.456982
_cell_angle_alpha 90.000000
_cell_angle_beta 90.000000
_cell_angle_gamma 90.000000
_cell_volume 1373.206762
_symmetry_space_group_name_H-M "P M A 2"
_symmetry_group_IT_number 28
_symmetry_cell_setting 'orthorhombic'
loop_
_space_group_symop_operation_xyz
x,y,z
-x,-y,z
1/2-x,y,z
1/2+x,-y,z
loop_
_atom_site_type_symbol
_atom_site_label
_atom_site_fract_x
_atom_site_fract_y
_atom_site_fract_z
Si Si1 0.937608 0.736316 0.234600
Si Si2 0.064872 0.760645 0.547676
Si Si3 0.927811 0.834036 0.979890
Si Si4 0.571845 0.668999 0.802024
Si Si5 0.434399 0.586228 0.064469
Si Si6 0.437687 0.085301 0.706799
O O1 0.750000 0.737330 0.233176
O O2 0.000337 0.746190 0.391513
O O3 0.993939 0.654198 0.164675
O O4 0.995370 0.807536 0.130323
O O5 0.250000 0.763508 0.547635
O O6 0.007690 0.691889 0.655032
O O7 0.998226 0.843454 0.608869
O O8 0.750000 0.858745 0.005789
O O9 0.925324 0.751709 0.890749
O O10 0.996079 0.895877 0.867636
O O11 0.750000 0.644364 0.780958
O O12 0.484277 0.608289 0.904062
O O13 0.500000 0.500000 0.100783
O O14 0.250000 0.587710 0.076334
O O15 0.250000 0.087262 0.706975
O O16 0.500000 0.000000 0.661732
#
# Coordination Sequence:
#
# PCOD9339511 Si02
#       6
#     4   4   4   4   4   4
#     4  10  19  35  56  78 106 144 181 218 264 320
#     4  11  21  34  53  80 109 142 180 220 266 322
#     4   7  14  29  51  73  96 128 169 208 251 305
#     4   9  17  33  54  76 101 135 174 214 258 310
#     4  11  21  35  55  81 109 140 177 221 267 316
#     4  10  19  34  54  78 105 137 176 223 272 321
#
# _framework density 17.477336999999999
#
# number of rings (size 3 to 8) (size 9 to 14) (size 15 to 20)
#    0.000    2.333    0.000    6.500    0.000    0.000 
#    0.000    4.167    0.000    2.000    0.000    0.000 
#    0.000    0.000    0.000    0.000    0.000    0.000 
#
# Total GULP energy -133760.803299 kJ/mol
# GULP energy per Si atom -5573.366804 kJ/mol
# Density = 1.743756 g / cm^3
# Si number density = 17.477337 Si / 1000 Ang^3
#
#
#
# Elastic Constant Matrix: (Units=GPa)
#
#
# Indices 1 2 3 4 5 6 
#
# 1 112.5610 27.1828 47.9644 0.0000 0.0000 0.0000
# 2 27.1828 73.3200 44.7429 0.0000 0.0000 0.0000
# 3 47.9644 44.7429 153.6838 0.0000 0.0000 0.0000
# 4 0.0000 0.0000 0.0000 16.3018 0.0000 0.0000
# 5 0.0000 0.0000 0.0000 0.0000 26.6784 0.0000
# 6 0.0000 0.0000 0.0000 0.0000 0.0000 22.8283
#
#
#
# Elastic Compliance Matrix: (Units=1/GPa)
#
#
# Indices 1 2 3 4 5 6 
#
# 1 0.010560 -0.002315 -0.002622 0.000000 0.000000 0.000000
# 2 -0.002315 0.017093 -0.004254 0.000000 0.000000 0.000000
# 3 -0.002622 -0.004254 0.008564 0.000000 0.000000 0.000000
# 4 0.000000 0.000000 0.000000 0.061343 0.000000 0.000000
# 5 0.000000 0.000000 0.000000 0.000000 0.037484 0.000000
# 6 0.000000 0.000000 0.000000 0.000000 0.000000 0.043805
#
#
# Mechanical properties :
#
#
# Convention : Reuss Voigt Hill
#
# Bulk Modulus (GPa) = 56.06874 64.37167 60.22021
# Shear Modulus (GPa) = 24.60924 27.80667 26.20796
#
# Velocity S-wave (km/s) = 3.75649 3.99308 3.87659
# Velocity P-wave (km/s) = 7.13901 7.62699 7.38703
#
# Compressibility (1/GPa) = 0.01783525
#
# Stress axis : x y z
#
# Youngs Moduli (GPa) = 94.69335 58.50327 116.77366
#
# Poissons Ratio (x) = 0.13545 0.30616
# Poissons Ratio (y) = 0.21924 0.49673
# Poissons Ratio (z) = 0.24827 0.24886
#
# Static dielectric constant tensor:
#      x y z
#    x 1.590430 0.000000 0.000000 
#    y 0.000000 1.592470 0.000000 
#    z 0.000000 0.000000 1.604870 
# 
# From -- ./inp_files/2558.got.cif
#   From: 2010.05.17/outbox.cif.g08.bks.cpg/sg28_2_cif.got.tgz:2558.got - 2010.06.04 01:15:21.
