data_PCOD9339818
_publ_section_title
;
Structure prediction by ZEFSAII (Michael W. Deem and Ramdas Pophale) SiO2 
 PCOD9339818
Probable space group: P M A 2
;
_chemical_formula_sum "Si O2"
_cell_formula_units_Z 20
_cell_length_a 13.950381
_cell_length_b 8.566826
_cell_length_c 7.928939
_cell_angle_alpha 90.000000
_cell_angle_beta 90.000000
_cell_angle_gamma 90.000000
_cell_volume 947.591359
_symmetry_space_group_name_H-M "P M A 2"
_symmetry_group_IT_number 28
_symmetry_cell_setting 'orthorhombic'
loop_
_space_group_symop_operation_xyz
x,y,z
-x,-y,z
1/2-x,y,z
1/2+x,-y,z
loop_
_atom_site_type_symbol
_atom_site_label
_atom_site_fract_x
_atom_site_fract_y
_atom_site_fract_z
Si Si1 0.944844 0.260520 0.977320
Si Si2 0.860180 0.592303 0.072735
Si Si3 0.138396 0.917319 0.282340
Si Si4 0.641555 0.731550 0.427189
Si Si5 0.465726 0.821348 0.608515
O O1 0.919898 0.222561 0.785135
O O2 0.888251 0.416940 0.026962
O O3 0.916779 0.130338 0.113692
O O4 0.058344 0.297878 0.992019
O O5 0.750000 0.630769 0.028243
O O6 0.868951 0.611254 0.274812
O O7 0.250000 0.887415 0.254920
O O8 0.099939 0.819472 0.442260
O O9 0.127847 0.098272 0.337641
O O10 0.750000 0.726003 0.494279
O O11 0.559451 0.719023 0.565537
O O12 0.500000 0.000000 0.627909
#
# Coordination Sequence:
#
# PCOD9339818 Si02
#       5
#     4   4   4   4   4
#     4  11  23  39  64  92 125 167 206 255 318 373
#     4  10  22  41  61  87 124 165 208 253 307 371
#     4  10  21  39  64  92 124 164 211 262 313 369
#     4   9  19  40  67  91 123 165 209 260 314 369
#     4  10  22  38  64  93 125 160 210 261 313 373
#
# _framework density 21.106144
#
# number of rings (size 3 to 8) (size 9 to 14) (size 15 to 20)
#    0.000    2.000    2.000    0.600    2.800    2.400 
#    7.200    0.000    0.000    0.000    0.000    0.000 
#    0.000    0.000    0.000    0.000    0.000    0.000 
#
# Total GULP energy -111762.489210 kJ/mol
# GULP energy per Si atom -5588.124460 kJ/mol
# Density = 2.105811 g / cm^3
# Si number density = 21.106144 Si / 1000 Ang^3
#
#
#
# Elastic Constant Matrix: (Units=GPa)
#
#
# Indices 1 2 3 4 5 6 
#
# 1 96.0694 24.0070 45.2231 0.0000 0.0000 0.0000
# 2 24.0070 31.8130 31.4857 0.0000 0.0000 0.0000
# 3 45.2231 31.4857 140.5524 0.0000 0.0000 0.0000
# 4 0.0000 0.0000 0.0000 16.4707 0.0000 0.0000
# 5 0.0000 0.0000 0.0000 0.0000 3.0663 0.0000
# 6 0.0000 0.0000 0.0000 0.0000 0.0000 13.7529
#
#
#
# Elastic Compliance Matrix: (Units=1/GPa)
#
#
# Indices 1 2 3 4 5 6 
#
# 1 0.013561 -0.007600 -0.002661 0.000000 0.000000 0.000000
# 2 -0.007600 0.044647 -0.007556 0.000000 0.000000 0.000000
# 3 -0.002661 -0.007556 0.009664 0.000000 0.000000 0.000000
# 4 0.000000 0.000000 0.000000 0.060714 0.000000 0.000000
# 5 0.000000 0.000000 0.000000 0.000000 0.326130 0.000000
# 6 0.000000 0.000000 0.000000 0.000000 0.000000 0.072712
#
#
# Mechanical properties :
#
#
# Convention : Reuss Voigt Hill
#
# Bulk Modulus (GPa) = 31.01955 52.20737 41.61346
# Shear Modulus (GPa) = 8.71371 17.83923 13.27647
#
# Velocity S-wave (km/s) = 2.03408 2.91041 2.51078
# Velocity P-wave (km/s) = 4.49950 6.00694 5.30701
#
# Compressibility (1/GPa) = 0.03223774
#
# Stress axis : x y z
#
# Youngs Moduli (GPa) = 73.74191 22.39768 103.48107
#
# Poissons Ratio (x) = 0.17022 0.27533
# Poissons Ratio (y) = 0.56044 0.78194
# Poissons Ratio (z) = 0.19621 0.16924
#
# Static dielectric constant tensor:
#      x y z
#    x 1.780960 0.000000 0.000000 
#    y 0.000000 1.782010 0.000000 
#    z 0.000000 0.000000 1.748940 
# 
# From -- ./inp_files/3222.got.cif
#   From: 2010.05.17/outbox.cif.g08.bks.cpg/sg28_2_cif.got.tgz:3222.got - 2010.06.04 01:15:21.
