data_PCOD9339037
_publ_section_title
;
Structure prediction by ZEFSAII (Michael W. Deem and Ramdas Pophale) SiO2 
 PCOD9339037
Probable space group: P C C 2
;
_chemical_formula_sum "Si O2"
_cell_formula_units_Z 18
_cell_length_a 7.622814
_cell_length_b 10.031302
_cell_length_c 9.401403
_cell_angle_alpha 90.000000
_cell_angle_beta 90.000000
_cell_angle_gamma 90.000000
_cell_volume 718.894726
_symmetry_space_group_name_H-M "P C C 2"
_symmetry_group_IT_number 27
_symmetry_cell_setting 'orthorhombic'
loop_
_space_group_symop_operation_xyz
x,y,z
-x,-y,z
-x,y,1/2+z
x,-y,1/2+z
loop_
_atom_site_type_symbol
_atom_site_label
_atom_site_fract_x
_atom_site_fract_y
_atom_site_fract_z
Si Si1 0.424573 0.802213 0.015590
Si Si2 0.000000 0.000000 0.860112
Si Si3 0.193767 0.449908 0.603117
Si Si4 0.637095 0.610709 0.875643
Si Si5 0.765829 0.925465 0.095906
O O1 0.288772 0.681534 0.039299
O O2 0.595875 0.834983 0.110861
O O3 0.310732 0.934494 0.035372
O O4 0.539000 0.751532 0.879689
O O5 0.861935 0.060918 0.746790
O O6 0.093850 0.104480 0.969124
O O7 0.203848 0.412406 0.769238
O O8 0.310157 0.567612 0.534428
O O9 0.000000 0.500000 0.569546
O O10 0.500000 0.500000 0.823434
#
# Coordination Sequence:
#
# PCOD9339037 Si02
#       5
#     4   2   4   4   4
#     4  10  24  42  72  99 147 199 236 295 377 459
#     4  10  24  44  66 104 148 184 246 310 338 450
#     4  11  24  44  69 106 142 187 247 308 363 437
#     4  10  22  44  67  98 138 190 238 295 367 442
#     4  10  24  46  70 106 146 192 244 298 379 439
#
# _framework density 25.038439
#
# number of rings (size 3 to 8) (size 9 to 14) (size 15 to 20)
#    0.000    1.778    0.000    2.667    6.222    5.333 
#    8.000    0.000    0.000    0.000    0.000    0.000 
#    0.000    0.000    0.000    0.000    0.000    0.000 
#
# Total GULP energy -100209.927455 kJ/mol
# GULP energy per Si atom -5567.218192 kJ/mol
# Density = 2.498145 g / cm^3
# Si number density = 25.038439 Si / 1000 Ang^3
#
#
#
# Elastic Constant Matrix: (Units=GPa)
#
#
# Indices 1 2 3 4 5 6 
#
# 1 167.3225 37.7476 58.7853 0.0000 0.0000 0.0000
# 2 37.7476 100.3383 28.0322 0.0000 0.0000 0.0000
# 3 58.7853 28.0322 166.2337 0.0000 0.0000 0.0000
# 4 0.0000 0.0000 0.0000 -0.2983 0.0000 0.0000
# 5 0.0000 0.0000 0.0000 0.0000 -665.5295 0.0000
# 6 0.0000 0.0000 0.0000 0.0000 0.0000 34.3475
#
#
#
# Elastic Compliance Matrix: (Units=1/GPa)
#
#
# Indices 1 2 3 4 5 6 
#
# 1 0.007224 -0.002103 -0.002200 0.000000 0.000000 0.000000
# 2 -0.002103 0.011071 -0.001123 0.000000 0.000000 0.000000
# 3 -0.002200 -0.001123 0.006983 0.000000 0.000000 0.000000
# 4 0.000000 0.000000 0.000000 -3.352838 0.000000 0.000000
# 5 0.000000 0.000000 0.000000 0.000000 -0.001503 0.000000
# 6 0.000000 0.000000 0.000000 0.000000 0.000000 0.029114
#
#
# Mechanical properties :
#
#
# Convention : Reuss Voigt Hill
#
# Bulk Modulus (GPa) = 69.32092 75.89163 72.60628
# Shear Modulus (GPa) = -1.52240 -105.67410 -53.59825
#
# Velocity S-wave (km/s) = -0.78061 -6.50357 -4.63172
# Velocity P-wave (km/s) = 5.18974 5.10091 0.67607
#
# Compressibility (1/GPa) = 0.01442566
#
# Stress axis : x y z
#
# Youngs Moduli (GPa) = 138.43091 90.32391 143.20473
#
# Poissons Ratio (x) = 0.18995 0.31504
# Poissons Ratio (y) = 0.29112 0.16086
# Poissons Ratio (z) = 0.30454 0.10146
#
# Static dielectric constant tensor:
#      x y z
#    x 3.689040 0.000000 0.000000 
#    y 0.000000 2.000840 0.000000 
#    z 0.000000 0.000000 2.029520 
# 
# From -- ./inp_files/1044.got.cif
#   From: 2010.05.17/outbox.cif.g08.bks.cpg/sg27_1_cif.got.tgz:1044.got - 2010.06.04 01:11:05.
