data_PCOD9339943
_publ_section_title
;
Structure prediction by ZEFSAII (Michael W. Deem and Ramdas Pophale) SiO2 
 PCOD9339943
Probable space group: P M A 2
;
_chemical_formula_sum "Si O2"
_cell_formula_units_Z 20
_cell_length_a 23.150695
_cell_length_b 6.854774
_cell_length_c 5.928795
_cell_angle_alpha 90.000000
_cell_angle_beta 90.000000
_cell_angle_gamma 90.000000
_cell_volume 940.856973
_symmetry_space_group_name_H-M "P M A 2"
_symmetry_group_IT_number 28
_symmetry_cell_setting 'orthorhombic'
loop_
_space_group_symop_operation_xyz
x,y,z
-x,-y,z
1/2-x,y,z
1/2+x,-y,z
loop_
_atom_site_type_symbol
_atom_site_label
_atom_site_fract_x
_atom_site_fract_y
_atom_site_fract_z
Si Si1 0.750000 0.101782 0.693970
Si Si2 0.250000 0.116319 0.185344
Si Si3 0.865578 0.300751 0.562615
Si Si4 0.634941 0.637442 0.225166
Si Si5 0.444756 0.637732 0.950296
Si Si6 0.938378 0.014716 0.287429
O O1 0.808555 0.228421 0.687568
O O2 0.750000 0.987372 0.441644
O O3 0.750000 0.001777 0.944529
O O4 0.306783 0.250353 0.170030
O O5 0.854600 0.507319 0.446092
O O6 0.884246 0.126647 0.396689
O O7 0.924773 0.323768 0.699429
O O8 0.609975 0.479742 0.051283
O O9 0.585097 0.799328 0.245690
O O10 0.500000 0.500000 0.970747
O O11 0.452345 0.843047 0.076793
O O12 0.000000 0.000000 0.413898
#
# Coordination Sequence:
#
# PCOD9339943 Si02
#       6
#     2   2   4   4   4   4
#     4  12  27  51  76 109 150 192 250 308 373 440
#     4  12  27  49  80 105 148 196 250 304 375 444
#     4  11  27  43  73 103 144 187 247 309 370 439
#     4  11  25  46  72 102 141 192 246 299 372 436
#     4  11  25  42  67 106 144 191 244 304 370 441
#     4  11  23  44  67 100 147 188 241 304 366 445
#
# _framework density 21.257214999999999
#
# number of rings (size 3 to 8) (size 9 to 14) (size 15 to 20)
#    0.000    0.800    4.000    1.800    8.400    3.200 
#    0.000    0.000    0.000    0.000    0.000    0.000 
#    0.000    0.000    0.000    0.000    0.000    0.000 
#
# Total GULP energy -111464.370949 kJ/mol
# GULP energy per Si atom -5573.218547 kJ/mol
# Density = 2.120883 g / cm^3
# Si number density = 21.257215 Si / 1000 Ang^3
#
#
#
# Elastic Constant Matrix: (Units=GPa)
#
#
# Indices 1 2 3 4 5 6 
#
# 1 134.2827 40.0808 16.7508 0.0000 0.0000 0.0000
# 2 40.0808 129.6303 41.4189 0.0000 0.0000 0.0000
# 3 16.7508 41.4189 73.0105 0.0000 0.0000 0.0000
# 4 0.0000 0.0000 0.0000 14.2197 0.0000 0.0000
# 5 0.0000 0.0000 0.0000 0.0000 26.1351 0.0000
# 6 0.0000 0.0000 0.0000 0.0000 0.0000 28.3286
#
#
#
# Elastic Compliance Matrix: (Units=1/GPa)
#
#
# Indices 1 2 3 4 5 6 
#
# 1 0.008222 -0.002369 -0.000543 0.000000 0.000000 0.000000
# 2 -0.002369 0.010105 -0.005189 0.000000 0.000000 0.000000
# 3 -0.000543 -0.005189 0.016765 0.000000 0.000000 0.000000
# 4 0.000000 0.000000 0.000000 0.070325 0.000000 0.000000
# 5 0.000000 0.000000 0.000000 0.000000 0.038263 0.000000
# 6 0.000000 0.000000 0.000000 0.000000 0.000000 0.035300
#
#
# Mechanical properties :
#
#
# Convention : Reuss Voigt Hill
#
# Bulk Modulus (GPa) = 52.93587 59.26938 56.10263
# Shear Modulus (GPa) = 24.81684 29.64820 27.23252
#
# Velocity S-wave (km/s) = 3.42051 3.73867 3.58312
# Velocity P-wave (km/s) = 6.36840 6.82491 6.60060
#
# Compressibility (1/GPa) = 0.01889078
#
# Stress axis : x y z
#
# Youngs Moduli (GPa) = 121.62966 98.96503 59.64886
#
# Poissons Ratio (x) = 0.23442 0.03236
# Poissons Ratio (y) = 0.28811 0.30951
# Poissons Ratio (z) = 0.06598 0.51352
#
# Static dielectric constant tensor:
#      x y z
#    x 1.746210 0.000000 0.000000 
#    y 0.000000 1.769920 0.000000 
#    z 0.000000 0.000000 1.887990 
# 
# From -- ./inp_files/1692.got.cif
#   From: 2010.05.17/outbox.cif.g08.bks.cpg/sg28_1_cif.got.tgz:1692.got - 2010.06.04 01:15:21.
