data_PCOD9339618
_publ_section_title
;
Structure prediction by ZEFSAII (Michael W. Deem and Ramdas Pophale) SiO2 
 PCOD9339618
Probable space group: P M A 2
;
_chemical_formula_sum "Si O2"
_cell_formula_units_Z 32
_cell_length_a 8.881433
_cell_length_b 15.031222
_cell_length_c 12.569984
_cell_angle_alpha 90.000000
_cell_angle_beta 90.000000
_cell_angle_gamma 90.000000
_cell_volume 1678.077668
_symmetry_space_group_name_H-M "P M A 2"
_symmetry_group_IT_number 28
_symmetry_cell_setting 'orthorhombic'
loop_
_space_group_symop_operation_xyz
x,y,z
-x,-y,z
1/2-x,y,z
1/2+x,-y,z
loop_
_atom_site_type_symbol
_atom_site_label
_atom_site_fract_x
_atom_site_fract_y
_atom_site_fract_z
Si Si1 0.070711 0.592170 0.715190
Si Si2 0.931532 0.218723 0.637403
Si Si3 0.568211 0.099026 0.435002
Si Si4 0.931315 0.591713 0.180920
Si Si5 0.570756 0.220359 0.234072
Si Si6 0.076557 0.165555 0.019708
Si Si7 0.430099 0.089824 0.804151
Si Si8 0.923130 0.633017 0.940591
O O1 0.250000 0.585688 0.713907
O O2 0.025194 0.677624 0.644526
O O3 0.000000 0.500000 0.677814
O O4 0.017653 0.608393 0.837182
O O5 0.750000 0.214684 0.645114
O O6 0.976636 0.161305 0.534700
O O7 0.004295 0.171046 0.738230
O O8 0.750000 0.090542 0.436460
O O9 0.525794 0.154884 0.329731
O O10 0.500000 0.000000 0.438831
O O11 0.750000 0.591235 0.185521
O O12 0.000000 0.500000 0.224585
O O13 0.992146 0.682552 0.233764
O O14 0.975664 0.596918 0.055269
O O15 0.750000 0.233809 0.238819
O O16 0.524191 0.174164 0.123338
O O17 0.250000 0.146983 0.050941
O O18 0.025577 0.099479 0.927686
O O19 0.077218 0.261345 0.961185
O O20 0.250000 0.088965 0.798299
O O21 0.500000 0.000000 0.758558
O O22 0.750000 0.604046 0.922722
#
# Coordination Sequence:
#
# PCOD9339618 Si02
#       8
#     4   4   4   4   4   4   4   4
#     4  11  22  34  54  82 114 152 191 233 281 338
#     4  10  22  41  61  84 115 150 192 242 290 342
#     4  10  23  43  65  88 113 145 192 245 296 347
#     4  10  20  34  54  83 119 158 197 238 285 340
#     4  10  21  37  59  85 115 151 192 242 293 344
#     4   9  19  35  54  79 116 155 188 234 285 340
#     4  11  22  36  56  84 117 152 189 233 289 350
#     4   9  17  32  52  77 112 152 193 232 275 329
#
# _framework density 19.06944
#
# number of rings (size 3 to 8) (size 9 to 14) (size 15 to 20)
#    0.000    2.000    1.250    3.000    0.000    8.000 
#    0.000    3.125    0.000    1.500    0.000    0.000 
#    0.000    0.000    0.000    0.000    0.000    0.000 
#
# Total GULP energy -178583.885772 kJ/mol
# GULP energy per Si atom -5580.746430 kJ/mol
# Density = 1.902604 g / cm^3
# Si number density = 19.069440 Si / 1000 Ang^3
#
#
#
# Elastic Constant Matrix: (Units=GPa)
#
#
# Indices 1 2 3 4 5 6 
#
# 1 32.6078 45.6042 38.5617 0.0000 0.0000 0.0000
# 2 45.6042 163.1954 71.7683 0.0000 0.0000 0.0000
# 3 38.5617 71.7683 93.2558 0.0000 0.0000 0.0000
# 4 0.0000 0.0000 0.0000 17.0860 0.0000 0.0000
# 5 0.0000 0.0000 0.0000 0.0000 12.4795 0.0000
# 6 0.0000 0.0000 0.0000 0.0000 0.0000 23.7174
#
#
#
# Elastic Compliance Matrix: (Units=1/GPa)
#
#
# Indices 1 2 3 4 5 6 
#
# 1 0.069869 -0.010308 -0.020958 0.000000 0.000000 0.000000
# 2 -0.010308 0.010783 -0.004036 0.000000 0.000000 0.000000
# 3 -0.020958 -0.004036 0.022496 0.000000 0.000000 0.000000
# 4 0.000000 0.000000 0.000000 0.058527 0.000000 0.000000
# 5 0.000000 0.000000 0.000000 0.000000 0.080132 0.000000
# 6 0.000000 0.000000 0.000000 0.000000 0.000000 0.042163
#
#
# Mechanical properties :
#
#
# Convention : Reuss Voigt Hill
#
# Bulk Modulus (GPa) = 30.72856 66.76970 48.74913
# Shear Modulus (GPa) = 13.68281 19.53155 16.60718
#
# Velocity S-wave (km/s) = 2.68157 3.20384 2.95427
# Velocity P-wave (km/s) = 5.07314 6.98399 6.10381
#
# Compressibility (1/GPa) = 0.03254302
#
# Stress axis : x y z
#
# Youngs Moduli (GPa) = 14.31256 92.73802 44.45271
#
# Poissons Ratio (x) = 0.95591 0.93166
# Poissons Ratio (y) = 0.14753 0.17942
# Poissons Ratio (z) = 0.29997 0.37431
#
# Static dielectric constant tensor:
#      x y z
#    x 1.645250 0.000000 0.000000 
#    y 0.000000 1.805970 0.000000 
#    z 0.000000 0.000000 1.655920 
# 
# From -- ./inp_files/5115.got.cif
#   From: 2010.05.17/outbox.cif.g08.bks.cpg/sg28_3_cif.got.tgz:5115.got - 2010.06.04 01:15:21.
