data_PCOD9339976
_publ_section_title
;
Structure prediction by ZEFSAII (Michael W. Deem and Ramdas Pophale) SiO2 
 PCOD9339976
Probable space group: P M A 2
;
_chemical_formula_sum "Si O2"
_cell_formula_units_Z 20
_cell_length_a 9.000000
_cell_length_b 9.000000
_cell_length_c 12.000000
_cell_angle_alpha 90.000000
_cell_angle_beta 90.000000
_cell_angle_gamma 90.000000
_cell_volume 972.000000
_symmetry_space_group_name_H-M "P M A 2"
_symmetry_group_IT_number 28
_symmetry_cell_setting 'orthorhombic'
loop_
_space_group_symop_operation_xyz
x,y,z
-x,-y,z
1/2-x,y,z
1/2+x,-y,z
loop_
_atom_site_type_symbol
_atom_site_label
_atom_site_fract_x
_atom_site_fract_y
_atom_site_fract_z
Si Si1 0.914225 0.639585 0.647300
Si Si2 0.072577 0.848558 0.223991
Si Si3 0.573257 0.152777 0.481842
Si Si4 0.426022 0.653901 0.027211
Si Si5 0.914830 0.856748 0.853610
O O1 0.750000 0.600279 0.607135
O O2 0.902720 0.752715 0.747687
O O3 0.000000 0.500000 0.693229
O O4 0.008912 0.711667 0.549911
O O5 0.250000 0.865681 0.217778
O O6 0.030857 0.830998 0.352471
O O7 0.030929 0.707704 0.150613
O O8 0.000000 0.000000 0.180563
O O9 0.750000 0.142840 0.491645
O O10 0.500000 0.000000 0.522900
O O11 0.500000 0.500000 0.997788
O O12 0.250000 0.641482 0.018761
O O13 0.487438 0.778760 0.946434
O O14 0.750000 0.889812 0.897074
O O15 0.000000 0.000000 0.815122
#
# Coordination Sequence:
#
# PCOD9339976 Si02
#       5
#     4   4   4   4   4
#     4  11  24  40  59  85 117 152 190 235 287 340
#     4   9  20  37  58  85 115 150 191 236 283 335
#     4  10  20  37  60  86 117 152 193 237 283 336
#     4  11  23  39  59  85 118 153 191 235 286 340
#     4  11  24  41  62  87 115 149 190 235 284 339
#
# _framework density 20.576132000000001
#
# number of rings (size 3 to 8) (size 9 to 14) (size 15 to 20)
#    0.000    1.600    0.000    4.200    0.000   11.200 
#    0.000    2.000    0.000    0.000    0.000    0.000 
#    0.000    0.000    0.000    0.000    0.000    0.000 
#
# Total GULP energy -111628.777239 kJ/mol
# GULP energy per Si atom -5581.438862 kJ/mol
# Density = 2.052930 g / cm^3
# Si number density = 20.576132 Si / 1000 Ang^3
#
#
#
# Elastic Constant Matrix: (Units=GPa)
#
#
# Indices 1 2 3 4 5 6 
#
# 1 75.1548 57.1326 36.1367 0.0000 0.0000 0.0000
# 2 57.1326 84.4456 25.0611 0.0000 0.0000 0.0000
# 3 36.1367 25.0611 50.5553 0.0000 0.0000 0.0000
# 4 0.0000 0.0000 0.0000 52.8006 0.0000 0.0000
# 5 0.0000 0.0000 0.0000 0.0000 20.0732 0.0000
# 6 0.0000 0.0000 0.0000 0.0000 0.0000 15.1351
#
#
#
# Elastic Compliance Matrix: (Units=1/GPa)
#
#
# Indices 1 2 3 4 5 6 
#
# 1 0.035755 -0.019470 -0.015906 0.000000 0.000000 0.000000
# 2 -0.019470 0.024487 0.001779 0.000000 0.000000 0.000000
# 3 -0.015906 0.001779 0.030268 0.000000 0.000000 0.000000
# 4 0.000000 0.000000 0.000000 0.018939 0.000000 0.000000
# 5 0.000000 0.000000 0.000000 0.000000 0.049818 0.000000
# 6 0.000000 0.000000 0.000000 0.000000 0.000000 0.066072
#
#
# Mechanical properties :
#
#
# Convention : Reuss Voigt Hill
#
# Bulk Modulus (GPa) = 42.89043 49.64626 46.26834
# Shear Modulus (GPa) = 16.64975 23.72346 20.18661
#
# Velocity S-wave (km/s) = 2.84769 3.39921 3.13560
# Velocity P-wave (km/s) = 5.63049 6.29179 5.97031
#
# Compressibility (1/GPa) = 0.02331523
#
# Stress axis : x y z
#
# Youngs Moduli (GPa) = 27.96815 40.83841 33.03807
#
# Poissons Ratio (x) = 0.79512 0.52550
# Poissons Ratio (y) = 0.54454 -0.05876
# Poissons Ratio (z) = 0.44486 -0.07263
#
# Static dielectric constant tensor:
#      x y z
#    x 1.721100 0.000000 0.000000 
#    y 0.000000 1.702840 0.000000 
#    z 0.000000 0.000000 1.725110 
# 
# From -- ./inp_files/4547.got.cif
#   From: 2010.05.17/outbox.ucp.g08.bks.cvg/sg28_3_cif.got.tgz:4547.got - 2010.06.11 15:23:59.
