data_PCOD9339665
_publ_section_title
;
Structure prediction by ZEFSAII (Michael W. Deem and Ramdas Pophale) SiO2 
 PCOD9339665
Probable space group: P M A 2
;
_chemical_formula_sum "Si O2"
_cell_formula_units_Z 24
_cell_length_a 8.536560
_cell_length_b 9.855011
_cell_length_c 16.317454
_cell_angle_alpha 90.000000
_cell_angle_beta 90.000000
_cell_angle_gamma 90.000000
_cell_volume 1372.753019
_symmetry_space_group_name_H-M "P M A 2"
_symmetry_group_IT_number 28
_symmetry_cell_setting 'orthorhombic'
loop_
_space_group_symop_operation_xyz
x,y,z
-x,-y,z
1/2-x,y,z
1/2+x,-y,z
loop_
_atom_site_type_symbol
_atom_site_label
_atom_site_fract_x
_atom_site_fract_y
_atom_site_fract_z
Si Si1 0.939090 0.651241 0.950470
Si Si2 0.561139 0.845418 0.626346
Si Si3 0.063828 0.846226 0.277690
Si Si4 0.061914 0.347899 0.136682
Si Si5 0.061718 0.155218 0.449401
Si Si6 0.939659 0.846288 0.805395
O O1 0.750000 0.648808 0.948442
O O2 0.994724 0.754185 0.880583
O O3 0.000000 0.500000 0.934798
O O4 0.985736 0.689788 0.043352
O O5 0.750000 0.848137 0.625588
O O6 0.513279 0.784131 0.538121
O O7 0.512075 0.789737 0.715284
O O8 0.500000 0.000000 0.626477
O O9 0.250000 0.851920 0.278393
O O10 0.004203 0.755268 0.203187
O O11 0.005679 0.786919 0.365121
O O12 0.000000 0.000000 0.270097
O O13 0.250000 0.348263 0.140849
O O14 0.000000 0.500000 0.151724
O O15 0.250000 0.154343 0.444114
O O16 0.000000 0.000000 0.450896
O O17 0.750000 0.849801 0.807139
O O18 0.000000 0.000000 0.812930
#
# Coordination Sequence:
#
# PCOD9339665 Si02
#       6
#     4   4   4   4   4   4
#     4   9  19  34  52  71  95 126 161 196 235 284
#     4   8  14  24  41  64  93 125 156 190 233 279
#     4  11  21  33  50  74 101 130 162 203 247 289
#     4  10  20  36  54  73  96 127 164 202 244 295
#     4   9  15  25  42  66  94 126 159 195 237 284
#     4   9  17  30  47  72 100 126 157 196 238 281
#
# _framework density 17.483115999999999
#
# number of rings (size 3 to 8) (size 9 to 14) (size 15 to 20)
#    0.000    2.667    0.000    3.500    0.000    2.667 
#    0.000    1.667    0.000    1.000    0.000    2.333 
#    0.000    0.000    0.000    0.000    0.000    0.000 
#
# Total GULP energy -133639.511711 kJ/mol
# GULP energy per Si atom -5568.312988 kJ/mol
# Density = 1.744332 g / cm^3
# Si number density = 17.483116 Si / 1000 Ang^3
#
#
#
# Elastic Constant Matrix: (Units=GPa)
#
#
# Indices 1 2 3 4 5 6 
#
# 1 51.3386 19.5139 46.0098 0.0000 0.0000 0.0000
# 2 19.5139 49.0087 85.1676 0.0000 0.0000 0.0000
# 3 46.0098 85.1676 216.7350 0.0000 0.0000 0.0000
# 4 0.0000 0.0000 0.0000 -13.8603 0.0000 0.0000
# 5 0.0000 0.0000 0.0000 0.0000 -0.3888 0.0000
# 6 0.0000 0.0000 0.0000 0.0000 0.0000 21.2154
#
#
#
# Elastic Compliance Matrix: (Units=1/GPa)
#
#
# Indices 1 2 3 4 5 6 
#
# 1 0.024132 -0.002227 -0.004248 0.000000 0.000000 0.000000
# 2 -0.002227 0.064550 -0.024893 0.000000 0.000000 0.000000
# 3 -0.004248 -0.024893 0.015297 0.000000 0.000000 0.000000
# 4 0.000000 0.000000 0.000000 -0.072148 0.000000 0.000000
# 5 0.000000 0.000000 0.000000 0.000000 -2.571802 0.000000
# 6 0.000000 0.000000 0.000000 0.000000 0.000000 0.047135
#
#
# Mechanical properties :
#
#
# Convention : Reuss Voigt Hill
#
# Bulk Modulus (GPa) = 24.24549 68.71832 46.48191
# Shear Modulus (GPa) = -2.06923 12.48599 5.20838
#
# Velocity S-wave (km/s) = -1.08910 2.67530 1.72788
# Velocity P-wave (km/s) = 3.50949 6.99527 5.53400
#
# Compressibility (1/GPa) = 0.04124478
#
# Stress axis : x y z
#
# Youngs Moduli (GPa) = 41.43906 15.49192 65.37037
#
# Poissons Ratio (x) = 0.03449 0.27769
# Poissons Ratio (y) = 0.09227 1.62724
# Poissons Ratio (z) = 0.17603 0.38563
#
# Static dielectric constant tensor:
#      x y z
#    x 1.584580 0.000000 0.000000 
#    y 0.000000 1.558180 0.000000 
#    z 0.000000 0.000000 1.667860 
# 
# From -- ./inp_files/6666.got.cif
#   From: 2010.05.17/outbox.cif.g08.bks.cpg/sg28_4_cif.got.tgz:6666.got - 2010.06.04 01:15:21.
