data_PCOD9339335
_publ_section_title
;
Structure prediction by ZEFSAII (Michael W. Deem and Ramdas Pophale) SiO2 
 PCOD9339335
Probable space group: P M A 2
;
_chemical_formula_sum "Si O2"
_cell_formula_units_Z 32
_cell_length_a 8.621963
_cell_length_b 14.531384
_cell_length_c 15.957221
_cell_angle_alpha 90.000000
_cell_angle_beta 90.000000
_cell_angle_gamma 90.000000
_cell_volume 1999.265142
_symmetry_space_group_name_H-M "P M A 2"
_symmetry_group_IT_number 28
_symmetry_cell_setting 'orthorhombic'
loop_
_space_group_symop_operation_xyz
x,y,z
-x,-y,z
1/2-x,y,z
1/2+x,-y,z
loop_
_atom_site_type_symbol
_atom_site_label
_atom_site_fract_x
_atom_site_fract_y
_atom_site_fract_z
Si Si1 0.063235 0.897123 0.656870
Si Si2 0.064568 0.895634 0.156870
Si Si3 0.435857 0.399626 0.755185
Si Si4 0.935185 0.895881 0.981458
Si Si5 0.436362 0.786264 0.490263
Si Si6 0.436362 0.786264 0.823476
Si Si7 0.064143 0.399626 0.558553
Si Si8 0.564815 0.895881 0.332282
O O1 0.250000 0.900116 0.656870
O O2 0.014391 0.843053 0.573307
O O3 0.014388 0.843057 0.740435
O O4 0.000000 0.000000 0.656868
O O5 0.250000 0.896313 0.156868
O O6 0.001080 0.856923 0.069400
O O7 0.001087 0.856923 0.244342
O O8 0.000000 0.000000 0.156871
O O9 0.500000 0.500000 0.778411
O O10 0.250000 0.398570 0.761541
O O11 0.508151 0.317747 0.809019
O O12 0.477978 0.384323 0.656869
O O13 0.750000 0.900883 0.985705
O O14 0.000000 0.000000 0.970423
O O15 0.990272 0.834210 0.904251
O O16 0.250000 0.789618 0.484246
O O17 0.491843 0.682251 0.504719
O O18 0.509737 0.834211 0.409490
O O19 0.250000 0.789614 0.829489
O O20 0.250000 0.398568 0.552196
O O21 0.000000 0.500000 0.535329
O O22 0.750000 0.900884 0.328030
O O23 0.500000 0.000000 0.343318
#
# Coordination Sequence:
#
# PCOD9339335 Si02
#       8
#     4   4   4   4   4   4   4   4
#     4  10  22  34  47  66  97 136 173 208 246 292
#     4  10  18  32  52  74  99 132 169 212 258 302
#     4  10  20  34  53  75  99 131 169 214 261 306
#     4  11  21  34  51  75 104 137 173 213 256 305
#     4  11  21  35  51  73 101 136 174 213 255 304
#     4  11  21  35  51  73 101 136 174 213 255 304
#     4  10  20  34  53  75  99 131 169 214 261 306
#     4  11  21  34  51  75 104 137 173 213 256 305
#
# _framework density 16.005880999999999
#
# number of rings (size 3 to 8) (size 9 to 14) (size 15 to 20)
#    0.000    1.500    1.250    7.125    0.000    5.000 
#    0.000    0.000    0.000    0.000    0.000    0.875 
#    0.000    0.000    0.000    0.000    0.000    0.000 
#
# Total GULP energy -178718.304659 kJ/mol
# GULP energy per Si atom -5584.947021 kJ/mol
# Density = 1.596945 g / cm^3
# Si number density = 16.005881 Si / 1000 Ang^3
#
#
#
# Elastic Constant Matrix: (Units=GPa)
#
#
# Indices 1 2 3 4 5 6 
#
# 1 111.3009 43.4544 61.9220 0.0000 0.0000 0.0000
# 2 43.4544 109.0137 69.9837 0.0000 0.0000 0.0000
# 3 61.9220 69.9837 152.3964 0.0000 0.0000 0.0000
# 4 0.0000 0.0000 0.0000 6.6433 0.0000 0.0000
# 5 0.0000 0.0000 0.0000 0.0000 26.1609 0.0000
# 6 0.0000 0.0000 0.0000 0.0000 0.0000 29.0160
#
#
#
# Elastic Compliance Matrix: (Units=1/GPa)
#
#
# Indices 1 2 3 4 5 6 
#
# 1 0.012018 -0.002348 -0.003805 0.000000 0.000000 0.000000
# 2 -0.002348 0.013467 -0.005230 0.000000 0.000000 0.000000
# 3 -0.003805 -0.005230 0.010510 0.000000 0.000000 0.000000
# 4 0.000000 0.000000 0.000000 0.150527 0.000000 0.000000
# 5 0.000000 0.000000 0.000000 0.000000 0.038225 0.000000
# 6 0.000000 0.000000 0.000000 0.000000 0.000000 0.034464
#
#
# Mechanical properties :
#
#
# Convention : Reuss Voigt Hill
#
# Bulk Modulus (GPa) = 75.59515 80.38124 77.98820
# Shear Modulus (GPa) = 17.45896 25.52078 21.48987
#
# Velocity S-wave (km/s) = 3.30628 3.99740 3.66816
# Velocity P-wave (km/s) = 7.86813 8.46372 8.17135
#
# Compressibility (1/GPa) = 0.01322836
#
# Stress axis : x y z
#
# Youngs Moduli (GPa) = 83.20662 74.25720 95.14978
#
# Poissons Ratio (x) = 0.17435 0.36205
# Poissons Ratio (y) = 0.19536 0.49765
# Poissons Ratio (z) = 0.31661 0.38838
#
# Static dielectric constant tensor:
#      x y z
#    x 1.534060 0.000000 0.000000 
#    y 0.000000 1.696810 0.000000 
#    z 0.000000 0.000000 1.548210 
# 
# From -- ./inp_files/6305.got.cif
#   From: 2010.05.17/outbox.cif.g08.bks.cpg/sg28_4_cif.got.tgz:6305.got - 2010.06.04 01:15:21.
