data_PCOD9339412
_publ_section_title
;
Structure prediction by ZEFSAII (Michael W. Deem and Ramdas Pophale) SiO2 
 PCOD9339412
Probable space group: P M A 2
;
_chemical_formula_sum "Si O2"
_cell_formula_units_Z 32
_cell_length_a 7.804317
_cell_length_b 15.004661
_cell_length_c 12.993230
_cell_angle_alpha 90.000000
_cell_angle_beta 90.000000
_cell_angle_gamma 90.000000
_cell_volume 1521.521927
_symmetry_space_group_name_H-M "P M A 2"
_symmetry_group_IT_number 28
_symmetry_cell_setting 'orthorhombic'
loop_
_space_group_symop_operation_xyz
x,y,z
-x,-y,z
1/2-x,y,z
1/2+x,-y,z
loop_
_atom_site_type_symbol
_atom_site_label
_atom_site_fract_x
_atom_site_fract_y
_atom_site_fract_z
Si Si1 0.460134 0.791118 0.498500
Si Si2 0.944060 0.663904 0.213986
Si Si3 0.454389 0.596312 0.429301
Si Si4 0.543417 0.104750 0.702106
Si Si5 0.040459 0.777700 0.895258
Si Si6 0.545960 0.400724 0.989657
Si Si7 0.044320 0.906027 0.072189
Si Si8 0.943922 0.150029 0.281036
O O1 0.250000 0.791637 0.496798
O O2 0.510492 0.686590 0.489039
O O3 0.516455 0.845546 0.598219
O O4 0.521427 0.839561 0.393836
O O5 0.750000 0.697237 0.214458
O O6 0.969124 0.602422 0.314036
O O7 0.061525 0.749438 0.235410
O O8 0.978414 0.618202 0.105056
O O9 0.500000 0.500000 0.475232
O O10 0.250000 0.601227 0.419904
O O11 0.750000 0.109403 0.702410
O O12 0.481236 0.163663 0.798916
O O13 0.500000 0.000000 0.707065
O O14 0.250000 0.779036 0.891755
O O15 0.985937 0.675652 0.910442
O O16 0.984464 0.827111 0.999587
O O17 0.500000 0.500000 0.957561
O O18 0.750000 0.393345 0.997113
O O19 0.250000 0.898423 0.079946
O O20 0.970418 0.902201 0.187441
O O21 0.000000 0.000000 0.022548
O O22 0.750000 0.116289 0.295628
#
# Coordination Sequence:
#
# PCOD9339412 Si02
#       8
#     4   4   4   4   4   4   4   4
#     4   8  17  33  55  78 104 141 180 219 265 321
#     4  11  20  31  50  79 110 145 185 225 265 315
#     4  10  19  33  52  77 110 149 186 221 264 320
#     4  10  20  38  61  84 105 137 184 226 274 325
#     4   9  19  36  57  76 105 144 179 221 271 326
#     4  11  21  36  54  77 108 146 184 221 269 325
#     4  10  19  32  50  75 104 140 177 215 269 326
#     4   9  17  33  52  72 108 150 182 216 268 324
#
# _framework density 21.031575
#
# number of rings (size 3 to 8) (size 9 to 14) (size 15 to 20)
#    0.000    2.250    1.250    3.375    0.000    1.000 
#    0.000    5.000    0.000    0.000    0.000    0.000 
#    0.000    0.000    0.000    0.000    0.000    0.000 
#
# Total GULP energy -178501.840937 kJ/mol
# GULP energy per Si atom -5578.182529 kJ/mol
# Density = 2.098371 g / cm^3
# Si number density = 21.031575 Si / 1000 Ang^3
#
#
#
# Elastic Constant Matrix: (Units=GPa)
#
#
# Indices 1 2 3 4 5 6 
#
# 1 49.4222 -0.8053 8.8749 0.0000 0.0000 0.0000
# 2 -0.8053 155.3652 85.3862 0.0000 0.0000 0.0000
# 3 8.8749 85.3862 141.6714 0.0000 0.0000 0.0000
# 4 0.0000 0.0000 0.0000 3.9602 0.0000 0.0000
# 5 0.0000 0.0000 0.0000 0.0000 1.1691 0.0000
# 6 0.0000 0.0000 0.0000 0.0000 0.0000 23.5159
#
#
#
# Elastic Compliance Matrix: (Units=1/GPa)
#
#
# Indices 1 2 3 4 5 6 
#
# 1 0.020618 0.001221 -0.002028 0.000000 0.000000 0.000000
# 2 0.001221 0.009697 -0.005921 0.000000 0.000000 0.000000
# 3 -0.002028 -0.005921 0.010754 0.000000 0.000000 0.000000
# 4 0.000000 0.000000 0.000000 0.252515 0.000000 0.000000
# 5 0.000000 0.000000 0.000000 0.000000 0.855376 0.000000
# 6 0.000000 0.000000 0.000000 0.000000 0.000000 0.042524
#
#
# Mechanical properties :
#
#
# Convention : Reuss Voigt Hill
#
# Bulk Modulus (GPa) = 36.21316 59.26339 47.73828
# Shear Modulus (GPa) = 4.11813 22.59590 13.35702
#
# Velocity S-wave (km/s) = 1.40083 3.28133 2.52284
# Velocity P-wave (km/s) = 4.45783 6.52653 5.58873
#
# Compressibility (1/GPa) = 0.02761427
#
# Stress axis : x y z
#
# Youngs Moduli (GPa) = 48.50174 103.12740 92.98781
#
# Poissons Ratio (x) = -0.12594 0.18854
# Poissons Ratio (y) = -0.05923 0.55056
# Poissons Ratio (z) = 0.09834 0.61060
#
# Static dielectric constant tensor:
#      x y z
#    x 1.766160 0.000000 0.000000 
#    y 0.000000 2.090020 0.000000 
#    z 0.000000 0.000000 1.759280 
# 
# From -- ./inp_files/5110.got.cif
#   From: 2010.05.17/outbox.cif.g08.bks.cpg/sg28_3_cif.got.tgz:5110.got - 2010.06.04 01:15:21.
