data_PCOD9339557
_publ_section_title
;
Structure prediction by ZEFSAII (Michael W. Deem and Ramdas Pophale) SiO2 
 PCOD9339557
Probable space group: P M A 2
;
_chemical_formula_sum "Si O2"
_cell_formula_units_Z 32
_cell_length_a 17.480296
_cell_length_b 11.607209
_cell_length_c 7.930901
_cell_angle_alpha 90.000000
_cell_angle_beta 90.000000
_cell_angle_gamma 90.000000
_cell_volume 1609.159582
_symmetry_space_group_name_H-M "P M A 2"
_symmetry_group_IT_number 28
_symmetry_cell_setting 'orthorhombic'
loop_
_space_group_symop_operation_xyz
x,y,z
-x,-y,z
1/2-x,y,z
1/2+x,-y,z
loop_
_atom_site_type_symbol
_atom_site_label
_atom_site_fract_x
_atom_site_fract_y
_atom_site_fract_z
Si Si1 0.061846 0.424011 0.206990
Si Si2 0.593050 0.978814 0.624296
Si Si3 0.115107 0.288276 0.674960
Si Si4 0.428689 0.912893 0.301293
Si Si5 0.837160 0.488405 0.469514
Si Si6 0.340029 0.967183 0.982094
Si Si7 0.966341 0.318167 0.509489
Si Si8 0.336108 0.239690 0.042741
O O1 0.132881 0.497754 0.277269
O O2 0.000000 0.500000 0.103908
O O3 0.014718 0.388205 0.372080
O O4 0.097317 0.307274 0.137090
O O5 0.617548 0.845265 0.620676
O O6 0.500000 0.000000 0.630294
O O7 0.621992 0.025899 0.445352
O O8 0.626497 0.037637 0.792501
O O9 0.151939 0.387125 0.559258
O O10 0.155619 0.289050 0.854251
O O11 0.023138 0.307794 0.668051
O O12 0.451642 0.798806 0.405374
O O13 0.500000 0.000000 0.269464
O O14 0.386039 0.896642 0.124232
O O15 0.750000 0.454229 0.476665
O O16 0.891352 0.391131 0.550072
O O17 0.250000 0.939775 0.981383
O O18 0.348313 0.102456 0.034988
O O19 0.250000 0.261133 0.108191
#
# Coordination Sequence:
#
# PCOD9339557 Si02
#       8
#     4   4   4   4   4   4   4   4
#     4   9  19  34  54  81 110 144 189 238 285 341
#     4  10  20  37  61  89 118 152 199 249 299 350
#     4  10  19  36  57  82 116 148 190 248 294 347
#     4  11  20  37  64  87 115 155 204 245 295 352
#     4  10  21  36  57  82 115 154 193 244 298 354
#     4  10  23  37  54  88 124 156 192 240 300 363
#     4  10  20  37  57  86 112 149 202 244 288 357
#     4  10  20  34  55  85 118 150 191 240 302 358
#
# _framework density 19.886157999999998
#
# number of rings (size 3 to 8) (size 9 to 14) (size 15 to 20)
#    0.000    2.000    2.500    3.000    1.750    3.500 
#    0.000    0.000    0.000    0.000    0.000    0.000 
#    0.000    0.000    0.000    0.000    0.000    0.000 
#
# Total GULP energy -178160.949006 kJ/mol
# GULP energy per Si atom -5567.529656 kJ/mol
# Density = 1.984090 g / cm^3
# Si number density = 19.886158 Si / 1000 Ang^3
#
#
#
# Elastic Constant Matrix: (Units=GPa)
#
#
# Indices 1 2 3 4 5 6 
#
# 1 82.0907 7.0020 10.1623 0.0000 0.0000 0.0000
# 2 7.0020 38.5629 -4.5362 0.0000 0.0000 0.0000
# 3 10.1623 -4.5362 44.1009 0.0000 0.0000 0.0000
# 4 0.0000 0.0000 0.0000 -3.9444 0.0000 0.0000
# 5 0.0000 0.0000 0.0000 0.0000 -69.6896 0.0000
# 6 0.0000 0.0000 0.0000 0.0000 0.0000 17.4237
#
#
#
# Elastic Compliance Matrix: (Units=1/GPa)
#
#
# Indices 1 2 3 4 5 6 
#
# 1 0.012812 -0.002706 -0.003231 0.000000 0.000000 0.000000
# 2 -0.002706 0.026821 0.003382 0.000000 0.000000 0.000000
# 3 -0.003231 0.003382 0.023768 0.000000 0.000000 0.000000
# 4 0.000000 0.000000 0.000000 -0.253521 0.000000 0.000000
# 5 0.000000 0.000000 0.000000 0.000000 -0.014349 0.000000
# 6 0.000000 0.000000 0.000000 0.000000 0.000000 0.057393
#
#
# Mechanical properties :
#
#
# Convention : Reuss Voigt Hill
#
# Bulk Modulus (GPa) = 17.15515 21.11228 19.13371
# Shear Modulus (GPa) = -40.80424 -1.10030 -20.95227
#
# Velocity S-wave (km/s) = -4.53470 -0.74465 -3.24946
# Velocity P-wave (km/s) = 4.33273 3.14647 2.10621
#
# Compressibility (1/GPa) = 0.05829154
#
# Stress axis : x y z
#
# Youngs Moduli (GPa) = 78.04912 37.28429 42.07399
#
# Poissons Ratio (x) = 0.10091 0.13593
# Poissons Ratio (y) = 0.21123 -0.14231
# Poissons Ratio (z) = 0.25216 -0.12611
#
# Static dielectric constant tensor:
#      x y z
#    x 1.786850 0.000000 0.000000 
#    y 0.000000 1.941910 0.000000 
#    z 0.000000 0.000000 1.723430 
# 
# From -- ./inp_files/3947.got.cif
#   From: 2010.05.17/outbox.cif.g08.bks.cpg/sg28_2_cif.got.tgz:3947.got - 2010.06.04 01:15:21.
