data_PCOD9339027
_publ_section_title
;
Structure prediction by ZEFSAII (Michael W. Deem and Ramdas Pophale) SiO2 
 PCOD9339027
Probable space group: P C C 2
;
_chemical_formula_sum "Si O2"
_cell_formula_units_Z 28
_cell_length_a 6.573145
_cell_length_b 19.593830
_cell_length_c 10.187201
_cell_angle_alpha 90.000000
_cell_angle_beta 90.000000
_cell_angle_gamma 90.000000
_cell_volume 1312.041051
_symmetry_space_group_name_H-M "P C C 2"
_symmetry_group_IT_number 27
_symmetry_cell_setting 'orthorhombic'
loop_
_space_group_symop_operation_xyz
x,y,z
-x,-y,z
-x,y,1/2+z
x,-y,1/2+z
loop_
_atom_site_type_symbol
_atom_site_label
_atom_site_fract_x
_atom_site_fract_y
_atom_site_fract_z
Si Si1 0.693652 0.235352 0.611120
Si Si2 0.666166 0.044572 0.392237
Si Si3 0.878141 0.431988 0.918187
Si Si4 0.188595 0.612619 0.640155
Si Si5 0.586419 0.171267 0.882608
Si Si6 0.000000 0.000000 0.223475
Si Si7 0.015257 0.873004 0.041186
Si Si8 0.500000 0.500000 0.047262
O O1 0.720122 0.315736 0.595324
O O2 0.616773 0.219139 0.757505
O O3 0.545181 0.205846 0.498750
O O4 0.907002 0.194430 0.597123
O O5 0.536428 0.105327 0.329123
O O6 0.795366 0.991174 0.307122
O O7 0.839527 0.085188 0.466808
O O8 0.500000 0.000000 0.471517
O O9 0.875685 0.383519 0.792200
O O10 0.000000 0.500000 0.875294
O O11 0.652849 0.454218 0.960908
O O12 0.000506 0.404454 0.044118
O O13 0.352607 0.551207 0.626672
O O14 0.797176 0.148201 0.950506
O O15 0.938128 0.069248 0.148790
#
# Coordination Sequence:
#
# PCOD9339027 Si02
#       8
#     4   4   4   4   4   2   4   2
#     4  11  27  44  69  99 138 186 237 289 358 425
#     4  11  22  38  63  93 128 168 222 281 337 410
#     4  10  22  44  69 104 141 177 229 285 345 419
#     4  11  25  43  69 105 139 187 229 291 354 418
#     4  11  25  48  66  99 140 182 235 291 349 430
#     4  12  22  38  64  98 128 182 230 280 350 406
#     4  11  24  42  66  96 134 181 226 291 347 419
#     4  10  22  42  74 104 136 182 234 292 344 420
#
# _framework density 21.340796999999998
#
# number of rings (size 3 to 8) (size 9 to 14) (size 15 to 20)
#    0.000    1.143    0.000    6.429    4.000    5.143 
#    0.000    0.000    0.000    0.000    0.000    0.000 
#    0.000    0.000    0.000    0.000    0.000    0.000 
#
# Total GULP energy -156343.331837 kJ/mol
# GULP energy per Si atom -5583.690423 kJ/mol
# Density = 2.129222 g / cm^3
# Si number density = 21.340797 Si / 1000 Ang^3
#
#
#
# Elastic Constant Matrix: (Units=GPa)
#
#
# Indices 1 2 3 4 5 6 
#
# 1 124.0037 36.9535 55.5438 0.0000 0.0000 0.0000
# 2 36.9535 97.3582 32.3467 0.0000 0.0000 0.0000
# 3 55.5438 32.3467 100.0129 0.0000 0.0000 0.0000
# 4 0.0000 0.0000 0.0000 22.2702 0.0000 0.0000
# 5 0.0000 0.0000 0.0000 0.0000 -18.6994 0.0000
# 6 0.0000 0.0000 0.0000 0.0000 0.0000 21.4906
#
#
#
# Elastic Compliance Matrix: (Units=1/GPa)
#
#
# Indices 1 2 3 4 5 6 
#
# 1 0.011235 -0.002455 -0.005446 0.000000 0.000000 0.000000
# 2 -0.002455 0.012044 -0.002532 0.000000 0.000000 0.000000
# 3 -0.005446 -0.002532 0.013842 0.000000 0.000000 0.000000
# 4 0.000000 0.000000 0.000000 0.044903 0.000000 0.000000
# 5 0.000000 0.000000 0.000000 0.000000 -0.053478 0.000000
# 6 0.000000 0.000000 0.000000 0.000000 0.000000 0.046532
#
#
# Mechanical properties :
#
#
# Convention : Reuss Voigt Hill
#
# Bulk Modulus (GPa) = 61.51535 63.45143 62.48339
# Shear Modulus (GPa) = 49.32779 18.11434 33.72107
#
# Velocity S-wave (km/s) = 4.81295 2.91660 3.97939
# Velocity P-wave (km/s) = 7.73135 6.41397 7.10327
#
# Compressibility (1/GPa) = 0.01625610
#
# Stress axis : x y z
#
# Youngs Moduli (GPa) = 89.00683 83.02566 72.24454
#
# Poissons Ratio (x) = 0.20384 0.39341
# Poissons Ratio (y) = 0.21853 0.18292
# Poissons Ratio (z) = 0.48469 0.21022
#
# Static dielectric constant tensor:
#      x y z
#    x 1.957030 0.000000 0.000000 
#    y 0.000000 1.690020 0.000000 
#    z 0.000000 0.000000 1.838910 
# 
# From -- ./inp_files/2091.got.cif
#   From: 2010.05.17/outbox.cif.g08.bks.cpg/sg27_2_cif.got.tgz:2091.got - 2010.06.04 01:11:05.
