data_PCOD9339314
_publ_section_title
;
Structure prediction by ZEFSAII (Michael W. Deem and Ramdas Pophale) SiO2 
 PCOD9339314
Probable space group: P M A 2
;
_chemical_formula_sum "Si O2"
_cell_formula_units_Z 32
_cell_length_a 8.650857
_cell_length_b 14.516281
_cell_length_c 15.929842
_cell_angle_alpha 90.000000
_cell_angle_beta 90.000000
_cell_angle_gamma 90.000000
_cell_volume 2000.442017
_symmetry_space_group_name_H-M "P M A 2"
_symmetry_group_IT_number 28
_symmetry_cell_setting 'orthorhombic'
loop_
_space_group_symop_operation_xyz
x,y,z
-x,-y,z
1/2-x,y,z
1/2+x,-y,z
loop_
_atom_site_type_symbol
_atom_site_label
_atom_site_fract_x
_atom_site_fract_y
_atom_site_fract_z
Si Si1 0.435430 0.216014 0.133000
Si Si2 0.065217 0.895848 0.976064
Si Si3 0.935314 0.103601 0.626093
Si Si4 0.065263 0.104369 0.800713
Si Si5 0.064750 0.102992 0.302503
Si Si6 0.434493 0.401230 0.392565
Si Si7 0.434978 0.782669 0.459341
Si Si8 0.935014 0.400335 0.204396
O O1 0.250000 0.219945 0.125059
O O2 0.472441 0.157081 0.216741
O O3 0.503092 0.317499 0.147661
O O4 0.507374 0.165276 0.053145
O O5 0.250000 0.900545 0.973461
O O6 0.001521 0.856813 0.887537
O O7 0.000000 0.000000 0.986054
O O8 0.750000 0.097638 0.634287
O O9 0.974077 0.165371 0.545676
O O10 0.005365 0.143570 0.712475
O O11 0.000000 0.000000 0.613749
O O12 0.250000 0.103164 0.803075
O O13 0.000000 0.000000 0.799451
O O14 0.250000 0.101035 0.311643
O O15 0.993010 0.156254 0.381340
O O16 0.000000 0.000000 0.298562
O O17 0.500000 0.500000 0.420486
O O18 0.250000 0.404814 0.386459
O O19 0.488162 0.317110 0.450039
O O20 0.502577 0.384260 0.299159
O O21 0.250000 0.773307 0.454475
O O22 0.750000 0.401952 0.206039
O O23 0.000000 0.500000 0.178245
#
# Coordination Sequence:
#
# PCOD9339314 Si02
#       8
#     4   4   4   4   4   4   4   4
#     4  11  22  36  52  75 103 135 175 214 255 304
#     4  11  21  34  52  75 104 138 174 214 257 305
#     4  10  20  33  50  74 103 136 172 212 254 302
#     4  10  18  31  51  73  99 132 169 213 258 302
#     4  11  23  35  49  68 100 139 176 211 249 296
#     4  11  21  35  54  75 100 131 170 215 261 305
#     4  11  22  35  52  74 102 135 174 213 255 305
#     4  11  21  35  55  76 101 132 170 214 261 305
#
# _framework density 15.996464
#
# number of rings (size 3 to 8) (size 9 to 14) (size 15 to 20)
#    0.000    1.250    1.250    9.000    0.000    5.500 
#    0.000    0.000    0.000    0.000    0.000    0.875 
#    0.000    4.000    0.000    0.000    0.000    0.000 
#
# Total GULP energy -178779.165054 kJ/mol
# GULP energy per Si atom -5586.848908 kJ/mol
# Density = 1.596006 g / cm^3
# Si number density = 15.996464 Si / 1000 Ang^3
#
#
#
# Elastic Constant Matrix: (Units=GPa)
#
#
# Indices 1 2 3 4 5 6 
#
# 1 129.4897 55.6910 76.6693 0.0000 0.0000 0.0000
# 2 55.6910 113.7691 69.6256 0.0000 0.0000 0.0000
# 3 76.6693 69.6256 144.1503 0.0000 0.0000 0.0000
# 4 0.0000 0.0000 0.0000 5.1367 0.0000 0.0000
# 5 0.0000 0.0000 0.0000 0.0000 28.8475 0.0000
# 6 0.0000 0.0000 0.0000 0.0000 0.0000 27.2008
#
#
#
# Elastic Compliance Matrix: (Units=1/GPa)
#
#
# Indices 1 2 3 4 5 6 
#
# 1 0.011853 -0.002760 -0.004971 0.000000 0.000000 0.000000
# 2 -0.002760 0.013121 -0.004870 0.000000 0.000000 0.000000
# 3 -0.004971 -0.004870 0.011933 0.000000 0.000000 0.000000
# 4 0.000000 0.000000 0.000000 0.194678 0.000000 0.000000
# 5 0.000000 0.000000 0.000000 0.000000 0.034665 0.000000
# 6 0.000000 0.000000 0.000000 0.000000 0.000000 0.036764
#
#
# Mechanical properties :
#
#
# Convention : Reuss Voigt Hill
#
# Bulk Modulus (GPa) = 85.42745 87.93122 86.67933
# Shear Modulus (GPa) = 15.05496 24.59856 19.82676
#
# Velocity S-wave (km/s) = 3.07113 3.92567 3.52440
# Velocity P-wave (km/s) = 8.12993 8.69692 8.41820
#
# Compressibility (1/GPa) = 0.01170584
#
# Stress axis : x y z
#
# Youngs Moduli (GPa) = 84.36702 76.21470 83.79894
#
# Poissons Ratio (x) = 0.21034 0.41659
# Poissons Ratio (y) = 0.23283 0.40807
# Poissons Ratio (z) = 0.41941 0.37114
#
# Static dielectric constant tensor:
#      x y z
#    x 1.533060 0.000000 0.000000 
#    y 0.000000 1.526400 0.000000 
#    z 0.000000 0.000000 1.542760 
# 
# From -- ./inp_files/6393.got.cif
#   From: 2010.05.17/outbox.cif.g08.bks.cpg/sg28_4_cif.got.tgz:6393.got - 2010.06.04 01:15:21.
