data_PCOD9339800
_publ_section_title
;
Structure prediction by ZEFSAII (Michael W. Deem and Ramdas Pophale) SiO2 
 PCOD9339800
Probable space group: P M A 2
;
_chemical_formula_sum "Si O2"
_cell_formula_units_Z 30
_cell_length_a 20.262015
_cell_length_b 6.182741
_cell_length_c 11.399035
_cell_angle_alpha 90.000000
_cell_angle_beta 90.000000
_cell_angle_gamma 90.000000
_cell_volume 1428.011726
_symmetry_space_group_name_H-M "P M A 2"
_symmetry_group_IT_number 28
_symmetry_cell_setting 'orthorhombic'
loop_
_space_group_symop_operation_xyz
x,y,z
-x,-y,z
1/2-x,y,z
1/2+x,-y,z
loop_
_atom_site_type_symbol
_atom_site_label
_atom_site_fract_x
_atom_site_fract_y
_atom_site_fract_z
Si Si1 0.621265 0.728098 0.225790
Si Si2 0.174270 0.685629 0.778356
Si Si3 0.102786 0.355869 0.614114
Si Si4 0.675486 0.973501 0.443312
Si Si5 0.072287 0.065723 0.818295
Si Si6 0.174362 0.335815 0.971287
Si Si7 0.917510 0.355864 0.402861
Si Si8 0.500000 0.000000 0.275988
O O1 0.667162 0.855586 0.317864
O O2 0.595240 0.520444 0.296783
O O3 0.559319 0.889960 0.204535
O O4 0.657490 0.659128 0.108118
O O5 0.250000 0.762565 0.762049
O O6 0.156693 0.498424 0.684527
O O7 0.169942 0.565978 0.904823
O O8 0.117664 0.867214 0.772593
O O9 0.134801 0.167607 0.535661
O O10 0.060146 0.235824 0.712515
O O11 0.069370 0.513470 0.520847
O O12 0.750000 0.979170 0.481740
O O13 0.646633 0.211663 0.428947
O O14 0.119885 0.183344 0.911161
O O15 0.000000 0.000000 0.863188
O O16 0.250000 0.258355 0.953212
O O17 0.971590 0.185520 0.360667
#
# Coordination Sequence:
#
# PCOD9339800 Si02
#       8
#     4   4   4   4   4   4   4   2
#     4  10  22  41  63  95 129 169 215 266 322 386
#     4  10  22  43  67  93 128 172 219 270 329 384
#     4  10  22  41  62  94 128 170 216 270 321 386
#     4  10  21  38  62  95 132 167 210 264 322 384
#     4  11  25  45  63  97 129 170 219 273 329 385
#     4  10  23  43  70  97 127 169 218 272 325 388
#     4  10  22  41  59  93 127 174 212 264 320 389
#     4  10  22  42  60  92 130 174 214 260 324 388
#
# _framework density 21.008232
#
# number of rings (size 3 to 8) (size 9 to 14) (size 15 to 20)
#    0.000    1.867    0.000    2.400    0.933   10.133 
#   31.200    1.333    0.000    0.000    0.000    0.000 
#    0.000    0.000    0.000    0.000    0.000    0.000 
#
# Total GULP energy -167631.576002 kJ/mol
# GULP energy per Si atom -5587.719200 kJ/mol
# Density = 2.096042 g / cm^3
# Si number density = 21.008232 Si / 1000 Ang^3
#
#
#
# Elastic Constant Matrix: (Units=GPa)
#
#
# Indices 1 2 3 4 5 6 
#
# 1 106.0735 36.7998 15.9878 0.0000 0.0000 0.0000
# 2 36.7998 98.1805 32.5261 0.0000 0.0000 0.0000
# 3 15.9878 32.5261 114.6670 0.0000 0.0000 0.0000
# 4 0.0000 0.0000 0.0000 14.7638 0.0000 0.0000
# 5 0.0000 0.0000 0.0000 0.0000 -7.0304 0.0000
# 6 0.0000 0.0000 0.0000 0.0000 0.0000 22.9333
#
#
#
# Elastic Compliance Matrix: (Units=1/GPa)
#
#
# Indices 1 2 3 4 5 6 
#
# 1 0.010853 -0.003936 -0.000397 0.000000 0.000000 0.000000
# 2 -0.003936 0.012670 -0.003045 0.000000 0.000000 0.000000
# 3 -0.000397 -0.003045 0.009640 0.000000 0.000000 0.000000
# 4 0.000000 0.000000 0.000000 0.067733 0.000000 0.000000
# 5 0.000000 0.000000 0.000000 0.000000 -0.142240 0.000000
# 6 0.000000 0.000000 0.000000 0.000000 0.000000 0.043605
#
#
# Mechanical properties :
#
#
# Convention : Reuss Voigt Hill
#
# Bulk Modulus (GPa) = 54.32917 54.39428 54.36173
# Shear Modulus (GPa) = 215.96832 21.70715 118.83773
#
# Velocity S-wave (km/s) = 10.15012 3.21794 7.52928
# Velocity P-wave (km/s) = 12.77825 6.30515 10.07568
#
# Compressibility (1/GPa) = 0.01840632
#
# Stress axis : x y z
#
# Youngs Moduli (GPa) = 92.14155 78.92951 103.73521
#
# Poissons Ratio (x) = 0.31070 0.04114
# Poissons Ratio (y) = 0.36271 0.31587
# Poissons Ratio (z) = 0.03654 0.24034
#
# Static dielectric constant tensor:
#      x y z
#    x 1.753920 0.000000 0.000000 
#    y 0.000000 1.755290 0.000000 
#    z 0.000000 0.000000 1.731600 
# 
# From -- ./inp_files/5850.got.cif
#   From: 2010.05.17/outbox.cif.g08.bks.cpg/sg28_3_cif.got.tgz:5850.got - 2010.06.04 01:15:21.
