data_PCOD9339038
_publ_section_title
;
Structure prediction by ZEFSAII (Michael W. Deem and Ramdas Pophale) SiO2 
 PCOD9339038
Probable space group: P C C 2
;
_chemical_formula_sum "Si O2"
_cell_formula_units_Z 16
_cell_length_a 5.600026
_cell_length_b 11.485725
_cell_length_c 8.340768
_cell_angle_alpha 90.000000
_cell_angle_beta 90.000000
_cell_angle_gamma 90.000000
_cell_volume 536.481189
_symmetry_space_group_name_H-M "P C C 2"
_symmetry_group_IT_number 27
_symmetry_cell_setting 'orthorhombic'
loop_
_space_group_symop_operation_xyz
x,y,z
-x,-y,z
-x,y,1/2+z
x,-y,1/2+z
loop_
_atom_site_type_symbol
_atom_site_label
_atom_site_fract_x
_atom_site_fract_y
_atom_site_fract_z
Si Si1 0.869026 0.750000 0.531250
Si Si2 0.000000 0.000000 0.141743
Si Si3 0.495760 0.750000 0.331552
Si Si4 0.500000 0.500000 0.331890
Si Si5 0.000000 0.500000 0.641744
Si Si6 0.500000 0.000000 0.331889
O O1 0.984806 0.876729 0.549453
O O2 0.783555 0.750000 0.343689
O O3 0.663226 0.750000 0.672986
O O4 0.984806 0.623271 0.549453
O O5 0.253121 0.007743 0.233954
O O6 0.463360 0.624581 0.416218
O O7 0.463360 0.875419 0.416217
O O8 0.253121 0.492257 0.233955
#
# Coordination Sequence:
#
# PCOD9339038 Si02
#       6
#     4   2   4   2   2   2
#     4  10  23  46  75 108 146 192 244 300 362 432
#     4  10  22  44  72 102 142 188 240 294 358 428
#     4  10  23  42  71 106 146 188 240 298 362 428
#     4  10  22  44  68 104 142 188 236 296 358 428
#     4  10  22  44  72 102 142 188 240 294 358 428
#     4  10  22  44  68 104 142 188 236 296 358 428
#
# _framework density 29.823972000000001
#
# number of rings (size 3 to 8) (size 9 to 14) (size 15 to 20)
#    0.000    2.000    0.000    1.500    0.000   10.000 
#    0.000   32.500    0.000   12.000    0.000    0.000 
#    0.000    0.000    0.000    0.000    0.000    0.000 
#
# Total GULP energy -89179.461740 kJ/mol
# GULP energy per Si atom -5573.716359 kJ/mol
# Density = 2.975609 g / cm^3
# Si number density = 29.823972 Si / 1000 Ang^3
#
#
#
# Elastic Constant Matrix: (Units=GPa)
#
#
# Indices 1 2 3 4 5 6 
#
# 1 236.9513 37.9394 72.1607 0.0000 0.0000 0.0000
# 2 37.9394 406.3627 48.6666 0.0000 0.0000 0.0000
# 3 72.1607 48.6666 39.2195 0.0000 0.0000 0.0000
# 4 0.0000 0.0000 0.0000 19.2599 0.0000 0.0000
# 5 0.0000 0.0000 0.0000 0.0000 87.3395 0.0000
# 6 0.0000 0.0000 0.0000 0.0000 0.0000 60.0202
#
#
#
# Elastic Compliance Matrix: (Units=1/GPa)
#
#
# Indices 1 2 3 4 5 6 
#
# 1 0.010364 0.001546 -0.020988 0.000000 0.000000 0.000000
# 2 0.001546 0.003121 -0.006717 0.000000 0.000000 0.000000
# 3 -0.020988 -0.006717 0.072448 0.000000 0.000000 0.000000
# 4 0.000000 0.000000 0.000000 0.051921 0.000000 0.000000
# 5 0.000000 0.000000 0.000000 0.000000 0.011450 0.000000
# 6 0.000000 0.000000 0.000000 0.000000 0.000000 0.016661
#
#
# Mechanical properties :
#
#
# Convention : Reuss Voigt Hill
#
# Bulk Modulus (GPa) = 29.74798 111.11855 70.43326
# Shear Modulus (GPa) = 21.78757 68.24172 45.01465
#
# Velocity S-wave (km/s) = 2.70578 4.78865 3.88924
# Velocity P-wave (km/s) = 4.44498 8.24099 6.62087
#
# Compressibility (1/GPa) = 0.03361573
#
# Stress axis : x y z
#
# Youngs Moduli (GPa) = 96.48472 320.41330 13.80295
#
# Poissons Ratio (x) = -0.49532 0.28969
# Poissons Ratio (y) = -0.14915 0.09271
# Poissons Ratio (z) = 2.02500 2.15222
#
# Static dielectric constant tensor:
#      x y z
#    x 2.479030 0.000000 0.000000 
#    y 0.000000 2.258400 0.000000 
#    z 0.000000 0.000000 2.287500 
# 
# From -- ./inp_files/826.got.cif
#   From: 2010.05.17/outbox.cif.g08.bks.cpg/sg27_1_cif.got.tgz:826.got - 2010.06.04 01:11:05.
