data_PCOD9339135
_publ_section_title
;
Structure prediction by ZEFSAII (Michael W. Deem and Ramdas Pophale) SiO2 
 PCOD9339135
Probable space group: P C C 2
;
_chemical_formula_sum "Si O2"
_cell_formula_units_Z 32
_cell_length_a 13.163917
_cell_length_b 9.112316
_cell_length_c 12.445971
_cell_angle_alpha 90.000000
_cell_angle_beta 90.000000
_cell_angle_gamma 90.000000
_cell_volume 1492.941161
_symmetry_space_group_name_H-M "P C C 2"
_symmetry_group_IT_number 27
_symmetry_cell_setting 'orthorhombic'
loop_
_space_group_symop_operation_xyz
x,y,z
-x,-y,z
-x,y,1/2+z
x,-y,1/2+z
loop_
_atom_site_type_symbol
_atom_site_label
_atom_site_fract_x
_atom_site_fract_y
_atom_site_fract_z
Si Si1 0.907412 0.391079 0.601700
Si Si2 0.217614 0.975937 0.306659
Si Si3 0.329005 0.220393 0.650776
Si Si4 0.409570 0.111032 0.433292
Si Si5 0.277117 0.470735 0.482959
Si Si6 0.867628 0.291289 0.826841
Si Si7 0.050198 0.158257 0.951363
Si Si8 0.448415 0.640626 0.345246
O O1 0.813349 0.427824 0.525488
O O2 0.878429 0.396638 0.725664
O O3 0.938113 0.228098 0.567763
O O4 0.000000 0.500000 0.581661
O O5 0.318400 0.041669 0.363993
O O6 0.157932 0.127009 0.286790
O O7 0.239894 0.878549 0.201722
O O8 0.153965 0.872626 0.387319
O O9 0.379847 0.123844 0.557864
O O10 0.305506 0.370262 0.586045
O O11 0.395038 0.262677 0.754540
O O12 0.459998 0.266117 0.398247
O O13 0.500000 0.000000 0.420481
O O14 0.222596 0.356868 0.400454
O O15 0.365996 0.570598 0.429327
O O16 0.973614 0.268529 0.889297
O O17 0.000000 0.000000 0.959072
O O18 0.500000 0.500000 0.290850
#
# Coordination Sequence:
#
# PCOD9339135 Si02
#       8
#     4   4   4   4   4   4   4   4
#     4  12  27  42  75 101 144 191 238 296 373 430
#     4  11  25  48  72 105 144 188 242 305 361 437
#     4  12  27  45  79  99 148 193 236 303 375 426
#     4  12  27  48  70 108 144 185 249 306 357 441
#     4  12  26  48  69 110 144 190 245 307 364 447
#     4  11  25  46  68 107 144 185 248 304 353 449
#     4  10  25  47  73 102 145 189 243 302 363 437
#     4  12  26  48  72 105 146 190 244 300 370 439
#
# _framework density 21.434201000000002
#
# number of rings (size 3 to 8) (size 9 to 14) (size 15 to 20)
#    0.000    0.500    5.000    1.500    8.750    1.500 
#    0.000    0.000    0.000    0.000    0.000    0.000 
#    0.000    0.000    0.000    0.000    0.000    0.000 
#
# Total GULP energy -178694.063357 kJ/mol
# GULP energy per Si atom -5584.189480 kJ/mol
# Density = 2.138542 g / cm^3
# Si number density = 21.434201 Si / 1000 Ang^3
#
#
#
# Elastic Constant Matrix: (Units=GPa)
#
#
# Indices 1 2 3 4 5 6 
#
# 1 89.8244 22.5317 36.2676 0.0000 0.0000 0.0000
# 2 22.5317 61.9257 32.3541 0.0000 0.0000 0.0000
# 3 36.2676 32.3541 103.3867 0.0000 0.0000 0.0000
# 4 0.0000 0.0000 0.0000 -33.9704 0.0000 0.0000
# 5 0.0000 0.0000 0.0000 0.0000 24.2856 0.0000
# 6 0.0000 0.0000 0.0000 0.0000 0.0000 29.3635
#
#
#
# Elastic Compliance Matrix: (Units=1/GPa)
#
#
# Indices 1 2 3 4 5 6 
#
# 1 0.013389 -0.002890 -0.003792 0.000000 0.000000 0.000000
# 2 -0.002890 0.019929 -0.005223 0.000000 0.000000 0.000000
# 3 -0.003792 -0.005223 0.012637 0.000000 0.000000 0.000000
# 4 0.000000 0.000000 0.000000 -0.029437 0.000000 0.000000
# 5 0.000000 0.000000 0.000000 0.000000 0.041177 0.000000
# 6 0.000000 0.000000 0.000000 0.000000 0.000000 0.034056
#
#
# Mechanical properties :
#
#
# Convention : Reuss Voigt Hill
#
# Bulk Modulus (GPa) = 45.15817 48.60486 46.88152
# Shear Modulus (GPa) = 40.66964 14.86798 27.76881
#
# Velocity S-wave (km/s) = 4.36066 2.63659 3.60326
# Velocity P-wave (km/s) = 6.81673 5.65636 6.26347
#
# Compressibility (1/GPa) = 0.02214438
#
# Stress axis : x y z
#
# Youngs Moduli (GPa) = 74.68804 50.17899 79.13172
#
# Poissons Ratio (x) = 0.14503 0.30009
# Poissons Ratio (y) = 0.21587 0.41328
# Poissons Ratio (z) = 0.28324 0.26207
#
# Static dielectric constant tensor:
#      x y z
#    x 1.820340 0.000000 0.000000 
#    y 0.000000 1.895380 0.000000 
#    z 0.000000 0.000000 1.759380 
# 
# From -- ./inp_files/2776.got.cif
#   From: 2010.05.17/outbox.cif.g08.bks.cpg/sg27_2_cif.got.tgz:2776.got - 2010.06.04 01:11:05.
