data_PCOD9339060
_publ_section_title
;
Structure prediction by ZEFSAII (Michael W. Deem and Ramdas Pophale) SiO2 
 PCOD9339060
Probable space group: P C C 2
;
_chemical_formula_sum "Si O2"
_cell_formula_units_Z 20
_cell_length_a 9.266487
_cell_length_b 10.950458
_cell_length_c 9.031857
_cell_angle_alpha 90.000000
_cell_angle_beta 90.000000
_cell_angle_gamma 90.000000
_cell_volume 916.483093
_symmetry_space_group_name_H-M "P C C 2"
_symmetry_group_IT_number 27
_symmetry_cell_setting 'orthorhombic'
loop_
_space_group_symop_operation_xyz
x,y,z
-x,-y,z
-x,y,1/2+z
x,-y,1/2+z
loop_
_atom_site_type_symbol
_atom_site_label
_atom_site_fract_x
_atom_site_fract_y
_atom_site_fract_z
Si Si1 0.336649 0.986419 0.122540
Si Si2 0.116778 0.207670 0.513109
Si Si3 0.177718 0.764322 0.678244
Si Si4 0.417197 0.627292 0.529657
Si Si5 0.653186 0.260042 0.220550
O O1 0.344280 0.884744 0.255230
O O2 0.500000 0.000000 0.063805
O O3 0.279171 0.116428 0.172309
O O4 0.213021 0.917312 0.024709
O O5 0.126513 0.253029 0.346084
O O6 0.199485 0.290164 0.635140
O O7 0.954382 0.202590 0.570095
O O8 0.271083 0.649657 0.621375
O O9 0.500000 0.500000 0.542595
O O10 0.382047 0.660295 0.361352
O O11 0.531852 0.721680 0.596839
#
# Coordination Sequence:
#
# PCOD9339060 Si02
#       5
#     4   4   4   4   4
#     4  10  23  39  70 104 149 187 238 296 371 435
#     4  10  25  40  69 107 146 194 230 299 374 442
#     4  12  23  44  68 106 151 188 246 294 371 447
#     4  12  25  45  72  99 138 190 245 311 355 437
#     4  10  24  42  66 102 138 179 246 288 376 425
#
# _framework density 21.822552000000002
#
# number of rings (size 3 to 8) (size 9 to 14) (size 15 to 20)
#    1.200    0.000    2.000    3.600    2.800    2.400 
#    0.000    2.000    0.000    4.800    0.000    0.000 
#    0.000    0.000    0.000    0.000    0.000    0.000 
#
# Total GULP energy -111542.468599 kJ/mol
# GULP energy per Si atom -5577.123430 kJ/mol
# Density = 2.177288 g / cm^3
# Si number density = 21.822552 Si / 1000 Ang^3
#
#
#
# Elastic Constant Matrix: (Units=GPa)
#
#
# Indices 1 2 3 4 5 6 
#
# 1 143.6539 61.0511 39.6254 0.0000 0.0000 0.0000
# 2 61.0511 99.8356 58.9931 0.0000 0.0000 0.0000
# 3 39.6254 58.9931 108.1817 0.0000 0.0000 0.0000
# 4 0.0000 0.0000 0.0000 18.4191 0.0000 0.0000
# 5 0.0000 0.0000 0.0000 0.0000 36.4998 0.0000
# 6 0.0000 0.0000 0.0000 0.0000 0.0000 27.0306
#
#
#
# Elastic Compliance Matrix: (Units=1/GPa)
#
#
# Indices 1 2 3 4 5 6 
#
# 1 0.009421 -0.005491 -0.000456 0.000000 0.000000 0.000000
# 2 -0.005491 0.017980 -0.007793 0.000000 0.000000 0.000000
# 3 -0.000456 -0.007793 0.013660 0.000000 0.000000 0.000000
# 4 0.000000 0.000000 0.000000 0.054291 0.000000 0.000000
# 5 0.000000 0.000000 0.000000 0.000000 0.027397 0.000000
# 6 0.000000 0.000000 0.000000 0.000000 0.000000 0.036995
#
#
# Mechanical properties :
#
#
# Convention : Reuss Voigt Hill
#
# Bulk Modulus (GPa) = 73.64048 74.55670 74.09859
# Shear Modulus (GPa) = 26.07527 29.19000 27.63263
#
# Velocity S-wave (km/s) = 3.46045 3.66130 3.56229
# Velocity P-wave (km/s) = 7.05582 7.21891 7.13783
#
# Compressibility (1/GPa) = 0.01357949
#
# Stress axis : x y z
#
# Youngs Moduli (GPa) = 106.14831 55.61886 73.20398
#
# Poissons Ratio (x) = 0.30543 0.03339
# Poissons Ratio (y) = 0.58291 0.57048
# Poissons Ratio (z) = 0.04842 0.43344
#
# Static dielectric constant tensor:
#      x y z
#    x 1.816590 0.000000 0.000000 
#    y 0.000000 1.847230 0.000000 
#    z 0.000000 0.000000 1.796280 
# 
# From -- ./inp_files/1046.got.cif
#   From: 2010.05.17/outbox.cif.g08.bks.cpg/sg27_1_cif.got.tgz:1046.got - 2010.06.04 01:11:05.
