data_PCOD9339569
_publ_section_title
;
Structure prediction by ZEFSAII (Michael W. Deem and Ramdas Pophale) SiO2 
 PCOD9339569
Probable space group: P M A 2
;
_chemical_formula_sum "Si O2"
_cell_formula_units_Z 24
_cell_length_a 22.215974
_cell_length_b 5.254053
_cell_length_c 9.076698
_cell_angle_alpha 90.000000
_cell_angle_beta 90.000000
_cell_angle_gamma 90.000000
_cell_volume 1059.467634
_symmetry_space_group_name_H-M "P M A 2"
_symmetry_group_IT_number 28
_symmetry_cell_setting 'orthorhombic'
loop_
_space_group_symop_operation_xyz
x,y,z
-x,-y,z
1/2-x,y,z
1/2+x,-y,z
loop_
_atom_site_type_symbol
_atom_site_label
_atom_site_fract_x
_atom_site_fract_y
_atom_site_fract_z
Si Si1 0.361760 0.013183 0.103070
Si Si2 0.817414 0.504074 0.954113
Si Si3 0.062635 0.957860 0.550404
Si Si4 0.356142 0.321428 0.374503
Si Si5 0.684819 0.330431 0.624680
Si Si6 0.947995 0.313891 0.246608
O O1 0.428975 0.921112 0.145334
O O2 0.334175 0.099505 0.263469
O O3 0.331866 0.774141 0.020931
O O4 0.358547 0.260306 0.001256
O O5 0.750000 0.574450 0.004489
O O6 0.817741 0.477362 0.778540
O O7 0.122614 0.829028 0.617529
O O8 0.041333 0.787037 0.411367
O O9 0.091072 0.208127 0.476857
O O10 0.000000 0.000000 0.637663
O O11 0.315555 0.477077 0.486449
O O12 0.387265 0.522838 0.266396
O O13 0.750000 0.188805 0.621910
O O14 0.000000 0.500000 0.195556
#
# Coordination Sequence:
#
# PCOD9339569 Si02
#       6
#     4   4   4   4   4   4
#     4  11  23  43  69 102 133 185 237 293 349 433
#     4  11  25  46  68  94 142 195 235 286 370 437
#     4  10  20  37  71 104 140 185 238 295 364 437
#     4  10  21  41  68 101 137 174 239 294 358 423
#     4  10  25  43  67 102 144 191 243 305 368 439
#     4  10  19  38  69 100 135 176 231 289 361 420
#
# _framework density 22.652888000000001
#
# number of rings (size 3 to 8) (size 9 to 14) (size 15 to 20)
#    0.000    1.667    3.333    0.500    2.333    2.000 
#    0.000    2.500    7.333    0.000    0.000    0.000 
#    0.000    0.000    0.000    0.000    0.000    0.000 
#
# Total GULP energy -133823.565054 kJ/mol
# GULP energy per Si atom -5575.981877 kJ/mol
# Density = 2.260133 g / cm^3
# Si number density = 22.652888 Si / 1000 Ang^3
#
#
#
# Elastic Constant Matrix: (Units=GPa)
#
#
# Indices 1 2 3 4 5 6 
#
# 1 140.8467 44.2285 44.1336 0.0000 0.0000 0.0000
# 2 44.2285 116.4993 38.1137 0.0000 0.0000 0.0000
# 3 44.1336 38.1137 76.8975 0.0000 0.0000 0.0000
# 4 0.0000 0.0000 0.0000 7.5995 0.0000 0.0000
# 5 0.0000 0.0000 0.0000 0.0000 13.8972 0.0000
# 6 0.0000 0.0000 0.0000 0.0000 0.0000 36.1039
#
#
#
# Elastic Compliance Matrix: (Units=1/GPa)
#
#
# Indices 1 2 3 4 5 6 
#
# 1 0.009058 -0.002074 -0.004171 0.000000 0.000000 0.000000
# 2 -0.002074 0.010720 -0.004123 0.000000 0.000000 0.000000
# 3 -0.004171 -0.004123 0.017441 0.000000 0.000000 0.000000
# 4 0.000000 0.000000 0.000000 0.131587 0.000000 0.000000
# 5 0.000000 0.000000 0.000000 0.000000 0.071957 0.000000
# 6 0.000000 0.000000 0.000000 0.000000 0.000000 0.027698
#
#
# Mechanical properties :
#
#
# Convention : Reuss Voigt Hill
#
# Bulk Modulus (GPa) = 60.66459 65.24390 62.95424
# Shear Modulus (GPa) = 16.96688 25.37131 21.16910
#
# Velocity S-wave (km/s) = 2.73974 3.35028 3.06027
# Velocity P-wave (km/s) = 6.07013 6.62042 6.35124
#
# Compressibility (1/GPa) = 0.01648408
#
# Stress axis : x y z
#
# Youngs Moduli (GPa) = 110.39781 93.28270 57.33511
#
# Poissons Ratio (x) = 0.19351 0.23912
# Poissons Ratio (y) = 0.22902 0.23638
# Poissons Ratio (z) = 0.46042 0.38458
#
# Static dielectric constant tensor:
#      x y z
#    x 1.873500 0.000000 0.000000 
#    y 0.000000 1.914160 0.000000 
#    z 0.000000 0.000000 1.843420 
# 
# From -- ./inp_files/4145.got.cif
#   From: 2010.05.17/outbox.cif.g08.bks.cpg/sg28_3_cif.got.tgz:4145.got - 2010.06.04 01:15:21.
