data_PCOD9339782
_publ_section_title
;
Structure prediction by ZEFSAII (Michael W. Deem and Ramdas Pophale) SiO2 
 PCOD9339782
Probable space group: P M A 2
;
_chemical_formula_sum "Si O2"
_cell_formula_units_Z 20
_cell_length_a 14.053274
_cell_length_b 11.414781
_cell_length_c 6.103286
_cell_angle_alpha 90.000000
_cell_angle_beta 90.000000
_cell_angle_gamma 90.000000
_cell_volume 979.058899
_symmetry_space_group_name_H-M "P M A 2"
_symmetry_group_IT_number 28
_symmetry_cell_setting 'orthorhombic'
loop_
_space_group_symop_operation_xyz
x,y,z
-x,-y,z
1/2-x,y,z
1/2+x,-y,z
loop_
_atom_site_type_symbol
_atom_site_label
_atom_site_fract_x
_atom_site_fract_y
_atom_site_fract_z
Si Si1 0.017150 0.363448 0.010770
Si Si2 0.636765 0.813041 0.756967
Si Si3 0.355969 0.754584 0.747950
Si Si4 0.491791 0.816293 0.374555
Si Si5 0.858384 0.030489 0.063945
O O1 0.000000 0.500000 0.044562
O O2 0.034302 0.287992 0.228301
O O3 0.095355 0.312623 0.838133
O O4 0.917071 0.320087 0.914623
O O5 0.750000 0.811450 0.713885
O O6 0.573801 0.854391 0.547737
O O7 0.619308 0.904213 0.958386
O O8 0.250000 0.711327 0.726711
O O9 0.409293 0.759637 0.520797
O O10 0.356207 0.883870 0.853866
O O11 0.433833 0.911819 0.229962
O O12 0.750000 0.028252 0.156338
#
# Coordination Sequence:
#
# PCOD9339782 Si02
#       5
#     4   4   4   4   4
#     4  10  23  40  57  83 120 161 207 255 303 357
#     4  10  23  41  62  91 126 162 203 253 308 366
#     4   9  19  36  60  89 117 148 193 249 306 364
#     4  10  21  37  63  89 119 160 202 245 302 367
#     4   9  19  37  61  92 124 152 190 245 309 374
#
# _framework density 20.427779999999998
#
# number of rings (size 3 to 8) (size 9 to 14) (size 15 to 20)
#    0.000    2.400    0.000    0.600    0.000   16.000 
#    0.000    4.000    0.000    6.000    0.000    0.000 
#    0.000    0.000    0.000    0.000    0.000    0.000 
#
# Total GULP energy -111554.865372 kJ/mol
# GULP energy per Si atom -5577.743269 kJ/mol
# Density = 2.038129 g / cm^3
# Si number density = 20.427780 Si / 1000 Ang^3
#
#
#
# Elastic Constant Matrix: (Units=GPa)
#
#
# Indices 1 2 3 4 5 6 
#
# 1 136.7031 35.0469 37.4128 0.0000 0.0000 0.0000
# 2 35.0469 121.2607 30.2395 0.0000 0.0000 0.0000
# 3 37.4128 30.2395 75.7924 0.0000 0.0000 0.0000
# 4 0.0000 0.0000 0.0000 10.6178 0.0000 0.0000
# 5 0.0000 0.0000 0.0000 0.0000 25.6958 0.0000
# 6 0.0000 0.0000 0.0000 0.0000 0.0000 9.8720
#
#
#
# Elastic Compliance Matrix: (Units=1/GPa)
#
#
# Indices 1 2 3 4 5 6 
#
# 1 0.008731 -0.001609 -0.003668 0.000000 0.000000 0.000000
# 2 -0.001609 0.009454 -0.002978 0.000000 0.000000 0.000000
# 3 -0.003668 -0.002978 0.016193 0.000000 0.000000 0.000000
# 4 0.000000 0.000000 0.000000 0.094181 0.000000 0.000000
# 5 0.000000 0.000000 0.000000 0.000000 0.038917 0.000000
# 6 0.000000 0.000000 0.000000 0.000000 0.000000 0.101297
#
#
# Mechanical properties :
#
#
# Convention : Reuss Voigt Hill
#
# Bulk Modulus (GPa) = 55.96371 59.90607 57.93489
# Shear Modulus (GPa) = 17.16800 24.64092 20.90446
#
# Velocity S-wave (km/s) = 2.90215 3.47687 3.20243
# Velocity P-wave (km/s) = 6.21975 6.74593 6.48818
#
# Compressibility (1/GPa) = 0.01786872
#
# Stress axis : x y z
#
# Youngs Moduli (GPa) = 114.52809 105.77204 61.75614
#
# Poissons Ratio (x) = 0.17017 0.22653
# Poissons Ratio (y) = 0.18426 0.18390
# Poissons Ratio (z) = 0.42011 0.31498
#
# Static dielectric constant tensor:
#      x y z
#    x 1.747440 0.000000 0.000000 
#    y 0.000000 1.758830 0.000000 
#    z 0.000000 0.000000 1.748460 
# 
# From -- ./inp_files/661.got.cif
#   From: 2010.05.17/outbox.cif.g08.bks.cpg/sg28_1_cif.got.tgz:661.got - 2010.06.04 01:15:21.
