data_PCOD9339708
_publ_section_title
;
Structure prediction by ZEFSAII (Michael W. Deem and Ramdas Pophale) SiO2 
 PCOD9339708
Probable space group: P M A 2
;
_chemical_formula_sum "Si O2"
_cell_formula_units_Z 28
_cell_length_a 8.644831
_cell_length_b 9.315034
_cell_length_c 18.359999
_cell_angle_alpha 90.000000
_cell_angle_beta 90.000000
_cell_angle_gamma 90.000000
_cell_volume 1478.473706
_symmetry_space_group_name_H-M "P M A 2"
_symmetry_group_IT_number 28
_symmetry_cell_setting 'orthorhombic'
loop_
_space_group_symop_operation_xyz
x,y,z
-x,-y,z
1/2-x,y,z
1/2+x,-y,z
loop_
_atom_site_type_symbol
_atom_site_label
_atom_site_fract_x
_atom_site_fract_y
_atom_site_fract_z
Si Si1 0.564323 0.659604 0.935410
Si Si2 0.064098 0.840663 0.067506
Si Si3 0.063222 0.160697 0.793224
Si Si4 0.063812 0.841840 0.233787
Si Si5 0.436066 0.160856 0.507574
Si Si6 0.063965 0.659911 0.372165
Si Si7 0.563402 0.660865 0.651204
O O1 0.500000 0.500000 0.926268
O O2 0.750000 0.655288 0.937164
O O3 0.515612 0.758347 0.867107
O O4 0.502241 0.730351 0.009310
O O5 0.250000 0.842835 0.063361
O O6 0.017459 0.805187 0.150899
O O7 0.000000 0.000000 0.051620
O O8 0.250000 0.154563 0.792246
O O9 0.012445 0.252715 0.723100
O O10 0.000000 0.000000 0.790561
O O11 0.250000 0.849309 0.235058
O O12 0.014696 0.728970 0.294927
O O13 0.000000 0.000000 0.250955
O O14 0.250000 0.156820 0.504132
O O15 0.501132 0.240333 0.436649
O O16 0.482513 0.251508 0.579060
O O17 0.500000 0.000000 0.512096
O O18 0.250000 0.657183 0.375032
O O19 0.000000 0.500000 0.380271
O O20 0.500000 0.500000 0.650308
O O21 0.750000 0.653968 0.652343
#
# Coordination Sequence:
#
# PCOD9339708 Si02
#       7
#     4   4   4   4   4   4   4
#     4  11  23  38  57  83 114 149 189 233 284 337
#     4  10  20  37  59  84 114 148 188 232 280 334
#     4  10  22  39  59  84 113 147 188 231 277 331
#     4   9  20  37  58  83 111 146 187 231 279 334
#     4  11  23  39  60  86 115 149 190 233 280 334
#     4  11  23  39  58  83 115 150 189 233 283 335
#     4  10  22  39  59  85 116 149 186 229 278 331
#
# _framework density 18.938448999999999
#
# number of rings (size 3 to 8) (size 9 to 14) (size 15 to 20)
#    0.000    1.714    0.000    3.857    0.000    8.571 
#    0.000    1.429    0.000    0.000    0.000    0.000 
#    0.000    0.000    0.000    0.000    0.000    0.000 
#
# Total GULP energy -156516.735982 kJ/mol
# GULP energy per Si atom -5589.883428 kJ/mol
# Density = 1.889534 g / cm^3
# Si number density = 18.938449 Si / 1000 Ang^3
#
#
#
# Elastic Constant Matrix: (Units=GPa)
#
#
# Indices 1 2 3 4 5 6 
#
# 1 38.2128 41.3759 39.6961 0.0000 0.0000 0.0000
# 2 41.3759 195.7412 112.4718 0.0000 0.0000 0.0000
# 3 39.6961 112.4718 140.5604 0.0000 0.0000 0.0000
# 4 0.0000 0.0000 0.0000 915.2046 0.0000 0.0000
# 5 0.0000 0.0000 0.0000 0.0000 -19.4296 0.0000
# 6 0.0000 0.0000 0.0000 0.0000 0.0000 40.4577
#
#
#
# Elastic Compliance Matrix: (Units=1/GPa)
#
#
# Indices 1 2 3 4 5 6 
#
# 1 0.038273 -0.003479 -0.008025 0.000000 0.000000 0.000000
# 2 -0.003479 0.009773 -0.006837 0.000000 0.000000 0.000000
# 3 -0.008025 -0.006837 0.014852 0.000000 0.000000 0.000000
# 4 0.000000 0.000000 0.000000 0.001093 0.000000 0.000000
# 5 0.000000 0.000000 0.000000 0.000000 -0.051468 0.000000
# 6 0.000000 0.000000 0.000000 0.000000 0.000000 0.024717
#
#
# Mechanical properties :
#
#
# Convention : Reuss Voigt Hill
#
# Bulk Modulus (GPa) = 38.14663 84.62244 61.38453
# Shear Modulus (GPa) = 60.48834 199.31124 129.89979
#
# Velocity S-wave (km/s) = 5.65763 10.26986 8.29092
# Velocity P-wave (km/s) = 7.92871 13.61641 11.14161
#
# Compressibility (1/GPa) = 0.02621464
#
# Stress axis : x y z
#
# Youngs Moduli (GPa) = 26.12834 102.32300 67.33172
#
# Poissons Ratio (x) = 0.35599 0.54033
# Poissons Ratio (y) = 0.09090 0.46038
# Poissons Ratio (z) = 0.20968 0.69963
#
# Static dielectric constant tensor:
#      x y z
#    x 1.643690 0.000000 0.000000 
#    y 0.000000 1.537620 0.000000 
#    z 0.000000 0.000000 1.655890 
# 
# From -- ./inp_files/6824.got.cif
#   From: 2010.05.17/outbox.cif.g08.bks.cpg/sg28_4_cif.got.tgz:6824.got - 2010.06.04 01:15:21.
