data_PCOD9339846
_publ_section_title
;
Structure prediction by ZEFSAII (Michael W. Deem and Ramdas Pophale) SiO2 
 PCOD9339846
Probable space group: P M A 2
;
_chemical_formula_sum "Si O2"
_cell_formula_units_Z 32
_cell_length_a 18.161008
_cell_length_b 14.627415
_cell_length_c 5.268025
_cell_angle_alpha 90.000000
_cell_angle_beta 90.000000
_cell_angle_gamma 90.000000
_cell_volume 1399.443470
_symmetry_space_group_name_H-M "P M A 2"
_symmetry_group_IT_number 28
_symmetry_cell_setting 'orthorhombic'
loop_
_space_group_symop_operation_xyz
x,y,z
-x,-y,z
1/2-x,y,z
1/2+x,-y,z
loop_
_atom_site_type_symbol
_atom_site_label
_atom_site_fract_x
_atom_site_fract_y
_atom_site_fract_z
Si Si1 0.440348 0.852988 0.032640
Si Si2 0.556391 0.940106 0.650662
Si Si3 0.099137 0.677288 0.799340
Si Si4 0.376484 0.391756 0.168476
Si Si5 0.908054 0.808176 0.263953
Si Si6 0.662620 0.993217 0.035721
Si Si7 0.542661 0.592760 0.667396
Si Si8 0.667644 0.410837 0.290834
O O1 0.390595 0.782683 0.870769
O O2 0.504199 0.801122 0.193775
O O3 0.382012 0.922176 0.159745
O O4 0.495157 0.911142 0.856399
O O5 0.586791 0.843908 0.549600
O O6 0.500000 0.000000 0.473710
O O7 0.628604 0.991728 0.750738
O O8 0.119358 0.622562 0.054245
O O9 0.137795 0.629518 0.557154
O O10 0.012741 0.671623 0.743012
O O11 0.362697 0.284092 0.214492
O O12 0.443858 0.403922 0.367914
O O13 0.330490 0.478513 0.269333
O O14 0.390958 0.403121 0.868466
O O15 0.867852 0.895973 0.138053
O O16 0.750000 0.999975 0.051198
O O17 0.500000 0.500000 0.725087
O O18 0.750000 0.375554 0.254752
#
# Coordination Sequence:
#
# PCOD9339846 Si02
#       8
#     4   4   4   4   4   4   4   4
#     4  10  22  39  69  98 127 168 223 288 341 396
#     4   9  19  39  64  93 127 163 212 280 337 387
#     4  12  24  42  71  97 131 171 221 282 334 392
#     4  12  24  39  68  97 133 172 219 279 342 392
#     4  11  22  38  68  97 128 167 223 290 336 397
#     4  10  23  42  61  92 135 176 219 268 342 423
#     4  12  21  39  66 103 129 160 218 287 338 382
#     4  12  27  45  61  92 138 185 222 263 329 412
#
# _framework density 22.866233999999999
#
# number of rings (size 3 to 8) (size 9 to 14) (size 15 to 20)
#    0.000    1.000    3.750    4.125    3.500    2.000 
#    0.000    0.000    0.000    0.000    0.000    0.000 
#    0.000    0.000    0.000    0.000    0.000    0.000 
#
# Total GULP energy -178151.172682 kJ/mol
# GULP energy per Si atom -5567.224146 kJ/mol
# Density = 2.281419 g / cm^3
# Si number density = 22.866234 Si / 1000 Ang^3
#
#
#
# Elastic Constant Matrix: (Units=GPa)
#
#
# Indices 1 2 3 4 5 6 
#
# 1 108.7765 25.0961 26.8637 0.0000 0.0000 0.0000
# 2 25.0961 129.8544 18.7307 0.0000 0.0000 0.0000
# 3 26.8637 18.7307 75.2183 0.0000 0.0000 0.0000
# 4 0.0000 0.0000 0.0000 28.0211 0.0000 0.0000
# 5 0.0000 0.0000 0.0000 0.0000 4.5336 0.0000
# 6 0.0000 0.0000 0.0000 0.0000 0.0000 3.0384
#
#
#
# Elastic Compliance Matrix: (Units=1/GPa)
#
#
# Indices 1 2 3 4 5 6 
#
# 1 0.010365 -0.001524 -0.003322 0.000000 0.000000 0.000000
# 2 -0.001524 0.008212 -0.001501 0.000000 0.000000 0.000000
# 3 -0.003322 -0.001501 0.014855 0.000000 0.000000 0.000000
# 4 0.000000 0.000000 0.000000 0.035687 0.000000 0.000000
# 5 0.000000 0.000000 0.000000 0.000000 0.220577 0.000000
# 6 0.000000 0.000000 0.000000 0.000000 0.000000 0.329118
#
#
# Mechanical properties :
#
#
# Convention : Reuss Voigt Hill
#
# Bulk Modulus (GPa) = 48.22053 50.58115 49.40084
# Shear Modulus (GPa) = 7.83182 23.32919 15.58050
#
# Velocity S-wave (km/s) = 1.85270 3.19759 2.61315
# Velocity P-wave (km/s) = 5.07056 5.98342 5.54580
#
# Compressibility (1/GPa) = 0.02073805
#
# Stress axis : x y z
#
# Youngs Moduli (GPa) = 96.47603 121.77416 67.31792
#
# Poissons Ratio (x) = 0.18558 0.22366
# Poissons Ratio (y) = 0.14703 0.10102
# Poissons Ratio (z) = 0.32053 0.18274
#
# Static dielectric constant tensor:
#      x y z
#    x 1.863020 0.000000 0.000000 
#    y 0.000000 2.053060 0.000000 
#    z 0.000000 0.000000 2.010400 
# 
# From -- ./inp_files/1207.got.cif
#   From: 2010.05.17/outbox.cif.g08.bks.cpg/sg28_1_cif.got.tgz:1207.got - 2010.06.04 01:15:21.
