data_PCOD9339905
_publ_section_title
;
Structure prediction by ZEFSAII (Michael W. Deem and Ramdas Pophale) SiO2 
 PCOD9339905
Probable space group: P M A 2
;
_chemical_formula_sum "Si O2"
_cell_formula_units_Z 12
_cell_length_a 9.415006
_cell_length_b 9.109825
_cell_length_c 4.746555
_cell_angle_alpha 90.000000
_cell_angle_beta 90.000000
_cell_angle_gamma 90.000000
_cell_volume 407.107547
_symmetry_space_group_name_H-M "P M A 2"
_symmetry_group_IT_number 28
_symmetry_cell_setting 'orthorhombic'
loop_
_space_group_symop_operation_xyz
x,y,z
-x,-y,z
1/2-x,y,z
1/2+x,-y,z
loop_
_atom_site_type_symbol
_atom_site_label
_atom_site_fract_x
_atom_site_fract_y
_atom_site_fract_z
Si Si1 0.250000 0.936533 0.854210
Si Si2 0.250000 0.451529 0.687979
Si Si3 0.000000 0.000000 0.488489
Si Si4 0.500000 0.500000 0.049703
Si Si5 0.750000 0.309218 0.311284
Si Si6 0.250000 0.174849 0.418424
O O1 0.104156 0.901400 0.682335
O O2 0.250000 0.846785 0.146618
O O3 0.250000 0.110782 0.746511
O O4 0.392358 0.413543 0.849291
O O5 0.250000 0.347175 0.416921
O O6 0.250000 0.626188 0.631419
O O7 0.894359 0.898421 0.309145
O O8 0.604425 0.390864 0.214130
#
# Coordination Sequence:
#
# PCOD9339905 Si02
#       6
#     2   2   2   2   2   2
#     4   8  15  30  55  92 119 164 209 274 326 389
#     4  11  21  38  64  97 131 180 225 273 343 412
#     4   6  14  26  52  88 122 170 192 272 334 384
#     4  10  24  38  58  92 136 184 210 296 320 410
#     4  11  21  38  64  97 131 180 225 273 343 412
#     4   8  15  30  55  92 119 164 209 274 326 389
#
# _framework density 29.476237999999999
#
# number of rings (size 3 to 8) (size 9 to 14) (size 15 to 20)
#    2.000    0.667    0.000    3.000    0.000    0.000 
#    0.000    0.000    0.000    8.000    0.000    0.000 
#    0.000    0.000    0.000    0.000    0.000    0.000 
#
# Total GULP energy -66960.295548 kJ/mol
# GULP energy per Si atom -5580.024629 kJ/mol
# Density = 2.940915 g / cm^3
# Si number density = 29.476238 Si / 1000 Ang^3
#
#
#
# Elastic Constant Matrix: (Units=GPa)
#
#
# Indices 1 2 3 4 5 6 
#
# 1 214.2362 40.8187 23.4739 0.0000 0.0000 0.0000
# 2 40.8187 150.3841 15.4384 0.0000 0.0000 0.0000
# 3 23.4739 15.4384 96.4832 0.0000 0.0000 0.0000
# 4 0.0000 0.0000 0.0000 41.0254 0.0000 0.0000
# 5 0.0000 0.0000 0.0000 0.0000 28.6719 0.0000
# 6 0.0000 0.0000 0.0000 0.0000 0.0000 42.4999
#
#
#
# Elastic Compliance Matrix: (Units=1/GPa)
#
#
# Indices 1 2 3 4 5 6 
#
# 1 0.005019 -0.001258 -0.001020 0.000000 0.000000 0.000000
# 2 -0.001258 0.007076 -0.000826 0.000000 0.000000 0.000000
# 3 -0.001020 -0.000826 0.010745 0.000000 0.000000 0.000000
# 4 0.000000 0.000000 0.000000 0.024375 0.000000 0.000000
# 5 0.000000 0.000000 0.000000 0.000000 0.034877 0.000000
# 6 0.000000 0.000000 0.000000 0.000000 0.000000 0.023529
#
#
# Mechanical properties :
#
#
# Convention : Reuss Voigt Hill
#
# Bulk Modulus (GPa) = 60.12413 68.95172 64.53792
# Shear Modulus (GPa) = 42.59912 47.86427 45.23170
#
# Velocity S-wave (km/s) = 3.80571 4.03404 3.92154
# Velocity P-wave (km/s) = 6.30500 6.71871 6.51514
#
# Compressibility (1/GPa) = 0.01663226
#
# Stress axis : x y z
#
# Youngs Moduli (GPa) = 199.23836 141.32645 93.06789
#
# Poissons Ratio (x) = 0.17774 0.09492
# Poissons Ratio (y) = 0.25057 0.07690
# Poissons Ratio (z) = 0.20320 0.11677
#
# Static dielectric constant tensor:
#      x y z
#    x 2.190580 0.000000 0.000000 
#    y 0.000000 2.287050 0.000000 
#    z 0.000000 0.000000 2.324730 
# 
# From -- ./inp_files/134.got.cif
#   From: 2010.05.17/outbox.cif.g08.bks.cpg/sg28_1_cif.got.tgz:134.got - 2010.06.04 01:15:21.
