data_PCOD9339355
_publ_section_title
;
Structure prediction by ZEFSAII (Michael W. Deem and Ramdas Pophale) SiO2 
 PCOD9339355
Probable space group: P M A 2
;
_chemical_formula_sum "Si O2"
_cell_formula_units_Z 32
_cell_length_a 8.470642
_cell_length_b 15.929704
_cell_length_c 12.220436
_cell_angle_alpha 90.000000
_cell_angle_beta 90.000000
_cell_angle_gamma 90.000000
_cell_volume 1648.962329
_symmetry_space_group_name_H-M "P M A 2"
_symmetry_group_IT_number 28
_symmetry_cell_setting 'orthorhombic'
loop_
_space_group_symop_operation_xyz
x,y,z
-x,-y,z
1/2-x,y,z
1/2+x,-y,z
loop_
_atom_site_type_symbol
_atom_site_label
_atom_site_fract_x
_atom_site_fract_y
_atom_site_fract_z
Si Si1 0.939115 0.090655 0.190990
Si Si2 0.557912 0.153879 0.955528
Si Si3 0.940862 0.349951 0.957719
Si Si4 0.439270 0.248579 0.327523
Si Si5 0.559353 0.091030 0.719178
Si Si6 0.941248 0.250249 0.574483
Si Si7 0.561558 0.590016 0.189328
Si Si8 0.059566 0.590638 0.718885
O O1 0.750000 0.090462 0.190738
O O2 0.997126 0.166156 0.266830
O O3 0.995742 0.109217 0.066608
O O4 0.000000 0.000000 0.226980
O O5 0.750000 0.152175 0.954647
O O6 0.512230 0.251820 0.957904
O O7 0.504023 0.111236 0.843054
O O8 0.750000 0.353182 0.961861
O O9 0.993058 0.391049 0.843589
O O10 0.006732 0.394186 0.065056
O O11 0.250000 0.247146 0.323649
O O12 0.495356 0.250869 0.452112
O O13 0.495299 0.331674 0.262460
O O14 0.750000 0.090652 0.720285
O O15 0.508845 0.166800 0.640254
O O16 0.500000 0.000000 0.684444
O O17 0.750000 0.250263 0.571770
O O18 0.992072 0.332777 0.641741
O O19 0.500000 0.500000 0.227957
O O20 0.750000 0.589011 0.192021
O O21 0.250000 0.590640 0.719314
O O22 0.000000 0.500000 0.682655
#
# Coordination Sequence:
#
# PCOD9339355 Si02
#       8
#     4   4   4   4   4   4   4   4
#     4  11  22  38  63  91 121 158 195 238 292 352
#     4   9  17  33  60  89 119 155 190 229 287 351
#     4  10  18  35  62  89 120 156 192 234 290 355
#     4  11  25  43  61  85 117 152 200 254 296 343
#     4  10  20  37  60  88 119 152 191 234 284 344
#     4  10  22  41  62  82 112 157 200 238 290 351
#     4  11  24  40  60  88 120 154 194 244 296 353
#     4  10  21  37  60  88 119 153 192 238 290 351
#
# _framework density 19.406141999999999
#
# number of rings (size 3 to 8) (size 9 to 14) (size 15 to 20)
#    0.000    1.750    2.500    1.875    0.000    5.000 
#    0.000    5.000    0.000    0.000    0.000    0.000 
#    0.000    0.000    0.000    0.000    0.000    0.000 
#
# Total GULP energy -178820.265412 kJ/mol
# GULP energy per Si atom -5588.133294 kJ/mol
# Density = 1.936197 g / cm^3
# Si number density = 19.406142 Si / 1000 Ang^3
#
#
#
# Elastic Constant Matrix: (Units=GPa)
#
#
# Indices 1 2 3 4 5 6 
#
# 1 21.9296 32.2997 28.7681 0.0000 0.0000 0.0000
# 2 32.2997 205.7323 93.4799 0.0000 0.0000 0.0000
# 3 28.7681 93.4799 157.1014 0.0000 0.0000 0.0000
# 4 0.0000 0.0000 0.0000 0.4121 0.0000 0.0000
# 5 0.0000 0.0000 0.0000 0.0000 -210.7623 0.0000
# 6 0.0000 0.0000 0.0000 0.0000 0.0000 24.7975
#
#
#
# Elastic Compliance Matrix: (Units=1/GPa)
#
#
# Indices 1 2 3 4 5 6 
#
# 1 0.066110 -0.006686 -0.008127 0.000000 0.000000 0.000000
# 2 -0.006686 0.007338 -0.003142 0.000000 0.000000 0.000000
# 3 -0.008127 -0.003142 0.009723 0.000000 0.000000 0.000000
# 4 0.000000 0.000000 0.000000 2.426791 0.000000 0.000000
# 5 0.000000 0.000000 0.000000 0.000000 -0.004745 0.000000
# 6 0.000000 0.000000 0.000000 0.000000 0.000000 0.040327
#
#
# Mechanical properties :
#
#
# Convention : Reuss Voigt Hill
#
# Bulk Modulus (GPa) = 21.15949 77.09540 49.12744
# Shear Modulus (GPa) = 1.92514 -21.76283 -9.91884
#
# Velocity S-wave (km/s) = 0.99709 -3.35242 -2.26325
# Velocity P-wave (km/s) = 3.50039 4.98283 4.30589
#
# Compressibility (1/GPa) = 0.04726012
#
# Stress axis : x y z
#
# Youngs Moduli (GPa) = 15.12623 136.27565 102.84719
#
# Poissons Ratio (x) = 0.91118 0.83588
# Poissons Ratio (y) = 0.10114 0.32314
# Poissons Ratio (z) = 0.12294 0.42818
#
# Static dielectric constant tensor:
#      x y z
#    x 1.664800 0.000000 0.000000 
#    y 0.000000 1.667700 0.000000 
#    z 0.000000 0.000000 1.655130 
# 
# From -- ./inp_files/4988.got.cif
#   From: 2010.05.17/outbox.cif.g08.bks.cpg/sg28_3_cif.got.tgz:4988.got - 2010.06.04 01:15:21.
