data_PCOD9339493
_publ_section_title
;
Structure prediction by ZEFSAII (Michael W. Deem and Ramdas Pophale) SiO2 
 PCOD9339493
Probable space group: P M A 2
;
_chemical_formula_sum "Si O2"
_cell_formula_units_Z 28
_cell_length_a 8.520061
_cell_length_b 9.606524
_cell_length_c 18.653948
_cell_angle_alpha 90.000000
_cell_angle_beta 90.000000
_cell_angle_gamma 90.000000
_cell_volume 1526.791516
_symmetry_space_group_name_H-M "P M A 2"
_symmetry_group_IT_number 28
_symmetry_cell_setting 'orthorhombic'
loop_
_space_group_symop_operation_xyz
x,y,z
-x,-y,z
1/2-x,y,z
1/2+x,-y,z
loop_
_atom_site_type_symbol
_atom_site_label
_atom_site_fract_x
_atom_site_fract_y
_atom_site_fract_z
Si Si1 0.438419 0.654269 0.833880
Si Si2 0.939018 0.658118 0.416365
Si Si3 0.439917 0.341734 0.572987
Si Si4 0.438272 0.156410 0.707218
Si Si5 0.561787 0.156311 0.128863
Si Si6 0.060745 0.653508 0.998090
Si Si7 0.438909 0.341309 0.259151
O O1 0.500000 0.500000 0.815242
O O2 0.250000 0.653751 0.831098
O O3 0.503635 0.765244 0.778226
O O4 0.488533 0.683385 0.916156
O O5 0.750000 0.657920 0.416258
O O6 0.989432 0.714906 0.494108
O O7 0.988093 0.714503 0.338490
O O8 0.000000 0.500000 0.416608
O O9 0.500000 0.500000 0.581120
O O10 0.250000 0.346588 0.574351
O O11 0.493291 0.245128 0.638106
O O12 0.250000 0.154918 0.706948
O O13 0.500000 0.000000 0.704329
O O14 0.750000 0.154438 0.128874
O O15 0.507548 0.234170 0.056213
O O16 0.504113 0.246005 0.196284
O O17 0.500000 0.000000 0.132158
O O18 0.250000 0.649799 0.998916
O O19 0.000000 0.500000 0.017515
O O20 0.500000 0.500000 0.251875
O O21 0.250000 0.344003 0.255758
#
# Coordination Sequence:
#
# PCOD9339493 Si02
#       7
#     4   4   4   4   4   4   4
#     4  10  20  37  59  83 109 137 173 215 260 310
#     4   8  15  29  50  76 104 133 169 214 260 307
#     4   9  18  33  54  78 104 135 173 216 261 310
#     4  11  23  37  53  76 107 143 180 218 263 313
#     4  11  23  38  54  76 107 142 179 217 262 313
#     4   9  20  37  58  82 106 135 172 214 259 310
#     4  10  19  33  55  81 108 139 176 218 263 311
#
# _framework density 18.339112
#
# number of rings (size 3 to 8) (size 9 to 14) (size 15 to 20)
#    0.000    2.286    0.000    2.571    0.000    6.286 
#    0.000    2.143    0.000    1.714    0.000    0.000 
#    0.000    0.000    0.000    0.000    0.000    0.000 
#
# Total GULP energy -156183.501972 kJ/mol
# GULP energy per Si atom -5577.982213 kJ/mol
# Density = 1.829737 g / cm^3
# Si number density = 18.339112 Si / 1000 Ang^3
#
#
#
# Elastic Constant Matrix: (Units=GPa)
#
#
# Indices 1 2 3 4 5 6 
#
# 1 33.1949 27.4686 34.0736 0.0000 0.0000 0.0000
# 2 27.4686 126.2481 109.6228 0.0000 0.0000 0.0000
# 3 34.0736 109.6228 160.1093 0.0000 0.0000 0.0000
# 4 0.0000 0.0000 0.0000 -24.5683 0.0000 0.0000
# 5 0.0000 0.0000 0.0000 0.0000 21.4223 0.0000
# 6 0.0000 0.0000 0.0000 0.0000 0.0000 30.2090
#
#
#
# Elastic Compliance Matrix: (Units=1/GPa)
#
#
# Indices 1 2 3 4 5 6 
#
# 1 0.039049 -0.003157 -0.006148 0.000000 0.000000 0.000000
# 2 -0.003157 0.019790 -0.012877 0.000000 0.000000 0.000000
# 3 -0.006148 -0.012877 0.016371 0.000000 0.000000 0.000000
# 4 0.000000 0.000000 0.000000 -0.040703 0.000000 0.000000
# 5 0.000000 0.000000 0.000000 0.000000 0.046680 0.000000
# 6 0.000000 0.000000 0.000000 0.000000 0.000000 0.033103
#
#
# Mechanical properties :
#
#
# Convention : Reuss Voigt Hill
#
# Bulk Modulus (GPa) = 32.42220 73.54247 52.98234
# Shear Modulus (GPa) = 29.59680 15.30510 22.45095
#
# Velocity S-wave (km/s) = 4.02165 2.89201 3.50267
# Velocity P-wave (km/s) = 6.26758 7.16520 6.73137
#
# Compressibility (1/GPa) = 0.03084306
#
# Stress axis : x y z
#
# Youngs Moduli (GPa) = 25.60888 50.53178 61.08346
#
# Poissons Ratio (x) = 0.15955 0.37556
# Poissons Ratio (y) = 0.08086 0.78660
# Poissons Ratio (z) = 0.15745 0.65072
#
# Static dielectric constant tensor:
#      x y z
#    x 1.626840 0.000000 0.000000 
#    y 0.000000 1.579930 0.000000 
#    z 0.000000 0.000000 1.675910 
# 
# From -- ./inp_files/6802.got.cif
#   From: 2010.05.17/outbox.cif.g08.bks.cpg/sg28_4_cif.got.tgz:6802.got - 2010.06.04 01:15:21.
