data_PCOD9339696
_publ_section_title
;
Structure prediction by ZEFSAII (Michael W. Deem and Ramdas Pophale) SiO2 
 PCOD9339696
Probable space group: P M A 2
;
_chemical_formula_sum "Si O2"
_cell_formula_units_Z 30
_cell_length_a 19.731980
_cell_length_b 12.016282
_cell_length_c 5.726390
_cell_angle_alpha 90.000000
_cell_angle_beta 90.000000
_cell_angle_gamma 90.000000
_cell_volume 1357.755908
_symmetry_space_group_name_H-M "P M A 2"
_symmetry_group_IT_number 28
_symmetry_cell_setting 'orthorhombic'
loop_
_space_group_symop_operation_xyz
x,y,z
-x,-y,z
1/2-x,y,z
1/2+x,-y,z
loop_
_atom_site_type_symbol
_atom_site_label
_atom_site_fract_x
_atom_site_fract_y
_atom_site_fract_z
Si Si1 0.331377 0.727895 0.272830
Si Si2 0.448093 0.407201 0.774640
Si Si3 0.880109 0.935312 0.633065
Si Si4 0.330472 0.826948 0.769381
Si Si5 0.861963 0.723154 0.396182
Si Si6 0.674859 0.518034 0.107972
Si Si7 0.034668 0.195269 0.012696
Si Si8 0.500000 0.000000 0.294607
O O1 0.250000 0.749126 0.280456
O O2 0.358148 0.771805 0.525601
O O3 0.340955 0.595163 0.246929
O O4 0.354240 0.780584 0.022493
O O5 0.500000 0.500000 0.694787
O O6 0.413386 0.339801 0.567724
O O7 0.386261 0.456680 0.929095
O O8 0.489553 0.313897 0.920530
O O9 0.835068 0.832802 0.531481
O O10 0.931969 0.980718 0.439457
O O11 0.843296 0.040750 0.744501
O O12 0.930984 0.876562 0.811597
O O13 0.250000 0.805892 0.768122
O O14 0.820514 0.623602 0.281088
O O15 0.904671 0.773743 0.185562
O O16 0.750000 0.503972 0.995654
O O17 0.987086 0.110208 0.144327
#
# Coordination Sequence:
#
# PCOD9339696 Si02
#       8
#     4   4   4   4   4   4   4   2
#     4   9  21  40  61  94 132 165 209 267 324 392
#     4  10  22  41  63  92 128 166 213 271 334 397
#     4  10  21  38  62  89 122 163 212 265 319 394
#     4  10  22  40  63  92 129 165 207 264 326 390
#     4   9  21  39  60  87 124 164 211 272 326 393
#     4  10  22  41  66  92 127 172 221 277 333 399
#     4   9  20  40  58  86 126 156 209 266 316 391
#     4  10  20  36  60  86 120 162 198 260 316 376
#
# _framework density 22.095282999999998
#
# number of rings (size 3 to 8) (size 9 to 14) (size 15 to 20)
#    0.000    2.400    0.000    0.400    5.600    4.267 
#    7.200    5.333    0.000    0.000    0.000    0.000 
#    0.000    0.000    0.000    0.000    0.000    0.000 
#
# Total GULP energy -167250.307507 kJ/mol
# GULP energy per Si atom -5575.010250 kJ/mol
# Density = 2.204499 g / cm^3
# Si number density = 22.095283 Si / 1000 Ang^3
#
#
#
# Elastic Constant Matrix: (Units=GPa)
#
#
# Indices 1 2 3 4 5 6 
#
# 1 58.0395 25.1973 16.2639 0.0000 0.0000 0.0000
# 2 25.1973 129.8847 37.0448 0.0000 0.0000 0.0000
# 3 16.2639 37.0448 62.2376 0.0000 0.0000 0.0000
# 4 0.0000 0.0000 0.0000 48.0727 0.0000 0.0000
# 5 0.0000 0.0000 0.0000 0.0000 20.3345 0.0000
# 6 0.0000 0.0000 0.0000 0.0000 0.0000 4.4312
#
#
#
# Elastic Compliance Matrix: (Units=1/GPa)
#
#
# Indices 1 2 3 4 5 6 
#
# 1 0.019396 -0.002791 -0.003407 0.000000 0.000000 0.000000
# 2 -0.002791 0.009675 -0.005029 0.000000 0.000000 0.000000
# 3 -0.003407 -0.005029 0.019951 0.000000 0.000000 0.000000
# 4 0.000000 0.000000 0.000000 0.020802 0.000000 0.000000
# 5 0.000000 0.000000 0.000000 0.000000 0.049177 0.000000
# 6 0.000000 0.000000 0.000000 0.000000 0.000000 0.225672
#
#
# Mechanical properties :
#
#
# Convention : Reuss Voigt Hill
#
# Bulk Modulus (GPa) = 37.64044 45.24152 41.44098
# Shear Modulus (GPa) = 13.29839 26.01140 19.65489
#
# Velocity S-wave (km/s) = 2.45596 3.43481 2.98577
# Velocity P-wave (km/s) = 5.01147 6.02085 5.53920
#
# Compressibility (1/GPa) = 0.02656717
#
# Stress axis : x y z
#
# Youngs Moduli (GPa) = 51.55663 103.35894 50.12169
#
# Poissons Ratio (x) = 0.28847 0.17078
# Poissons Ratio (y) = 0.14389 0.25208
# Poissons Ratio (z) = 0.17567 0.51983
#
# Static dielectric constant tensor:
#      x y z
#    x 1.884150 0.000000 0.000000 
#    y 0.000000 1.839790 0.000000 
#    z 0.000000 0.000000 1.861550 
# 
# From -- ./inp_files/1417.got.cif
#   From: 2010.05.17/outbox.cif.g08.bks.cpg/sg28_1_cif.got.tgz:1417.got - 2010.06.04 01:15:21.
