data_PCOD9339750
_publ_section_title
;
Structure prediction by ZEFSAII (Michael W. Deem and Ramdas Pophale) SiO2 
 PCOD9339750
Probable space group: P M A 2
;
_chemical_formula_sum "Si O2"
_cell_formula_units_Z 32
_cell_length_a 15.624488
_cell_length_b 18.145929
_cell_length_c 5.384505
_cell_angle_alpha 90.000000
_cell_angle_beta 90.000000
_cell_angle_gamma 90.000000
_cell_volume 1526.619434
_symmetry_space_group_name_H-M "P M A 2"
_symmetry_group_IT_number 28
_symmetry_cell_setting 'orthorhombic'
loop_
_space_group_symop_operation_xyz
x,y,z
-x,-y,z
1/2-x,y,z
1/2+x,-y,z
loop_
_atom_site_type_symbol
_atom_site_label
_atom_site_fract_x
_atom_site_fract_y
_atom_site_fract_z
Si Si1 0.067709 0.654969 0.766940
Si Si2 0.419209 0.057595 0.831414
Si Si3 0.087650 0.228656 0.751205
Si Si4 0.652260 0.699633 0.251908
Si Si5 0.152561 0.787613 0.630556
Si Si6 0.992935 0.412866 0.265900
Si Si7 0.849713 0.155505 0.136777
Si Si8 0.103667 0.003465 0.332949
O O1 0.150984 0.703674 0.718923
O O2 0.995524 0.718967 0.755218
O O3 0.048728 0.602915 0.534181
O O4 0.061642 0.617855 0.033824
O O5 0.434238 0.142146 0.756825
O O6 0.364214 0.024608 0.604717
O O7 0.500000 0.000000 0.856997
O O8 0.378505 0.057782 0.105029
O O9 0.135546 0.251152 0.497426
O O10 0.136941 0.253029 0.001558
O O11 0.750000 0.672504 0.255100
O O12 0.582778 0.632744 0.255865
O O13 0.250000 0.813448 0.592388
O O14 0.110509 0.795016 0.357546
O O15 0.115815 0.835030 0.859196
O O16 0.000000 0.500000 0.233532
O O17 0.750000 0.174478 0.106648
O O18 0.862435 0.074355 0.240114
O O19 0.000000 0.000000 0.361877
#
# Coordination Sequence:
#
# PCOD9339750 Si02
#       8
#     4   4   4   4   4   4   4   4
#     4  10  21  35  61  88 114 154 189 237 279 339
#     4  10  21  35  50  80 108 142 192 250 299 332
#     4  10  21  36  59  86 112 150 204 244 287 345
#     4  10  21  40  62  88 120 158 196 234 294 355
#     4  10  21  36  57  82 112 144 187 233 287 342
#     4  10  21  40  62  92 124 153 191 232 280 342
#     4  10  21  36  52  73 106 149 184 235 296 350
#     4  10  21  32  51  75 103 140 192 241 284 347
#
# _framework density 20.961347
#
# number of rings (size 3 to 8) (size 9 to 14) (size 15 to 20)
#    0.000    2.000    0.000    3.000    7.000    0.000 
#    0.000    5.000    0.000    0.000    0.000    0.000 
#    0.000    0.000    0.000    0.000    0.000    0.000 
#
# Total GULP energy -178438.026654 kJ/mol
# GULP energy per Si atom -5576.188333 kJ/mol
# Density = 2.091364 g / cm^3
# Si number density = 20.961347 Si / 1000 Ang^3
#
#
#
# Elastic Constant Matrix: (Units=GPa)
#
#
# Indices 1 2 3 4 5 6 
#
# 1 39.6564 2.4495 26.5106 0.0000 0.0000 0.0000
# 2 2.4495 93.7819 -0.6096 0.0000 0.0000 0.0000
# 3 26.5106 -0.6096 110.3727 0.0000 0.0000 0.0000
# 4 0.0000 0.0000 0.0000 35.2627 0.0000 0.0000
# 5 0.0000 0.0000 0.0000 0.0000 11.7886 0.0000
# 6 0.0000 0.0000 0.0000 0.0000 0.0000 15.3435
#
#
#
# Elastic Compliance Matrix: (Units=1/GPa)
#
#
# Indices 1 2 3 4 5 6 
#
# 1 0.030105 -0.000833 -0.007236 0.000000 0.000000 0.000000
# 2 -0.000833 0.010686 0.000259 0.000000 0.000000 0.000000
# 3 -0.007236 0.000259 0.010800 0.000000 0.000000 0.000000
# 4 0.000000 0.000000 0.000000 0.028359 0.000000 0.000000
# 5 0.000000 0.000000 0.000000 0.000000 0.084828 0.000000
# 6 0.000000 0.000000 0.000000 0.000000 0.000000 0.065174
#
#
# Mechanical properties :
#
#
# Convention : Reuss Voigt Hill
#
# Bulk Modulus (GPa) = 27.79968 33.39023 30.59496
# Shear Modulus (GPa) = 19.41280 26.84298 23.12789
#
# Velocity S-wave (km/s) = 3.04653 3.58242 3.32529
# Velocity P-wave (km/s) = 5.06619 5.75115 5.41950
#
# Compressibility (1/GPa) = 0.03597164
#
# Stress axis : x y z
#
# Youngs Moduli (GPa) = 33.21694 93.57608 92.59627
#
# Poissons Ratio (x) = 0.07798 0.66999
# Poissons Ratio (y) = 0.02768 -0.02400
# Poissons Ratio (z) = 0.24034 -0.02425
#
# Static dielectric constant tensor:
#      x y z
#    x 1.844360 0.000000 0.000000 
#    y 0.000000 1.735880 0.000000 
#    z 0.000000 0.000000 1.831590 
# 
# From -- ./inp_files/1199.got.cif
#   From: 2010.05.17/outbox.cif.g08.bks.cpg/sg28_1_cif.got.tgz:1199.got - 2010.06.04 01:15:21.
