data_PCOD9339301
_publ_section_title
;
Structure prediction by ZEFSAII (Michael W. Deem and Ramdas Pophale) SiO2 
 PCOD9339301
Probable space group: P M A 2
;
_chemical_formula_sum "Si O2"
_cell_formula_units_Z 28
_cell_length_a 8.657068
_cell_length_b 9.391716
_cell_length_c 18.652758
_cell_angle_alpha 90.000000
_cell_angle_beta 90.000000
_cell_angle_gamma 90.000000
_cell_volume 1516.557342
_symmetry_space_group_name_H-M "P M A 2"
_symmetry_group_IT_number 28
_symmetry_cell_setting 'orthorhombic'
loop_
_space_group_symop_operation_xyz
x,y,z
-x,-y,z
1/2-x,y,z
1/2+x,-y,z
loop_
_atom_site_type_symbol
_atom_site_label
_atom_site_fract_x
_atom_site_fract_y
_atom_site_fract_z
Si Si1 0.935221 0.659480 0.508160
Si Si2 0.065125 0.160018 0.366462
Si Si3 0.935829 0.840133 0.069556
Si Si4 0.434491 0.840787 0.640480
Si Si5 0.934405 0.161692 0.217416
Si Si6 0.563984 0.660031 0.771085
Si Si7 0.064246 0.342338 0.933146
O O1 0.750000 0.655540 0.516038
O O2 0.972062 0.742437 0.434511
O O3 0.000000 0.500000 0.507119
O O4 0.006160 0.747129 0.573954
O O5 0.250000 0.149998 0.358759
O O6 0.994475 0.221770 0.292786
O O7 0.000000 0.000000 0.377392
O O8 0.750000 0.843780 0.073425
O O9 0.000525 0.774253 0.143621
O O10 0.986129 0.756627 0.998515
O O11 0.000000 0.000000 0.064706
O O12 0.250000 0.845000 0.640384
O O13 0.494748 0.765270 0.712560
O O14 0.500000 0.000000 0.634896
O O15 0.750000 0.158745 0.215837
O O16 0.000000 0.000000 0.217994
O O17 0.500000 0.500000 0.759694
O O18 0.750000 0.657370 0.765235
O O19 0.520325 0.703991 0.852512
O O20 0.250000 0.347607 0.934687
O O21 0.000000 0.500000 0.943577
#
# Coordination Sequence:
#
# PCOD9339301 Si02
#       7
#     4   4   4   4   4   4   4
#     4  11  24  41  61  85 114 149 186 226 274 328
#     4  10  20  35  57  83 110 142 181 226 275 325
#     4  10  19  33  52  78 109 142 182 227 274 324
#     4  12  25  41  61  86 115 147 184 228 276 326
#     4  10  18  30  51  78 107 142 181 223 273 325
#     4  10  20  38  60  84 113 147 187 228 276 331
#     4   9  20  36  56  80 109 145 184 226 272 325
#
# _framework density 18.462869000000001
#
# number of rings (size 3 to 8) (size 9 to 14) (size 15 to 20)
#    0.000    1.714    0.000    6.857    0.000    5.714 
#    0.000    2.143    0.000    0.000    0.000    0.000 
#    0.000    0.000    0.000    0.000    0.000    0.000 
#
# Total GULP energy -156384.480141 kJ/mol
# GULP energy per Si atom -5585.160005 kJ/mol
# Density = 1.842085 g / cm^3
# Si number density = 18.462869 Si / 1000 Ang^3
#
#
#
# Elastic Constant Matrix: (Units=GPa)
#
#
# Indices 1 2 3 4 5 6 
#
# 1 101.2359 49.7393 83.1253 0.0000 0.0000 0.0000
# 2 49.7393 102.4837 102.6581 0.0000 0.0000 0.0000
# 3 83.1253 102.6581 206.9474 0.0000 0.0000 0.0000
# 4 0.0000 0.0000 0.0000 102.2252 0.0000 0.0000
# 5 0.0000 0.0000 0.0000 0.0000 60.5222 0.0000
# 6 0.0000 0.0000 0.0000 0.0000 0.0000 29.9690
#
#
#
# Elastic Compliance Matrix: (Units=1/GPa)
#
#
# Indices 1 2 3 4 5 6 
#
# 1 0.015050 -0.002482 -0.004814 0.000000 0.000000 0.000000
# 2 -0.002482 0.019805 -0.008827 0.000000 0.000000 0.000000
# 3 -0.004814 -0.008827 0.011145 0.000000 0.000000 0.000000
# 4 0.000000 0.000000 0.000000 0.009782 0.000000 0.000000
# 5 0.000000 0.000000 0.000000 0.000000 0.016523 0.000000
# 6 0.000000 0.000000 0.000000 0.000000 0.000000 0.033368
#
#
# Mechanical properties :
#
#
# Convention : Reuss Voigt Hill
#
# Bulk Modulus (GPa) = 72.71367 97.96805 85.34086
# Shear Modulus (GPa) = 35.08687 50.21958 42.65323
#
# Velocity S-wave (km/s) = 4.36409 5.22105 4.81169
# Velocity P-wave (km/s) = 8.05375 9.46167 8.78596
#
# Compressibility (1/GPa) = 0.01375257
#
# Stress axis : x y z
#
# Youngs Moduli (GPa) = 66.44395 50.49327 89.73012
#
# Poissons Ratio (x) = 0.12535 0.43195
# Poissons Ratio (y) = 0.16494 0.79206
# Poissons Ratio (z) = 0.31985 0.44571
#
# Static dielectric constant tensor:
#      x y z
#    x 1.617550 0.000000 0.000000 
#    y 0.000000 1.598980 0.000000 
#    z 0.000000 0.000000 1.667790 
# 
# From -- ./inp_files/6743.got.cif
#   From: 2010.05.17/outbox.cif.g08.bks.cpg/sg28_4_cif.got.tgz:6743.got - 2010.06.04 01:15:21.
