data_PCOD9339860
_publ_section_title
;
Structure prediction by ZEFSAII (Michael W. Deem and Ramdas Pophale) SiO2 
 PCOD9339860
Probable space group: P M A 2
;
_chemical_formula_sum "Si O2"
_cell_formula_units_Z 32
_cell_length_a 15.976626
_cell_length_b 15.303622
_cell_length_c 4.934841
_cell_angle_alpha 90.000000
_cell_angle_beta 90.000000
_cell_angle_gamma 90.000000
_cell_volume 1206.569834
_symmetry_space_group_name_H-M "P M A 2"
_symmetry_group_IT_number 28
_symmetry_cell_setting 'orthorhombic'
loop_
_space_group_symop_operation_xyz
x,y,z
-x,-y,z
1/2-x,y,z
1/2+x,-y,z
loop_
_atom_site_type_symbol
_atom_site_label
_atom_site_fract_x
_atom_site_fract_y
_atom_site_fract_z
Si Si1 0.655413 0.829321 0.526720
Si Si2 0.885668 0.135547 0.143307
Si Si3 0.842262 0.472445 0.062329
Si Si4 0.841168 0.301869 0.433802
Si Si5 0.596755 0.018187 0.660710
Si Si6 0.499918 0.253378 0.828890
Si Si7 0.976301 0.570763 0.755706
Si Si8 0.341480 0.347574 0.364842
O O1 0.750000 0.824559 0.636220
O O2 0.579650 0.791978 0.699612
O O3 0.653514 0.755429 0.285420
O O4 0.635967 0.932133 0.522503
O O5 0.837054 0.224544 0.212117
O O6 0.900734 0.089372 0.425693
O O7 0.858682 0.063722 0.920043
O O8 0.968917 0.178582 0.027608
O O9 0.750000 0.457594 0.928361
O O10 0.848240 0.395783 0.284960
O O11 0.926594 0.478932 0.878201
O O12 0.839141 0.572164 0.159602
O O13 0.750000 0.299145 0.576692
O O14 0.921968 0.281232 0.623462
O O15 0.500000 0.000000 0.735881
O O16 0.488077 0.347128 0.969194
O O17 0.000000 0.500000 0.506487
O O18 0.912057 0.627851 0.576776
O O19 0.250000 0.354653 0.505105
#
# Coordination Sequence:
#
# PCOD9339860 Si02
#       8
#     4   4   4   4   4   4   4   4
#     4  10  23  46  72 110 150 202 259 322 398 483
#     4  12  25  48  77 111 153 202 259 329 398 470
#     4  10  22  41  66 101 144 198 255 320 388 465
#     4  11  25  46  75 111 159 212 272 334 401 479
#     4  12  25  46  79 108 154 200 259 328 401 476
#     4  11  24  46  74 111 156 206 259 328 397 479
#     4  11  22  35  62 100 139 187 241 303 366 459
#     4   9  20  41  66  93 137 185 236 300 369 450
#
# _framework density 26.521463000000001
#
# number of rings (size 3 to 8) (size 9 to 14) (size 15 to 20)
#    0.000    1.250    2.500    2.250    0.000    7.500 
#    2.250    3.125    0.000    0.000    0.000    0.875 
#    0.000    0.000    0.000    0.000    0.000    0.000 
#
# Total GULP energy -178151.727073 kJ/mol
# GULP energy per Si atom -5567.241471 kJ/mol
# Density = 2.646110 g / cm^3
# Si number density = 26.521463 Si / 1000 Ang^3
#
#
#
# Elastic Constant Matrix: (Units=GPa)
#
#
# Indices 1 2 3 4 5 6 
#
# 1 169.7806 28.4559 24.2541 0.0000 0.0000 0.0000
# 2 28.4559 216.6225 30.5382 0.0000 0.0000 0.0000
# 3 24.2541 30.5382 76.2848 0.0000 0.0000 0.0000
# 4 0.0000 0.0000 0.0000 35.9968 0.0000 0.0000
# 5 0.0000 0.0000 0.0000 0.0000 17.5129 0.0000
# 6 0.0000 0.0000 0.0000 0.0000 0.0000 1.7547
#
#
#
# Elastic Compliance Matrix: (Units=1/GPa)
#
#
# Indices 1 2 3 4 5 6 
#
# 1 0.006236 -0.000572 -0.001754 0.000000 0.000000 0.000000
# 2 -0.000572 0.004945 -0.001798 0.000000 0.000000 0.000000
# 3 -0.001754 -0.001798 0.014386 0.000000 0.000000 0.000000
# 4 0.000000 0.000000 0.000000 0.027780 0.000000 0.000000
# 5 0.000000 0.000000 0.000000 0.000000 0.057101 0.000000
# 6 0.000000 0.000000 0.000000 0.000000 0.000000 0.569914
#
#
# Mechanical properties :
#
#
# Convention : Reuss Voigt Hill
#
# Bulk Modulus (GPa) = 57.73563 69.90938 63.82250
# Shear Modulus (GPa) = 7.20065 36.34887 21.77476
#
# Velocity S-wave (km/s) = 1.64952 3.70610 2.86846
# Velocity P-wave (km/s) = 5.04426 6.68808 5.92347
#
# Compressibility (1/GPa) = 0.01732033
#
# Stress axis : x y z
#
# Youngs Moduli (GPa) = 160.34988 202.22909 69.51191
#
# Poissons Ratio (x) = 0.11567 0.12191
# Poissons Ratio (y) = 0.09172 0.12496
# Poissons Ratio (z) = 0.28123 0.36354
#
# Static dielectric constant tensor:
#      x y z
#    x 2.346440 0.000000 0.000000 
#    y 0.000000 2.206680 0.000000 
#    z 0.000000 0.000000 2.114500 
# 
# From -- ./inp_files/1231.got.cif
#   From: 2010.05.17/outbox.cif.g08.bks.cpg/sg28_1_cif.got.tgz:1231.got - 2010.06.04 01:15:21.
