data_PCOD9339995
_publ_section_title
;
Structure prediction by ZEFSAII (Michael W. Deem and Ramdas Pophale) SiO2 
 PCOD9339995
Probable space group: P C A 21
;
_chemical_formula_sum "Si O2"
_cell_formula_units_Z 32
_cell_length_a 5.369021
_cell_length_b 11.503335
_cell_length_c 28.515325
_cell_angle_alpha 90.000000
_cell_angle_beta 90.000000
_cell_angle_gamma 90.000000
_cell_volume 1761.153442
_symmetry_space_group_name_H-M "P C A 21"
_symmetry_group_IT_number 29
_symmetry_cell_setting 'orthorhombic'
loop_
_space_group_symop_operation_xyz
x,y,z
-x,-y,1/2+z
1/2-x,y,1/2+z
1/2+x,-y,z
loop_
_atom_site_type_symbol
_atom_site_label
_atom_site_fract_x
_atom_site_fract_y
_atom_site_fract_z
Si Si1 0.253145 0.437373 0.921760
Si Si2 0.274031 0.922213 0.700912
Si Si3 0.215784 0.857347 0.802378
Si Si4 0.748050 0.194154 0.500285
Si Si5 0.192195 0.927501 0.599534
Si Si6 0.284225 0.118695 0.341249
Si Si7 0.752248 0.464585 0.525834
Si Si8 0.253750 0.169961 0.941473
O O1 0.001346 0.498425 0.904077
O O2 0.258896 0.299049 0.918207
O O3 0.250375 0.458014 0.978349
O O4 0.247680 0.843770 0.746941
O O5 0.242092 0.865669 0.649549
O O6 0.542732 0.985994 0.703324
O O7 0.457461 0.817160 0.830699
O O8 0.955281 0.813371 0.822252
O O9 0.203365 0.996880 0.813024
O O10 0.737400 0.141441 0.552016
O O11 0.753875 0.332900 0.508003
O O12 0.998146 0.156898 0.472673
O O13 0.497959 0.161065 0.471866
O O14 0.407665 0.026819 0.599361
O O15 0.252512 0.089154 0.395872
O O16 0.001520 0.501031 0.552054
#
# Coordination Sequence:
#
# PCOD9339995 Si02
#       8
#     4   4   4   4   4   4   4   4
#     4  10  16  30  48  67  88 127 165 198 243 277
#     4  10  16  32  59  68  85 123 157 213 260 270
#     4  10  17  35  49  68  92 123 157 215 244 277
#     4  12  21  35  50  69 105 143 165 200 239 293
#     4  10  23  38  49  74  99 133 176 198 240 306
#     4  10  20  30  46  73  92 123 170 194 234 292
#     4  10  16  30  51  70  89 127 170 207 243 274
#     4  12  21  32  48  69 104 137 158 205 237 289
#
# _framework density 18.169912
#
# number of rings (size 3 to 8) (size 9 to 14) (size 15 to 20)
#    0.000    1.500    7.500    1.500    0.000    0.000 
#   13.500    0.000    0.000    0.000    0.000    0.000 
#    0.000    6.000    0.000    0.000    0.000    0.000 
#
# Total GULP energy -178336.911566 kJ/mol
# GULP energy per Si atom -5573.028486 kJ/mol
# Density = 1.812856 g / cm^3
# Si number density = 18.169912 Si / 1000 Ang^3
#
#
#
# Elastic Constant Matrix: (Units=GPa)
#
#
# Indices 1 2 3 4 5 6 
#
# 1 113.7942 -1.5765 -8.6783 0.0000 0.0000 0.0000
# 2 -1.5765 14.7185 12.3458 0.0000 0.0000 0.0000
# 3 -8.6783 12.3458 89.2734 0.0000 0.0000 0.0000
# 4 0.0000 0.0000 0.0000 -0.0679 0.0000 0.0000
# 5 0.0000 0.0000 0.0000 0.0000 22.8632 0.0000
# 6 0.0000 0.0000 0.0000 0.0000 0.0000 8.5018
#
#
#
# Elastic Compliance Matrix: (Units=1/GPa)
#
#
# Indices 1 2 3 4 5 6 
#
# 1 0.008854 0.000256 0.000825 0.000000 0.000000 0.000000
# 2 0.000256 0.076864 -0.010605 0.000000 0.000000 0.000000
# 3 0.000825 -0.010605 0.012748 0.000000 0.000000 0.000000
# 4 0.000000 0.000000 0.000000-14.719450 0.000000 0.000000
# 5 0.000000 0.000000 0.000000 0.000000 0.043738 0.000000
# 6 0.000000 0.000000 0.000000 0.000000 0.000000 0.117622
#
#
# Mechanical properties :
#
#
# Convention : Reuss Voigt Hill
#
# Bulk Modulus (GPa) = 12.59124 24.66312 18.62718
# Shear Modulus (GPa) = -0.34688 20.63908 10.14610
#
# Velocity S-wave (km/s) = -0.43741 3.37396 2.36561
# Velocity P-wave (km/s) = 2.58644 5.36481 4.21135
#
# Compressibility (1/GPa) = 0.07942029
#
# Stress axis : x y z
#
# Youngs Moduli (GPa) = 112.93970 13.00991 78.44162
#
# Poissons Ratio (x) = -0.00333 -0.06474
# Poissons Ratio (y) = -0.02893 0.83186
# Poissons Ratio (z) = -0.09321 0.13797
#
# Static dielectric constant tensor:
#      x y z
#    x 1.795670 0.000000 0.000000 
#    y 0.000000 1.649530 0.000000 
#    z 0.000000 0.000000 1.618790 
# 
# From -- ./inp_files/5646.got.cif
#   From: 2010.05.17/outbox.cif.g08.bks.cpg/sg29_3_cif.got.tgz:5646.got - 2010.06.04 01:19:37.
