data_PCOD9339793
_publ_section_title
;
Structure prediction by ZEFSAII (Michael W. Deem and Ramdas Pophale) SiO2 
 PCOD9339793
Probable space group: P M A 2
;
_chemical_formula_sum "Si O2"
_cell_formula_units_Z 32
_cell_length_a 14.983307
_cell_length_b 9.144626
_cell_length_c 10.783003
_cell_angle_alpha 90.000000
_cell_angle_beta 90.000000
_cell_angle_gamma 90.000000
_cell_volume 1477.451905
_symmetry_space_group_name_H-M "P M A 2"
_symmetry_group_IT_number 28
_symmetry_cell_setting 'orthorhombic'
loop_
_space_group_symop_operation_xyz
x,y,z
-x,-y,z
1/2-x,y,z
1/2+x,-y,z
loop_
_atom_site_type_symbol
_atom_site_label
_atom_site_fract_x
_atom_site_fract_y
_atom_site_fract_z
Si Si1 0.593703 0.086020 0.697290
Si Si2 0.147270 0.746224 0.078736
Si Si3 0.904207 0.434618 0.298049
Si Si4 0.346288 0.152659 0.880489
Si Si5 0.851898 0.737432 0.400102
Si Si6 0.524151 0.332947 0.846402
Si Si7 0.147173 0.056041 0.166287
Si Si8 0.968494 0.153164 0.445901
O O1 0.582254 0.251621 0.742554
O O2 0.602335 0.100468 0.549780
O O3 0.500000 0.000000 0.708278
O O4 0.651524 0.992259 0.793549
O O5 0.250000 0.774158 0.036204
O O6 0.148314 0.616529 0.177910
O O7 0.108409 0.892593 0.146804
O O8 0.080167 0.700240 0.970691
O O9 0.858045 0.564750 0.373379
O O10 0.924559 0.287494 0.374742
O O11 0.000000 0.500000 0.259311
O O12 0.250000 0.224731 0.862118
O O13 0.429703 0.251278 0.848932
O O14 0.356175 0.116587 0.026326
O O15 0.750000 0.774775 0.437518
O O16 0.875487 0.821759 0.269510
O O17 0.934553 0.781257 0.489358
O O18 0.500000 0.500000 0.828220
O O19 0.250000 0.023675 0.199579
O O20 0.000000 0.000000 0.383947
#
# Coordination Sequence:
#
# PCOD9339793 Si02
#       8
#     4   4   4   4   4   4   4   4
#     4   9  20  42  64  87 117 162 215 267 313 374
#     4  11  22  37  57  86 127 168 212 267 328 395
#     4  10  22  37  56  90 130 172 216 265 327 393
#     4  10  21  41  64  90 123 168 225 277 327 386
#     4  10  21  38  60  91 129 170 214 265 329 398
#     4  11  24  37  59  92 127 166 212 267 337 393
#     4   9  19  34  58  87 120 166 215 267 321 382
#     4  10  21  40  66  91 122 167 217 267 323 382
#
# _framework density 21.658912000000001
#
# number of rings (size 3 to 8) (size 9 to 14) (size 15 to 20)
#    0.000    2.000    1.250    1.500    5.250    2.000 
#    0.000    7.500    0.000    2.250    0.000    0.000 
#    0.000    0.000    0.000    0.000    0.000    0.000 
#
# Total GULP energy -178221.546765 kJ/mol
# GULP energy per Si atom -5569.423336 kJ/mol
# Density = 2.160962 g / cm^3
# Si number density = 21.658912 Si / 1000 Ang^3
#
#
#
# Elastic Constant Matrix: (Units=GPa)
#
#
# Indices 1 2 3 4 5 6 
#
# 1 71.7478 7.0303 12.2684 0.0000 0.0000 0.0000
# 2 7.0303 129.5743 23.8431 0.0000 0.0000 0.0000
# 3 12.2684 23.8431 48.0997 0.0000 0.0000 0.0000
# 4 0.0000 0.0000 0.0000 23.1232 0.0000 0.0000
# 5 0.0000 0.0000 0.0000 0.0000 -5.2963 0.0000
# 6 0.0000 0.0000 0.0000 0.0000 0.0000 16.5724
#
#
#
# Elastic Compliance Matrix: (Units=1/GPa)
#
#
# Indices 1 2 3 4 5 6 
#
# 1 0.014575 -0.000117 -0.003659 0.000000 0.000000 0.000000
# 2 -0.000117 0.008493 -0.004180 0.000000 0.000000 0.000000
# 3 -0.003659 -0.004180 0.023796 0.000000 0.000000 0.000000
# 4 0.000000 0.000000 0.000000 0.043247 0.000000 0.000000
# 5 0.000000 0.000000 0.000000 0.000000 -0.188809 0.000000
# 6 0.000000 0.000000 0.000000 0.000000 0.000000 0.060341
#
#
# Mechanical properties :
#
#
# Convention : Reuss Voigt Hill
#
# Bulk Modulus (GPa) = 32.31020 37.30060 34.80540
# Shear Modulus (GPa) = -412.27871 20.63186 -195.82343
#
# Velocity S-wave (km/s) = -13.81173 3.08974 -9.51886
# Velocity P-wave (km/s) = 15.47261 5.47612 10.23264
#
# Compressibility (1/GPa) = 0.03094998
#
# Stress axis : x y z
#
# Youngs Moduli (GPa) = 68.61094 117.74210 42.02454
#
# Poissons Ratio (x) = 0.01383 0.15378
# Poissons Ratio (y) = 0.00806 0.17567
# Poissons Ratio (z) = 0.25107 0.49218
#
# Static dielectric constant tensor:
#      x y z
#    x 1.851030 0.000000 0.000000 
#    y 0.000000 1.793260 0.000000 
#    z 0.000000 0.000000 1.869370 
# 
# From -- ./inp_files/5548.got.cif
#   From: 2010.05.17/outbox.cif.g08.bks.cpg/sg28_3_cif.got.tgz:5548.got - 2010.06.04 01:15:21.
