data_PCOD9339441
_publ_section_title
;
Structure prediction by ZEFSAII (Michael W. Deem and Ramdas Pophale) SiO2 
 PCOD9339441
Probable space group: P M A 2
;
_chemical_formula_sum "Si O2"
_cell_formula_units_Z 32
_cell_length_a 8.952613
_cell_length_b 14.868872
_cell_length_c 12.521428
_cell_angle_alpha 90.000000
_cell_angle_beta 90.000000
_cell_angle_gamma 90.000000
_cell_volume 1666.793103
_symmetry_space_group_name_H-M "P M A 2"
_symmetry_group_IT_number 28
_symmetry_cell_setting 'orthorhombic'
loop_
_space_group_symop_operation_xyz
x,y,z
-x,-y,z
1/2-x,y,z
1/2+x,-y,z
loop_
_atom_site_type_symbol
_atom_site_label
_atom_site_fract_x
_atom_site_fract_y
_atom_site_fract_z
Si Si1 0.070808 0.217332 0.617670
Si Si2 0.924158 0.407138 0.673109
Si Si3 0.428741 0.223290 0.210384
Si Si4 0.423311 0.657244 0.911005
Si Si5 0.927336 0.405696 0.151552
Si Si6 0.925679 0.090060 0.048912
Si Si7 0.929704 0.900895 0.414382
Si Si8 0.575704 0.838621 0.853320
O O1 0.250000 0.230291 0.611473
O O2 0.022604 0.156363 0.518318
O O3 0.040315 0.164445 0.728067
O O4 0.997043 0.315803 0.627072
O O5 0.750000 0.408052 0.645702
O O6 0.935296 0.400518 0.802862
O O7 0.000000 0.500000 0.638122
O O8 0.250000 0.227302 0.198579
O O9 0.496392 0.322806 0.212664
O O10 0.503191 0.173799 0.110038
O O11 0.464978 0.161060 0.312059
O O12 0.250000 0.691581 0.914524
O O13 0.538525 0.737999 0.893576
O O14 0.451280 0.609526 0.023655
O O15 0.750000 0.405660 0.169570
O O16 0.000000 0.500000 0.182020
O O17 0.750000 0.088009 0.062529
O O18 0.000000 0.000000 0.093609
O O19 0.972019 0.099549 0.925596
O O20 0.750000 0.911120 0.418540
O O21 0.000000 0.000000 0.409215
O O22 0.750000 0.860223 0.869959
#
# Coordination Sequence:
#
# PCOD9339441 Si02
#       8
#     4   4   4   4   4   4   4   4
#     4   9  20  39  60  86 119 154 194 242 295 348
#     4  10  19  32  53  84 120 160 202 242 289 344
#     4  11  23  41  63  88 118 153 196 247 299 353
#     4   9  18  32  51  79 117 159 199 238 285 342
#     4  11  22  36  57  86 121 161 200 244 292 349
#     4  12  24  38  57  84 119 156 195 240 295 357
#     4  10  23  43  67  91 116 148 194 248 300 355
#     4  10  19  33  56  84 118 157 193 235 291 350
#
# _framework density 19.198543999999998
#
# number of rings (size 3 to 8) (size 9 to 14) (size 15 to 20)
#    0.000    1.750    1.250    3.375    0.000    4.500 
#    0.000    1.875    0.000    0.000    0.000    0.000 
#    0.000    0.000    0.000    0.000    0.000    0.000 
#
# Total GULP energy -178700.388918 kJ/mol
# GULP energy per Si atom -5584.387154 kJ/mol
# Density = 1.915485 g / cm^3
# Si number density = 19.198544 Si / 1000 Ang^3
#
#
#
# Elastic Constant Matrix: (Units=GPa)
#
#
# Indices 1 2 3 4 5 6 
#
# 1 81.0092 62.4802 54.4207 0.0000 0.0000 0.0000
# 2 62.4802 147.4821 60.2921 0.0000 0.0000 0.0000
# 3 54.4207 60.2921 95.1775 0.0000 0.0000 0.0000
# 4 0.0000 0.0000 0.0000 18.0500 0.0000 0.0000
# 5 0.0000 0.0000 0.0000 0.0000 18.0351 0.0000
# 6 0.0000 0.0000 0.0000 0.0000 0.0000 34.7228
#
#
#
# Elastic Compliance Matrix: (Units=1/GPa)
#
#
# Indices 1 2 3 4 5 6 
#
# 1 0.023411 -0.005999 -0.009585 0.000000 0.000000 0.000000
# 2 -0.005999 0.010687 -0.003340 0.000000 0.000000 0.000000
# 3 -0.009585 -0.003340 0.018103 0.000000 0.000000 0.000000
# 4 0.000000 0.000000 0.000000 0.055402 0.000000 0.000000
# 5 0.000000 0.000000 0.000000 0.000000 0.055447 0.000000
# 6 0.000000 0.000000 0.000000 0.000000 0.000000 0.028800
#
#
# Mechanical properties :
#
#
# Convention : Reuss Voigt Hill
#
# Bulk Modulus (GPa) = 69.67616 75.33942 72.50779
# Shear Modulus (GPa) = 21.32351 23.92664 22.62508
#
# Velocity S-wave (km/s) = 3.33631 3.53409 3.43662
# Velocity P-wave (km/s) = 7.15629 7.48201 7.32096
#
# Compressibility (1/GPa) = 0.01435211
#
# Stress axis : x y z
#
# Youngs Moduli (GPa) = 42.71564 93.56801 55.23884
#
# Poissons Ratio (x) = 0.56133 0.52949
# Poissons Ratio (y) = 0.25626 0.18449
# Poissons Ratio (z) = 0.40945 0.31251
#
# Static dielectric constant tensor:
#      x y z
#    x 1.641330 0.000000 0.000000 
#    y 0.000000 1.640470 0.000000 
#    z 0.000000 0.000000 1.689920 
# 
# From -- ./inp_files/4991.got.cif
#   From: 2010.05.17/outbox.cif.g08.bks.cpg/sg28_3_cif.got.tgz:4991.got - 2010.06.04 01:15:21.
