data_PCOD9339689
_publ_section_title
;
Structure prediction by ZEFSAII (Michael W. Deem and Ramdas Pophale) SiO2 
 PCOD9339689
Probable space group: P M A 2
;
_chemical_formula_sum "Si O2"
_cell_formula_units_Z 24
_cell_length_a 8.721091
_cell_length_b 15.698095
_cell_length_c 9.612683
_cell_angle_alpha 90.000000
_cell_angle_beta 90.000000
_cell_angle_gamma 90.000000
_cell_volume 1316.019704
_symmetry_space_group_name_H-M "P M A 2"
_symmetry_group_IT_number 28
_symmetry_cell_setting 'orthorhombic'
loop_
_space_group_symop_operation_xyz
x,y,z
-x,-y,z
1/2-x,y,z
1/2+x,-y,z
loop_
_atom_site_type_symbol
_atom_site_label
_atom_site_fract_x
_atom_site_fract_y
_atom_site_fract_z
Si Si1 0.935324 0.249852 0.452990
Si Si2 0.934100 0.907816 0.951132
Si Si3 0.065378 0.592080 0.262628
Si Si4 0.433649 0.252789 0.762022
Si Si5 0.065827 0.907989 0.257633
Si Si6 0.065994 0.592782 0.940530
O O1 0.750000 0.252023 0.464086
O O2 0.984492 0.332569 0.364466
O O3 0.976633 0.165658 0.365631
O O4 0.006070 0.249713 0.605306
O O5 0.750000 0.913135 0.959379
O O6 0.977485 0.833081 0.845223
O O7 0.000000 0.000000 0.909574
O O8 0.000012 0.888444 0.104460
O O9 0.250000 0.588129 0.266184
O O10 0.000000 0.500000 0.302076
O O11 0.020978 0.609631 0.101954
O O12 0.250000 0.258698 0.762770
O O13 0.502035 0.333657 0.842653
O O14 0.250000 0.912531 0.248356
O O15 0.000000 0.000000 0.298981
O O16 0.250000 0.590817 0.932775
O O17 0.000000 0.500000 0.903188
#
# Coordination Sequence:
#
# PCOD9339689 Si02
#       6
#     4   4   4   4   4   4
#     4  10  22  38  55  78 111 149 183 219 271 331
#     4  10  21  37  58  83 110 142 184 231 277 328
#     4   9  19  36  58  83 107 137 179 223 268 319
#     4  11  24  38  54  81 114 148 186 227 274 327
#     4  10  20  36  59  84 109 141 183 228 276 329
#     4  10  20  37  61  85 111 143 182 228 275 326
#
# _framework density 18.236809000000001
#
# number of rings (size 3 to 8) (size 9 to 14) (size 15 to 20)
#    0.000    2.000    0.000    4.000    0.000    8.000 
#    0.000    5.000    0.000    0.000    0.000    0.000 
#    0.000    0.000    0.000    0.000    0.000    0.000 
#
# Total GULP energy -134074.511231 kJ/mol
# GULP energy per Si atom -5586.437968 kJ/mol
# Density = 1.819530 g / cm^3
# Si number density = 18.236809 Si / 1000 Ang^3
#
#
#
# Elastic Constant Matrix: (Units=GPa)
#
#
# Indices 1 2 3 4 5 6 
#
# 1 46.8224 62.2757 53.2746 0.0000 0.0000 0.0000
# 2 62.2757 194.7184 148.4672 0.0000 0.0000 0.0000
# 3 53.2746 148.4672 147.3620 0.0000 0.0000 0.0000
# 4 0.0000 0.0000 0.0000 -11.1569 0.0000 0.0000
# 5 0.0000 0.0000 0.0000 0.0000 25.2801 0.0000
# 6 0.0000 0.0000 0.0000 0.0000 0.0000 25.4738
#
#
#
# Elastic Compliance Matrix: (Units=1/GPa)
#
#
# Indices 1 2 3 4 5 6 
#
# 1 0.038575 -0.007351 -0.006540 0.000000 0.000000 0.000000
# 2 -0.007351 0.023555 -0.021074 0.000000 0.000000 0.000000
# 3 -0.006540 -0.021074 0.030383 0.000000 0.000000 0.000000
# 4 0.000000 0.000000 0.000000 -0.089630 0.000000 0.000000
# 5 0.000000 0.000000 0.000000 0.000000 0.039557 0.000000
# 6 0.000000 0.000000 0.000000 0.000000 0.000000 0.039256
#
#
# Mechanical properties :
#
#
# Convention : Reuss Voigt Hill
#
# Bulk Modulus (GPa) = 44.28087 101.88198 73.08143
# Shear Modulus (GPa) = 31.41623 16.24509 23.83066
#
# Velocity S-wave (km/s) = 4.15502 2.98784 3.61880
# Velocity P-wave (km/s) = 6.88133 8.23956 7.59088
#
# Compressibility (1/GPa) = 0.02258311
#
# Stress axis : x y z
#
# Youngs Moduli (GPa) = 25.92331 42.45336 32.91348
#
# Poissons Ratio (x) = 0.31207 0.21524
# Poissons Ratio (y) = 0.19056 0.69363
# Poissons Ratio (z) = 0.16953 0.89468
#
# Static dielectric constant tensor:
#      x y z
#    x 1.614820 0.000000 0.000000 
#    y 0.000000 1.608220 0.000000 
#    z 0.000000 0.000000 1.595740 
# 
# From -- ./inp_files/2459.got.cif
#   From: 2010.05.17/outbox.cif.g08.bks.cpg/sg28_2_cif.got.tgz:2459.got - 2010.06.04 01:15:21.
