data_PCOD9339766
_publ_section_title
;
Structure prediction by ZEFSAII (Michael W. Deem and Ramdas Pophale) SiO2 
 PCOD9339766
Probable space group: P M A 2
;
_chemical_formula_sum "Si O2"
_cell_formula_units_Z 24
_cell_length_a 8.578764
_cell_length_b 9.257892
_cell_length_c 16.129417
_cell_angle_alpha 90.000000
_cell_angle_beta 90.000000
_cell_angle_gamma 90.000000
_cell_volume 1281.018792
_symmetry_space_group_name_H-M "P M A 2"
_symmetry_group_IT_number 28
_symmetry_cell_setting 'orthorhombic'
loop_
_space_group_symop_operation_xyz
x,y,z
-x,-y,z
1/2-x,y,z
1/2+x,-y,z
loop_
_atom_site_type_symbol
_atom_site_label
_atom_site_fract_x
_atom_site_fract_y
_atom_site_fract_z
Si Si1 0.938083 0.163344 0.521730
Si Si2 0.561397 0.338116 0.360356
Si Si3 0.937066 0.164277 0.704016
Si Si4 0.937386 0.337738 0.033681
Si Si5 0.935738 0.835934 0.876763
Si Si6 0.938101 0.162165 0.197541
O O1 0.750000 0.155989 0.519699
O O2 0.991297 0.260608 0.445141
O O3 0.981260 0.223473 0.613147
O O4 0.000000 0.000000 0.513285
O O5 0.500000 0.500000 0.354925
O O6 0.750000 0.341207 0.360597
O O7 0.510713 0.245367 0.280588
O O8 0.750000 0.163421 0.711384
O O9 0.008475 0.227154 0.788041
O O10 0.000000 0.000000 0.701968
O O11 0.750000 0.339699 0.031009
O O12 0.987117 0.249683 0.115694
O O13 0.000000 0.500000 0.037606
O O14 0.000595 0.257199 0.952571
O O15 0.750000 0.841618 0.878414
O O16 0.000000 0.000000 0.883732
O O17 0.750000 0.157652 0.198046
O O18 0.000000 0.000000 0.195884
#
# Coordination Sequence:
#
# PCOD9339766 Si02
#       6
#     4   4   4   4   4   4
#     4   9  18  32  53  79 108 140 180 225 269 316
#     4  10  21  37  54  79 111 144 179 218 264 318
#     4   9  16  29  50  77 107 140 178 226 273 317
#     4  11  23  39  57  81 111 145 181 222 271 326
#     4  11  21  35  56  82 110 144 184 229 274 323
#     4  10  22  38  59  84 110 139 178 222 266 316
#
# _framework density 18.735088000000001
#
# number of rings (size 3 to 8) (size 9 to 14) (size 15 to 20)
#    0.000    2.000    0.000    5.000    0.000    4.667 
#    0.000    0.833    0.000    2.000    0.000    0.000 
#    0.000    0.000    0.000    0.000    0.000    0.000 
#
# Total GULP energy -133984.103538 kJ/mol
# GULP energy per Si atom -5582.670981 kJ/mol
# Density = 1.869245 g / cm^3
# Si number density = 18.735088 Si / 1000 Ang^3
#
#
#
# Elastic Constant Matrix: (Units=GPa)
#
#
# Indices 1 2 3 4 5 6 
#
# 1 55.6225 30.9446 52.3548 0.0000 0.0000 0.0000
# 2 30.9446 130.3904 106.9647 0.0000 0.0000 0.0000
# 3 52.3548 106.9647 234.0347 0.0000 0.0000 0.0000
# 4 0.0000 0.0000 0.0000 -4.2356 0.0000 0.0000
# 5 0.0000 0.0000 0.0000 0.0000 9.0234 0.0000
# 6 0.0000 0.0000 0.0000 0.0000 0.0000 31.0820
#
#
#
# Elastic Compliance Matrix: (Units=1/GPa)
#
#
# Indices 1 2 3 4 5 6 
#
# 1 0.023091 -0.001988 -0.004257 0.000000 0.000000 0.000000
# 2 -0.001988 0.012441 -0.005241 0.000000 0.000000 0.000000
# 3 -0.004257 -0.005241 0.007621 0.000000 0.000000 0.000000
# 4 0.000000 0.000000 0.000000 -0.236093 0.000000 0.000000
# 5 0.000000 0.000000 0.000000 0.000000 0.110823 0.000000
# 6 0.000000 0.000000 0.000000 0.000000 0.000000 0.032173
#
#
# Mechanical properties :
#
#
# Convention : Reuss Voigt Hill
#
# Bulk Modulus (GPa) = 49.55337 88.95284 69.25310
# Shear Modulus (GPa) = -246.97592 22.49285 -112.24153
#
# Velocity S-wave (km/s) = -11.49398 3.46869 -7.74854
# Velocity P-wave (km/s) = 12.23282 7.97651 6.55809
#
# Compressibility (1/GPa) = 0.02018026
#
# Stress axis : x y z
#
# Youngs Moduli (GPa) = 43.30646 80.38157 131.22118
#
# Poissons Ratio (x) = 0.15978 0.55863
# Poissons Ratio (y) = 0.08608 0.68777
# Poissons Ratio (z) = 0.18436 0.42130
#
# Static dielectric constant tensor:
#      x y z
#    x 1.630750 0.000000 0.000000 
#    y 0.000000 1.586440 0.000000 
#    z 0.000000 0.000000 1.683350 
# 
# From -- ./inp_files/6022.got.cif
#   From: 2010.05.17/outbox.cif.g08.bks.cpg/sg28_4_cif.got.tgz:6022.got - 2010.06.04 01:15:21.
