data_PCOD9339078
_publ_section_title
;
Structure prediction by ZEFSAII (Michael W. Deem and Ramdas Pophale) SiO2 
 PCOD9339078
Probable space group: P C C 2
;
_chemical_formula_sum "Si O2"
_cell_formula_units_Z 14
_cell_length_a 10.875848
_cell_length_b 5.251677
_cell_length_c 9.092706
_cell_angle_alpha 90.000000
_cell_angle_beta 90.000000
_cell_angle_gamma 90.000000
_cell_volume 519.343004
_symmetry_space_group_name_H-M "P C C 2"
_symmetry_group_IT_number 27
_symmetry_cell_setting 'orthorhombic'
loop_
_space_group_symop_operation_xyz
x,y,z
-x,-y,z
-x,y,1/2+z
x,-y,1/2+z
loop_
_atom_site_type_symbol
_atom_site_label
_atom_site_fract_x
_atom_site_fract_y
_atom_site_fract_z
Si Si1 0.134272 0.973728 0.615290
Si Si2 0.500000 0.000000 0.048407
Si Si3 0.136707 0.473877 0.415612
Si Si4 0.338507 0.781106 0.288709
O O1 0.140118 0.709674 0.529997
O O2 0.144823 0.212104 0.504021
O O3 0.239322 0.013337 0.733535
O O4 0.000000 0.000000 0.685789
O O5 0.562877 0.205916 0.157003
O O6 0.404400 0.135471 0.938712
O O7 0.255172 0.533174 0.315237
O O8 0.000000 0.500000 0.345062
#
# Coordination Sequence:
#
# PCOD9339078 Si02
#       4
#     4   2   4   4
#     4  10  23  44  75 112 153 199 262 336 401 471
#     4  10  24  46  82 118 166 226 268 332 402 506
#     4  10  23  44  75 114 152 201 262 334 404 468
#     4  11  22  48  80 115 165 212 279 327 412 487
#
# _framework density 26.957138
#
# number of rings (size 3 to 8) (size 9 to 14) (size 15 to 20)
#    0.000    1.714    2.857    0.000    0.000    9.143 
#    0.000    4.286    0.000    0.000    0.000    0.000 
#    0.000    0.000    0.000    0.000    0.000    0.000 
#
# Total GULP energy -78540.906631 kJ/mol
# GULP energy per Si atom -5610.064759 kJ/mol
# Density = 2.689578 g / cm^3
# Si number density = 26.957138 Si / 1000 Ang^3
#
#
#
# Elastic Constant Matrix: (Units=GPa)
#
#
# Indices 1 2 3 4 5 6 
#
# 1 194.1466 35.3932 95.3506 0.0000 0.0000 0.0000
# 2 35.3932 181.7483 74.2325 0.0000 0.0000 0.0000
# 3 95.3506 74.2325 166.9803 0.0000 0.0000 0.0000
# 4 0.0000 0.0000 0.0000 62.5816 0.0000 0.0000
# 5 0.0000 0.0000 0.0000 0.0000 49.5191 0.0000
# 6 0.0000 0.0000 0.0000 0.0000 0.0000 36.0397
#
#
#
# Elastic Compliance Matrix: (Units=1/GPa)
#
#
# Indices 1 2 3 4 5 6 
#
# 1 0.007175 0.000337 -0.004247 0.000000 0.000000 0.000000
# 2 0.000337 0.006739 -0.003188 0.000000 0.000000 0.000000
# 3 -0.004247 -0.003188 0.009831 0.000000 0.000000 0.000000
# 4 0.000000 0.000000 0.000000 0.015979 0.000000 0.000000
# 5 0.000000 0.000000 0.000000 0.000000 0.020194 0.000000
# 6 0.000000 0.000000 0.000000 0.000000 0.000000 0.027747
#
#
# Mechanical properties :
#
#
# Convention : Reuss Voigt Hill
#
# Bulk Modulus (GPa) = 104.72446 105.86975 105.29710
# Shear Modulus (GPa) = 47.59853 52.15467 49.87660
#
# Velocity S-wave (km/s) = 4.20660 4.40332 4.30608
# Velocity P-wave (km/s) = 7.90739 8.07533 7.99180
#
# Compressibility (1/GPa) = 0.00954887
#
# Stress axis : x y z
#
# Youngs Moduli (GPa) = 139.36967 148.39733 101.71421
#
# Poissons Ratio (x) = -0.05008 0.43200
# Poissons Ratio (y) = -0.04703 0.32431
# Poissons Ratio (z) = 0.59194 0.47315
#
# Static dielectric constant tensor:
#      x y z
#    x 2.143000 0.000000 0.000000 
#    y 0.000000 2.067880 0.000000 
#    z 0.000000 0.000000 2.123770 
# 
# From -- ./inp_files/1289.got.cif
#   From: 2010.05.17/outbox.cif.g08.bks.cpg/sg27_1_cif.got.tgz:1289.got - 2010.06.04 01:11:05.
