data_PCOD9339379
_publ_section_title
;
Structure prediction by ZEFSAII (Michael W. Deem and Ramdas Pophale) SiO2 
 PCOD9339379
Probable space group: P M A 2
;
_chemical_formula_sum "Si O2"
_cell_formula_units_Z 24
_cell_length_a 8.586490
_cell_length_b 9.870940
_cell_length_c 16.292052
_cell_angle_alpha 90.000000
_cell_angle_beta 90.000000
_cell_angle_gamma 90.000000
_cell_volume 1380.861013
_symmetry_space_group_name_H-M "P M A 2"
_symmetry_group_IT_number 28
_symmetry_cell_setting 'orthorhombic'
loop_
_space_group_symop_operation_xyz
x,y,z
-x,-y,z
1/2-x,y,z
1/2+x,-y,z
loop_
_atom_site_type_symbol
_atom_site_label
_atom_site_fract_x
_atom_site_fract_y
_atom_site_fract_z
Si Si1 0.062914 0.346656 0.573600
Si Si2 0.563256 0.150850 0.713240
Si Si3 0.062137 0.849606 0.899742
Si Si4 0.937235 0.654656 0.216536
Si Si5 0.063198 0.652980 0.045294
Si Si6 0.937620 0.653689 0.393801
O O1 0.250000 0.350336 0.576787
O O2 0.014818 0.290557 0.482926
O O3 0.000000 0.500000 0.580723
O O4 0.999814 0.254504 0.646308
O O5 0.750000 0.148822 0.710145
O O6 0.514866 0.188006 0.806645
O O7 0.500000 0.000000 0.697306
O O8 0.250000 0.853530 0.901427
O O9 0.010310 0.743978 0.968813
O O10 0.000000 0.000000 0.916482
O O11 0.750000 0.652809 0.210959
O O12 0.984400 0.715514 0.305467
O O13 0.000000 0.500000 0.218007
O O14 0.005372 0.712838 0.132400
O O15 0.250000 0.647367 0.046601
O O16 0.000000 0.500000 0.037521
O O17 0.750000 0.649453 0.393160
O O18 0.000000 0.500000 0.393668
#
# Coordination Sequence:
#
# PCOD9339379 Si02
#       6
#     4   4   4   4   4   4
#     4  10  19  32  50  75 103 131 162 202 245 287
#     4  10  20  36  54  73  96 127 164 202 244 295
#     4   9  20  36  53  71  94 124 161 198 238 288
#     4   9  15  25  42  66  94 126 158 192 232 278
#     4  10  19  31  47  72 100 126 157 196 237 281
#     4   8  15  26  42  65  95 126 158 192 232 279
#
# _framework density 17.380461
#
# number of rings (size 3 to 8) (size 9 to 14) (size 15 to 20)
#    0.000    2.667    0.000    3.000    0.000    4.000 
#    0.000    1.667    0.000    1.000    0.000    2.333 
#    0.000    0.000    0.000    0.000    0.000    0.000 
#
# Total GULP energy -133639.450276 kJ/mol
# GULP energy per Si atom -5568.310428 kJ/mol
# Density = 1.734090 g / cm^3
# Si number density = 17.380461 Si / 1000 Ang^3
#
#
#
# Elastic Constant Matrix: (Units=GPa)
#
#
# Indices 1 2 3 4 5 6 
#
# 1 40.4691 19.7719 43.6640 0.0000 0.0000 0.0000
# 2 19.7719 51.5112 86.0886 0.0000 0.0000 0.0000
# 3 43.6640 86.0886 209.6901 0.0000 0.0000 0.0000
# 4 0.0000 0.0000 0.0000 -8.5524 0.0000 0.0000
# 5 0.0000 0.0000 0.0000 0.0000 -9.3238 0.0000
# 6 0.0000 0.0000 0.0000 0.0000 0.0000 20.8446
#
#
#
# Elastic Compliance Matrix: (Units=1/GPa)
#
#
# Indices 1 2 3 4 5 6 
#
# 1 0.032086 -0.003663 -0.005178 0.000000 0.000000 0.000000
# 2 -0.003663 0.062271 -0.024803 0.000000 0.000000 0.000000
# 3 -0.005178 -0.024803 0.016030 0.000000 0.000000 0.000000
# 4 0.000000 0.000000 0.000000 -0.116926 0.000000 0.000000
# 5 0.000000 0.000000 0.000000 0.000000 -0.107252 0.000000
# 6 0.000000 0.000000 0.000000 0.000000 0.000000 0.047974
#
#
# Mechanical properties :
#
#
# Convention : Reuss Voigt Hill
#
# Bulk Modulus (GPa) = 23.20145 66.74659 44.97402
# Shear Modulus (GPa) = 315.75973 10.73674 163.24823
#
# Velocity S-wave (km/s) = 13.49331 2.48815 9.70207
# Velocity P-wave (km/s) = 16.00430 6.83675 12.30607
#
# Compressibility (1/GPa) = 0.04310076
#
# Stress axis : x y z
#
# Youngs Moduli (GPa) = 31.16619 16.05892 62.38367
#
# Poissons Ratio (x) = 0.05882 0.32300
# Poissons Ratio (y) = 0.11415 1.54728
# Poissons Ratio (z) = 0.16137 0.39830
#
# Static dielectric constant tensor:
#      x y z
#    x 1.593600 0.000000 0.000000 
#    y 0.000000 1.542080 0.000000 
#    z 0.000000 0.000000 1.661870 
# 
# From -- ./inp_files/6678.got.cif
#   From: 2010.05.17/outbox.cif.g08.bks.cpg/sg28_4_cif.got.tgz:6678.got - 2010.06.04 01:15:21.
