data_PCOD9339808
_publ_section_title
;
Structure prediction by ZEFSAII (Michael W. Deem and Ramdas Pophale) SiO2 
 PCOD9339808
Probable space group: P M A 2
;
_chemical_formula_sum "Si O2"
_cell_formula_units_Z 32
_cell_length_a 8.608943
_cell_length_b 15.855483
_cell_length_c 12.186966
_cell_angle_alpha 90.000000
_cell_angle_beta 90.000000
_cell_angle_gamma 90.000000
_cell_volume 1663.508055
_symmetry_space_group_name_H-M "P M A 2"
_symmetry_group_IT_number 28
_symmetry_cell_setting 'orthorhombic'
loop_
_space_group_symop_operation_xyz
x,y,z
-x,-y,z
1/2-x,y,z
1/2+x,-y,z
loop_
_atom_site_type_symbol
_atom_site_label
_atom_site_fract_x
_atom_site_fract_y
_atom_site_fract_z
Si Si1 0.565028 0.090324 0.274240
Si Si2 0.436653 0.409480 0.807911
Si Si3 0.560842 0.749527 0.661630
Si Si4 0.064095 0.591115 0.275923
Si Si5 0.436746 0.151982 0.044565
Si Si6 0.937238 0.909577 0.803805
Si Si7 0.063219 0.249345 0.408335
Si Si8 0.563429 0.342332 0.036419
O O1 0.750000 0.089844 0.277961
O O2 0.509720 0.107078 0.149659
O O3 0.501163 0.167262 0.346592
O O4 0.500000 0.000000 0.311120
O O5 0.500000 0.500000 0.772378
O O6 0.250000 0.411087 0.811055
O O7 0.487471 0.334130 0.727177
O O8 0.498990 0.388384 0.929173
O O9 0.750000 0.750062 0.663115
O O10 0.509046 0.832690 0.727138
O O11 0.512496 0.749958 0.535293
O O12 0.250000 0.592066 0.284711
O O13 0.022347 0.609735 0.148810
O O14 0.000000 0.500000 0.308722
O O15 0.995640 0.666939 0.347609
O O16 0.250000 0.149475 0.053280
O O17 0.492076 0.248792 0.042114
O O18 0.483867 0.109793 0.929445
O O19 0.750000 0.910894 0.801070
O O20 0.000000 0.000000 0.768824
O O21 0.250000 0.247254 0.403929
O O22 0.750000 0.336320 0.029972
#
# Coordination Sequence:
#
# PCOD9339808 Si02
#       8
#     4   4   4   4   4   4   4   4
#     4  12  25  42  63  92 128 163 207 255 305 368
#     4  11  22  40  63  90 125 161 203 252 304 366
#     4   9  21  42  63  86 120 161 204 254 308 363
#     4  11  24  41  62  91 126 161 203 253 306 367
#     4  11  21  37  64  92 125 164 199 246 310 368
#     4  10  21  39  61  90 123 158 197 243 299 359
#     4  11  23  42  67  90 120 162 209 259 313 365
#     4  11  22  37  61  93 127 160 200 250 305 368
#
# _framework density 19.236456
#
# number of rings (size 3 to 8) (size 9 to 14) (size 15 to 20)
#    0.000    1.250    2.500    3.750    0.000    5.500 
#    0.000    6.250    0.000    0.000    0.000    0.000 
#    0.000    0.000    0.000    0.000    0.000    0.000 
#
# Total GULP energy -178966.824030 kJ/mol
# GULP energy per Si atom -5592.713251 kJ/mol
# Density = 1.919267 g / cm^3
# Si number density = 19.236456 Si / 1000 Ang^3
#
#
#
# Elastic Constant Matrix: (Units=GPa)
#
#
# Indices 1 2 3 4 5 6 
#
# 1 63.7684 46.9424 46.6237 0.0000 0.0000 0.0000
# 2 46.9424 204.0318 93.3115 0.0000 0.0000 0.0000
# 3 46.6237 93.3115 161.0483 0.0000 0.0000 0.0000
# 4 0.0000 0.0000 0.0000 -3.8012 0.0000 0.0000
# 5 0.0000 0.0000 0.0000 0.0000 -8.6965 0.0000
# 6 0.0000 0.0000 0.0000 0.0000 0.0000 38.1146
#
#
#
# Elastic Compliance Matrix: (Units=1/GPa)
#
#
# Indices 1 2 3 4 5 6 
#
# 1 0.020998 -0.002790 -0.004462 0.000000 0.000000 0.000000
# 2 -0.002790 0.007039 -0.003271 0.000000 0.000000 0.000000
# 3 -0.004462 -0.003271 0.009396 0.000000 0.000000 0.000000
# 4 0.000000 0.000000 0.000000 -0.263072 0.000000 0.000000
# 5 0.000000 0.000000 0.000000 0.000000 -0.114989 0.000000
# 6 0.000000 0.000000 0.000000 0.000000 0.000000 0.026237
#
#
# Mechanical properties :
#
#
# Convention : Reuss Voigt Hill
#
# Bulk Modulus (GPa) = 61.02404 89.17817 75.10110
# Shear Modulus (GPa) = -17.36827 21.25477 1.94325
#
# Velocity S-wave (km/s) = -3.00806 3.32764 1.00617
# Velocity P-wave (km/s) = 4.44156 7.82457 6.36205
#
# Compressibility (1/GPa) = 0.01638698
#
# Stress axis : x y z
#
# Youngs Moduli (GPa) = 47.62254 142.06687 106.42697
#
# Poissons Ratio (x) = 0.39643 0.47491
# Poissons Ratio (y) = 0.13289 0.34807
# Poissons Ratio (z) = 0.21251 0.46463
#
# Static dielectric constant tensor:
#      x y z
#    x 1.649080 0.000000 0.000000 
#    y 0.000000 1.642840 0.000000 
#    z 0.000000 0.000000 1.655300 
# 
# From -- ./inp_files/5069.got.cif
#   From: 2010.05.17/outbox.cif.g08.bks.cpg/sg28_3_cif.got.tgz:5069.got - 2010.06.04 01:15:21.
