data_PCOD9339164
_publ_section_title
;
Structure prediction by ZEFSAII (Michael W. Deem and Ramdas Pophale) SiO2 
 PCOD9339164
Probable space group: P C C 2
;
_chemical_formula_sum "Si O2"
_cell_formula_units_Z 20
_cell_length_a 7.030638
_cell_length_b 8.441751
_cell_length_c 15.430471
_cell_angle_alpha 90.000000
_cell_angle_beta 90.000000
_cell_angle_gamma 90.000000
_cell_volume 915.812270
_symmetry_space_group_name_H-M "P C C 2"
_symmetry_group_IT_number 27
_symmetry_cell_setting 'orthorhombic'
loop_
_space_group_symop_operation_xyz
x,y,z
-x,-y,z
-x,y,1/2+z
x,-y,1/2+z
loop_
_atom_site_type_symbol
_atom_site_label
_atom_site_fract_x
_atom_site_fract_y
_atom_site_fract_z
Si Si1 0.585608 0.844393 0.459930
Si Si2 0.114266 0.853201 0.103767
Si Si3 0.201961 0.661557 0.503380
Si Si4 0.278775 0.442266 0.352183
Si Si5 0.724053 0.538998 0.668637
O O1 0.712501 0.900565 0.540798
O O2 0.407412 0.744805 0.496567
O O3 0.706377 0.727880 0.398332
O O4 0.500000 0.000000 0.414485
O O5 0.203776 0.720441 0.167427
O O6 0.959785 0.777506 0.037618
O O7 0.000000 0.000000 0.145288
O O8 0.178204 0.573485 0.412106
O O9 0.209267 0.528475 0.577185
O O10 0.500000 0.500000 0.348905
O O11 0.206088 0.447464 0.254088
O O12 0.500000 0.500000 0.667124
#
# Coordination Sequence:
#
# PCOD9339164 Si02
#       5
#     4   4   4   4   4
#     4  11  21  42  68  94 135 176 222 287 351 397
#     4  12  24  40  66 100 136 179 222 287 355 401
#     4  11  21  42  67  93 131 179 234 274 335 416
#     4   9  21  40  68  97 127 180 234 275 329 408
#     4  11  21  42  69  97 136 181 236 281 336 416
#
# _framework density 21.838536000000001
#
# number of rings (size 3 to 8) (size 9 to 14) (size 15 to 20)
#    0.000    1.200    6.000    1.200    0.000    0.000 
#    7.200    8.000    0.000    0.000    0.000    0.000 
#    0.000    0.000    0.000    0.000    0.000    0.000 
#
# Total GULP energy -111632.642752 kJ/mol
# GULP energy per Si atom -5581.632138 kJ/mol
# Density = 2.178883 g / cm^3
# Si number density = 21.838536 Si / 1000 Ang^3
#
#
#
# Elastic Constant Matrix: (Units=GPa)
#
#
# Indices 1 2 3 4 5 6 
#
# 1 112.5692 22.5617 -6.0091 0.0000 0.0000 0.0000
# 2 22.5617 119.5031 14.6395 0.0000 0.0000 0.0000
# 3 -6.0091 14.6395 77.6030 0.0000 0.0000 0.0000
# 4 0.0000 0.0000 0.0000 13.2306 0.0000 0.0000
# 5 0.0000 0.0000 0.0000 0.0000 -9.3257 0.0000
# 6 0.0000 0.0000 0.0000 0.0000 0.0000 42.3341
#
#
#
# Elastic Compliance Matrix: (Units=1/GPa)
#
#
# Indices 1 2 3 4 5 6 
#
# 1 0.009320 -0.001892 0.001079 0.000000 0.000000 0.000000
# 2 -0.001892 0.008950 -0.001835 0.000000 0.000000 0.000000
# 3 0.001079 -0.001835 0.013316 0.000000 0.000000 0.000000
# 4 0.000000 0.000000 0.000000 0.075583 0.000000 0.000000
# 5 0.000000 0.000000 0.000000 0.000000 -0.107231 0.000000
# 6 0.000000 0.000000 0.000000 0.000000 0.000000 0.023622
#
#
# Mechanical properties :
#
#
# Convention : Reuss Voigt Hill
#
# Bulk Modulus (GPa) = 38.03759 41.33995 39.68877
# Shear Modulus (GPa) = 132.91389 27.81334 80.36362
#
# Velocity S-wave (km/s) = 7.80988 3.57261 6.07280
# Velocity P-wave (km/s) = 9.93887 5.99908 8.20884
#
# Compressibility (1/GPa) = 0.02628978
#
# Stress axis : x y z
#
# Youngs Moduli (GPa) = 107.29435 111.73297 75.09896
#
# Poissons Ratio (x) = 0.21137 -0.08100
# Poissons Ratio (y) = 0.20297 0.13780
# Poissons Ratio (z) = -0.11572 0.20501
#
# Static dielectric constant tensor:
#      x y z
#    x 1.945600 0.000000 0.000000 
#    y 0.000000 1.862120 0.000000 
#    z 0.000000 0.000000 1.756210 
# 
# From -- ./inp_files/3263.got.cif
#   From: 2010.05.17/outbox.cif.g08.bks.cpg/sg27_2_cif.got.tgz:3263.got - 2010.06.04 01:11:05.
