data_PCOD9339373
_publ_section_title
;
Structure prediction by ZEFSAII (Michael W. Deem and Ramdas Pophale) SiO2 
 PCOD9339373
Probable space group: P M A 2
;
_chemical_formula_sum "Si O2"
_cell_formula_units_Z 32
_cell_length_a 7.375065
_cell_length_b 36.561589
_cell_length_c 5.388557
_cell_angle_alpha 90.000000
_cell_angle_beta 90.000000
_cell_angle_gamma 90.000000
_cell_volume 1452.992578
_symmetry_space_group_name_H-M "P M A 2"
_symmetry_group_IT_number 28
_symmetry_cell_setting 'orthorhombic'
loop_
_space_group_symop_operation_xyz
x,y,z
-x,-y,z
1/2-x,y,z
1/2+x,-y,z
loop_
_atom_site_type_symbol
_atom_site_label
_atom_site_fract_x
_atom_site_fract_y
_atom_site_fract_z
Si Si1 0.533120 0.456842 0.256810
Si Si2 0.028067 0.082711 0.757054
Si Si3 0.534331 0.419515 0.756811
Si Si4 0.967274 0.666757 0.757093
Si Si5 0.471791 0.293250 0.257092
Si Si6 0.466313 0.043156 0.257055
Si Si7 0.971197 0.791367 0.256894
Si Si8 0.471151 0.167358 0.756895
O O1 0.500000 0.500000 0.256915
O O2 0.750000 0.451316 0.256785
O O3 0.461427 0.437950 0.506442
O O4 0.461424 0.437975 0.007093
O O5 0.250000 0.082060 0.757062
O O6 0.966183 0.062125 0.508568
O O7 0.973563 0.125060 0.756985
O O8 0.966180 0.062136 0.005583
O O9 0.750000 0.426193 0.756783
O O10 0.506947 0.376173 0.756957
O O11 0.750000 0.670833 0.757109
O O12 0.032846 0.686169 0.505993
O O13 0.032845 0.686145 0.008281
O O14 0.250000 0.293791 0.257101
O O15 0.526738 0.250920 0.256979
O O16 0.250000 0.048487 0.257061
O O17 0.500000 0.000000 0.257010
O O18 0.750000 0.791756 0.256891
O O19 0.029158 0.812019 0.506852
O O20 0.029158 0.812002 0.006873
O O21 0.250000 0.167777 0.756890
#
# Coordination Sequence:
#
# PCOD9339373 Si02
#       8
#     4   4   4   4   4   4   4   4
#     4  10  21  36  54  75  99 126 156 194 236 278
#     4   9  17  28  42  62  89 118 148 186 228 270
#     4  10  21  36  52  73 100 127 158 196 234 271
#     4  10  19  31  48  69  95 127 159 190 227 271
#     4   9  17  28  42  65  96 125 154 190 230 269
#     4  10  19  31  46  64  89 118 148 186 228 270
#     4   9  15  23  37  58  88 121 147 178 223 273
#     4   9  15  23  37  58  85 118 149 176 221 278
#
# _framework density 22.023513000000001
#
# number of rings (size 3 to 8) (size 9 to 14) (size 15 to 20)
#    0.000    2.500    0.000    3.000    0.000    7.000 
#    0.000    0.000    0.000    0.000    0.000    0.000 
#    0.000   20.000    0.000    0.000    0.000    0.000 
#
# Total GULP energy -178922.108115 kJ/mol
# GULP energy per Si atom -5591.315879 kJ/mol
# Density = 2.197339 g / cm^3
# Si number density = 22.023513 Si / 1000 Ang^3
#
#
#
# Elastic Constant Matrix: (Units=GPa)
#
#
# Indices 1 2 3 4 5 6 
#
# 1 79.0733 -8.0042 12.9214 0.0000 0.0000 0.0000
# 2 -8.0042 248.2302 178.7501 0.0000 0.0000 0.0000
# 3 12.9214 178.7501 300.7161 0.0000 0.0000 0.0000
# 4 0.0000 0.0000 0.0000 53.6515 0.0000 0.0000
# 5 0.0000 0.0000 0.0000 0.0000 -18.6220 0.0000
# 6 0.0000 0.0000 0.0000 0.0000 0.0000 12.7462
#
#
#
# Elastic Compliance Matrix: (Units=1/GPa)
#
#
# Indices 1 2 3 4 5 6 
#
# 1 0.013023 0.001439 -0.001415 0.000000 0.000000 0.000000
# 2 0.001439 0.007202 -0.004343 0.000000 0.000000 0.000000
# 3 -0.001415 -0.004343 0.005968 0.000000 0.000000 0.000000
# 4 0.000000 0.000000 0.000000 0.018639 0.000000 0.000000
# 5 0.000000 0.000000 0.000000 0.000000 -0.053700 0.000000
# 6 0.000000 0.000000 0.000000 0.000000 0.000000 0.078455
#
#
# Mechanical properties :
#
#
# Convention : Reuss Voigt Hill
#
# Bulk Modulus (GPa) = 56.96303 110.59491 83.77897
# Shear Modulus (GPa) = 59.46925 39.17862 49.32393
#
# Velocity S-wave (km/s) = 5.20204 4.22233 4.73758
# Velocity P-wave (km/s) = 7.87416 8.60793 8.24921
#
# Compressibility (1/GPa) = 0.01755525
#
# Stress axis : x y z
#
# Youngs Moduli (GPa) = 76.78536 138.84533 167.56875
#
# Poissons Ratio (x) = -0.19976 0.23708
# Poissons Ratio (y) = -0.11047 0.72774
# Poissons Ratio (z) = 0.10864 0.60300
#
# Static dielectric constant tensor:
#      x y z
#    x 1.893040 0.000000 0.000000 
#    y 0.000000 1.721510 0.000000 
#    z 0.000000 0.000000 1.775530 
# 
# From -- ./inp_files/252.got.cif
#   From: 2010.05.17/outbox.cif.g08.bks.cpg/sg28_1_cif.got.tgz:252.got - 2010.06.04 01:15:21.
