data_PCOD9339635
_publ_section_title
;
Structure prediction by ZEFSAII (Michael W. Deem and Ramdas Pophale) SiO2 
 PCOD9339635
Probable space group: P M A 2
;
_chemical_formula_sum "Si O2"
_cell_formula_units_Z 24
_cell_length_a 8.615446
_cell_length_b 16.361535
_cell_length_c 9.734856
_cell_angle_alpha 90.000000
_cell_angle_beta 90.000000
_cell_angle_gamma 90.000000
_cell_volume 1372.244005
_symmetry_space_group_name_H-M "P M A 2"
_symmetry_group_IT_number 28
_symmetry_cell_setting 'orthorhombic'
loop_
_space_group_symop_operation_xyz
x,y,z
-x,-y,z
1/2-x,y,z
1/2+x,-y,z
loop_
_atom_site_type_symbol
_atom_site_label
_atom_site_fract_x
_atom_site_fract_y
_atom_site_fract_z
Si Si1 0.435672 0.583261 0.110070
Si Si2 0.437207 0.762929 0.108602
Si Si3 0.937207 0.762929 0.799427
Si Si4 0.063146 0.912435 0.299978
Si Si5 0.563146 0.912435 0.608052
Si Si6 0.564328 0.583261 0.797960
O O1 0.500000 0.500000 0.176121
O O2 0.250000 0.577720 0.106054
O O3 0.481133 0.672756 0.165838
O O4 0.500000 0.584471 0.954015
O O5 0.250000 0.764476 0.101747
O O6 0.487871 0.837694 0.203751
O O7 0.500000 0.771167 0.954015
O O8 0.750000 0.764476 0.806283
O O9 0.987871 0.837694 0.704279
O O10 0.981133 0.672756 0.742192
O O11 0.250000 0.915184 0.303793
O O12 0.000000 0.900915 0.454015
O O13 0.000000 0.000000 0.250082
O O14 0.750000 0.915184 0.604237
O O15 0.500000 0.000000 0.657947
O O16 0.500000 0.500000 0.731909
O O17 0.750000 0.577720 0.801976
#
# Coordination Sequence:
#
# PCOD9339635 Si02
#       6
#     4   4   4   4   4   4
#     4   9  15  25  41  64  92 122 152 186 225 271
#     4   9  19  32  48  71  99 125 155 193 235 277
#     4   9  19  32  48  71  99 125 155 193 235 277
#     4  10  20  35  52  71  93 123 159 195 233 281
#     4  10  20  35  52  71  93 123 159 195 233 281
#     4   9  15  25  41  64  92 122 152 186 225 271
#
# _framework density 17.489601
#
# number of rings (size 3 to 8) (size 9 to 14) (size 15 to 20)
#    0.000    2.667    0.000    4.000    0.000    4.667 
#    0.000    3.333    0.000    1.000    0.000    7.000 
#    0.000    0.000    0.000    0.000    0.000    0.000 
#
# Total GULP energy -133663.850141 kJ/mol
# GULP energy per Si atom -5569.327089 kJ/mol
# Density = 1.744979 g / cm^3
# Si number density = 17.489601 Si / 1000 Ang^3
#
#
#
# Elastic Constant Matrix: (Units=GPa)
#
#
# Indices 1 2 3 4 5 6 
#
# 1 41.7136 44.9263 13.1157 0.0000 0.0000 0.0000
# 2 44.9263 233.1324 70.8309 0.0000 0.0000 0.0000
# 3 13.1157 70.8309 35.7448 0.0000 0.0000 0.0000
# 4 0.0000 0.0000 0.0000 -3.8746 0.0000 0.0000
# 5 0.0000 0.0000 0.0000 0.0000 8.7599 0.0000
# 6 0.0000 0.0000 0.0000 0.0000 0.0000 33.3346
#
#
#
# Elastic Compliance Matrix: (Units=1/GPa)
#
#
# Indices 1 2 3 4 5 6 
#
# 1 0.030270 -0.006178 0.001136 0.000000 0.000000 0.000000
# 2 -0.006178 0.012040 -0.021591 0.000000 0.000000 0.000000
# 3 0.001136 -0.021591 0.070342 0.000000 0.000000 0.000000
# 4 0.000000 0.000000 0.000000 -0.258089 0.000000 0.000000
# 5 0.000000 0.000000 0.000000 0.000000 0.114157 0.000000
# 6 0.000000 0.000000 0.000000 0.000000 0.000000 0.029999
#
#
# Mechanical properties :
#
#
# Convention : Reuss Voigt Hill
#
# Bulk Modulus (GPa) = 16.83881 63.14851 39.99366
# Shear Modulus (GPa) = 69.65730 19.75851 44.70791
#
# Velocity S-wave (km/s) = 6.31778 3.36479 5.06143
# Velocity P-wave (km/s) = 7.92893 7.16104 7.55474
#
# Compressibility (1/GPa) = 0.05938662
#
# Stress axis : x y z
#
# Youngs Moduli (GPa) = 33.03592 83.05812 14.21616
#
# Poissons Ratio (x) = 0.51317 -0.01615
# Poissons Ratio (y) = 0.20411 0.30694
# Poissons Ratio (z) = -0.03754 1.79327
#
# Static dielectric constant tensor:
#      x y z
#    x 1.594730 0.000000 0.000000 
#    y 0.000000 1.669240 0.000000 
#    z 0.000000 0.000000 1.550330 
# 
# From -- ./inp_files/2563.got.cif
#   From: 2010.05.17/outbox.cif.g08.bks.cpg/sg28_2_cif.got.tgz:2563.got - 2010.06.04 01:15:21.
