data_PCOD9339912
_publ_section_title
;
Structure prediction by ZEFSAII (Michael W. Deem and Ramdas Pophale) SiO2 
 PCOD9339912
Probable space group: P M A 2
;
_chemical_formula_sum "Si O2"
_cell_formula_units_Z 12
_cell_length_a 20.096815
_cell_length_b 5.105419
_cell_length_c 5.252606
_cell_angle_alpha 90.000000
_cell_angle_beta 90.000000
_cell_angle_gamma 90.000000
_cell_volume 538.931354
_symmetry_space_group_name_H-M "P M A 2"
_symmetry_group_IT_number 28
_symmetry_cell_setting 'orthorhombic'
loop_
_space_group_symop_operation_xyz
x,y,z
-x,-y,z
1/2-x,y,z
1/2+x,-y,z
loop_
_atom_site_type_symbol
_atom_site_label
_atom_site_fract_x
_atom_site_fract_y
_atom_site_fract_z
Si Si1 0.326145 0.058060 0.435380
Si Si2 0.608613 0.424270 0.233853
Si Si3 0.563283 0.181113 0.731085
O O1 0.250000 0.121953 0.490657
O O2 0.363063 0.290983 0.288093
O O3 0.370725 0.996498 0.684450
O O4 0.332822 0.790831 0.273178
O O5 0.559852 0.333276 0.462486
O O6 0.576017 0.376414 0.962426
O O7 0.500000 0.000000 0.775043
#
# Coordination Sequence:
#
# PCOD9339912 Si02
#       3
#     4   4   4
#     4  10  24  44  66  99 134 176 224 277 335 398
#     4  10  24  42  67  97 129 175 222 272 334 400
#     4  10  24  46  67 101 133 178 224 279 337 400
#
# _framework density 22.266289
#
# number of rings (size 3 to 8) (size 9 to 14) (size 15 to 20)
#    2.000    0.000    0.000    2.000    4.667    4.000 
#    0.000    0.000    0.000    0.000    0.000    0.000 
#    0.000    0.000    0.000    0.000    0.000    0.000 
#
# Total GULP energy -66979.681331 kJ/mol
# GULP energy per Si atom -5581.640111 kJ/mol
# Density = 2.221561 g / cm^3
# Si number density = 22.266289 Si / 1000 Ang^3
#
#
#
# Elastic Constant Matrix: (Units=GPa)
#
#
# Indices 1 2 3 4 5 6 
#
# 1 112.8531 14.9852 27.3905 0.0000 0.0000 0.0000
# 2 14.9852 97.1253 28.0704 0.0000 0.0000 0.0000
# 3 27.3905 28.0704 136.8728 0.0000 0.0000 0.0000
# 4 0.0000 0.0000 0.0000 249.1979 0.0000 0.0000
# 5 0.0000 0.0000 0.0000 0.0000 4.8900 0.0000
# 6 0.0000 0.0000 0.0000 0.0000 0.0000 32.9622
#
#
#
# Elastic Compliance Matrix: (Units=1/GPa)
#
#
# Indices 1 2 3 4 5 6 
#
# 1 0.009397 -0.000964 -0.001683 0.000000 0.000000 0.000000
# 2 -0.000964 0.011043 -0.002072 0.000000 0.000000 0.000000
# 3 -0.001683 -0.002072 0.008068 0.000000 0.000000 0.000000
# 4 0.000000 0.000000 0.000000 0.004013 0.000000 0.000000
# 5 0.000000 0.000000 0.000000 0.000000 0.204501 0.000000
# 6 0.000000 0.000000 0.000000 0.000000 0.000000 0.030338
#
#
# Mechanical properties :
#
#
# Convention : Reuss Voigt Hill
#
# Bulk Modulus (GPa) = 52.43370 54.19372 53.31371
# Shear Modulus (GPa) = 17.65820 75.83702 46.74761
#
# Velocity S-wave (km/s) = 2.81916 5.84235 4.58698
# Velocity P-wave (km/s) = 5.84778 8.36077 7.21453
#
# Compressibility (1/GPa) = 0.01907170
#
# Stress axis : x y z
#
# Youngs Moduli (GPa) = 106.41137 90.55118 123.94972
#
# Poissons Ratio (x) = 0.08725 0.20861
# Poissons Ratio (y) = 0.10253 0.25683
# Poissons Ratio (z) = 0.17909 0.18762
#
# Static dielectric constant tensor:
#      x y z
#    x 1.791070 0.000000 0.000000 
#    y 0.000000 1.810020 0.000000 
#    z 0.000000 0.000000 1.803940 
# 
# From -- ./inp_files/878.got.cif
#   From: 2010.05.17/outbox.cif.g08.bks.cpg/sg28_1_cif.got.tgz:878.got - 2010.06.04 01:15:21.
