data_PCOD9339318
_publ_section_title
;
Structure prediction by ZEFSAII (Michael W. Deem and Ramdas Pophale) SiO2 
 PCOD9339318
Probable space group: P M A 2
;
_chemical_formula_sum "Si O2"
_cell_formula_units_Z 32
_cell_length_a 8.496435
_cell_length_b 15.110872
_cell_length_c 12.673980
_cell_angle_alpha 90.000000
_cell_angle_beta 90.000000
_cell_angle_gamma 90.000000
_cell_volume 1627.193810
_symmetry_space_group_name_H-M "P M A 2"
_symmetry_group_IT_number 28
_symmetry_cell_setting 'orthorhombic'
loop_
_space_group_symop_operation_xyz
x,y,z
-x,-y,z
1/2-x,y,z
1/2+x,-y,z
loop_
_atom_site_type_symbol
_atom_site_label
_atom_site_fract_x
_atom_site_fract_y
_atom_site_fract_z
Si Si1 0.563408 0.093008 0.409840
Si Si2 0.440838 0.710797 0.351853
Si Si3 0.059823 0.093823 0.875885
Si Si4 0.936522 0.319696 0.586532
Si Si5 0.565430 0.866936 0.638007
Si Si6 0.064902 0.593204 0.796076
Si Si7 0.062024 0.600223 0.150502
Si Si8 0.563806 0.721277 0.962836
O O1 0.750000 0.092708 0.399446
O O2 0.504329 0.186268 0.359660
O O3 0.520906 0.096732 0.534360
O O4 0.500000 0.000000 0.366344
O O5 0.250000 0.714441 0.343634
O O6 0.478142 0.666321 0.464744
O O7 0.498399 0.651665 0.255059
O O8 0.250000 0.095473 0.873782
O O9 0.006283 0.104079 0.753366
O O10 0.007352 0.178117 0.944740
O O11 0.000000 0.000000 0.916339
O O12 0.750000 0.294256 0.589099
O O13 0.956479 0.397108 0.670452
O O14 0.037235 0.237697 0.628294
O O15 0.750000 0.888686 0.629808
O O16 0.250000 0.601405 0.819543
O O17 0.000000 0.500000 0.834212
O O18 0.972471 0.670529 0.854345
O O19 0.250000 0.594369 0.156210
O O20 0.000000 0.500000 0.140900
O O21 0.016472 0.662886 0.052869
O O22 0.750000 0.722721 0.982727
#
# Coordination Sequence:
#
# PCOD9339318 Si02
#       8
#     4   4   4   4   4   4   4   4
#     4  10  19  33  53  82 117 157 196 236 281 338
#     4   8  18  37  59  82 114 149 188 234 285 341
#     4  10  22  36  55  82 115 152 190 233 283 338
#     4   9  18  34  55  81 115 155 190 231 284 342
#     4  10  18  31  51  80 115 156 195 234 280 333
#     4  11  22  35  56  85 116 153 191 231 288 351
#     4  11  23  42  66  89 111 146 193 244 297 351
#     4  11  23  42  61  83 116 150 192 245 290 340
#
# _framework density 19.665759999999999
#
# number of rings (size 3 to 8) (size 9 to 14) (size 15 to 20)
#    0.000    2.000    1.250    3.375    0.000    4.000 
#    0.000    6.875    0.000    3.000    0.000    0.000 
#    0.000    0.000    0.000    0.000    0.000    0.000 
#
# Total GULP energy -178523.752823 kJ/mol
# GULP energy per Si atom -5578.867276 kJ/mol
# Density = 1.962100 g / cm^3
# Si number density = 19.665760 Si / 1000 Ang^3
#
#
#
# Elastic Constant Matrix: (Units=GPa)
#
#
# Indices 1 2 3 4 5 6 
#
# 1 23.8465 22.2981 13.3009 0.0000 0.0000 0.0000
# 2 22.2981 149.0497 58.9456 0.0000 0.0000 0.0000
# 3 13.3009 58.9456 99.7013 0.0000 0.0000 0.0000
# 4 0.0000 0.0000 0.0000 15.4344 0.0000 0.0000
# 5 0.0000 0.0000 0.0000 0.0000 -25.7961 0.0000
# 6 0.0000 0.0000 0.0000 0.0000 0.0000 27.1442
#
#
#
# Elastic Compliance Matrix: (Units=1/GPa)
#
#
# Indices 1 2 3 4 5 6 
#
# 1 0.049389 -0.006242 -0.002898 0.000000 0.000000 0.000000
# 2 -0.006242 0.009546 -0.004811 0.000000 0.000000 0.000000
# 3 -0.002898 -0.004811 0.013261 0.000000 0.000000 0.000000
# 4 0.000000 0.000000 0.000000 0.064790 0.000000 0.000000
# 5 0.000000 0.000000 0.000000 0.000000 -0.038766 0.000000
# 6 0.000000 0.000000 0.000000 0.000000 0.000000 0.036840
#
#
# Mechanical properties :
#
#
# Convention : Reuss Voigt Hill
#
# Bulk Modulus (GPa) = 22.57734 51.29853 36.93793
# Shear Modulus (GPa) = 28.13309 15.22671 21.67990
#
# Velocity S-wave (km/s) = 3.78638 2.78560 3.32387
# Velocity P-wave (km/s) = 5.53363 6.04052 5.79262
#
# Compressibility (1/GPa) = 0.04429221
#
# Stress axis : x y z
#
# Youngs Moduli (GPa) = 20.24762 104.76028 75.41009
#
# Poissons Ratio (x) = 0.65397 0.21855
# Poissons Ratio (y) = 0.12640 0.36278
# Poissons Ratio (z) = 0.05868 0.50398
#
# Static dielectric constant tensor:
#      x y z
#    x 1.678960 0.000000 0.000000 
#    y 0.000000 1.692940 0.000000 
#    z 0.000000 0.000000 1.700320 
# 
# From -- ./inp_files/5038.got.cif
#   From: 2010.05.17/outbox.cif.g08.bks.cpg/sg28_3_cif.got.tgz:5038.got - 2010.06.04 01:15:21.
