data_PCOD9339780
_publ_section_title
;
Structure prediction by ZEFSAII (Michael W. Deem and Ramdas Pophale) SiO2 
 PCOD9339780
Probable space group: P M A 2
;
_chemical_formula_sum "Si O2"
_cell_formula_units_Z 32
_cell_length_a 21.782001
_cell_length_b 11.051592
_cell_length_c 6.450850
_cell_angle_alpha 90.000000
_cell_angle_beta 90.000000
_cell_angle_gamma 90.000000
_cell_volume 1552.885949
_symmetry_space_group_name_H-M "P M A 2"
_symmetry_group_IT_number 28
_symmetry_cell_setting 'orthorhombic'
loop_
_space_group_symop_operation_xyz
x,y,z
-x,-y,z
1/2-x,y,z
1/2+x,-y,z
loop_
_atom_site_type_symbol
_atom_site_label
_atom_site_fract_x
_atom_site_fract_y
_atom_site_fract_z
Si Si1 0.678445 0.321411 0.243420
Si Si2 0.610861 0.494470 0.574145
Si Si3 0.619188 0.118201 0.488831
Si Si4 0.104004 0.296857 0.291419
Si Si5 0.821387 0.865124 0.584654
Si Si6 0.178464 0.343025 0.896848
Si Si7 0.089216 0.707948 0.863514
Si Si8 0.508739 0.135861 0.165340
O O1 0.750000 0.348694 0.221624
O O2 0.645554 0.411071 0.406192
O O3 0.667777 0.187736 0.341335
O O4 0.642648 0.326127 0.026099
O O5 0.577996 0.600288 0.444957
O O6 0.660221 0.561353 0.720525
O O7 0.571965 0.408413 0.725410
O O8 0.612887 0.194582 0.698125
O O9 0.556315 0.123215 0.356751
O O10 0.638899 0.984222 0.550389
O O11 0.159578 0.229282 0.406967
O O12 0.053633 0.196885 0.240573
O O13 0.132625 0.356440 0.087797
O O14 0.750000 0.896341 0.572297
O O15 0.831573 0.790625 0.797148
O O16 0.250000 0.355227 0.952871
O O17 0.036922 0.772198 0.997717
O O18 0.500000 0.000000 0.080683
#
# Coordination Sequence:
#
# PCOD9339780 Si02
#       8
#     4   4   4   4   4   4   4   4
#     4  10  21  39  64  93 130 170 209 261 319 385
#     4  10  22  42  62  91 131 166 213 260 320 390
#     4  10  22  41  61  92 129 170 213 260 321 380
#     4  11  23  41  64  92 125 168 209 263 322 375
#     4  10  21  37  60  93 129 162 205 258 315 382
#     4  10  22  38  63  96 128 167 209 258 323 389
#     4  10  24  41  64  96 125 166 218 263 317 382
#     4  11  24  44  67  94 125 172 225 274 324 380
#
# _framework density 20.606794000000001
#
# number of rings (size 3 to 8) (size 9 to 14) (size 15 to 20)
#    0.000    1.750    1.250    1.875    1.750    8.000 
#    0.000   16.250    0.000    0.000    0.000    0.000 
#    0.000    0.000    0.000    0.000    0.000    0.000 
#
# Total GULP energy -178776.380576 kJ/mol
# GULP energy per Si atom -5586.761893 kJ/mol
# Density = 2.055989 g / cm^3
# Si number density = 20.606794 Si / 1000 Ang^3
#
#
#
# Elastic Constant Matrix: (Units=GPa)
#
#
# Indices 1 2 3 4 5 6 
#
# 1 55.2568 17.9141 30.2022 0.0000 0.0000 0.0000
# 2 17.9141 104.0835 34.9015 0.0000 0.0000 0.0000
# 3 30.2022 34.9015 100.0554 0.0000 0.0000 0.0000
# 4 0.0000 0.0000 0.0000 31.5901 0.0000 0.0000
# 5 0.0000 0.0000 0.0000 0.0000 12.0639 0.0000
# 6 0.0000 0.0000 0.0000 0.0000 0.0000 15.8702
#
#
#
# Elastic Compliance Matrix: (Units=1/GPa)
#
#
# Indices 1 2 3 4 5 6 
#
# 1 0.021955 -0.001763 -0.006012 0.000000 0.000000 0.000000
# 2 -0.001763 0.011022 -0.003313 0.000000 0.000000 0.000000
# 3 -0.006012 -0.003313 0.012965 0.000000 0.000000 0.000000
# 4 0.000000 0.000000 0.000000 0.031655 0.000000 0.000000
# 5 0.000000 0.000000 0.000000 0.000000 0.082892 0.000000
# 6 0.000000 0.000000 0.000000 0.000000 0.000000 0.063011
#
#
# Mechanical properties :
#
#
# Convention : Reuss Voigt Hill
#
# Bulk Modulus (GPa) = 42.07616 47.27014 44.67315
# Shear Modulus (GPa) = 19.71629 23.66338 21.68983
#
# Velocity S-wave (km/s) = 3.09655 3.39238 3.24783
# Velocity P-wave (km/s) = 5.76609 6.19138 5.98251
#
# Compressibility (1/GPa) = 0.02376643
#
# Stress axis : x y z
#
# Youngs Moduli (GPa) = 45.54773 90.72901 77.13175
#
# Poissons Ratio (x) = 0.15992 0.46374
# Poissons Ratio (y) = 0.08028 0.25551
# Poissons Ratio (z) = 0.27385 0.30055
#
# Static dielectric constant tensor:
#      x y z
#    x 1.692700 0.000000 0.000000 
#    y 0.000000 1.752810 0.000000 
#    z 0.000000 0.000000 1.729270 
# 
# From -- ./inp_files/1625.got.cif
#   From: 2010.05.17/outbox.cif.g08.bks.cpg/sg28_1_cif.got.tgz:1625.got - 2010.06.04 01:15:21.
