data_PCOD9339127
_publ_section_title
;
Structure prediction by ZEFSAII (Michael W. Deem and Ramdas Pophale) SiO2 
 PCOD9339127
Probable space group: P C C 2
;
_chemical_formula_sum "Si O2"
_cell_formula_units_Z 18
_cell_length_a 5.825112
_cell_length_b 5.385547
_cell_length_c 24.368406
_cell_angle_alpha 90.000000
_cell_angle_beta 90.000000
_cell_angle_gamma 90.000000
_cell_volume 764.471364
_symmetry_space_group_name_H-M "P C C 2"
_symmetry_group_IT_number 27
_symmetry_cell_setting 'orthorhombic'
loop_
_space_group_symop_operation_xyz
x,y,z
-x,-y,z
-x,y,1/2+z
x,-y,1/2+z
loop_
_atom_site_type_symbol
_atom_site_label
_atom_site_fract_x
_atom_site_fract_y
_atom_site_fract_z
Si Si1 0.132231 0.247418 0.836260
Si Si2 0.756555 0.124008 0.560426
Si Si3 0.372943 0.747473 0.230589
Si Si4 0.000000 0.000000 0.665428
Si Si5 0.359009 0.260511 0.948610
O O1 0.350719 0.258082 0.796590
O O2 0.174598 0.229922 0.901005
O O3 0.000000 0.500000 0.824498
O O4 0.000000 0.000000 0.819396
O O5 0.721781 0.316970 0.510857
O O6 0.500000 0.000000 0.563654
O O7 0.000000 0.000000 0.539724
O O8 0.832188 0.151180 0.623510
O O9 0.500000 0.500000 0.212045
O O10 0.128589 0.796723 0.202084
O O11 0.500000 0.000000 0.216134
O O12 0.500000 0.500000 0.930344
O O13 0.500000 0.000000 0.949612
#
# Coordination Sequence:
#
# PCOD9339127 Si02
#       5
#     4   4   4   2   4
#     4  12  24  43  73 111 152 194 248 316 392 468
#     4   9  21  45  75 106 150 196 258 310 386 449
#     4  12  26  47  76 109 152 202 255 320 394 466
#     4  10  24  48  76 108 150 204 266 324 382 468
#     4  11  23  44  72 108 149 196 247 314 387 463
#
# _framework density 23.545686
#
# number of rings (size 3 to 8) (size 9 to 14) (size 15 to 20)
#    0.667    0.444    1.111    5.333    0.000    1.778 
#    0.000   14.444    0.000    0.000    0.000    0.000 
#    0.000    0.000    0.000    0.000    0.000    0.000 
#
# Total GULP energy -100244.247813 kJ/mol
# GULP energy per Si atom -5569.124878 kJ/mol
# Density = 2.349209 g / cm^3
# Si number density = 23.545686 Si / 1000 Ang^3
#
#
#
# Elastic Constant Matrix: (Units=GPa)
#
#
# Indices 1 2 3 4 5 6 
#
# 1 95.1363 47.6850 22.6055 0.0000 0.0000 0.0000
# 2 47.6850 163.5385 23.3236 0.0000 0.0000 0.0000
# 3 22.6055 23.3236 130.3312 0.0000 0.0000 0.0000
# 4 0.0000 0.0000 0.0000 1.5688 0.0000 0.0000
# 5 0.0000 0.0000 0.0000 0.0000 35.7424 0.0000
# 6 0.0000 0.0000 0.0000 0.0000 0.0000 46.6528
#
#
#
# Elastic Compliance Matrix: (Units=1/GPa)
#
#
# Indices 1 2 3 4 5 6 
#
# 1 0.012616 -0.003455 -0.001570 0.000000 0.000000 0.000000
# 2 -0.003455 0.007221 -0.000693 0.000000 0.000000 0.000000
# 3 -0.001570 -0.000693 0.008069 0.000000 0.000000 0.000000
# 4 0.000000 0.000000 0.000000 0.637420 0.000000 0.000000
# 5 0.000000 0.000000 0.000000 0.000000 0.027978 0.000000
# 6 0.000000 0.000000 0.000000 0.000000 0.000000 0.021435
#
#
# Mechanical properties :
#
#
# Convention : Reuss Voigt Hill
#
# Bulk Modulus (GPa) = 60.71429 64.02603 62.37016
# Shear Modulus (GPa) = 6.83374 36.48561 21.65967
#
# Velocity S-wave (km/s) = 1.70547 3.94072 3.03628
# Velocity P-wave (km/s) = 5.45160 6.92510 6.23205
#
# Compressibility (1/GPa) = 0.01647059
#
# Stress axis : x y z
#
# Youngs Moduli (GPa) = 79.26538 138.48642 123.92982
#
# Poissons Ratio (x) = 0.47842 0.19456
# Poissons Ratio (y) = 0.27383 0.08589
# Poissons Ratio (z) = 0.12444 0.09598
#
# Static dielectric constant tensor:
#      x y z
#    x 2.049360 0.000000 0.000000 
#    y 0.000000 1.763760 0.000000 
#    z 0.000000 0.000000 1.856760 
# 
# From -- ./inp_files/4931.got.cif
#   From: 2010.05.17/outbox.cif.g08.bks.cpg/sg27_3_cif.got.tgz:4931.got - 2010.06.04 01:11:05.
