data_PCOD9339596
_publ_section_title
;
Structure prediction by ZEFSAII (Michael W. Deem and Ramdas Pophale) SiO2 
 PCOD9339596
Probable space group: P M A 2
;
_chemical_formula_sum "Si O2"
_cell_formula_units_Z 28
_cell_length_a 8.716634
_cell_length_b 9.325811
_cell_length_c 18.696310
_cell_angle_alpha 90.000000
_cell_angle_beta 90.000000
_cell_angle_gamma 90.000000
_cell_volume 1519.817080
_symmetry_space_group_name_H-M "P M A 2"
_symmetry_group_IT_number 28
_symmetry_cell_setting 'orthorhombic'
loop_
_space_group_symop_operation_xyz
x,y,z
-x,-y,z
1/2-x,y,z
1/2+x,-y,z
loop_
_atom_site_type_symbol
_atom_site_label
_atom_site_fract_x
_atom_site_fract_y
_atom_site_fract_z
Si Si1 0.566448 0.840157 0.401790
Si Si2 0.566829 0.661287 0.837259
Si Si3 0.933548 0.160043 0.128252
Si Si4 0.934444 0.661863 0.996663
Si Si5 0.933651 0.339598 0.691650
Si Si6 0.565972 0.159561 0.552265
Si Si7 0.065726 0.340033 0.260583
O O1 0.750000 0.850749 0.407648
O O2 0.499076 0.784569 0.476843
O O3 0.528035 0.739204 0.335105
O O4 0.500000 0.000000 0.390184
O O5 0.500000 0.500000 0.838733
O O6 0.750000 0.655419 0.829694
O O7 0.495938 0.728152 0.765691
O O8 0.530810 0.719436 0.916369
O O9 0.750000 0.155860 0.129119
O O10 0.992606 0.239857 0.057202
O O11 0.994838 0.249514 0.195830
O O12 0.000000 0.000000 0.131164
O O13 0.750000 0.656152 0.004612
O O14 0.000000 0.500000 0.002724
O O15 0.750000 0.346868 0.695668
O O16 0.978347 0.252510 0.621041
O O17 0.000000 0.500000 0.686213
O O18 0.750000 0.153839 0.548101
O O19 0.500000 0.000000 0.560524
O O20 0.250000 0.343714 0.252986
O O21 0.000000 0.500000 0.259714
#
# Coordination Sequence:
#
# PCOD9339596 Si02
#       7
#     4   4   4   4   4   4   4
#     4  10  21  37  59  83 109 144 183 224 273 327
#     4   9  17  30  52  79 108 143 181 224 273 324
#     4  12  25  41  61  84 113 149 186 227 275 329
#     4  10  20  36  58  85 114 146 186 230 278 329
#     4  10  20  33  52  79 109 143 183 227 274 324
#     4  10  21  36  55  79 108 144 184 225 272 326
#     4  11  24  41  61  87 116 147 184 227 275 325
#
# _framework density 18.423269999999999
#
# number of rings (size 3 to 8) (size 9 to 14) (size 15 to 20)
#    0.000    1.714    0.000    6.429    0.000    8.000 
#    0.000    3.571    0.000    1.714    0.000    0.000 
#    0.000    0.000    0.000    0.000    0.000    0.000 
#
# Total GULP energy -156378.833981 kJ/mol
# GULP energy per Si atom -5584.958356 kJ/mol
# Density = 1.838134 g / cm^3
# Si number density = 18.423270 Si / 1000 Ang^3
#
#
#
# Elastic Constant Matrix: (Units=GPa)
#
#
# Indices 1 2 3 4 5 6 
#
# 1 96.7785 48.5824 89.0530 0.0000 0.0000 0.0000
# 2 48.5824 94.6407 97.4634 0.0000 0.0000 0.0000
# 3 89.0530 97.4634 225.0993 0.0000 0.0000 0.0000
# 4 0.0000 0.0000 0.0000 69.4275 0.0000 0.0000
# 5 0.0000 0.0000 0.0000 0.0000 61.5022 0.0000
# 6 0.0000 0.0000 0.0000 0.0000 0.0000 16.9837
#
#
#
# Elastic Compliance Matrix: (Units=1/GPa)
#
#
# Indices 1 2 3 4 5 6 
#
# 1 0.016770 -0.003206 -0.005246 0.000000 0.000000 0.000000
# 2 -0.003206 0.019682 -0.007254 0.000000 0.000000 0.000000
# 3 -0.005246 -0.007254 0.009659 0.000000 0.000000 0.000000
# 4 0.000000 0.000000 0.000000 0.014404 0.000000 0.000000
# 5 0.000000 0.000000 0.000000 0.000000 0.016260 0.000000
# 6 0.000000 0.000000 0.000000 0.000000 0.000000 0.058880
#
#
# Mechanical properties :
#
#
# Convention : Reuss Voigt Hill
#
# Bulk Modulus (GPa) = 68.03210 98.52399 83.27805
# Shear Modulus (GPa) = 29.07585 41.67733 35.37659
#
# Velocity S-wave (km/s) = 3.97698 4.76143 4.38678
# Velocity P-wave (km/s) = 7.62207 9.15546 8.42373
#
# Compressibility (1/GPa) = 0.01469894
#
# Stress axis : x y z
#
# Youngs Moduli (GPa) = 59.63149 50.80840 103.53335
#
# Poissons Ratio (x) = 0.16287 0.54318
# Poissons Ratio (y) = 0.19115 0.75099
# Poissons Ratio (z) = 0.31285 0.36855
#
# Static dielectric constant tensor:
#      x y z
#    x 1.615910 0.000000 0.000000 
#    y 0.000000 1.595150 0.000000 
#    z 0.000000 0.000000 1.661270 
# 
# From -- ./inp_files/6724.got.cif
#   From: 2010.05.17/outbox.cif.g08.bks.cpg/sg28_4_cif.got.tgz:6724.got - 2010.06.04 01:15:21.
