data_PCOD9339552
_publ_section_title
;
Structure prediction by ZEFSAII (Michael W. Deem and Ramdas Pophale) SiO2 
 PCOD9339552
Probable space group: P M A 2
;
_chemical_formula_sum "Si O2"
_cell_formula_units_Z 24
_cell_length_a 16.520034
_cell_length_b 8.187182
_cell_length_c 8.956919
_cell_angle_alpha 90.000000
_cell_angle_beta 90.000000
_cell_angle_gamma 90.000000
_cell_volume 1211.445911
_symmetry_space_group_name_H-M "P M A 2"
_symmetry_group_IT_number 28
_symmetry_cell_setting 'orthorhombic'
loop_
_space_group_symop_operation_xyz
x,y,z
-x,-y,z
1/2-x,y,z
1/2+x,-y,z
loop_
_atom_site_type_symbol
_atom_site_label
_atom_site_fract_x
_atom_site_fract_y
_atom_site_fract_z
Si Si1 0.069783 0.101327 0.073230
Si Si2 0.151915 0.662860 0.295183
Si Si3 0.154357 0.878544 0.833951
Si Si4 0.847171 0.708285 0.333217
Si Si5 0.946122 0.342344 0.983725
Si Si6 0.651436 0.028111 0.507528
O O1 0.115158 0.229151 0.177586
O O2 0.012039 0.199705 0.962305
O O3 0.000000 0.000000 0.161485
O O4 0.128661 0.988026 0.977028
O O5 0.250000 0.670541 0.265463
O O6 0.133985 0.482127 0.363045
O O7 0.099597 0.668028 0.143271
O O8 0.131094 0.818195 0.399549
O O9 0.250000 0.877021 0.828265
O O10 0.122981 0.943826 0.676103
O O11 0.121503 0.696405 0.862468
O O12 0.750000 0.717470 0.321931
O O13 0.874190 0.850495 0.446897
O O14 0.000000 0.500000 0.973812
O O15 0.750000 0.026203 0.509022
#
# Coordination Sequence:
#
# PCOD9339552 Si02
#       6
#     4   4   4   4   4   4
#     4  10  20  35  58  82 113 149 191 238 290 342
#     4  10  20  37  63  90 114 151 198 243 294 350
#     4  10  21  39  60  83 114 159 198 236 294 353
#     4  10  19  35  60  87 111 146 196 246 289 344
#     4  11  21  38  57  84 121 151 191 243 293 343
#     4   9  19  37  59  85 118 149 192 247 292 344
#
# _framework density 19.811036000000001
#
# number of rings (size 3 to 8) (size 9 to 14) (size 15 to 20)
#    0.000    2.000    1.667    3.000    0.000    1.333 
#    3.000    8.333    0.000    0.000    0.000    0.000 
#    0.000    0.000    0.000    0.000    0.000    0.000 
#
# Total GULP energy -133647.490603 kJ/mol
# GULP energy per Si atom -5568.645442 kJ/mol
# Density = 1.976594 g / cm^3
# Si number density = 19.811036 Si / 1000 Ang^3
#
#
#
# Elastic Constant Matrix: (Units=GPa)
#
#
# Indices 1 2 3 4 5 6 
#
# 1 44.8187 34.2073 22.2155 0.0000 0.0000 0.0000
# 2 34.2073 119.5693 30.5992 0.0000 0.0000 0.0000
# 3 22.2155 30.5992 59.2787 0.0000 0.0000 0.0000
# 4 0.0000 0.0000 0.0000 18.2723 0.0000 0.0000
# 5 0.0000 0.0000 0.0000 0.0000 -0.6395 0.0000
# 6 0.0000 0.0000 0.0000 0.0000 0.0000 29.0199
#
#
#
# Elastic Compliance Matrix: (Units=1/GPa)
#
#
# Indices 1 2 3 4 5 6 
#
# 1 0.031736 -0.006954 -0.008304 0.000000 0.000000 0.000000
# 2 -0.006954 0.011160 -0.003155 0.000000 0.000000 0.000000
# 3 -0.008304 -0.003155 0.021610 0.000000 0.000000 0.000000
# 4 0.000000 0.000000 0.000000 0.054728 0.000000 0.000000
# 5 0.000000 0.000000 0.000000 0.000000 -1.563671 0.000000
# 6 0.000000 0.000000 0.000000 0.000000 0.000000 0.034459
#
#
# Mechanical properties :
#
#
# Convention : Reuss Voigt Hill
#
# Bulk Modulus (GPa) = 36.12628 44.19007 40.15817
# Shear Modulus (GPa) = -3.66589 18.44020 7.38716
#
# Velocity S-wave (km/s) = -1.36178 3.05422 1.93311
# Velocity P-wave (km/s) = 3.97523 5.89846 5.02963
#
# Compressibility (1/GPa) = 0.02768068
#
# Stress axis : x y z
#
# Youngs Moduli (GPa) = 31.51026 89.60446 46.27540
#
# Poissons Ratio (x) = 0.62313 0.38426
# Poissons Ratio (y) = 0.21913 0.14598
# Poissons Ratio (z) = 0.26165 0.28267
#
# Static dielectric constant tensor:
#      x y z
#    x 1.706170 0.000000 0.000000 
#    y 0.000000 1.802720 0.000000 
#    z 0.000000 0.000000 1.681890 
# 
# From -- ./inp_files/3768.got.cif
#   From: 2010.05.17/outbox.cif.g08.bks.cpg/sg28_2_cif.got.tgz:3768.got - 2010.06.04 01:15:21.
