data_PCOD9339723
_publ_section_title
;
Structure prediction by ZEFSAII (Michael W. Deem and Ramdas Pophale) SiO2 
 PCOD9339723
Probable space group: P M A 2
;
_chemical_formula_sum "Si O2"
_cell_formula_units_Z 24
_cell_length_a 26.663154
_cell_length_b 7.426798
_cell_length_c 5.259447
_cell_angle_alpha 90.000000
_cell_angle_beta 90.000000
_cell_angle_gamma 90.000000
_cell_volume 1041.485471
_symmetry_space_group_name_H-M "P M A 2"
_symmetry_group_IT_number 28
_symmetry_cell_setting 'orthorhombic'
loop_
_space_group_symop_operation_xyz
x,y,z
-x,-y,z
1/2-x,y,z
1/2+x,-y,z
loop_
_atom_site_type_symbol
_atom_site_label
_atom_site_fract_x
_atom_site_fract_y
_atom_site_fract_z
Si Si1 0.750000 0.064798 0.621620
Si Si2 0.429773 0.867383 0.775187
Si Si3 0.412055 0.388868 0.379441
Si Si4 0.147345 0.043386 0.404805
Si Si5 0.250000 0.696016 0.118874
Si Si6 0.039382 0.253040 0.891625
Si Si7 0.144197 0.688430 0.119501
O O1 0.802200 0.958887 0.575269
O O2 0.750000 0.223329 0.405716
O O3 0.750000 0.154613 0.896444
O O4 0.402407 0.959027 0.537336
O O5 0.483853 0.773995 0.776137
O O6 0.439935 0.049750 0.939126
O O7 0.391173 0.722781 0.882790
O O8 0.430636 0.350403 0.664098
O O9 0.388218 0.582106 0.325581
O O10 0.368526 0.241481 0.325092
O O11 0.453911 0.352287 0.160826
O O12 0.157902 0.893193 0.194569
O O13 0.197474 0.593844 0.079896
#
# Coordination Sequence:
#
# PCOD9339723 Si02
#       7
#     2   4   4   4   2   4   4
#     4  10  20  37  68  91 123 167 216 257 323 393
#     4  10  21  40  69  85 133 173 209 267 329 375
#     4  11  25  41  63  95 130 162 220 265 319 390
#     4  10  22  42  64  92 129 168 213 265 325 384
#     4  10  22  39  64  97 123 165 220 261 323 393
#     4  10  24  42  62  96 127 171 218 261 319 395
#     4  11  23  41  67  91 130 168 212 271 325 379
#
# _framework density 23.044008000000002
#
# number of rings (size 3 to 8) (size 9 to 14) (size 15 to 20)
#    0.000    1.667    3.333    0.000    4.667    2.667 
#    0.000    0.000    0.000    6.000    0.000    0.000 
#    0.000    0.000    0.000    0.000    0.000    0.000 
#
# Total GULP energy -133862.678296 kJ/mol
# GULP energy per Si atom -5577.611596 kJ/mol
# Density = 2.299156 g / cm^3
# Si number density = 23.044008 Si / 1000 Ang^3
#
#
#
# Elastic Constant Matrix: (Units=GPa)
#
#
# Indices 1 2 3 4 5 6 
#
# 1 114.0419 8.2423 16.0870 0.0000 0.0000 0.0000
# 2 8.2423 67.5599 19.6315 0.0000 0.0000 0.0000
# 3 16.0870 19.6315 81.0651 0.0000 0.0000 0.0000
# 4 0.0000 0.0000 0.0000 22.9559 0.0000 0.0000
# 5 0.0000 0.0000 0.0000 0.0000 28.3247 0.0000
# 6 0.0000 0.0000 0.0000 0.0000 0.0000 15.0923
#
#
#
# Elastic Compliance Matrix: (Units=1/GPa)
#
#
# Indices 1 2 3 4 5 6 
#
# 1 0.009046 -0.000626 -0.001643 0.000000 0.000000 0.000000
# 2 -0.000626 0.015965 -0.003742 0.000000 0.000000 0.000000
# 3 -0.001643 -0.003742 0.013568 0.000000 0.000000 0.000000
# 4 0.000000 0.000000 0.000000 0.043562 0.000000 0.000000
# 5 0.000000 0.000000 0.000000 0.000000 0.035305 0.000000
# 6 0.000000 0.000000 0.000000 0.000000 0.000000 0.066259
#
#
# Mechanical properties :
#
#
# Convention : Reuss Voigt Hill
#
# Bulk Modulus (GPa) = 37.65615 38.95431 38.30523
# Shear Modulus (GPa) = 24.44032 27.85502 26.14767
#
# Velocity S-wave (km/s) = 3.26021 3.48052 3.37216
# Velocity P-wave (km/s) = 5.52706 5.75265 5.64098
#
# Compressibility (1/GPa) = 0.02655609
#
# Stress axis : x y z
#
# Youngs Moduli (GPa) = 110.54873 62.63537 73.70214
#
# Poissons Ratio (x) = 0.03921 0.12113
# Poissons Ratio (y) = 0.06921 0.27580
# Poissons Ratio (z) = 0.18169 0.23439
#
# Static dielectric constant tensor:
#      x y z
#    x 1.781240 0.000000 0.000000 
#    y 0.000000 1.865970 0.000000 
#    z 0.000000 0.000000 1.881620 
# 
# From -- ./inp_files/1739.got.cif
#   From: 2010.05.17/outbox.cif.g08.bks.cpg/sg28_1_cif.got.tgz:1739.got - 2010.06.04 01:15:21.
