data_PCOD9340097
_publ_section_title
;
Structure prediction by ZEFSAII (Michael W. Deem and Ramdas Pophale) SiO2 
 PCOD9340097
Probable space group: P C A 21
;
_chemical_formula_sum "Si O2"
_cell_formula_units_Z 24
_cell_length_a 12.907930
_cell_length_b 4.840980
_cell_length_c 13.623728
_cell_angle_alpha 90.000000
_cell_angle_beta 90.000000
_cell_angle_gamma 90.000000
_cell_volume 851.306313
_symmetry_space_group_name_H-M "P C A 21"
_symmetry_group_IT_number 29
_symmetry_cell_setting 'orthorhombic'
loop_
_space_group_symop_operation_xyz
x,y,z
-x,-y,1/2+z
1/2-x,y,1/2+z
1/2+x,-y,z
loop_
_atom_site_type_symbol
_atom_site_label
_atom_site_fract_x
_atom_site_fract_y
_atom_site_fract_z
Si Si1 0.246516 0.841718 0.152870
Si Si2 0.497517 0.755246 0.799356
Si Si3 0.188820 0.569269 0.854655
Si Si4 0.381162 0.589269 0.987776
Si Si5 0.558889 0.157109 0.017547
Si Si6 0.914464 0.748524 0.670878
O O1 0.266782 0.716955 0.258726
O O2 0.338788 0.767152 0.079252
O O3 0.147030 0.719050 0.092407
O O4 0.206851 0.156385 0.169962
O O5 0.280030 0.477853 0.928058
O O6 0.614960 0.676888 0.821043
O O7 0.475258 0.015466 0.733380
O O8 0.451612 0.503494 0.735942
O O9 0.112916 0.778547 0.914223
O O10 0.453913 0.333826 0.020267
O O11 0.435989 0.767707 0.901772
O O12 0.555179 0.843929 0.059602
#
# Coordination Sequence:
#
# PCOD9340097 Si02
#       6
#     4   4   4   4   4   4
#     4   9  19  37  66 103 137 186 240 294 365 444
#     4  11  23  43  69  99 144 187 232 306 363 437
#     4  10  19  38  70 102 143 188 245 298 375 446
#     4  10  18  40  71  97 144 180 249 291 373 437
#     4   8  19  36  66 101 137 190 232 305 356 431
#     4  10  22  44  66  98 141 183 236 292 366 429
#
# _framework density 28.191969
#
# number of rings (size 3 to 8) (size 9 to 14) (size 15 to 20)
#    1.000    1.333    1.667    1.000    0.000    0.000 
#    3.000   13.333    0.000    0.000    0.000    0.000 
#    0.000    0.000    0.000    0.000    0.000    0.000 
#
# Total GULP energy -134451.806641 kJ/mol
# GULP energy per Si atom -5602.158610 kJ/mol
# Density = 2.812780 g / cm^3
# Si number density = 28.191969 Si / 1000 Ang^3
#
#
#
# Elastic Constant Matrix: (Units=GPa)
#
#
# Indices 1 2 3 4 5 6 
#
# 1 156.4871 23.2076 58.2256 0.0000 0.0000 0.0000
# 2 23.2076 108.0138 53.0005 0.0000 0.0000 0.0000
# 3 58.2256 53.0005 192.8908 0.0000 0.0000 0.0000
# 4 0.0000 0.0000 0.0000 44.1877 0.0000 0.0000
# 5 0.0000 0.0000 0.0000 0.0000 58.4645 0.0000
# 6 0.0000 0.0000 0.0000 0.0000 0.0000 36.2041
#
#
#
# Elastic Compliance Matrix: (Units=1/GPa)
#
#
# Indices 1 2 3 4 5 6 
#
# 1 0.007228 -0.000558 -0.002029 0.000000 0.000000 0.000000
# 2 -0.000558 0.010744 -0.002784 0.000000 0.000000 0.000000
# 3 -0.002029 -0.002784 0.006562 0.000000 0.000000 0.000000
# 4 0.000000 0.000000 0.000000 0.022631 0.000000 0.000000
# 5 0.000000 0.000000 0.000000 0.000000 0.017104 0.000000
# 6 0.000000 0.000000 0.000000 0.000000 0.000000 0.027621
#
#
# Mechanical properties :
#
#
# Convention : Reuss Voigt Hill
#
# Bulk Modulus (GPa) = 72.49885 80.69547 76.59716
# Shear Modulus (GPa) = 46.63005 49.30178 47.96592
#
# Velocity S-wave (km/s) = 4.07138 4.18639 4.12928
# Velocity P-wave (km/s) = 6.91906 7.21481 7.06848
#
# Compressibility (1/GPa) = 0.01379332
#
# Stress axis : x y z
#
# Youngs Moduli (GPa) = 138.35510 93.07673 152.40382
#
# Poissons Ratio (x) = 0.05190 0.30916
# Poissons Ratio (y) = 0.07714 0.42426
# Poissons Ratio (z) = 0.28066 0.25910
#
# Static dielectric constant tensor:
#      x y z
#    x 2.286810 0.000000 0.000000 
#    y 0.000000 2.433200 0.000000 
#    z 0.000000 0.000000 2.170950 
# 
# From -- ./inp_files/5069.got.cif
#   From: 2010.05.17/outbox.cif.g08.bks.cpg/sg29_3_cif.got.tgz:5069.got - 2010.06.04 01:19:37.
