data_PCOD9340823
_publ_section_title
;
Structure prediction by ZEFSAII (Michael W. Deem and Ramdas Pophale) SiO2 
 PCOD9340823
Probable space group: P C A 21
;
_chemical_formula_sum "Si O2"
_cell_formula_units_Z 20
_cell_length_a 17.897949
_cell_length_b 5.125193
_cell_length_c 8.778832
_cell_angle_alpha 90.000000
_cell_angle_beta 90.000000
_cell_angle_gamma 90.000000
_cell_volume 805.286148
_symmetry_space_group_name_H-M "P C A 21"
_symmetry_group_IT_number 29
_symmetry_cell_setting 'orthorhombic'
loop_
_space_group_symop_operation_xyz
x,y,z
-x,-y,1/2+z
1/2-x,y,1/2+z
1/2+x,-y,z
loop_
_atom_site_type_symbol
_atom_site_label
_atom_site_fract_x
_atom_site_fract_y
_atom_site_fract_z
Si Si1 0.790623 0.345416 0.000000
Si Si2 0.718671 0.686732 0.233475
Si Si3 0.468449 0.257426 0.269752
Si Si4 0.444908 0.785937 0.077137
Si Si5 0.328833 0.027246 0.450837
O O1 0.815366 0.465359 0.839935
O O2 0.703153 0.260740 0.983618
O O3 0.783816 0.560238 0.131788
O O4 0.855868 0.157266 0.058097
O O5 0.757016 0.877556 0.353576
O O6 0.667090 0.834069 0.114446
O O7 0.454920 0.536510 0.189089
O O8 0.525166 0.284703 0.409829
O O9 0.398328 0.114578 0.352752
O O10 0.486886 0.041318 0.141172
#
# Coordination Sequence:
#
# PCOD9340823 Si02
#       5
#     4   4   4   4   4
#     4  11  23  42  69 104 145 185 248 302 371 436
#     4  10  22  38  66 102 136 186 232 304 364 430
#     4  12  28  50  76 108 152 202 253 310 378 457
#     4  12  28  50  76 108 152 202 253 310 378 457
#     4  11  23  42  69 104 145 185 248 302 371 436
#
# _framework density 24.835892999999999
#
# number of rings (size 3 to 8) (size 9 to 14) (size 15 to 20)
#    0.000    0.800    2.000    4.800    8.400    3.200 
#    0.000    0.000    0.000    0.000    0.000    0.000 
#    0.000    0.000    0.000    0.000    0.000    0.000 
#
# Total GULP energy -111720.360001 kJ/mol
# GULP energy per Si atom -5586.018000 kJ/mol
# Density = 2.477937 g / cm^3
# Si number density = 24.835893 Si / 1000 Ang^3
#
#
#
# Elastic Constant Matrix: (Units=GPa)
#
#
# Indices 1 2 3 4 5 6 
#
# 1 60.8481 2.6780 7.9208 0.0000 0.0000 0.0000
# 2 2.6780 82.4354 25.7946 0.0000 0.0000 0.0000
# 3 7.9208 25.7946 134.8976 0.0000 0.0000 0.0000
# 4 0.0000 0.0000 0.0000 55.4690 0.0000 0.0000
# 5 0.0000 0.0000 0.0000 0.0000 34.3760 0.0000
# 6 0.0000 0.0000 0.0000 0.0000 0.0000 20.1904
#
#
#
# Elastic Compliance Matrix: (Units=1/GPa)
#
#
# Indices 1 2 3 4 5 6 
#
# 1 0.016566 -0.000249 -0.000925 0.000000 0.000000 0.000000
# 2 -0.000249 0.012906 -0.002453 0.000000 0.000000 0.000000
# 3 -0.000925 -0.002453 0.007936 0.000000 0.000000 0.000000
# 4 0.000000 0.000000 0.000000 0.018028 0.000000 0.000000
# 5 0.000000 0.000000 0.000000 0.000000 0.029090 0.000000
# 6 0.000000 0.000000 0.000000 0.000000 0.000000 0.049528
#
#
# Mechanical properties :
#
#
# Convention : Reuss Voigt Hill
#
# Bulk Modulus (GPa) = 33.16269 38.99645 36.07957
# Shear Modulus (GPa) = 33.03360 38.12626 35.57993
#
# Velocity S-wave (km/s) = 3.65098 3.92232 3.78908
# Velocity P-wave (km/s) = 5.58163 6.02068 5.80530
#
# Compressibility (1/GPa) = 0.03015437
#
# Stress axis : x y z
#
# Youngs Moduli (GPa) = 60.36556 77.48061 126.00061
#
# Poissons Ratio (x) = 0.01927 0.11657
# Poissons Ratio (y) = 0.01501 0.30912
# Poissons Ratio (z) = 0.05585 0.19009
#
# Static dielectric constant tensor:
#      x y z
#    x 2.019920 0.000000 0.000000 
#    y 0.000000 2.026000 0.000000 
#    z 0.000000 0.000000 1.928930 
# 
# From -- ./inp_files/1931.got.cif
#   From: 2010.05.17/outbox.cif.g08.bks.cpg/sg29_1_cif.got.tgz:1931.got - 2010.06.04 01:19:37.
