data_PCOD9340364
_publ_section_title
;
Structure prediction by ZEFSAII (Michael W. Deem and Ramdas Pophale) SiO2 
 PCOD9340364
Probable space group: P C A 21
;
_chemical_formula_sum "Si O2"
_cell_formula_units_Z 32
_cell_length_a 8.594997
_cell_length_b 12.428841
_cell_length_c 12.430738
_cell_angle_alpha 90.000000
_cell_angle_beta 90.000000
_cell_angle_gamma 90.000000
_cell_volume 1327.924167
_symmetry_space_group_name_H-M "P C A 21"
_symmetry_group_IT_number 29
_symmetry_cell_setting 'orthorhombic'
loop_
_space_group_symop_operation_xyz
x,y,z
-x,-y,1/2+z
1/2-x,y,1/2+z
1/2+x,-y,z
loop_
_atom_site_type_symbol
_atom_site_label
_atom_site_fract_x
_atom_site_fract_y
_atom_site_fract_z
Si Si1 0.628388 0.224732 0.500000
Si Si2 0.998247 0.117867 0.190725
Si Si3 0.772998 0.850562 0.890704
Si Si4 0.055322 0.109120 0.582286
Si Si5 0.922525 0.319881 0.626750
Si Si6 0.422990 0.380784 0.915170
Si Si7 0.168816 0.928970 0.884144
Si Si8 0.781782 0.397896 0.840734
O O1 0.508495 0.203505 0.595259
O O2 0.777993 0.270998 0.561669
O O3 0.676153 0.112245 0.443061
O O4 0.612454 0.311905 0.407102
O O5 0.846080 0.128132 0.268776
O O6 0.130041 0.123189 0.280189
O O7 0.985845 0.000168 0.139496
O O8 0.812517 0.723324 0.896213
O O9 0.645770 0.944455 0.867829
O O10 0.783049 0.881588 0.020507
O O11 0.020599 0.212457 0.654892
O O12 0.960131 0.112991 0.467979
O O13 0.847752 0.387231 0.721106
O O14 0.027444 0.383049 0.540702
O O15 0.594697 0.375671 0.855267
O O16 0.326006 0.484997 0.883629
#
# Coordination Sequence:
#
# PCOD9340364 Si02
#       8
#     4   4   4   4   4   4   4   4
#     4  10  20  37  62  93 120 171 212 263 311 414
#     4  11  21  33  60  92 127 163 210 257 320 391
#     4  10  21  39  58  87 133 163 207 267 322 387
#     4   9  20  36  55  91 126 163 207 254 318 397
#     4   9  20  39  67  86 127 172 209 270 333 385
#     4  10  24  45  63  97 128 171 223 289 322 395
#     4  10  21  36  59  89 126 165 203 258 328 390
#     4  11  23  43  72  91 127 174 233 270 336 395
#
# _framework density 24.097760999999998
#
# number of rings (size 3 to 8) (size 9 to 14) (size 15 to 20)
#    0.000    2.000    1.250    3.750    5.250    3.000 
#    4.500    0.000    0.000    0.000    0.000    0.000 
#    0.000    0.000    0.000    0.000    0.000    0.000 
#
# Total GULP energy -178165.136576 kJ/mol
# GULP energy per Si atom -5567.660518 kJ/mol
# Density = 2.404291 g / cm^3
# Si number density = 24.097761 Si / 1000 Ang^3
#
#
#
# Elastic Constant Matrix: (Units=GPa)
#
#
# Indices 1 2 3 4 5 6 
#
# 1 37.2864 17.4448 14.2761 0.0000 0.0000 0.0000
# 2 17.4448 124.7823 24.3425 0.0000 0.0000 0.0000
# 3 14.2761 24.3425 60.0907 0.0000 0.0000 0.0000
# 4 0.0000 0.0000 0.0000 36.5763 0.0000 0.0000
# 5 0.0000 0.0000 0.0000 0.0000 4.8462 0.0000
# 6 0.0000 0.0000 0.0000 0.0000 0.0000 18.2470
#
#
#
# Elastic Compliance Matrix: (Units=1/GPa)
#
#
# Indices 1 2 3 4 5 6 
#
# 1 0.030570 -0.003102 -0.006006 0.000000 0.000000 0.000000
# 2 -0.003102 0.009016 -0.002916 0.000000 0.000000 0.000000
# 3 -0.006006 -0.002916 0.019249 0.000000 0.000000 0.000000
# 4 0.000000 0.000000 0.000000 0.027340 0.000000 0.000000
# 5 0.000000 0.000000 0.000000 0.000000 0.206348 0.000000
# 6 0.000000 0.000000 0.000000 0.000000 0.000000 0.054804
#
#
# Mechanical properties :
#
#
# Convention : Reuss Voigt Hill
#
# Bulk Modulus (GPa) = 28.74496 37.14294 32.94395
# Shear Modulus (GPa) = 13.05577 23.00695 18.03136
#
# Velocity S-wave (km/s) = 2.33015 3.09323 2.73840
# Velocity P-wave (km/s) = 4.38108 5.31077 4.86817
#
# Compressibility (1/GPa) = 0.03478870
#
# Stress axis : x y z
#
# Youngs Moduli (GPa) = 32.71138 110.90898 51.94945
#
# Poissons Ratio (x) = 0.34405 0.31202
# Poissons Ratio (y) = 0.10147 0.15146
# Poissons Ratio (z) = 0.19647 0.32336
#
# Static dielectric constant tensor:
#      x y z
#    x 2.440580 0.000000 0.000000 
#    y 0.000000 1.934750 0.000000 
#    z 0.000000 0.000000 1.963160 
# 
# From -- ./inp_files/3257.got.cif
#   From: 2010.05.17/outbox.cif.g08.bks.cpg/sg29_2_cif.got.tgz:3257.got - 2010.06.04 01:19:37.
