data_PCOD9340615
_publ_section_title
;
Structure prediction by ZEFSAII (Michael W. Deem and Ramdas Pophale) SiO2 
 PCOD9340615
Probable space group: P C A 21
;
_chemical_formula_sum "Si O2"
_cell_formula_units_Z 20
_cell_length_a 8.728372
_cell_length_b 8.071888
_cell_length_c 14.258085
_cell_angle_alpha 90.000000
_cell_angle_beta 90.000000
_cell_angle_gamma 90.000000
_cell_volume 1004.545411
_symmetry_space_group_name_H-M "P C A 21"
_symmetry_group_IT_number 29
_symmetry_cell_setting 'orthorhombic'
loop_
_space_group_symop_operation_xyz
x,y,z
-x,-y,1/2+z
1/2-x,y,1/2+z
1/2+x,-y,z
loop_
_atom_site_type_symbol
_atom_site_label
_atom_site_fract_x
_atom_site_fract_y
_atom_site_fract_z
Si Si1 0.102629 0.241780 0.336240
Si Si2 0.326001 0.439457 0.021284
Si Si3 0.165281 0.811470 0.504096
Si Si4 0.615170 0.963049 0.897310
Si Si5 0.037703 0.352087 0.135368
O O1 0.107635 0.345339 0.432308
O O2 0.262044 0.140395 0.338551
O O3 0.083276 0.347374 0.242704
O O4 0.963778 0.112164 0.341534
O O5 0.186563 0.343981 0.069190
O O6 0.450798 0.482003 0.101060
O O7 0.275719 0.624236 0.987776
O O8 0.024759 0.852458 0.434468
O O9 0.082370 0.792426 0.605186
O O10 0.291832 0.948987 0.483051
#
# Coordination Sequence:
#
# PCOD9340615 Si02
#       5
#     4   4   4   4   4
#     4  11  22  42  65  93 132 166 222 255 327 379
#     4  10  21  42  63  92 125 169 212 269 308 372
#     4   9  21  39  61  92 123 166 208 255 328 357
#     4  10  21  39  66  90 126 175 202 273 315 376
#     4  10  23  38  63  95 122 170 208 262 316 378
#
# _framework density 19.909503000000001
#
# number of rings (size 3 to 8) (size 9 to 14) (size 15 to 20)
#    1.200    0.800    2.000    1.200    0.000    6.400 
#    0.000    2.000    0.000    0.000    0.000    0.000 
#    0.000    0.000    0.000    0.000    0.000    0.000 
#
# Total GULP energy -111365.976509 kJ/mol
# GULP energy per Si atom -5568.298825 kJ/mol
# Density = 1.986419 g / cm^3
# Si number density = 19.909503 Si / 1000 Ang^3
#
#
#
# Elastic Constant Matrix: (Units=GPa)
#
#
# Indices 1 2 3 4 5 6 
#
# 1 62.8347 17.0522 22.8074 0.0000 0.0000 0.0000
# 2 17.0522 58.2606 28.7579 0.0000 0.0000 0.0000
# 3 22.8074 28.7579 86.7732 0.0000 0.0000 0.0000
# 4 0.0000 0.0000 0.0000 24.6025 0.0000 0.0000
# 5 0.0000 0.0000 0.0000 0.0000 9.8034 0.0000
# 6 0.0000 0.0000 0.0000 0.0000 0.0000 30.3037
#
#
#
# Elastic Compliance Matrix: (Units=1/GPa)
#
#
# Indices 1 2 3 4 5 6 
#
# 1 0.018185 -0.003543 -0.003606 0.000000 0.000000 0.000000
# 2 -0.003543 0.021212 -0.006099 0.000000 0.000000 0.000000
# 3 -0.003606 -0.006099 0.014493 0.000000 0.000000 0.000000
# 4 0.000000 0.000000 0.000000 0.040646 0.000000 0.000000
# 5 0.000000 0.000000 0.000000 0.000000 0.102006 0.000000
# 6 0.000000 0.000000 0.000000 0.000000 0.000000 0.032999
#
#
# Mechanical properties :
#
#
# Convention : Reuss Voigt Hill
#
# Bulk Modulus (GPa) = 36.50215 38.34483 37.42349
# Shear Modulus (GPa) = 18.85607 22.22531 20.54069
#
# Velocity S-wave (km/s) = 3.08082 3.34476 3.21550
# Velocity P-wave (km/s) = 5.57038 5.84961 5.71170
#
# Compressibility (1/GPa) = 0.02739565
#
# Stress axis : x y z
#
# Youngs Moduli (GPa) = 54.99049 47.14416 68.99814
#
# Poissons Ratio (x) = 0.16702 0.24878
# Poissons Ratio (y) = 0.19482 0.42079
# Poissons Ratio (z) = 0.19827 0.28751
#
# Static dielectric constant tensor:
#      x y z
#    x 1.730160 0.000000 0.000000 
#    y 0.000000 1.717780 0.000000 
#    z 0.000000 0.000000 1.670330 
# 
# From -- ./inp_files/2766.got.cif
#   From: 2010.05.17/outbox.cif.g08.bks.cpg/sg29_2_cif.got.tgz:2766.got - 2010.06.04 01:19:37.
