data_PCOD9340280
_publ_section_title
;
Structure prediction by ZEFSAII (Michael W. Deem and Ramdas Pophale) SiO2 
 PCOD9340280
Probable space group: P C A 21
;
_chemical_formula_sum "Si O2"
_cell_formula_units_Z 28
_cell_length_a 19.085992
_cell_length_b 9.253434
_cell_length_c 5.814481
_cell_angle_alpha 90.000000
_cell_angle_beta 90.000000
_cell_angle_gamma 90.000000
_cell_volume 1026.901114
_symmetry_space_group_name_H-M "P C A 21"
_symmetry_group_IT_number 29
_symmetry_cell_setting 'orthorhombic'
loop_
_space_group_symop_operation_xyz
x,y,z
-x,-y,1/2+z
1/2-x,y,1/2+z
1/2+x,-y,z
loop_
_atom_site_type_symbol
_atom_site_label
_atom_site_fract_x
_atom_site_fract_y
_atom_site_fract_z
Si Si1 0.027837 0.197055 0.822900
Si Si2 0.470841 0.111994 0.828402
Si Si3 0.309193 0.563967 0.437943
Si Si4 0.329184 0.377717 0.048497
Si Si5 0.282856 0.050865 0.992444
Si Si6 0.580411 0.421101 0.329639
Si Si7 0.627919 0.195215 0.705217
O O1 0.060746 0.163582 0.572858
O O2 0.996269 0.358099 0.794374
O O3 0.058038 0.171786 0.081790
O O4 0.971787 0.063022 0.823352
O O5 0.554980 0.152919 0.832646
O O6 0.343875 0.424717 0.308808
O O7 0.234025 0.496078 0.501839
O O8 0.367352 0.606463 0.623403
O O9 0.305914 0.723243 0.324611
O O10 0.298385 0.221826 0.009632
O O11 0.396048 0.419464 0.896604
O O12 0.232028 0.028319 0.218727
O O13 0.342066 0.939195 0.069140
O O14 0.602796 0.324071 0.543563
#
# Coordination Sequence:
#
# PCOD9340280 Si02
#       7
#     4   4   4   4   4   4   4
#     4   9  17  31  54  81 112 138 176 227 282 333
#     4   9  17  33  51  81 114 140 172 227 287 331
#     4  11  19  34  55  77 109 142 190 233 268 323
#     4  11  22  36  54  76 110 154 189 230 272 332
#     4  12  27  41  55  80 116 157 189 226 280 341
#     4  10  20  34  56  84 107 143 188 232 279 327
#     4  10  24  33  55  85 112 146 186 233 284 329
#
# _framework density 27.266500000000001
#
# number of rings (size 3 to 8) (size 9 to 14) (size 15 to 20)
#    0.000    1.714    4.286    0.000    6.000    0.000 
#    0.000    0.000    0.000    0.000    3.714    0.000 
#    0.000    0.000    0.000    0.000    0.000    0.000 
#
# Total GULP energy -156000.009493 kJ/mol
# GULP energy per Si atom -5571.428910 kJ/mol
# Density = 2.720444 g / cm^3
# Si number density = 27.266500 Si / 1000 Ang^3
#
#
#
# Elastic Constant Matrix: (Units=GPa)
#
#
# Indices 1 2 3 4 5 6 
#
# 1 70.5413 12.1877 2.1795 0.0000 0.0000 0.0000
# 2 12.1877 78.8377 -10.6494 0.0000 0.0000 0.0000
# 3 2.1795 -10.6494 107.2099 0.0000 0.0000 0.0000
# 4 0.0000 0.0000 0.0000 39.6815 0.0000 0.0000
# 5 0.0000 0.0000 0.0000 0.0000 27.5088 0.0000
# 6 0.0000 0.0000 0.0000 0.0000 0.0000 34.0886
#
#
#
# Elastic Compliance Matrix: (Units=1/GPa)
#
#
# Indices 1 2 3 4 5 6 
#
# 1 0.014595 -0.002328 -0.000528 0.000000 0.000000 0.000000
# 2 -0.002328 0.013228 0.001361 0.000000 0.000000 0.000000
# 3 -0.000528 0.001361 0.009473 0.000000 0.000000 0.000000
# 4 0.000000 0.000000 0.000000 0.025201 0.000000 0.000000
# 5 0.000000 0.000000 0.000000 0.000000 0.036352 0.000000
# 6 0.000000 0.000000 0.000000 0.000000 0.000000 0.029335
#
#
# Mechanical properties :
#
#
# Convention : Reuss Voigt Hill
#
# Bulk Modulus (GPa) = 29.14795 29.33605 29.24200
# Shear Modulus (GPa) = 35.06113 37.11386 36.08750
#
# Velocity S-wave (km/s) = 3.58979 3.69338 3.64196
# Velocity P-wave (km/s) = 5.28161 5.38242 5.33225
#
# Compressibility (1/GPa) = 0.03430773
#
# Stress axis : x y z
#
# Youngs Moduli (GPa) = 68.51879 75.59733 105.55817
#
# Poissons Ratio (x) = 0.17595 0.05572
# Poissons Ratio (y) = 0.15948 -0.14369
# Poissons Ratio (z) = 0.03617 -0.10291
#
# Static dielectric constant tensor:
#      x y z
#    x 2.205900 0.000000 0.000000 
#    y 0.000000 2.193410 0.000000 
#    z 0.000000 0.000000 2.436330 
# 
# From -- ./inp_files/791.got.cif
#   From: 2010.05.17/outbox.cif.g08.bks.cpg/sg29_1_cif.got.tgz:791.got - 2010.06.04 01:19:37.
