data_PCOD9340002
_publ_section_title
;
Structure prediction by ZEFSAII (Michael W. Deem and Ramdas Pophale) SiO2 
 PCOD9340002
Probable space group: P C A 21
;
_chemical_formula_sum "Si O2"
_cell_formula_units_Z 20
_cell_length_a 14.621145
_cell_length_b 11.370716
_cell_length_c 5.160851
_cell_angle_alpha 90.000000
_cell_angle_beta 90.000000
_cell_angle_gamma 90.000000
_cell_volume 858.006380
_symmetry_space_group_name_H-M "P C A 21"
_symmetry_group_IT_number 29
_symmetry_cell_setting 'orthorhombic'
loop_
_space_group_symop_operation_xyz
x,y,z
-x,-y,1/2+z
1/2-x,y,1/2+z
1/2+x,-y,z
loop_
_atom_site_type_symbol
_atom_site_label
_atom_site_fract_x
_atom_site_fract_y
_atom_site_fract_z
Si Si1 0.445847 0.003716 0.036830
Si Si2 0.845262 0.427912 0.638488
Si Si3 0.195222 0.841696 0.245232
Si Si4 0.860299 0.527159 0.134652
Si Si5 0.812880 0.789927 0.221545
O O1 0.490855 0.950161 0.298090
O O2 0.382120 0.106888 0.148483
O O3 0.388757 0.908407 0.872807
O O4 0.824586 0.297179 0.734114
O O5 0.891595 0.440770 0.361357
O O6 0.747938 0.493907 0.596018
O O7 0.900646 0.495243 0.857974
O O8 0.275856 0.871005 0.451638
O O9 0.862677 0.663855 0.199837
O O10 0.767477 0.797243 0.505054
#
# Coordination Sequence:
#
# PCOD9340002 Si02
#       5
#     4   4   4   4   4
#     4  12  28  46  58  86 136 182 216 262 328 388
#     4  10  16  30  54  97 129 140 184 271 331 354
#     4  12  21  38  68  96 120 161 221 275 312 380
#     4  10  16  30  54  97 129 140 184 271 331 354
#     4  12  21  38  68  96 120 161 221 275 312 380
#
# _framework density 23.309851999999999
#
# number of rings (size 3 to 8) (size 9 to 14) (size 15 to 20)
#    0.000    0.800    8.000    3.600    0.000    0.000 
#    0.000    0.000    0.000    4.800    0.000    0.000 
#    0.000    0.000    0.000    0.000    0.000    0.000 
#
# Total GULP energy -111713.690865 kJ/mol
# GULP energy per Si atom -5585.684543 kJ/mol
# Density = 2.325680 g / cm^3
# Si number density = 23.309852 Si / 1000 Ang^3
#
#
#
# Elastic Constant Matrix: (Units=GPa)
#
#
# Indices 1 2 3 4 5 6 
#
# 1 31.9287 1.1054 8.2056 0.0000 0.0000 0.0000
# 2 1.1054 77.6629 -11.4442 0.0000 0.0000 0.0000
# 3 8.2056 -11.4442 125.2529 0.0000 0.0000 0.0000
# 4 0.0000 0.0000 0.0000 29.3507 0.0000 0.0000
# 5 0.0000 0.0000 0.0000 0.0000 -6.4184 0.0000
# 6 0.0000 0.0000 0.0000 0.0000 0.0000 -40.6939
#
#
#
# Elastic Compliance Matrix: (Units=1/GPa)
#
#
# Indices 1 2 3 4 5 6 
#
# 1 0.031902 -0.000772 -0.002161 0.000000 0.000000 0.000000
# 2 -0.000772 0.013071 0.001245 0.000000 0.000000 0.000000
# 3 -0.002161 0.001245 0.008239 0.000000 0.000000 0.000000
# 4 0.000000 0.000000 0.000000 0.034071 0.000000 0.000000
# 5 0.000000 0.000000 0.000000 0.000000 -0.155801 0.000000
# 6 0.000000 0.000000 0.000000 0.000000 0.000000 -0.024574
#
#
# Mechanical properties :
#
#
# Convention : Reuss Voigt Hill
#
# Bulk Modulus (GPa) = 20.06611 25.61979 22.84295
# Shear Modulus (GPa) = -68.39487 12.24618 -28.07434
#
# Velocity S-wave (km/s) = -5.42267 2.29457 -3.47421
# Velocity P-wave (km/s) = 5.52992 4.24675 2.50450
#
# Compressibility (1/GPa) = 0.04983527
#
# Stress axis : x y z
#
# Youngs Moduli (GPa) = 31.34620 76.50759 121.37205
#
# Poissons Ratio (x) = 0.05910 0.26223
# Poissons Ratio (y) = 0.02421 -0.15109
# Poissons Ratio (z) = 0.06772 -0.09524
#
# Static dielectric constant tensor:
#      x y z
#    x 2.070750 0.000000 0.000000 
#    y 0.000000 1.830940 0.000000 
#    z 0.000000 0.000000 1.968380 
# 
# From -- ./inp_files/372.got.cif
#   From: 2010.05.17/outbox.cif.g08.bks.cpg/sg29_1_cif.got.tgz:372.got - 2010.06.04 01:19:37.
