data_PCOD9340618
_publ_section_title
;
Structure prediction by ZEFSAII (Michael W. Deem and Ramdas Pophale) SiO2 
 PCOD9340618
Probable space group: P C A 21
;
_chemical_formula_sum "Si O2"
_cell_formula_units_Z 24
_cell_length_a 15.163053
_cell_length_b 10.940863
_cell_length_c 5.325831
_cell_angle_alpha 90.000000
_cell_angle_beta 90.000000
_cell_angle_gamma 90.000000
_cell_volume 883.538776
_symmetry_space_group_name_H-M "P C A 21"
_symmetry_group_IT_number 29
_symmetry_cell_setting 'orthorhombic'
loop_
_space_group_symop_operation_xyz
x,y,z
-x,-y,1/2+z
1/2-x,y,1/2+z
1/2+x,-y,z
loop_
_atom_site_type_symbol
_atom_site_label
_atom_site_fract_x
_atom_site_fract_y
_atom_site_fract_z
Si Si1 0.476228 0.437023 0.082880
Si Si2 0.022802 0.169031 0.689680
Si Si3 0.697391 0.457061 0.735645
Si Si4 0.718745 0.814485 0.537078
Si Si5 0.880779 0.987514 0.508467
Si Si6 0.193044 0.817456 0.663984
O O1 0.518100 0.525899 0.292809
O O2 0.512135 0.302984 0.140487
O O3 0.374608 0.444340 0.161076
O O4 0.114457 0.159145 0.527295
O O5 0.944028 0.072972 0.667569
O O6 0.065046 0.136178 0.956619
O O7 0.773106 0.463288 0.524014
O O8 0.656888 0.320062 0.694535
O O9 0.746412 0.748762 0.792409
O O10 0.783433 0.935505 0.569625
O O11 0.870047 0.074704 0.260425
O O12 0.230098 0.824236 0.380658
#
# Coordination Sequence:
#
# PCOD9340618 Si02
#       6
#     4   4   4   4   4   4
#     4  12  28  50  74 106 151 200 252 310 371 442
#     4  11  26  44  73 108 146 195 245 299 372 446
#     4  10  22  42  70 102 139 194 254 307 361 430
#     4  10  22  41  65 100 141 184 232 289 360 432
#     4  11  23  42  68 104 146 187 237 301 371 441
#     4  10  21  39  66  98 137 184 238 296 359 431
#
# _framework density 27.163494
#
# number of rings (size 3 to 8) (size 9 to 14) (size 15 to 20)
#    0.000    1.333    0.000    5.000    0.000   12.000 
#    0.000    0.000    0.000    0.000    0.000    0.000 
#    0.000    0.000    0.000    0.000    0.000    0.000 
#
# Total GULP energy -134150.651455 kJ/mol
# GULP energy per Si atom -5589.610477 kJ/mol
# Density = 2.710167 g / cm^3
# Si number density = 27.163494 Si / 1000 Ang^3
#
#
#
# Elastic Constant Matrix: (Units=GPa)
#
#
# Indices 1 2 3 4 5 6 
#
# 1 93.3712 15.4754 42.9221 0.0000 0.0000 0.0000
# 2 15.4754 48.9840 -10.2615 0.0000 0.0000 0.0000
# 3 42.9221 -10.2615 120.1084 0.0000 0.0000 0.0000
# 4 0.0000 0.0000 0.0000 22.1756 0.0000 0.0000
# 5 0.0000 0.0000 0.0000 0.0000 57.1053 0.0000
# 6 0.0000 0.0000 0.0000 0.0000 0.0000 38.7590
#
#
#
# Elastic Compliance Matrix: (Units=1/GPa)
#
#
# Indices 1 2 3 4 5 6 
#
# 1 0.014201 -0.005651 -0.005558 0.000000 0.000000 0.000000
# 2 -0.005651 0.023035 0.003987 0.000000 0.000000 0.000000
# 3 -0.005558 0.003987 0.010653 0.000000 0.000000 0.000000
# 4 0.000000 0.000000 0.000000 0.045095 0.000000 0.000000
# 5 0.000000 0.000000 0.000000 0.000000 0.017512 0.000000
# 6 0.000000 0.000000 0.000000 0.000000 0.000000 0.025800
#
#
# Mechanical properties :
#
#
# Convention : Reuss Voigt Hill
#
# Bulk Modulus (GPa) = 29.89812 39.85950 34.87881
# Shear Modulus (GPa) = 30.88561 37.89647 34.39104
#
# Velocity S-wave (km/s) = 3.37564 3.73919 3.56206
# Velocity P-wave (km/s) = 5.12093 5.77476 5.45764
#
# Compressibility (1/GPa) = 0.03344692
#
# Stress axis : x y z
#
# Youngs Moduli (GPa) = 70.41548 43.41143 93.87346
#
# Poissons Ratio (x) = 0.24531 0.52173
# Poissons Ratio (y) = 0.39791 -0.37432
# Poissons Ratio (z) = 0.39136 -0.17310
#
# Static dielectric constant tensor:
#      x y z
#    x 2.137170 0.000000 0.000000 
#    y 0.000000 2.154140 0.000000 
#    z 0.000000 0.000000 2.163480 
# 
# From -- ./inp_files/198.got.cif
#   From: 2010.05.17/outbox.cif.g08.bks.cpg/sg29_1_cif.got.tgz:198.got - 2010.06.04 01:19:37.
