data_PCOD9340455
_publ_section_title
;
Structure prediction by ZEFSAII (Michael W. Deem and Ramdas Pophale) SiO2 
 PCOD9340455
Probable space group: P C A 21
;
_chemical_formula_sum "Si O2"
_cell_formula_units_Z 20
_cell_length_a 13.424286
_cell_length_b 5.233234
_cell_length_c 14.492736
_cell_angle_alpha 90.000000
_cell_angle_beta 90.000000
_cell_angle_gamma 90.000000
_cell_volume 1018.149920
_symmetry_space_group_name_H-M "P C A 21"
_symmetry_group_IT_number 29
_symmetry_cell_setting 'orthorhombic'
loop_
_space_group_symop_operation_xyz
x,y,z
-x,-y,1/2+z
1/2-x,y,1/2+z
1/2+x,-y,z
loop_
_atom_site_type_symbol
_atom_site_label
_atom_site_fract_x
_atom_site_fract_y
_atom_site_fract_z
Si Si1 0.670921 0.065636 0.598770
Si Si2 0.636961 0.573059 0.356500
Si Si3 0.967003 0.069392 0.935384
Si Si4 0.814945 0.782736 0.475587
Si Si5 0.734644 0.573576 0.162001
O O1 0.568083 0.057033 0.542947
O O2 0.697587 0.323987 0.650347
O O3 0.751929 0.020873 0.516513
O O4 0.692801 0.821107 0.662755
O O5 0.590536 0.308202 0.390396
O O6 0.740736 0.633134 0.408568
O O7 0.663401 0.565297 0.249165
O O8 0.565200 0.806971 0.386111
O O9 0.083460 0.127104 0.931700
O O10 0.828480 0.612420 0.567834
#
# Coordination Sequence:
#
# PCOD9340455 Si02
#       5
#     4   4   4   4   4
#     4   9  19  39  59  81 117 158 191 242 296 347
#     4  11  23  40  59  92 121 152 206 243 294 357
#     4  11  21  39  62  85 119 163 196 244 300 354
#     4   9  23  39  63  83 126 157 192 247 301 346
#     4  10  20  41  59  85 123 154 191 256 285 348
#
# _framework density 19.643471000000002
#
# number of rings (size 3 to 8) (size 9 to 14) (size 15 to 20)
#    1.200    0.800    2.000    1.200    2.800    0.000 
#    7.200    0.000    0.000    0.000    0.000    0.000 
#    0.000    0.000    0.000    0.000    0.000    0.000 
#
# Total GULP energy -111485.819405 kJ/mol
# GULP energy per Si atom -5574.290970 kJ/mol
# Density = 1.959876 g / cm^3
# Si number density = 19.643471 Si / 1000 Ang^3
#
#
#
# Elastic Constant Matrix: (Units=GPa)
#
#
# Indices 1 2 3 4 5 6 
#
# 1 55.3955 -16.8619 -4.5041 0.0000 0.0000 0.0000
# 2 -16.8619 108.2211 -5.5329 0.0000 0.0000 0.0000
# 3 -4.5041 -5.5329 42.2588 0.0000 0.0000 0.0000
# 4 0.0000 0.0000 0.0000 19.9917 0.0000 0.0000
# 5 0.0000 0.0000 0.0000 0.0000 -3.2403 0.0000
# 6 0.0000 0.0000 0.0000 0.0000 0.0000 8.4894
#
#
#
# Elastic Compliance Matrix: (Units=1/GPa)
#
#
# Indices 1 2 3 4 5 6 
#
# 1 0.019200 0.003117 0.002455 0.000000 0.000000 0.000000
# 2 0.003117 0.009809 0.001616 0.000000 0.000000 0.000000
# 3 0.002455 0.001616 0.024137 0.000000 0.000000 0.000000
# 4 0.000000 0.000000 0.000000 0.050021 0.000000 0.000000
# 5 0.000000 0.000000 0.000000 0.000000 -0.308618 0.000000
# 6 0.000000 0.000000 0.000000 0.000000 0.000000 0.117794
#
#
# Mechanical properties :
#
#
# Convention : Reuss Voigt Hill
#
# Bulk Modulus (GPa) = 14.80993 16.89751 15.85372
# Shear Modulus (GPa) = -62.87318 20.56645 -21.15337
#
# Velocity S-wave (km/s) = -5.66363 3.23923 -3.28512
# Velocity P-wave (km/s) = 5.93407 4.75509 2.51020
#
# Compressibility (1/GPa) = 0.06752228
#
# Stress axis : x y z
#
# Youngs Moduli (GPa) = 52.08227 101.95066 41.43024
#
# Poissons Ratio (x) = -0.31779 -0.10169
# Poissons Ratio (y) = -0.16235 -0.06697
# Poissons Ratio (z) = -0.12784 -0.16480
#
# Static dielectric constant tensor:
#      x y z
#    x 1.678690 0.000000 0.000000 
#    y 0.000000 1.690300 0.000000 
#    z 0.000000 0.000000 1.696830 
# 
# From -- ./inp_files/3038.got.cif
#   From: 2010.05.17/outbox.cif.g08.bks.cpg/sg29_2_cif.got.tgz:3038.got - 2010.06.04 01:19:37.
