data_PCOD9340008
_publ_section_title
;
Structure prediction by ZEFSAII (Michael W. Deem and Ramdas Pophale) SiO2 
 PCOD9340008
Probable space group: P C A 21
;
_chemical_formula_sum "Si O2"
_cell_formula_units_Z 28
_cell_length_a 15.482007
_cell_length_b 13.516610
_cell_length_c 4.841592
_cell_angle_alpha 90.000000
_cell_angle_beta 90.000000
_cell_angle_gamma 90.000000
_cell_volume 1013.172122
_symmetry_space_group_name_H-M "P C A 21"
_symmetry_group_IT_number 29
_symmetry_cell_setting 'orthorhombic'
loop_
_space_group_symop_operation_xyz
x,y,z
-x,-y,1/2+z
1/2-x,y,1/2+z
1/2+x,-y,z
loop_
_atom_site_type_symbol
_atom_site_label
_atom_site_fract_x
_atom_site_fract_y
_atom_site_fract_z
Si Si1 0.892471 0.699011 0.500000
Si Si2 0.695712 0.900155 0.942197
Si Si3 0.514752 0.433045 0.146767
Si Si4 0.404417 0.941568 0.744308
Si Si5 0.036527 0.826359 0.788278
Si Si6 0.195960 0.761540 0.087936
Si Si7 0.306816 0.502459 0.626582
O O1 0.824355 0.783561 0.424325
O O2 0.949636 0.650513 0.252791
O O3 0.843897 0.608576 0.647671
O O4 0.961205 0.757992 0.682036
O O5 0.720229 0.925854 0.629177
O O6 0.617692 0.953033 0.107713
O O7 0.490409 0.529260 0.334422
O O8 0.616676 0.423267 0.205712
O O9 0.424361 0.897318 0.047208
O O10 0.319817 0.879450 0.642616
O O11 0.481708 0.897160 0.550497
O O12 0.107907 0.750564 0.913780
O O13 0.273602 0.731062 0.889788
O O14 0.276410 0.513923 0.314361
#
# Coordination Sequence:
#
# PCOD9340008 Si02
#       7
#     4   4   4   4   4   4   4
#     4  11  26  46  68 106 144 177 225 295 359 414
#     4  12  26  42  68 100 135 183 242 294 343 406
#     4  10  23  45  74 104 139 184 218 275 365 446
#     4  10  21  38  61  89 133 181 237 275 339 394
#     4  10  23  37  63  96 132 184 232 283 345 405
#     4  10  16  33  58  81 116 171 228 273 321 380
#     4  11  23  45  76 104 135 176 226 277 346 433
#
# _framework density 27.635977
#
# number of rings (size 3 to 8) (size 9 to 14) (size 15 to 20)
#    0.857    0.571    1.429    4.286    0.000    8.000 
#    0.000    1.429    0.000    0.000    0.000    0.000 
#    0.000    0.000    0.000    0.000    0.000    0.000 
#
# Total GULP energy -156509.815496 kJ/mol
# GULP energy per Si atom -5589.636268 kJ/mol
# Density = 2.757308 g / cm^3
# Si number density = 27.635977 Si / 1000 Ang^3
#
#
#
# Elastic Constant Matrix: (Units=GPa)
#
#
# Indices 1 2 3 4 5 6 
#
# 1 70.6730 15.3471 6.0845 0.0000 0.0000 0.0000
# 2 15.3471 158.4128 13.3761 0.0000 0.0000 0.0000
# 3 6.0845 13.3761 123.2840 0.0000 0.0000 0.0000
# 4 0.0000 0.0000 0.0000 24.8877 0.0000 0.0000
# 5 0.0000 0.0000 0.0000 0.0000 24.8561 0.0000
# 6 0.0000 0.0000 0.0000 0.0000 0.0000 48.4195
#
#
#
# Elastic Compliance Matrix: (Units=1/GPa)
#
#
# Indices 1 2 3 4 5 6 
#
# 1 0.014493 -0.001356 -0.000568 0.000000 0.000000 0.000000
# 2 -0.001356 0.006498 -0.000638 0.000000 0.000000 0.000000
# 3 -0.000568 -0.000638 0.008209 0.000000 0.000000 0.000000
# 4 0.000000 0.000000 0.000000 0.040180 0.000000 0.000000
# 5 0.000000 0.000000 0.000000 0.000000 0.040232 0.000000
# 6 0.000000 0.000000 0.000000 0.000000 0.000000 0.020653
#
#
# Mechanical properties :
#
#
# Convention : Reuss Voigt Hill
#
# Bulk Modulus (GPa) = 41.53705 46.88723 44.21214
# Shear Modulus (GPa) = 34.86407 40.80347 37.83377
#
# Velocity S-wave (km/s) = 3.55568 3.84664 3.70402
# Velocity P-wave (km/s) = 5.64976 6.06067 5.85882
#
# Compressibility (1/GPa) = 0.02407489
#
# Stress axis : x y z
#
# Youngs Moduli (GPa) = 68.99840 153.89634 121.82311
#
# Poissons Ratio (x) = 0.20870 0.06921
# Poissons Ratio (y) = 0.09357 0.07773
# Poissons Ratio (z) = 0.03920 0.09820
#
# Static dielectric constant tensor:
#      x y z
#    x 2.223780 0.000000 0.000000 
#    y 0.000000 2.328090 0.000000 
#    z 0.000000 0.000000 2.087380 
# 
# From -- ./inp_files/425.got.cif
#   From: 2010.05.17/outbox.cif.g08.bks.cpg/sg29_1_cif.got.tgz:425.got - 2010.06.04 01:19:37.
