data_PCOD9340303
_publ_section_title
;
Structure prediction by ZEFSAII (Michael W. Deem and Ramdas Pophale) SiO2 
 PCOD9340303
Probable space group: P C A 21
;
_chemical_formula_sum "Si O2"
_cell_formula_units_Z 20
_cell_length_a 13.349917
_cell_length_b 10.991300
_cell_length_c 5.278233
_cell_angle_alpha 90.000000
_cell_angle_beta 90.000000
_cell_angle_gamma 90.000000
_cell_volume 774.490660
_symmetry_space_group_name_H-M "P C A 21"
_symmetry_group_IT_number 29
_symmetry_cell_setting 'orthorhombic'
loop_
_space_group_symop_operation_xyz
x,y,z
-x,-y,1/2+z
1/2-x,y,1/2+z
1/2+x,-y,z
loop_
_atom_site_type_symbol
_atom_site_label
_atom_site_fract_x
_atom_site_fract_y
_atom_site_fract_z
Si Si1 0.627870 0.005081 0.826280
Si Si2 0.149732 0.891538 0.317633
Si Si3 0.607405 0.620903 0.560934
Si Si4 0.410224 0.637991 0.858663
Si Si5 0.393888 0.262375 0.557322
O O1 0.617332 0.868616 0.927566
O O2 0.745935 0.038017 0.796129
O O3 0.591570 0.047514 0.551171
O O4 0.591671 0.090080 0.055514
O O5 0.167239 0.747800 0.336550
O O6 0.486510 0.619831 0.620978
O O7 0.631846 0.489532 0.448487
O O8 0.651337 0.648420 0.839771
O O9 0.635892 0.720962 0.348807
O O10 0.490723 0.693449 0.056568
#
# Coordination Sequence:
#
# PCOD9340303 Si02
#       5
#     4   4   4   4   4
#     4  10  22  41  55  87 118 169 202 244 294 361
#     4  10  23  37  63  79 125 162 206 248 295 360
#     4  10  20  35  59  94 116 153 189 256 306 360
#     4  10  21  36  62  92 121 150 199 251 309 358
#     4  10  20  35  61  84 126 150 198 239 308 357
#
# _framework density 25.823425
#
# number of rings (size 3 to 8) (size 9 to 14) (size 15 to 20)
#    1.200    0.800    2.000    1.200    2.800    1.600 
#    0.000    0.000    0.000   28.800    0.000    0.000 
#    0.000    0.000    0.000    0.000    0.000    0.000 
#
# Total GULP energy -111572.312242 kJ/mol
# GULP energy per Si atom -5578.615612 kJ/mol
# Density = 2.576465 g / cm^3
# Si number density = 25.823425 Si / 1000 Ang^3
#
#
#
# Elastic Constant Matrix: (Units=GPa)
#
#
# Indices 1 2 3 4 5 6 
#
# 1 65.8526 13.6892 -6.4548 0.0000 0.0000 0.0000
# 2 13.6892 110.7832 -17.2561 0.0000 0.0000 0.0000
# 3 -6.4548 -17.2561 123.0338 0.0000 0.0000 0.0000
# 4 0.0000 0.0000 0.0000 44.0213 0.0000 0.0000
# 5 0.0000 0.0000 0.0000 0.0000 -1.7437 0.0000
# 6 0.0000 0.0000 0.0000 0.0000 0.0000 -44.3106
#
#
#
# Elastic Compliance Matrix: (Units=1/GPa)
#
#
# Indices 1 2 3 4 5 6 
#
# 1 0.015624 -0.001843 0.000561 0.000000 0.000000 0.000000
# 2 -0.001843 0.009446 0.001228 0.000000 0.000000 0.000000
# 3 0.000561 0.001228 0.008330 0.000000 0.000000 0.000000
# 4 0.000000 0.000000 0.000000 0.022716 0.000000 0.000000
# 5 0.000000 0.000000 0.000000 0.000000 -0.573492 0.000000
# 6 0.000000 0.000000 0.000000 0.000000 0.000000 -0.022568
#
#
# Mechanical properties :
#
#
# Convention : Reuss Voigt Hill
#
# Bulk Modulus (GPa) = 30.03814 31.06958 30.55386
# Shear Modulus (GPa) = -9.45645 20.23949 5.39152
#
# Velocity S-wave (km/s) = -1.91570 2.80262 1.44650
# Velocity P-wave (km/s) = 2.60080 4.74664 3.82719
#
# Compressibility (1/GPa) = 0.03329101
#
# Stress axis : x y z
#
# Youngs Moduli (GPa) = 64.00583 105.86847 120.05471
#
# Poissons Ratio (x) = 0.19513 -0.06737
# Poissons Ratio (y) = 0.11797 -0.14744
# Poissons Ratio (z) = -0.03592 -0.13002
#
# Static dielectric constant tensor:
#      x y z
#    x 1.911890 0.000000 0.000000 
#    y 0.000000 1.992720 0.000000 
#    z 0.000000 0.000000 2.168860 
# 
# From -- ./inp_files/342.got.cif
#   From: 2010.05.17/outbox.cif.g08.bks.cpg/sg29_1_cif.got.tgz:342.got - 2010.06.04 01:19:37.
