data_PCOD9340154
_publ_section_title
;
Structure prediction by ZEFSAII (Michael W. Deem and Ramdas Pophale) SiO2 
 PCOD9340154
Probable space group: P C A 21
;
_chemical_formula_sum "Si O2"
_cell_formula_units_Z 28
_cell_length_a 19.135662
_cell_length_b 7.689490
_cell_length_c 9.128466
_cell_angle_alpha 90.000000
_cell_angle_beta 90.000000
_cell_angle_gamma 90.000000
_cell_volume 1343.194269
_symmetry_space_group_name_H-M "P C A 21"
_symmetry_group_IT_number 29
_symmetry_cell_setting 'orthorhombic'
loop_
_space_group_symop_operation_xyz
x,y,z
-x,-y,1/2+z
1/2-x,y,1/2+z
1/2+x,-y,z
loop_
_atom_site_type_symbol
_atom_site_label
_atom_site_fract_x
_atom_site_fract_y
_atom_site_fract_z
Si Si1 0.340496 0.506066 0.981890
Si Si2 0.465746 0.007481 0.314727
Si Si3 0.448961 0.483118 0.392804
Si Si4 0.475622 0.332904 0.101143
Si Si5 0.552682 0.199864 0.531446
Si Si6 0.837938 0.788692 0.429094
Si Si7 0.268244 0.341894 0.708654
O O1 0.374656 0.698130 0.000164
O O2 0.311216 0.463594 0.820723
O O3 0.404495 0.372871 0.014839
O O4 0.281950 0.456728 0.102464
O O5 0.474824 0.162195 0.196147
O O6 0.531222 0.035780 0.425544
O O7 0.394441 0.061224 0.399096
O O8 0.455225 0.850568 0.201407
O O9 0.478373 0.477478 0.230221
O O10 0.461221 0.653661 0.487454
O O11 0.494788 0.339476 0.479757
O O12 0.373197 0.399703 0.392089
O O13 0.775226 0.789376 0.312938
O O14 0.814179 0.770525 0.595708
#
# Coordination Sequence:
#
# PCOD9340154 Si02
#       7
#     4   4   4   4   4   4   4
#     4  10  19  37  56  86 110 148 188 242 281 336
#     4  10  20  40  52  86 115 151 187 231 292 346
#     4   9  18  32  53  84 110 140 188 237 288 334
#     4   9  18  32  54  82 108 141 193 237 288 329
#     4   9  21  37  56  78 122 146 188 230 293 347
#     4   9  19  34  54  81 112 140 192 233 280 332
#     4  10  19  34  59  83 111 148 190 242 280 326
#
# _framework density 20.845828999999998
#
# number of rings (size 3 to 8) (size 9 to 14) (size 15 to 20)
#    0.000    2.857    2.857    0.000    6.000    2.286 
#    2.571    1.429    0.000    0.000    0.000    0.000 
#    0.000    0.000    0.000    0.000    0.000    0.000 
#
# Total GULP energy -155877.360668 kJ/mol
# GULP energy per Si atom -5567.048595 kJ/mol
# Density = 2.079838 g / cm^3
# Si number density = 20.845829 Si / 1000 Ang^3
#
#
#
# Elastic Constant Matrix: (Units=GPa)
#
#
# Indices 1 2 3 4 5 6 
#
# 1 40.0269 21.7447 56.7960 0.0000 0.0000 0.0000
# 2 21.7447 50.5209 38.1048 0.0000 0.0000 0.0000
# 3 56.7960 38.1048 170.4419 0.0000 0.0000 0.0000
# 4 0.0000 0.0000 0.0000 43.0157 0.0000 0.0000
# 5 0.0000 0.0000 0.0000 0.0000 44.6182 0.0000
# 6 0.0000 0.0000 0.0000 0.0000 0.0000 9.1039
#
#
#
# Elastic Compliance Matrix: (Units=1/GPa)
#
#
# Indices 1 2 3 4 5 6 
#
# 1 0.052214 -0.011247 -0.014885 0.000000 0.000000 0.000000
# 2 -0.011247 0.026231 -0.002117 0.000000 0.000000 0.000000
# 3 -0.014885 -0.002117 0.011300 0.000000 0.000000 0.000000
# 4 0.000000 0.000000 0.000000 0.023247 0.000000 0.000000
# 5 0.000000 0.000000 0.000000 0.000000 0.022412 0.000000
# 6 0.000000 0.000000 0.000000 0.000000 0.000000 0.109843
#
#
# Mechanical properties :
#
#
# Convention : Reuss Voigt Hill
#
# Bulk Modulus (GPa) = 30.07621 54.92008 42.49815
# Shear Modulus (GPa) = 15.98332 28.97050 22.47691
#
# Velocity S-wave (km/s) = 2.77201 3.73198 3.28723
# Velocity P-wave (km/s) = 4.97038 6.70621 5.90245
#
# Compressibility (1/GPa) = 0.03324887
#
# Stress axis : x y z
#
# Youngs Moduli (GPa) = 19.15211 38.12292 88.49340
#
# Poissons Ratio (x) = 0.42876 1.31719
# Poissons Ratio (y) = 0.21540 0.18731
# Poissons Ratio (z) = 0.28507 0.08069
#
# Static dielectric constant tensor:
#      x y z
#    x 1.795720 0.000000 0.000000 
#    y 0.000000 1.991560 0.000000 
#    z 0.000000 0.000000 1.774250 
# 
# From -- ./inp_files/2240.got.cif
#   From: 2010.05.17/outbox.cif.g08.bks.cpg/sg29_2_cif.got.tgz:2240.got - 2010.06.04 01:19:37.
