data_PCOD9340230
_publ_section_title
;
Structure prediction by ZEFSAII (Michael W. Deem and Ramdas Pophale) SiO2 
 PCOD9340230
Probable space group: P C A 21
;
_chemical_formula_sum "Si O2"
_cell_formula_units_Z 28
_cell_length_a 12.686961
_cell_length_b 7.721611
_cell_length_c 11.055900
_cell_angle_alpha 90.000000
_cell_angle_beta 90.000000
_cell_angle_gamma 90.000000
_cell_volume 1083.077729
_symmetry_space_group_name_H-M "P C A 21"
_symmetry_group_IT_number 29
_symmetry_cell_setting 'orthorhombic'
loop_
_space_group_symop_operation_xyz
x,y,z
-x,-y,1/2+z
1/2-x,y,1/2+z
1/2+x,-y,z
loop_
_atom_site_type_symbol
_atom_site_label
_atom_site_fract_x
_atom_site_fract_y
_atom_site_fract_z
Si Si1 0.169915 0.978542 0.054490
Si Si2 0.149365 0.881315 0.669103
Si Si3 0.090523 0.635993 0.009331
Si Si4 0.036703 0.899588 0.442512
Si Si5 0.037980 0.261609 0.305951
Si Si6 0.436897 0.265877 0.224970
Si Si7 0.723478 0.659283 0.118885
O O1 0.223737 0.895614 0.175030
O O2 0.151373 0.812411 0.969339
O O3 0.231882 0.160918 0.041670
O O4 0.051484 0.053648 0.044547
O O5 0.070200 0.748163 0.728974
O O6 0.135588 0.855340 0.524533
O O7 0.107657 0.069952 0.707887
O O8 0.174664 0.487706 0.033915
O O9 0.029395 0.682160 0.133489
O O10 0.995557 0.613038 0.914857
O O11 0.986823 0.754327 0.357484
O O12 0.057868 0.073161 0.365874
O O13 0.136359 0.311118 0.223930
O O14 0.333986 0.375218 0.186012
#
# Coordination Sequence:
#
# PCOD9340230 Si02
#       7
#     4   4   4   4   4   4   4
#     4  10  21  41  68 101 134 178 232 273 355 418
#     4  10  19  39  70 102 134 183 229 284 346 427
#     4  11  24  47  65  99 140 178 230 297 342 421
#     4  10  19  38  72  99 134 184 224 287 351 414
#     4  10  21  42  65  99 139 175 233 287 346 418
#     4  10  22  40  65 104 138 179 236 287 352 423
#     4  11  24  41  69  98 137 183 230 291 350 419
#
# _framework density 25.852252
#
# number of rings (size 3 to 8) (size 9 to 14) (size 15 to 20)
#    0.000    1.714    4.286    0.857    2.000    2.286 
#    5.143    1.429    0.000    0.000    0.000    0.000 
#    0.000    0.000    0.000    0.000    0.000    0.000 
#
# Total GULP energy -156132.941464 kJ/mol
# GULP energy per Si atom -5576.176481 kJ/mol
# Density = 2.579341 g / cm^3
# Si number density = 25.852252 Si / 1000 Ang^3
#
#
#
# Elastic Constant Matrix: (Units=GPa)
#
#
# Indices 1 2 3 4 5 6 
#
# 1 109.5864 39.9993 35.6783 0.0000 0.0000 0.0000
# 2 39.9993 81.4421 30.2456 0.0000 0.0000 0.0000
# 3 35.6783 30.2456 87.3485 0.0000 0.0000 0.0000
# 4 0.0000 0.0000 0.0000 17.6657 0.0000 0.0000
# 5 0.0000 0.0000 0.0000 0.0000 45.4557 0.0000
# 6 0.0000 0.0000 0.0000 0.0000 0.0000 27.6067
#
#
#
# Elastic Compliance Matrix: (Units=1/GPa)
#
#
# Indices 1 2 3 4 5 6 
#
# 1 0.011870 -0.004624 -0.003247 0.000000 0.000000 0.000000
# 2 -0.004624 0.015892 -0.003614 0.000000 0.000000 0.000000
# 3 -0.003247 -0.003614 0.014026 0.000000 0.000000 0.000000
# 4 0.000000 0.000000 0.000000 0.056607 0.000000 0.000000
# 5 0.000000 0.000000 0.000000 0.000000 0.021999 0.000000
# 6 0.000000 0.000000 0.000000 0.000000 0.000000 0.036223
#
#
# Mechanical properties :
#
#
# Convention : Reuss Voigt Hill
#
# Bulk Modulus (GPa) = 53.14203 54.46926 53.80564
# Shear Modulus (GPa) = 26.90182 29.64254 28.27218
#
# Velocity S-wave (km/s) = 3.22933 3.38984 3.31056
# Velocity P-wave (km/s) = 5.87413 6.03627 5.95575
#
# Compressibility (1/GPa) = 0.01881750
#
# Stress axis : x y z
#
# Youngs Moduli (GPa) = 84.24440 62.92550 71.29486
#
# Poissons Ratio (x) = 0.29096 0.23152
# Poissons Ratio (y) = 0.38954 0.25767
# Poissons Ratio (z) = 0.27358 0.22742
#
# Static dielectric constant tensor:
#      x y z
#    x 2.047460 0.000000 0.000000 
#    y 0.000000 2.115060 0.000000 
#    z 0.000000 0.000000 2.076770 
# 
# From -- ./inp_files/3414.got.cif
#   From: 2010.05.17/outbox.cif.g08.bks.cpg/sg29_2_cif.got.tgz:3414.got - 2010.06.04 01:19:37.
