data_PCOD9340832
_publ_section_title
;
Structure prediction by ZEFSAII (Michael W. Deem and Ramdas Pophale) SiO2 
 PCOD9340832
Probable space group: P C A 21
;
_chemical_formula_sum "Si O2"
_cell_formula_units_Z 20
_cell_length_a 12.824133
_cell_length_b 6.361975
_cell_length_c 11.205871
_cell_angle_alpha 90.000000
_cell_angle_beta 90.000000
_cell_angle_gamma 90.000000
_cell_volume 914.251308
_symmetry_space_group_name_H-M "P C A 21"
_symmetry_group_IT_number 29
_symmetry_cell_setting 'orthorhombic'
loop_
_space_group_symop_operation_xyz
x,y,z
-x,-y,1/2+z
1/2-x,y,1/2+z
1/2+x,-y,z
loop_
_atom_site_type_symbol
_atom_site_label
_atom_site_fract_x
_atom_site_fract_y
_atom_site_fract_z
Si Si1 0.614266 0.788973 0.260480
Si Si2 0.448494 0.098711 0.175132
Si Si3 0.186104 0.253347 0.886270
Si Si4 0.747494 0.067061 0.077324
Si Si5 0.105464 0.571185 0.079036
O O1 0.690245 0.704443 0.364370
O O2 0.582023 0.586819 0.185829
O O3 0.515901 0.945271 0.261861
O O4 0.693322 0.930745 0.181228
O O5 0.378238 0.234304 0.264841
O O6 0.519981 0.245128 0.091180
O O7 0.370223 0.967567 0.091232
O O8 0.125368 0.425130 0.964907
O O9 0.196821 0.032324 0.958069
O O10 0.714228 0.305491 0.094762
#
# Coordination Sequence:
#
# PCOD9340832 Si02
#       5
#     4   4   4   4   4
#     4   9  21  39  59  87 121 158 200 252 311 368
#     4  10  22  40  61  88 123 161 206 257 310 374
#     4  10  22  39  61  90 122 159 203 254 313 372
#     4   9  21  40  57  82 122 157 197 255 306 363
#     4  10  22  40  62  89 120 161 206 252 308 373
#
# _framework density 21.875823
#
# number of rings (size 3 to 8) (size 9 to 14) (size 15 to 20)
#    0.000    2.400    0.000    0.000    0.000   17.600 
#    0.000    0.000    0.000    0.000    0.000    0.000 
#    0.000    0.000    0.000    0.000    0.000    0.000 
#
# Total GULP energy -111382.666580 kJ/mol
# GULP energy per Si atom -5569.133329 kJ/mol
# Density = 2.182603 g / cm^3
# Si number density = 21.875823 Si / 1000 Ang^3
#
#
#
# Elastic Constant Matrix: (Units=GPa)
#
#
# Indices 1 2 3 4 5 6 
#
# 1 101.9022 30.0287 16.9753 0.0000 0.0000 0.0000
# 2 30.0287 66.2717 -5.8685 0.0000 0.0000 0.0000
# 3 16.9753 -5.8685 28.6021 0.0000 0.0000 0.0000
# 4 0.0000 0.0000 0.0000 1.2368 0.0000 0.0000
# 5 0.0000 0.0000 0.0000 0.0000 25.9127 0.0000
# 6 0.0000 0.0000 0.0000 0.0000 0.0000 -11.1398
#
#
#
# Elastic Compliance Matrix: (Units=1/GPa)
#
#
# Indices 1 2 3 4 5 6 
#
# 1 0.013411 -0.006907 -0.009376 0.000000 0.000000 0.000000
# 2 -0.006907 0.018926 0.007982 0.000000 0.000000 0.000000
# 3 -0.009376 0.007982 0.042165 0.000000 0.000000 0.000000
# 4 0.000000 0.000000 0.000000 0.808562 0.000000 0.000000
# 5 0.000000 0.000000 0.000000 0.000000 0.038591 0.000000
# 6 0.000000 0.000000 0.000000 0.000000 0.000000 -0.089768
#
#
# Mechanical properties :
#
#
# Convention : Reuss Voigt Hill
#
# Bulk Modulus (GPa) = 17.27120 31.00524 24.13822
# Shear Modulus (GPa) = 5.76177 13.57795 9.66986
#
# Velocity S-wave (km/s) = 1.62468 2.49405 2.10474
# Velocity P-wave (km/s) = 3.38108 4.74318 4.11883
#
# Compressibility (1/GPa) = 0.05789985
#
# Stress axis : x y z
#
# Youngs Moduli (GPa) = 74.56790 52.83781 23.71634
#
# Poissons Ratio (x) = 0.36494 0.22237
# Poissons Ratio (y) = 0.51503 -0.18931
# Poissons Ratio (z) = 0.69917 -0.42177
#
# Static dielectric constant tensor:
#      x y z
#    x 1.871880 0.000000 0.000000 
#    y 0.000000 1.790800 0.000000 
#    z 0.000000 0.000000 1.866110 
# 
# From -- ./inp_files/3009.got.cif
#   From: 2010.05.17/outbox.cif.g08.bks.cpg/sg29_2_cif.got.tgz:3009.got - 2010.06.04 01:19:37.
