data_PCOD9340607
_publ_section_title
;
Structure prediction by ZEFSAII (Michael W. Deem and Ramdas Pophale) SiO2 
 PCOD9340607
Probable space group: P C A 21
;
_chemical_formula_sum "Si O2"
_cell_formula_units_Z 32
_cell_length_a 8.679313
_cell_length_b 14.152454
_cell_length_c 11.360457
_cell_angle_alpha 90.000000
_cell_angle_beta 90.000000
_cell_angle_gamma 90.000000
_cell_volume 1395.445581
_symmetry_space_group_name_H-M "P C A 21"
_symmetry_group_IT_number 29
_symmetry_cell_setting 'orthorhombic'
loop_
_space_group_symop_operation_xyz
x,y,z
-x,-y,1/2+z
1/2-x,y,1/2+z
1/2+x,-y,z
loop_
_atom_site_type_symbol
_atom_site_label
_atom_site_fract_x
_atom_site_fract_y
_atom_site_fract_z
Si Si1 0.750713 0.938821 0.947770
Si Si2 0.894459 0.581075 0.091385
Si Si3 0.967411 0.808445 0.798233
Si Si4 0.989745 0.086752 0.753532
Si Si5 0.559263 0.390528 0.863504
Si Si6 0.326818 0.923746 0.141792
Si Si7 0.342491 0.526567 0.734567
Si Si8 0.303533 0.221113 0.135177
O O1 0.901153 0.898556 0.873737
O O2 0.596412 0.925440 0.869059
O O3 0.740830 0.862126 0.052420
O O4 0.765999 0.042046 0.012819
O O5 0.771993 0.503526 0.129459
O O6 0.815193 0.680992 0.068519
O O7 0.016451 0.592756 0.197520
O O8 0.000103 0.559645 0.981077
O O9 0.047834 0.723364 0.868960
O O10 0.810521 0.768897 0.743896
O O11 0.076081 0.833734 0.686067
O O12 0.036146 0.184261 0.689599
O O13 0.808043 0.073727 0.740777
O O14 0.054233 0.006762 0.667464
O O15 0.432251 0.431513 0.772488
O O16 0.728049 0.425950 0.827656
#
# Coordination Sequence:
#
# PCOD9340607 Si02
#       8
#     4   4   4   4   4   4   4   4
#     4  10  22  45  66  91 133 178 214 283 344 394
#     4  11  21  42  67  99 136 181 222 275 342 402
#     4  11  23  41  69 101 134 177 232 276 335 410
#     4  10  23  40  64  92 125 173 225 270 340 393
#     4  11  22  43  68 101 138 181 226 277 341 409
#     4  11  24  42  65  95 132 172 226 281 332 403
#     4  10  24  40  69 100 141 177 225 282 336 404
#     4  10  21  39  64  95 131 175 220 274 334 405
#
# _framework density 22.931742
#
# number of rings (size 3 to 8) (size 9 to 14) (size 15 to 20)
#    0.000    1.500    2.500    3.000    1.750    6.000 
#    0.000    2.500    0.000    0.000    0.000    0.000 
#    0.000    0.000    0.000    0.000    0.000    0.000 
#
# Total GULP energy -178284.676796 kJ/mol
# GULP energy per Si atom -5571.396150 kJ/mol
# Density = 2.287955 g / cm^3
# Si number density = 22.931742 Si / 1000 Ang^3
#
#
#
# Elastic Constant Matrix: (Units=GPa)
#
#
# Indices 1 2 3 4 5 6 
#
# 1 97.7857 10.9180 4.3928 0.0000 0.0000 0.0000
# 2 10.9180 47.6899 -7.9727 0.0000 0.0000 0.0000
# 3 4.3928 -7.9727 57.3991 0.0000 0.0000 0.0000
# 4 0.0000 0.0000 0.0000 18.2412 0.0000 0.0000
# 5 0.0000 0.0000 0.0000 0.0000 38.7155 0.0000
# 6 0.0000 0.0000 0.0000 0.0000 0.0000 10.5767
#
#
#
# Elastic Compliance Matrix: (Units=1/GPa)
#
#
# Indices 1 2 3 4 5 6 
#
# 1 0.010571 -0.002616 -0.001172 0.000000 0.000000 0.000000
# 2 -0.002616 0.022115 0.003272 0.000000 0.000000 0.000000
# 3 -0.001172 0.003272 0.017966 0.000000 0.000000 0.000000
# 4 0.000000 0.000000 0.000000 0.054821 0.000000 0.000000
# 5 0.000000 0.000000 0.000000 0.000000 0.025829 0.000000
# 6 0.000000 0.000000 0.000000 0.000000 0.000000 0.094547
#
#
# Mechanical properties :
#
#
# Convention : Reuss Voigt Hill
#
# Bulk Modulus (GPa) = 20.15364 24.17232 22.16298
# Shear Modulus (GPa) = 20.54042 26.54245 23.54143
#
# Velocity S-wave (km/s) = 2.99610 3.40583 3.20752
# Velocity P-wave (km/s) = 4.55812 5.10197 4.83769
#
# Compressibility (1/GPa) = 0.04961882
#
# Stress axis : x y z
#
# Youngs Moduli (GPa) = 94.59652 45.21872 55.66041
#
# Poissons Ratio (x) = 0.11830 0.06526
# Poissons Ratio (y) = 0.24748 -0.18212
# Poissons Ratio (z) = 0.11091 -0.14795
#
# Static dielectric constant tensor:
#      x y z
#    x 1.848180 0.000000 0.000000 
#    y 0.000000 1.893470 0.000000 
#    z 0.000000 0.000000 1.969060 
# 
# From -- ./inp_files/2907.got.cif
#   From: 2010.05.17/outbox.cif.g08.bks.cpg/sg29_2_cif.got.tgz:2907.got - 2010.06.04 01:19:37.
