data_PCOD9340871
_publ_section_title
;
Structure prediction by ZEFSAII (Michael W. Deem and Ramdas Pophale) SiO2 
 PCOD9340871
Probable space group: P C A 21
;
_chemical_formula_sum "Si O2"
_cell_formula_units_Z 20
_cell_length_a 7.790951
_cell_length_b 9.613374
_cell_length_c 10.855301
_cell_angle_alpha 90.000000
_cell_angle_beta 90.000000
_cell_angle_gamma 90.000000
_cell_volume 813.033015
_symmetry_space_group_name_H-M "P C A 21"
_symmetry_group_IT_number 29
_symmetry_cell_setting 'orthorhombic'
loop_
_space_group_symop_operation_xyz
x,y,z
-x,-y,1/2+z
1/2-x,y,1/2+z
1/2+x,-y,z
loop_
_atom_site_type_symbol
_atom_site_label
_atom_site_fract_x
_atom_site_fract_y
_atom_site_fract_z
Si Si1 0.856883 0.163814 0.747690
Si Si2 0.720904 0.411189 0.100978
Si Si3 0.936914 0.212163 0.410580
Si Si4 0.585467 0.700470 0.148036
Si Si5 0.165439 0.061144 0.604393
O O1 0.852994 0.327348 0.718945
O O2 0.744646 0.144766 0.868988
O O3 0.045594 0.106382 0.722191
O O4 0.739323 0.087737 0.642800
O O5 0.716007 0.573385 0.128807
O O6 0.914628 0.358753 0.085142
O O7 0.607864 0.348478 0.990683
O O8 0.036421 0.261927 0.288476
O O9 0.049411 0.103369 0.488274
O O10 0.669971 0.838575 0.094957
#
# Coordination Sequence:
#
# PCOD9340871 Si02
#       5
#     4   4   4   4   4
#     4  10  22  40  64  97 130 167 219 265 321 397
#     4  10  22  40  64  97 130 167 219 265 321 397
#     4  10  24  44  70  96 136 178 210 278 340 374
#     4  11  24  43  66  99 132 171 225 271 322 400
#     4  11  24  43  66  99 132 171 225 271 322 400
#
# _framework density 24.599247999999999
#
# number of rings (size 3 to 8) (size 9 to 14) (size 15 to 20)
#    0.000    1.600    0.000    4.800    0.000   14.400 
#    0.000    0.000    0.000    0.000    0.000    0.000 
#    0.000    0.000    0.000    0.000    0.000    0.000 
#
# Total GULP energy -111818.831884 kJ/mol
# GULP energy per Si atom -5590.941594 kJ/mol
# Density = 2.454326 g / cm^3
# Si number density = 24.599248 Si / 1000 Ang^3
#
#
#
# Elastic Constant Matrix: (Units=GPa)
#
#
# Indices 1 2 3 4 5 6 
#
# 1 89.1865 3.6339 13.8500 0.0000 0.0000 0.0000
# 2 3.6339 110.6312 16.9155 0.0000 0.0000 0.0000
# 3 13.8500 16.9155 87.1524 0.0000 0.0000 0.0000
# 4 0.0000 0.0000 0.0000 26.9143 0.0000 0.0000
# 5 0.0000 0.0000 0.0000 0.0000 34.4669 0.0000
# 6 0.0000 0.0000 0.0000 0.0000 0.0000 46.8200
#
#
#
# Elastic Compliance Matrix: (Units=1/GPa)
#
#
# Indices 1 2 3 4 5 6 
#
# 1 0.011497 -0.000101 -0.001807 0.000000 0.000000 0.000000
# 2 -0.000101 0.009316 -0.001792 0.000000 0.000000 0.000000
# 3 -0.001807 -0.001792 0.012109 0.000000 0.000000 0.000000
# 4 0.000000 0.000000 0.000000 0.037155 0.000000 0.000000
# 5 0.000000 0.000000 0.000000 0.000000 0.029013 0.000000
# 6 0.000000 0.000000 0.000000 0.000000 0.000000 0.021358
#
#
# Mechanical properties :
#
#
# Convention : Reuss Voigt Hill
#
# Bulk Modulus (GPa) = 39.18320 39.52987 39.35654
# Shear Modulus (GPa) = 36.66807 38.47828 37.57317
#
# Velocity S-wave (km/s) = 3.86504 3.95929 3.91245
# Velocity P-wave (km/s) = 5.99010 6.08324 6.03685
#
# Compressibility (1/GPa) = 0.02552114
#
# Stress axis : x y z
#
# Youngs Moduli (GPa) = 86.97713 107.33778 82.58168
#
# Poissons Ratio (x) = 0.01087 0.14926
# Poissons Ratio (y) = 0.00881 0.14800
# Poissons Ratio (z) = 0.15721 0.19236
#
# Static dielectric constant tensor:
#      x y z
#    x 2.003990 0.000000 0.000000 
#    y 0.000000 1.910180 0.000000 
#    z 0.000000 0.000000 2.008280 
# 
# From -- ./inp_files/2743.got.cif
#   From: 2010.05.17/outbox.cif.g08.bks.cpg/sg29_2_cif.got.tgz:2743.got - 2010.06.04 01:19:37.
