data_PCOD9340421
_publ_section_title
;
Structure prediction by ZEFSAII (Michael W. Deem and Ramdas Pophale) SiO2 
 PCOD9340421
Probable space group: P C A 21
;
_chemical_formula_sum "Si O2"
_cell_formula_units_Z 32
_cell_length_a 18.336290
_cell_length_b 5.205930
_cell_length_c 15.598809
_cell_angle_alpha 90.000000
_cell_angle_beta 90.000000
_cell_angle_gamma 90.000000
_cell_volume 1489.022409
_symmetry_space_group_name_H-M "P C A 21"
_symmetry_group_IT_number 29
_symmetry_cell_setting 'orthorhombic'
loop_
_space_group_symop_operation_xyz
x,y,z
-x,-y,1/2+z
1/2-x,y,1/2+z
1/2+x,-y,z
loop_
_atom_site_type_symbol
_atom_site_label
_atom_site_fract_x
_atom_site_fract_y
_atom_site_fract_z
Si Si1 0.034895 0.437071 0.415110
Si Si2 0.124252 0.705267 0.873023
Si Si3 0.451713 0.807566 0.052519
Si Si4 0.411109 0.087481 0.632904
Si Si5 0.560895 0.382761 0.234710
Si Si6 0.899864 0.565070 0.199120
Si Si7 0.818790 0.799747 0.466156
Si Si8 0.657704 0.816549 0.533891
O O1 0.009389 0.676185 0.472565
O O2 0.075910 0.534322 0.331353
O O3 0.092519 0.308563 0.478552
O O4 0.963688 0.277613 0.387458
O O5 0.136066 0.594254 0.776670
O O6 0.153154 0.476730 0.934146
O O7 0.161237 0.975775 0.897545
O O8 0.512156 0.002013 0.088627
O O9 0.436082 0.630532 0.133007
O O10 0.370641 0.893005 0.028758
O O11 0.420585 0.366053 0.677271
O O12 0.355514 0.114823 0.555501
O O13 0.395902 0.863494 0.700533
O O14 0.473747 0.307309 0.237465
O O15 0.850047 0.734007 0.134554
O O16 0.733781 0.776926 0.489053
#
# Coordination Sequence:
#
# PCOD9340421 Si02
#       8
#     4   4   4   4   4   4   4   4
#     4  10  23  41  70  99 133 176 232 285 332 399
#     4  11  25  45  70 101 129 180 232 281 328 409
#     4  10  20  39  69  93 130 170 224 275 336 391
#     4  11  21  42  63  94 130 171 218 277 332 400
#     4  10  22  39  69 101 123 166 232 281 326 386
#     4   9  22  40  68  96 126 171 224 277 326 399
#     4  12  27  43  66  96 143 178 223 272 351 411
#     4  11  24  43  65  98 138 182 217 278 347 411
#
# _framework density 21.490608999999999
#
# number of rings (size 3 to 8) (size 9 to 14) (size 15 to 20)
#    0.000    1.500    2.500    1.500    8.750    2.000 
#    2.250    0.000    0.000    0.000    0.000    0.000 
#    0.000    0.000    0.000    0.000    0.000    0.000 
#
# Total GULP energy -178358.541624 kJ/mol
# GULP energy per Si atom -5573.704426 kJ/mol
# Density = 2.144170 g / cm^3
# Si number density = 21.490609 Si / 1000 Ang^3
#
#
#
# Elastic Constant Matrix: (Units=GPa)
#
#
# Indices 1 2 3 4 5 6 
#
# 1 61.5823 11.5050 19.4273 0.0000 0.0000 0.0000
# 2 11.5050 59.8207 -3.4430 0.0000 0.0000 0.0000
# 3 19.4273 -3.4430 84.4008 0.0000 0.0000 0.0000
# 4 0.0000 0.0000 0.0000 -17.1390 0.0000 0.0000
# 5 0.0000 0.0000 0.0000 0.0000 15.8759 0.0000
# 6 0.0000 0.0000 0.0000 0.0000 0.0000 19.1614
#
#
#
# Elastic Compliance Matrix: (Units=1/GPa)
#
#
# Indices 1 2 3 4 5 6 
#
# 1 0.018323 -0.003776 -0.004372 0.000000 0.000000 0.000000
# 2 -0.003776 0.017534 0.001584 0.000000 0.000000 0.000000
# 3 -0.004372 0.001584 0.012919 0.000000 0.000000 0.000000
# 4 0.000000 0.000000 0.000000 -0.058346 0.000000 0.000000
# 5 0.000000 0.000000 0.000000 0.000000 0.062988 0.000000
# 6 0.000000 0.000000 0.000000 0.000000 0.000000 0.052188
#
#
# Mechanical properties :
#
#
# Convention : Reuss Voigt Hill
#
# Bulk Modulus (GPa) = 28.05022 28.97583 28.51303
# Shear Modulus (GPa) = 38.28037 15.46729 26.87383
#
# Velocity S-wave (km/s) = 4.22508 2.68568 3.54007
# Velocity P-wave (km/s) = 6.07308 4.80931 5.47776
#
# Compressibility (1/GPa) = 0.03565034
#
# Stress axis : x y z
#
# Youngs Moduli (GPa) = 54.57655 57.03219 77.40477
#
# Poissons Ratio (x) = 0.21533 0.33838
# Poissons Ratio (y) = 0.20606 -0.12263
# Poissons Ratio (z) = 0.23859 -0.09036
#
# Static dielectric constant tensor:
#      x y z
#    x 1.780430 0.000000 0.000000 
#    y 0.000000 2.029100 0.000000 
#    z 0.000000 0.000000 1.781690 
# 
# From -- ./inp_files/4793.got.cif
#   From: 2010.05.17/outbox.cif.g08.bks.cpg/sg29_3_cif.got.tgz:4793.got - 2010.06.04 01:19:37.
