data_PCOD9340207
_publ_section_title
;
Structure prediction by ZEFSAII (Michael W. Deem and Ramdas Pophale) SiO2 
 PCOD9340207
Probable space group: P C A 21
;
_chemical_formula_sum "Si O2"
_cell_formula_units_Z 32
_cell_length_a 14.532177
_cell_length_b 9.090598
_cell_length_c 10.794513
_cell_angle_alpha 90.000000
_cell_angle_beta 90.000000
_cell_angle_gamma 90.000000
_cell_volume 1426.021868
_symmetry_space_group_name_H-M "P C A 21"
_symmetry_group_IT_number 29
_symmetry_cell_setting 'orthorhombic'
loop_
_space_group_symop_operation_xyz
x,y,z
-x,-y,1/2+z
1/2-x,y,1/2+z
1/2+x,-y,z
loop_
_atom_site_type_symbol
_atom_site_label
_atom_site_fract_x
_atom_site_fract_y
_atom_site_fract_z
Si Si1 0.503831 0.472139 0.882920
Si Si2 0.562476 0.246203 0.669555
Si Si3 0.085437 0.955126 0.880779
Si Si4 0.639788 0.839768 0.082276
Si Si5 0.896531 0.068114 0.786865
Si Si6 0.180368 0.464569 0.013794
Si Si7 0.162969 0.665230 0.427695
Si Si8 0.437654 0.714039 0.582760
O O1 0.529274 0.368436 0.768679
O O2 0.421766 0.581578 0.864355
O O3 0.594556 0.561172 0.921402
O O4 0.483755 0.374861 0.008020
O O5 0.604169 0.108865 0.745131
O O6 0.468059 0.199820 0.602865
O O7 0.632679 0.304513 0.568988
O O8 0.099999 0.819333 0.974165
O O9 0.975422 0.994611 0.872434
O O10 0.142252 0.082408 0.948035
O O11 0.698275 0.690063 0.079355
O O12 0.654696 0.951379 0.197591
O O13 0.829109 0.176663 0.861537
O O14 0.953948 0.176029 0.694131
O O15 0.139212 0.589223 0.105871
O O16 0.255742 0.549022 0.934637
#
# Coordination Sequence:
#
# PCOD9340207 Si02
#       8
#     4   4   4   4   4   4   4   4
#     4   9  21  39  60  91 132 168 221 275 321 390
#     4  10  19  37  64  96 132 170 222 266 332 403
#     4   9  17  36  67  92 121 177 212 263 334 402
#     4  10  19  40  66  97 133 168 215 288 333 387
#     4  10  20  34  69  94 126 176 223 262 344 398
#     4  10  22  41  65  96 138 169 225 278 335 393
#     4  12  23  37  69 103 128 179 228 267 339 409
#     4   8  19  38  60  87 130 173 208 269 336 382
#
# _framework density 22.440048999999998
#
# number of rings (size 3 to 8) (size 9 to 14) (size 15 to 20)
#    0.750    1.500    2.500    0.000    3.500    1.000 
#    0.000    0.000   19.250    0.000    0.000    0.000 
#    0.000    0.000    0.000    0.000    0.000    0.000 
#
# Total GULP energy -178292.231416 kJ/mol
# GULP energy per Si atom -5571.632232 kJ/mol
# Density = 2.238897 g / cm^3
# Si number density = 22.440049 Si / 1000 Ang^3
#
#
#
# Elastic Constant Matrix: (Units=GPa)
#
#
# Indices 1 2 3 4 5 6 
#
# 1 51.7511 30.4828 20.4925 0.0000 0.0000 0.0000
# 2 30.4828 150.6269 49.6515 0.0000 0.0000 0.0000
# 3 20.4925 49.6515 88.8523 0.0000 0.0000 0.0000
# 4 0.0000 0.0000 0.0000 -12.0796 0.0000 0.0000
# 5 0.0000 0.0000 0.0000 0.0000 -8.8104 0.0000
# 6 0.0000 0.0000 0.0000 0.0000 0.0000 18.1480
#
#
#
# Elastic Compliance Matrix: (Units=1/GPa)
#
#
# Indices 1 2 3 4 5 6 
#
# 1 0.022687 -0.003514 -0.003269 0.000000 0.000000 0.000000
# 2 -0.003514 0.008682 -0.004041 0.000000 0.000000 0.000000
# 3 -0.003269 -0.004041 0.014267 0.000000 0.000000 0.000000
# 4 0.000000 0.000000 0.000000 -0.082784 0.000000 0.000000
# 5 0.000000 0.000000 0.000000 0.000000 -0.113503 0.000000
# 6 0.000000 0.000000 0.000000 0.000000 0.000000 0.055103
#
#
# Mechanical properties :
#
#
# Convention : Reuss Voigt Hill
#
# Bulk Modulus (GPa) = 41.68685 54.72045 48.20365
# Shear Modulus (GPa) = -75.86814 12.15851 -31.85482
#
# Velocity S-wave (km/s) = -5.82088 2.33023 -3.77178
# Velocity P-wave (km/s) = 5.15360 5.62833 1.59977
#
# Compressibility (1/GPa) = 0.02398838
#
# Stress axis : x y z
#
# Youngs Moduli (GPa) = 44.07731 115.17903 70.09245
#
# Poissons Ratio (x) = 0.40471 0.22913
# Poissons Ratio (y) = 0.15488 0.28326
# Poissons Ratio (z) = 0.14409 0.46547
#
# Static dielectric constant tensor:
#      x y z
#    x 1.813220 0.000000 0.000000 
#    y 0.000000 1.917010 0.000000 
#    z 0.000000 0.000000 1.913710 
# 
# From -- ./inp_files/3502.got.cif
#   From: 2010.05.17/outbox.cif.g08.bks.cpg/sg29_2_cif.got.tgz:3502.got - 2010.06.04 01:19:37.
