data_PCOD9340309
_publ_section_title
;
Structure prediction by ZEFSAII (Michael W. Deem and Ramdas Pophale) SiO2 
 PCOD9340309
Probable space group: P C A 21
;
_chemical_formula_sum "Si O2"
_cell_formula_units_Z 28
_cell_length_a 8.861263
_cell_length_b 7.249983
_cell_length_c 16.445049
_cell_angle_alpha 90.000000
_cell_angle_beta 90.000000
_cell_angle_gamma 90.000000
_cell_volume 1056.495828
_symmetry_space_group_name_H-M "P C A 21"
_symmetry_group_IT_number 29
_symmetry_cell_setting 'orthorhombic'
loop_
_space_group_symop_operation_xyz
x,y,z
-x,-y,1/2+z
1/2-x,y,1/2+z
1/2+x,-y,z
loop_
_atom_site_type_symbol
_atom_site_label
_atom_site_fract_x
_atom_site_fract_y
_atom_site_fract_z
Si Si1 0.080420 0.862804 0.714210
Si Si2 0.828026 0.429643 0.347370
Si Si3 0.637995 0.304855 0.173350
Si Si4 0.780284 0.820447 0.774760
Si Si5 0.571267 0.662356 0.983230
Si Si6 0.090540 0.842368 0.357184
Si Si7 0.649867 0.571065 0.584532
O O1 0.096604 0.688517 0.775800
O O2 0.223419 0.835085 0.655061
O O3 0.902099 0.847471 0.700252
O O4 0.132228 0.053547 0.757026
O O5 0.723439 0.284076 0.394793
O O6 0.941217 0.501403 0.415211
O O7 0.759898 0.660945 0.518382
O O8 0.599015 0.270451 0.268795
O O9 0.480460 0.302939 0.125084
O O10 0.727673 0.491177 0.148790
O O11 0.741655 0.620011 0.810006
O O12 0.863534 0.949487 0.840562
O O13 0.535691 0.835331 0.926313
O O14 0.449673 0.598678 0.049494
#
# Coordination Sequence:
#
# PCOD9340309 Si02
#       7
#     4   4   4   4   4   4   4
#     4  10  23  38  65 100 127 170 217 279 335 392
#     4  10  20  35  66  95 125 169 214 269 337 392
#     4   9  22  38  59  95 128 172 223 272 335 404
#     4  10  21  40  61 103 136 153 221 298 320 388
#     4  11  20  38  62  98 124 175 224 276 336 406
#     4  10  22  38  69 101 123 169 234 272 345 393
#     4  10  22  37  60  94 137 170 221 280 336 411
#
# _framework density 26.502711000000001
#
# number of rings (size 3 to 8) (size 9 to 14) (size 15 to 20)
#    0.000    2.286    1.429    1.714    8.000    1.143 
#    0.000    0.000    0.000   10.286    0.000    0.000 
#    0.000    0.000    0.000    0.000    0.000    0.000 
#
# Total GULP energy -155930.199011 kJ/mol
# GULP energy per Si atom -5568.935679 kJ/mol
# Density = 2.644239 g / cm^3
# Si number density = 26.502711 Si / 1000 Ang^3
#
#
#
# Elastic Constant Matrix: (Units=GPa)
#
#
# Indices 1 2 3 4 5 6 
#
# 1 159.9962 53.8537 42.1981 0.0000 0.0000 0.0000
# 2 53.8537 140.9892 25.3438 0.0000 0.0000 0.0000
# 3 42.1981 25.3438 75.3800 0.0000 0.0000 0.0000
# 4 0.0000 0.0000 0.0000 27.2209 0.0000 0.0000
# 5 0.0000 0.0000 0.0000 0.0000 51.6289 0.0000
# 6 0.0000 0.0000 0.0000 0.0000 0.0000 57.1973
#
#
#
# Elastic Compliance Matrix: (Units=1/GPa)
#
#
# Indices 1 2 3 4 5 6 
#
# 1 0.008032 -0.002405 -0.003688 0.000000 0.000000 0.000000
# 2 -0.002405 0.008269 -0.001434 0.000000 0.000000 0.000000
# 3 -0.003688 -0.001434 0.015813 0.000000 0.000000 0.000000
# 4 0.000000 0.000000 0.000000 0.036736 0.000000 0.000000
# 5 0.000000 0.000000 0.000000 0.000000 0.019369 0.000000
# 6 0.000000 0.000000 0.000000 0.000000 0.000000 0.017483
#
#
# Mechanical properties :
#
#
# Convention : Reuss Voigt Hill
#
# Bulk Modulus (GPa) = 58.61496 68.79518 63.70507
# Shear Modulus (GPa) = 39.54331 44.20742 41.87537
#
# Velocity S-wave (km/s) = 3.86689 4.08859 3.97929
# Velocity P-wave (km/s) = 6.48859 6.95003 6.72327
#
# Compressibility (1/GPa) = 0.01706049
#
# Stress axis : x y z
#
# Youngs Moduli (GPa) = 124.49596 120.93084 63.24037
#
# Poissons Ratio (x) = 0.29086 0.23322
# Poissons Ratio (y) = 0.29944 0.09067
# Poissons Ratio (z) = 0.45913 0.17339
#
# Static dielectric constant tensor:
#      x y z
#    x 2.280310 0.000000 0.000000 
#    y 0.000000 2.117440 0.000000 
#    z 0.000000 0.000000 2.242920 
# 
# From -- ./inp_files/4989.got.cif
#   From: 2010.05.17/outbox.cif.g08.bks.cpg/sg29_3_cif.got.tgz:4989.got - 2010.06.04 01:19:37.
