data_PCOD9340816
_publ_section_title
;
Structure prediction by ZEFSAII (Michael W. Deem and Ramdas Pophale) SiO2 
 PCOD9340816
Probable space group: P C A 21
;
_chemical_formula_sum "Si O2"
_cell_formula_units_Z 32
_cell_length_a 29.108005
_cell_length_b 8.362863
_cell_length_c 5.354801
_cell_angle_alpha 90.000000
_cell_angle_beta 90.000000
_cell_angle_gamma 90.000000
_cell_volume 1303.499170
_symmetry_space_group_name_H-M "P C A 21"
_symmetry_group_IT_number 29
_symmetry_cell_setting 'orthorhombic'
loop_
_space_group_symop_operation_xyz
x,y,z
-x,-y,1/2+z
1/2-x,y,1/2+z
1/2+x,-y,z
loop_
_atom_site_type_symbol
_atom_site_label
_atom_site_fract_x
_atom_site_fract_y
_atom_site_fract_z
Si Si1 0.471288 0.137919 0.673250
Si Si2 0.931770 0.543710 0.489503
Si Si3 0.453499 0.782004 0.483210
Si Si4 0.240113 0.981208 0.964261
Si Si5 0.776557 0.368895 0.979579
Si Si6 0.872971 0.537094 0.993759
Si Si7 0.864366 0.069320 0.514598
Si Si8 0.388376 0.117544 0.016611
O O1 0.451469 0.275595 0.493612
O O2 0.523955 0.184922 0.715471
O O3 0.440301 0.158168 0.924915
O O4 0.467447 0.949415 0.615384
O O5 0.967445 0.398964 0.547975
O O6 0.896649 0.537981 0.722613
O O7 0.908398 0.508211 0.221856
O O8 0.398509 0.781762 0.511517
O O9 0.250385 0.075538 0.715066
O O10 0.188922 0.911548 0.966070
O O11 0.272788 0.825111 0.971827
O O12 0.752328 0.422218 0.722325
O O13 0.828963 0.423584 0.999064
O O14 0.859045 0.721564 0.034680
O O15 0.870162 0.984735 0.781930
O O16 0.884049 0.968171 0.280932
#
# Coordination Sequence:
#
# PCOD9340816 Si02
#       8
#     4   4   4   4   4   4   4   4
#     4  10  24  47  67 108 151 180 239 299 350 406
#     4  11  27  44  74 107 143 190 242 298 349 436
#     4  11  25  42  77 104 141 197 233 287 355 434
#     4  10  22  38  61  92 135 169 217 304 341 402
#     4  10  22  38  64  95 131 178 224 296 358 414
#     4  11  23  45  70  99 141 186 238 295 361 425
#     4  11  23  41  67 102 132 178 241 272 357 422
#     4  10  22  43  68  93 140 186 218 293 353 419
#
# _framework density 24.549306000000001
#
# number of rings (size 3 to 8) (size 9 to 14) (size 15 to 20)
#    0.000    1.500    0.000    4.500    7.000    7.000 
#    0.000    3.750    0.000    0.000    0.000    0.000 
#    0.000    0.000    0.000    0.000    0.000    0.000 
#
# Total GULP energy -178737.731519 kJ/mol
# GULP energy per Si atom -5585.554110 kJ/mol
# Density = 2.449343 g / cm^3
# Si number density = 24.549306 Si / 1000 Ang^3
#
#
#
# Elastic Constant Matrix: (Units=GPa)
#
#
# Indices 1 2 3 4 5 6 
#
# 1 77.6315 9.6566 21.2528 0.0000 0.0000 0.0000
# 2 9.6566 112.4384 20.2136 0.0000 0.0000 0.0000
# 3 21.2528 20.2136 122.1307 0.0000 0.0000 0.0000
# 4 0.0000 0.0000 0.0000 24.4202 0.0000 0.0000
# 5 0.0000 0.0000 0.0000 0.0000 34.2901 0.0000
# 6 0.0000 0.0000 0.0000 0.0000 0.0000 29.9409
#
#
#
# Elastic Compliance Matrix: (Units=1/GPa)
#
#
# Indices 1 2 3 4 5 6 
#
# 1 0.013589 -0.000765 -0.002238 0.000000 0.000000 0.000000
# 2 -0.000765 0.009210 -0.001391 0.000000 0.000000 0.000000
# 3 -0.002238 -0.001391 0.008808 0.000000 0.000000 0.000000
# 4 0.000000 0.000000 0.000000 0.040950 0.000000 0.000000
# 5 0.000000 0.000000 0.000000 0.000000 0.029163 0.000000
# 6 0.000000 0.000000 0.000000 0.000000 0.000000 0.033399
#
#
# Mechanical properties :
#
#
# Convention : Reuss Voigt Hill
#
# Bulk Modulus (GPa) = 43.82451 46.04962 44.93707
# Shear Modulus (GPa) = 33.00060 35.13543 34.06802
#
# Velocity S-wave (km/s) = 3.67039 3.78725 3.72928
# Velocity P-wave (km/s) = 5.98772 6.15817 6.07354
#
# Compressibility (1/GPa) = 0.02281828
#
# Stress axis : x y z
#
# Youngs Moduli (GPa) = 73.58773 108.58313 113.53728
#
# Poissons Ratio (x) = 0.08304 0.25412
# Poissons Ratio (y) = 0.05627 0.15795
# Poissons Ratio (z) = 0.16470 0.15106
#
# Static dielectric constant tensor:
#      x y z
#    x 2.031810 0.000000 0.000000 
#    y 0.000000 1.953280 0.000000 
#    z 0.000000 0.000000 2.070570 
# 
# From -- ./inp_files/912.got.cif
#   From: 2010.05.17/outbox.cif.g08.bks.cpg/sg29_1_cif.got.tgz:912.got - 2010.06.04 01:19:37.
