data_PCOD9340596
_publ_section_title
;
Structure prediction by ZEFSAII (Michael W. Deem and Ramdas Pophale) SiO2 
 PCOD9340596
Probable space group: P C A 21
;
_chemical_formula_sum "Si O2"
_cell_formula_units_Z 32
_cell_length_a 7.575508
_cell_length_b 20.031242
_cell_length_c 8.989265
_cell_angle_alpha 90.000000
_cell_angle_beta 90.000000
_cell_angle_gamma 90.000000
_cell_volume 1364.092504
_symmetry_space_group_name_H-M "P C A 21"
_symmetry_group_IT_number 29
_symmetry_cell_setting 'orthorhombic'
loop_
_space_group_symop_operation_xyz
x,y,z
-x,-y,1/2+z
1/2-x,y,1/2+z
1/2+x,-y,z
loop_
_atom_site_type_symbol
_atom_site_label
_atom_site_fract_x
_atom_site_fract_y
_atom_site_fract_z
Si Si1 0.630282 0.630085 0.792950
Si Si2 0.987312 0.196357 0.931069
Si Si3 0.680428 0.506457 0.204873
Si Si4 0.389280 0.568740 0.999007
Si Si5 0.377124 0.789190 0.593562
Si Si6 0.171295 0.289743 0.501033
Si Si7 0.460558 0.931432 0.521156
Si Si8 0.889854 0.053356 0.858397
O O1 0.652468 0.556972 0.722349
O O2 0.456687 0.630372 0.898842
O O3 0.662316 0.685265 0.669662
O O4 0.790670 0.645518 0.903598
O O5 0.828643 0.204301 0.051469
O O6 0.013229 0.115451 0.911112
O O7 0.906878 0.218824 0.770573
O O8 0.166081 0.237643 0.971001
O O9 0.640820 0.487286 0.373830
O O10 0.547428 0.550774 0.109835
O O11 0.725012 0.439549 0.109731
O O12 0.473636 0.737372 0.484729
O O13 0.496959 0.855050 0.559238
O O14 0.305185 0.924068 0.400787
O O15 0.405709 0.958855 0.683409
O O16 0.586885 0.985205 0.448692
#
# Coordination Sequence:
#
# PCOD9340596 Si02
#       8
#     4   4   4   4   4   4   4   4
#     4  12  25  44  72 100 135 179 228 277 334 419
#     4  10  24  45  69  98 134 186 235 290 355 414
#     4  12  23  44  71  99 141 174 219 283 345 405
#     4  12  23  44  70 104 137 179 222 276 348 402
#     4  10  24  45  69  97 137 183 237 291 352 416
#     4  12  25  48  67 100 141 184 233 284 344 416
#     4  10  21  39  62  96 132 173 225 292 351 421
#     4  10  21  39  62  96 133 170 229 287 353 423
#
# _framework density 23.458818999999998
#
# number of rings (size 3 to 8) (size 9 to 14) (size 15 to 20)
#    0.000    1.000    5.000    0.750    3.500    1.000 
#    2.250    0.000    0.000    0.000    0.000    0.000 
#    0.000    0.000    0.000    0.000    0.000    0.000 
#
# Total GULP energy -178245.690035 kJ/mol
# GULP energy per Si atom -5570.177814 kJ/mol
# Density = 2.340543 g / cm^3
# Si number density = 23.458819 Si / 1000 Ang^3
#
#
#
# Elastic Constant Matrix: (Units=GPa)
#
#
# Indices 1 2 3 4 5 6 
#
# 1 34.4289 -2.4506 10.3465 0.0000 0.0000 0.0000
# 2 -2.4506 39.2197 12.8022 0.0000 0.0000 0.0000
# 3 10.3465 12.8022 102.7069 0.0000 0.0000 0.0000
# 4 0.0000 0.0000 0.0000 38.0441 0.0000 0.0000
# 5 0.0000 0.0000 0.0000 0.0000 36.9605 0.0000
# 6 0.0000 0.0000 0.0000 0.0000 0.0000 30.5548
#
#
#
# Elastic Compliance Matrix: (Units=1/GPa)
#
#
# Indices 1 2 3 4 5 6 
#
# 1 0.030289 0.003011 -0.003427 0.000000 0.000000 0.000000
# 2 0.003011 0.026878 -0.003654 0.000000 0.000000 0.000000
# 3 -0.003427 -0.003654 0.010537 0.000000 0.000000 0.000000
# 4 0.000000 0.000000 0.000000 0.026285 0.000000 0.000000
# 5 0.000000 0.000000 0.000000 0.000000 0.027056 0.000000
# 6 0.000000 0.000000 0.000000 0.000000 0.000000 0.032728
#
#
# Mechanical properties :
#
#
# Convention : Reuss Voigt Hill
#
# Bulk Modulus (GPa) = 16.78799 24.19463 20.49131
# Shear Modulus (GPa) = 27.50766 31.48906 29.49836
#
# Velocity S-wave (km/s) = 3.42803 3.66773 3.54991
# Velocity P-wave (km/s) = 4.77917 5.31718 5.05533
#
# Compressibility (1/GPa) = 0.05956639
#
# Stress axis : x y z
#
# Youngs Moduli (GPa) = 33.01483 37.20494 94.90319
#
# Poissons Ratio (x) = -0.11203 0.32520
# Poissons Ratio (y) = -0.09941 0.34674
# Poissons Ratio (z) = 0.11313 0.13593
#
# Static dielectric constant tensor:
#      x y z
#    x 1.968790 0.000000 0.000000 
#    y 0.000000 2.009700 0.000000 
#    z 0.000000 0.000000 1.872180 
# 
# From -- ./inp_files/1264.got.cif
#   From: 2010.05.17/outbox.cif.g08.bks.cpg/sg29_1_cif.got.tgz:1264.got - 2010.06.04 01:19:37.
