data_PCOD9340145
_publ_section_title
;
Structure prediction by ZEFSAII (Michael W. Deem and Ramdas Pophale) SiO2 
 PCOD9340145
Probable space group: P C A 21
;
_chemical_formula_sum "Si O2"
_cell_formula_units_Z 28
_cell_length_a 18.644270
_cell_length_b 5.131141
_cell_length_c 16.324411
_cell_angle_alpha 90.000000
_cell_angle_beta 90.000000
_cell_angle_gamma 90.000000
_cell_volume 1561.697277
_symmetry_space_group_name_H-M "P C A 21"
_symmetry_group_IT_number 29
_symmetry_cell_setting 'orthorhombic'
loop_
_space_group_symop_operation_xyz
x,y,z
-x,-y,1/2+z
1/2-x,y,1/2+z
1/2+x,-y,z
loop_
_atom_site_type_symbol
_atom_site_label
_atom_site_fract_x
_atom_site_fract_y
_atom_site_fract_z
Si Si1 0.717705 0.979350 0.744850
Si Si2 0.758556 0.639910 0.968047
Si Si3 0.342462 0.521773 0.333150
Si Si4 0.857807 0.838200 0.824238
Si Si5 0.561140 0.151243 0.446992
Si Si6 0.809445 0.134186 0.059835
Si Si7 0.998862 0.659233 0.875671
O O1 0.700440 0.219718 0.805536
O O2 0.697432 0.077273 0.655255
O O3 0.674643 0.721837 0.773578
O O4 0.801538 0.902415 0.754111
O O5 0.685345 0.566551 0.922584
O O6 0.814901 0.671555 0.892732
O O7 0.783001 0.416599 0.030375
O O8 0.762461 0.915869 0.013179
O O9 0.425718 0.594199 0.336318
O O10 0.934172 0.700638 0.809812
O O11 0.881716 0.098457 0.873141
O O12 0.608554 0.111038 0.527610
O O13 0.525915 0.428538 0.435364
O O14 0.503583 0.925067 0.428352
#
# Coordination Sequence:
#
# PCOD9340145 Si02
#       7
#     4   4   4   4   4   4   4
#     4  11  23  34  59  84 119 143 187 242 289 326
#     4  10  19  35  59  79 106 142 196 231 269 333
#     4  11  22  37  56  89 110 147 191 243 274 333
#     4   8  19  33  58  79 103 149 193 224 264 337
#     4   9  17  32  57  78  99 147 191 221 258 346
#     4  11  19  36  57  84 110 146 188 235 286 328
#     4  10  19  33  60  77 107 140 192 226 272 325
#
# _framework density 17.929212
#
# number of rings (size 3 to 8) (size 9 to 14) (size 15 to 20)
#    0.857    1.143    1.429    4.286    2.000    0.000 
#    0.000    0.000    9.429    0.000    0.000    0.000 
#    0.000    0.000    0.000    0.000    0.000    0.000 
#
# Total GULP energy -155908.460043 kJ/mol
# GULP energy per Si atom -5568.159287 kJ/mol
# Density = 1.788840 g / cm^3
# Si number density = 17.929212 Si / 1000 Ang^3
#
#
#
# Elastic Constant Matrix: (Units=GPa)
#
#
# Indices 1 2 3 4 5 6 
#
# 1 60.9767 -3.9337 3.8785 0.0000 0.0000 0.0000
# 2 -3.9337 80.3394 -2.5947 0.0000 0.0000 0.0000
# 3 3.8785 -2.5947 33.4374 0.0000 0.0000 0.0000
# 4 0.0000 0.0000 0.0000 19.5881 0.0000 0.0000
# 5 0.0000 0.0000 0.0000 0.0000 11.2664 0.0000
# 6 0.0000 0.0000 0.0000 0.0000 0.0000 14.4779
#
#
#
# Elastic Compliance Matrix: (Units=1/GPa)
#
#
# Indices 1 2 3 4 5 6 
#
# 1 0.016567 0.000751 -0.001863 0.000000 0.000000 0.000000
# 2 0.000751 0.012513 0.000884 0.000000 0.000000 0.000000
# 3 -0.001863 0.000884 0.030191 0.000000 0.000000 0.000000
# 4 0.000000 0.000000 0.000000 0.051051 0.000000 0.000000
# 5 0.000000 0.000000 0.000000 0.000000 0.088759 0.000000
# 6 0.000000 0.000000 0.000000 0.000000 0.000000 0.069071
#
#
# Mechanical properties :
#
#
# Convention : Reuss Voigt Hill
#
# Bulk Modulus (GPa) = 17.00292 18.82820 17.91556
# Shear Modulus (GPa) = 17.34823 20.89337 19.12080
#
# Velocity S-wave (km/s) = 3.11400 3.41739 3.26921
# Velocity P-wave (km/s) = 4.73637 5.10839 4.92589
#
# Compressibility (1/GPa) = 0.05881343
#
# Stress axis : x y z
#
# Youngs Moduli (GPa) = 60.36214 79.92003 33.12210
#
# Poissons Ratio (x) = -0.06002 0.06172
# Poissons Ratio (y) = -0.04533 -0.02927
# Poissons Ratio (z) = 0.11248 -0.07064
#
# Static dielectric constant tensor:
#      x y z
#    x 1.644000 0.000000 0.000000 
#    y 0.000000 1.635270 0.000000 
#    z 0.000000 0.000000 1.594470 
# 
# From -- ./inp_files/5324.got.cif
#   From: 2010.05.17/outbox.cif.g08.bks.cpg/sg29_3_cif.got.tgz:5324.got - 2010.06.04 01:19:37.
