data_PCOD9340112
_publ_section_title
;
Structure prediction by ZEFSAII (Michael W. Deem and Ramdas Pophale) SiO2 
 PCOD9340112
Probable space group: P C A 21
;
_chemical_formula_sum "Si O2"
_cell_formula_units_Z 24
_cell_length_a 21.486404
_cell_length_b 10.412646
_cell_length_c 5.380778
_cell_angle_alpha 90.000000
_cell_angle_beta 90.000000
_cell_angle_gamma 90.000000
_cell_volume 1203.843177
_symmetry_space_group_name_H-M "P C A 21"
_symmetry_group_IT_number 29
_symmetry_cell_setting 'orthorhombic'
loop_
_space_group_symop_operation_xyz
x,y,z
-x,-y,1/2+z
1/2-x,y,1/2+z
1/2+x,-y,z
loop_
_atom_site_type_symbol
_atom_site_label
_atom_site_fract_x
_atom_site_fract_y
_atom_site_fract_z
Si Si1 0.413347 0.518889 0.202900
Si Si2 0.986875 0.689919 0.970109
Si Si3 0.008741 0.922110 0.675593
Si Si4 0.719092 0.449642 0.863720
Si Si5 0.730228 0.160148 0.290498
Si Si6 0.593436 0.243009 0.361020
O O1 0.475082 0.578639 0.326689
O O2 0.430551 0.378548 0.108225
O O3 0.354181 0.526067 0.381406
O O4 0.396803 0.616801 0.979791
O O5 0.037412 0.746190 0.164692
O O6 0.968737 0.802004 0.779316
O O7 0.071598 0.852115 0.581730
O O8 0.984300 0.989681 0.422467
O O9 0.745338 0.501325 0.603412
O O10 0.733423 0.296386 0.836124
O O11 0.740905 0.092356 0.553109
O O12 0.657827 0.192006 0.254370
#
# Coordination Sequence:
#
# PCOD9340112 Si02
#       6
#     4   4   4   4   4   4
#     4  11  21  32  55  91 130 154 188 239 317 372
#     4  11  22  35  58  91 124 164 189 250 306 380
#     4  11  24  43  59  81 115 158 216 248 297 355
#     4  10  19  33  50  75 122 158 194 226 279 377
#     4  10  19  31  51  81 118 152 191 230 298 365
#     4  11  21  36  59  85 127 156 192 255 301 371
#
# _framework density 19.936152
#
# number of rings (size 3 to 8) (size 9 to 14) (size 15 to 20)
#    0.000    1.333    6.667    2.000    2.333    0.000 
#    0.000    0.000    0.000    0.000    0.000    7.000 
#    0.000    0.000    0.000    0.000    0.000    0.000 
#
# Total GULP energy -133857.325199 kJ/mol
# GULP energy per Si atom -5577.388550 kJ/mol
# Density = 1.989078 g / cm^3
# Si number density = 19.936152 Si / 1000 Ang^3
#
#
#
# Elastic Constant Matrix: (Units=GPa)
#
#
# Indices 1 2 3 4 5 6 
#
# 1 39.9042 24.5963 11.4733 0.0000 0.0000 0.0000
# 2 24.5963 62.3458 30.5702 0.0000 0.0000 0.0000
# 3 11.4733 30.5702 132.3544 0.0000 0.0000 0.0000
# 4 0.0000 0.0000 0.0000 13.9276 0.0000 0.0000
# 5 0.0000 0.0000 0.0000 0.0000 22.1444 0.0000
# 6 0.0000 0.0000 0.0000 0.0000 0.0000 4.2423
#
#
#
# Elastic Compliance Matrix: (Units=1/GPa)
#
#
# Indices 1 2 3 4 5 6 
#
# 1 0.033115 -0.013146 0.000166 0.000000 0.000000 0.000000
# 2 -0.013146 0.023306 -0.004244 0.000000 0.000000 0.000000
# 3 0.000166 -0.004244 0.008521 0.000000 0.000000 0.000000
# 4 0.000000 0.000000 0.000000 0.071800 0.000000 0.000000
# 5 0.000000 0.000000 0.000000 0.000000 0.045158 0.000000
# 6 0.000000 0.000000 0.000000 0.000000 0.000000 0.235720
#
#
# Mechanical properties :
#
#
# Convention : Reuss Voigt Hill
#
# Bulk Modulus (GPa) = 32.79147 40.87600 36.83374
# Shear Modulus (GPa) = 10.81705 19.26051 15.03878
#
# Velocity S-wave (km/s) = 2.33187 3.11160 2.74952
# Velocity P-wave (km/s) = 4.87177 5.78424 5.34750
#
# Compressibility (1/GPa) = 0.03049573
#
# Stress axis : x y z
#
# Youngs Moduli (GPa) = 30.19774 42.90656 117.35341
#
# Poissons Ratio (x) = 0.56403 -0.01944
# Poissons Ratio (y) = 0.39697 0.49800
# Poissons Ratio (z) = -0.00500 0.18208
#
# Static dielectric constant tensor:
#      x y z
#    x 1.720430 0.000000 0.000000 
#    y 0.000000 1.720830 0.000000 
#    z 0.000000 0.000000 1.829390 
# 
# From -- ./inp_files/511.got.cif
#   From: 2010.05.17/outbox.cif.g08.bks.cpg/sg29_1_cif.got.tgz:511.got - 2010.06.04 01:19:37.
