data_PCOD9340730
_publ_section_title
;
Structure prediction by ZEFSAII (Michael W. Deem and Ramdas Pophale) SiO2 
 PCOD9340730
Probable space group: P C A 21
;
_chemical_formula_sum "Si O2"
_cell_formula_units_Z 32
_cell_length_a 14.438497
_cell_length_b 6.960729
_cell_length_c 12.534328
_cell_angle_alpha 90.000000
_cell_angle_beta 90.000000
_cell_angle_gamma 90.000000
_cell_volume 1259.730858
_symmetry_space_group_name_H-M "P C A 21"
_symmetry_group_IT_number 29
_symmetry_cell_setting 'orthorhombic'
loop_
_space_group_symop_operation_xyz
x,y,z
-x,-y,1/2+z
1/2-x,y,1/2+z
1/2+x,-y,z
loop_
_atom_site_type_symbol
_atom_site_label
_atom_site_fract_x
_atom_site_fract_y
_atom_site_fract_z
Si Si1 0.031626 0.112329 0.258890
Si Si2 0.164179 0.028293 0.564268
Si Si3 0.148073 0.668381 0.415276
Si Si4 0.458360 0.302909 0.311431
Si Si5 0.044453 0.546485 0.616892
Si Si6 0.663616 0.878688 0.960922
Si Si7 0.520926 0.214075 0.997374
Si Si8 0.735725 0.078902 0.269967
O O1 0.105398 0.936684 0.001683
O O2 0.136413 0.027221 0.247758
O O3 0.973490 0.916477 0.273849
O O4 0.067210 0.131565 0.560676
O O5 0.149872 0.880914 0.466795
O O6 0.000855 0.746245 0.662981
O O7 0.251020 0.165520 0.537151
O O8 0.201658 0.911436 0.664988
O O9 0.122831 0.556450 0.523911
O O10 0.228238 0.711296 0.328406
O O11 0.061013 0.628248 0.340371
O O12 0.417938 0.437908 0.221455
O O13 0.404089 0.287078 0.422541
O O14 0.965648 0.410257 0.562696
O O15 0.711305 0.939009 0.850136
O O16 0.488692 0.218596 0.872988
#
# Coordination Sequence:
#
# PCOD9340730 Si02
#       8
#     4   4   4   4   4   4   4   4
#     4  10  23  45  70 107 152 200 250 317 383 464
#     4  11  22  43  78 104 145 204 251 316 389 450
#     4  10  23  45  65 107 151 190 255 318 366 467
#     4  10  22  43  72 103 147 198 248 313 380 460
#     4  12  26  39  76 112 146 202 254 316 389 453
#     4  10  21  42  74 106 140 194 254 307 379 459
#     4  11  23  45  70 110 151 194 261 319 373 472
#     4  10  22  42  73 105 146 202 253 316 383 459
#
# _framework density 25.402252000000001
#
# number of rings (size 3 to 8) (size 9 to 14) (size 15 to 20)
#    0.000    1.500    5.000    1.500   10.500    0.000 
#    0.000    6.250    0.000    0.000    0.000    0.000 
#    0.000    0.000    0.000    0.000    0.000    0.000 
#
# Total GULP energy -178444.298732 kJ/mol
# GULP energy per Si atom -5576.384335 kJ/mol
# Density = 2.534444 g / cm^3
# Si number density = 25.402252 Si / 1000 Ang^3
#
#
#
# Elastic Constant Matrix: (Units=GPa)
#
#
# Indices 1 2 3 4 5 6 
#
# 1 89.1178 22.5664 23.6668 0.0000 0.0000 0.0000
# 2 22.5664 108.7621 48.1647 0.0000 0.0000 0.0000
# 3 23.6668 48.1647 153.5822 0.0000 0.0000 0.0000
# 4 0.0000 0.0000 0.0000 65.4463 0.0000 0.0000
# 5 0.0000 0.0000 0.0000 0.0000 34.7265 0.0000
# 6 0.0000 0.0000 0.0000 0.0000 0.0000 11.2599
#
#
#
# Elastic Compliance Matrix: (Units=1/GPa)
#
#
# Indices 1 2 3 4 5 6 
#
# 1 0.012045 -0.001948 -0.001245 0.000000 0.000000 0.000000
# 2 -0.001948 0.010992 -0.003147 0.000000 0.000000 0.000000
# 3 -0.001245 -0.003147 0.007690 0.000000 0.000000 0.000000
# 4 0.000000 0.000000 0.000000 0.015280 0.000000 0.000000
# 5 0.000000 0.000000 0.000000 0.000000 0.028796 0.000000
# 6 0.000000 0.000000 0.000000 0.000000 0.000000 0.088811
#
#
# Mechanical properties :
#
#
# Convention : Reuss Voigt Hill
#
# Bulk Modulus (GPa) = 55.41078 60.02867 57.71972
# Shear Modulus (GPa) = 27.42580 39.42414 33.42497
#
# Velocity S-wave (km/s) = 3.28938 3.94381 3.63137
# Velocity P-wave (km/s) = 6.02390 6.66489 6.35248
#
# Compressibility (1/GPa) = 0.01804703
#
# Stress axis : x y z
#
# Youngs Moduli (GPa) = 83.02197 90.97387 130.03847
#
# Poissons Ratio (x) = 0.17719 0.16194
# Poissons Ratio (y) = 0.16170 0.40925
# Poissons Ratio (z) = 0.10339 0.28630
#
# Static dielectric constant tensor:
#      x y z
#    x 2.105770 0.000000 0.000000 
#    y 0.000000 2.107780 0.000000 
#    z 0.000000 0.000000 2.109210 
# 
# From -- ./inp_files/3472.got.cif
#   From: 2010.05.17/outbox.cif.g08.bks.cpg/sg29_2_cif.got.tgz:3472.got - 2010.06.04 01:19:37.
