data_PCOD9340720
_publ_section_title
;
Structure prediction by ZEFSAII (Michael W. Deem and Ramdas Pophale) SiO2 
 PCOD9340720
Probable space group: P C A 21
;
_chemical_formula_sum "Si O2"
_cell_formula_units_Z 32
_cell_length_a 28.281922
_cell_length_b 5.595426
_cell_length_c 7.690187
_cell_angle_alpha 90.000000
_cell_angle_beta 90.000000
_cell_angle_gamma 90.000000
_cell_volume 1216.967492
_symmetry_space_group_name_H-M "P C A 21"
_symmetry_group_IT_number 29
_symmetry_cell_setting 'orthorhombic'
loop_
_space_group_symop_operation_xyz
x,y,z
-x,-y,1/2+z
1/2-x,y,1/2+z
1/2+x,-y,z
loop_
_atom_site_type_symbol
_atom_site_label
_atom_site_fract_x
_atom_site_fract_y
_atom_site_fract_z
Si Si1 0.001029 0.854421 0.210000
Si Si2 0.095808 0.027852 0.787404
Si Si3 0.354653 0.405387 0.083672
Si Si4 0.181112 0.711952 0.862050
Si Si5 0.049423 0.518126 0.452338
Si Si6 0.915135 0.805273 0.637221
Si Si7 0.311326 0.185070 0.780432
Si Si8 0.744827 0.063169 0.569089
O O1 0.957862 0.037828 0.242489
O O2 0.016506 0.732250 0.390902
O O3 0.048574 0.976595 0.146703
O O4 0.979407 0.661504 0.076341
O O5 0.120850 0.149316 0.621172
O O6 0.129746 0.833751 0.874663
O O7 0.090466 0.240701 0.932000
O O8 0.326586 0.468708 0.257977
O O9 0.399986 0.572886 0.043400
O O10 0.320784 0.399497 0.916338
O O11 0.214279 0.741434 0.028609
O O12 0.209970 0.866945 0.721752
O O13 0.064486 0.390400 0.270144
O O14 0.863049 0.865165 0.706885
O O15 0.288856 0.986451 0.906480
O O16 0.274398 0.174990 0.622143
#
# Coordination Sequence:
#
# PCOD9340720 Si02
#       8
#     4   4   4   4   4   4   4   4
#     4  11  24  41  68  94 134 176 214 276 332 404
#     4  11  23  43  65  96 132 173 221 267 337 397
#     4  10  24  41  68  96 136 173 220 280 337 397
#     4  11  23  43  66  98 129 176 218 281 325 404
#     4  10  24  41  60 100 132 169 227 272 326 413
#     4  11  23  41  67  96 129 181 215 267 339 395
#     4  10  21  42  65  98 130 175 218 276 335 391
#     4  10  22  42  69  92 134 169 229 273 331 403
#
# _framework density 26.294868999999998
#
# number of rings (size 3 to 8) (size 9 to 14) (size 15 to 20)
#    0.000    1.500    2.500    1.500    1.750    7.000 
#    0.000    1.250    0.000    0.000    0.000    0.000 
#    0.000    0.000    0.000    0.000    0.000    0.000 
#
# Total GULP energy -178925.446316 kJ/mol
# GULP energy per Si atom -5591.420197 kJ/mol
# Density = 2.623502 g / cm^3
# Si number density = 26.294869 Si / 1000 Ang^3
#
#
#
# Elastic Constant Matrix: (Units=GPa)
#
#
# Indices 1 2 3 4 5 6 
#
# 1 159.2957 30.7756 24.1595 0.0000 0.0000 0.0000
# 2 30.7756 38.1885 -0.2458 0.0000 0.0000 0.0000
# 3 24.1595 -0.2458 99.0510 0.0000 0.0000 0.0000
# 4 0.0000 0.0000 0.0000 38.3227 0.0000 0.0000
# 5 0.0000 0.0000 0.0000 0.0000 26.1023 0.0000
# 6 0.0000 0.0000 0.0000 0.0000 0.0000 21.4018
#
#
#
# Elastic Compliance Matrix: (Units=1/GPa)
#
#
# Indices 1 2 3 4 5 6 
#
# 1 0.007782 -0.006284 -0.001914 0.000000 0.000000 0.000000
# 2 -0.006284 0.031260 0.001610 0.000000 0.000000 0.000000
# 3 -0.001914 0.001610 0.010567 0.000000 0.000000 0.000000
# 4 0.000000 0.000000 0.000000 0.026094 0.000000 0.000000
# 5 0.000000 0.000000 0.000000 0.000000 0.038311 0.000000
# 6 0.000000 0.000000 0.000000 0.000000 0.000000 0.046725
#
#
# Mechanical properties :
#
#
# Convention : Reuss Voigt Hill
#
# Bulk Modulus (GPa) = 27.44659 45.10155 36.27407
# Shear Modulus (GPa) = 26.87340 33.28842 30.08091
#
# Velocity S-wave (km/s) = 3.20034 3.56190 3.38595
# Velocity P-wave (km/s) = 4.91090 5.84000 5.39549
#
# Compressibility (1/GPa) = 0.03643439
#
# Stress axis : x y z
#
# Youngs Moduli (GPa) = 128.50420 31.98967 94.63816
#
# Poissons Ratio (x) = 0.20101 0.18111
# Poissons Ratio (y) = 0.80747 -0.15239
# Poissons Ratio (z) = 0.24591 -0.05151
#
# Static dielectric constant tensor:
#      x y z
#    x 2.044480 0.000000 0.000000 
#    y 0.000000 2.117130 0.000000 
#    z 0.000000 0.000000 2.127810 
# 
# From -- ./inp_files/2624.got.cif
#   From: 2010.05.17/outbox.cif.g08.bks.cpg/sg29_2_cif.got.tgz:2624.got - 2010.06.04 01:19:37.
