data_PCOD9340637
_publ_section_title
;
Structure prediction by ZEFSAII (Michael W. Deem and Ramdas Pophale) SiO2 
 PCOD9340637
Probable space group: P C A 21
;
_chemical_formula_sum "Si O2"
_cell_formula_units_Z 32
_cell_length_a 10.427038
_cell_length_b 5.437026
_cell_length_c 20.501662
_cell_angle_alpha 90.000000
_cell_angle_beta 90.000000
_cell_angle_gamma 90.000000
_cell_volume 1162.281795
_symmetry_space_group_name_H-M "P C A 21"
_symmetry_group_IT_number 29
_symmetry_cell_setting 'orthorhombic'
loop_
_space_group_symop_operation_xyz
x,y,z
-x,-y,1/2+z
1/2-x,y,1/2+z
1/2+x,-y,z
loop_
_atom_site_type_symbol
_atom_site_label
_atom_site_fract_x
_atom_site_fract_y
_atom_site_fract_z
Si Si1 0.172672 0.539737 0.543970
Si Si2 0.255773 0.494463 0.396321
Si Si3 0.728587 0.779079 0.186465
Si Si4 0.533015 0.782882 0.762554
Si Si5 0.146790 0.996305 0.935867
Si Si6 0.666061 0.281100 0.142908
Si Si7 0.900885 0.963621 0.024539
Si Si8 0.043999 0.281753 0.298495
O O1 0.180008 0.516597 0.465749
O O2 0.317185 0.597115 0.570686
O O3 0.109120 0.284490 0.566333
O O4 0.087304 0.776660 0.561397
O O5 0.353445 0.269299 0.406800
O O6 0.155616 0.398548 0.342969
O O7 0.318368 0.764545 0.389764
O O8 0.760833 0.493375 0.172286
O O9 0.596860 0.753010 0.225286
O O10 0.833436 0.883336 0.235782
O O11 0.707492 0.997165 0.135027
O O12 0.443249 0.743305 0.698105
O O13 0.551953 0.511367 0.792297
O O14 0.482430 0.993419 0.812297
O O15 0.266895 0.013573 0.985880
O O16 0.016778 0.943499 0.974042
#
# Coordination Sequence:
#
# PCOD9340637 Si02
#       8
#     4   4   4   4   4   4   4   4
#     4  10  21  40  61  91 126 169 215 263 332 403
#     4  10  21  40  62  93 128 169 216 264 329 407
#     4  10  21  40  62  95 119 163 215 272 331 382
#     4  10  21  40  65  90 126 163 217 271 331 385
#     4  10  21  40  61  86 129 171 212 260 314 385
#     4  10  21  40  63  88 127 162 213 272 323 396
#     4  10  21  40  61  86 129 170 211 262 312 389
#     4  10  21  40  63  91 128 163 211 270 326 395
#
# _framework density 27.532048
#
# number of rings (size 3 to 8) (size 9 to 14) (size 15 to 20)
#    0.000    2.000    0.000    3.000    0.000    0.000 
#   27.000    0.000    0.000    0.000    0.000    0.000 
#    0.000    0.000    0.000    0.000    0.000    0.000 
#
# Total GULP energy -178614.229337 kJ/mol
# GULP energy per Si atom -5581.694667 kJ/mol
# Density = 2.746938 g / cm^3
# Si number density = 27.532048 Si / 1000 Ang^3
#
#
#
# Elastic Constant Matrix: (Units=GPa)
#
#
# Indices 1 2 3 4 5 6 
#
# 1 62.5850 19.9108 6.1128 0.0000 0.0000 0.0000
# 2 19.9108 207.9237 26.6540 0.0000 0.0000 0.0000
# 3 6.1128 26.6540 57.2510 0.0000 0.0000 0.0000
# 4 0.0000 0.0000 0.0000 58.9445 0.0000 0.0000
# 5 0.0000 0.0000 0.0000 0.0000 34.3904 0.0000
# 6 0.0000 0.0000 0.0000 0.0000 0.0000 35.8614
#
#
#
# Elastic Compliance Matrix: (Units=1/GPa)
#
#
# Indices 1 2 3 4 5 6 
#
# 1 0.016545 -0.001444 -0.001094 0.000000 0.000000 0.000000
# 2 -0.001444 0.005241 -0.002286 0.000000 0.000000 0.000000
# 3 -0.001094 -0.002286 0.018648 0.000000 0.000000 0.000000
# 4 0.000000 0.000000 0.000000 0.016965 0.000000 0.000000
# 5 0.000000 0.000000 0.000000 0.000000 0.029078 0.000000
# 6 0.000000 0.000000 0.000000 0.000000 0.000000 0.027885
#
#
# Mechanical properties :
#
#
# Convention : Reuss Voigt Hill
#
# Bulk Modulus (GPa) = 32.48306 48.12387 40.30346
# Shear Modulus (GPa) = 37.23810 44.17805 40.70808
#
# Velocity S-wave (km/s) = 3.68167 4.01010 3.84939
# Velocity P-wave (km/s) = 5.46780 6.24166 5.86750
#
# Compressibility (1/GPa) = 0.03078528
#
# Stress axis : x y z
#
# Youngs Moduli (GPa) = 60.44282 190.81249 53.62530
#
# Poissons Ratio (x) = 0.27554 0.05868
# Poissons Ratio (y) = 0.08728 0.12257
# Poissons Ratio (z) = 0.06614 0.43614
#
# Static dielectric constant tensor:
#      x y z
#    x 2.157110 0.000000 0.000000 
#    y 0.000000 2.252300 0.000000 
#    z 0.000000 0.000000 2.306770 
# 
# From -- ./inp_files/5554.got.cif
#   From: 2010.05.17/outbox.cif.g08.bks.cpg/sg29_3_cif.got.tgz:5554.got - 2010.06.04 01:19:37.
