data_PCOD9340731
_publ_section_title
;
Structure prediction by ZEFSAII (Michael W. Deem and Ramdas Pophale) SiO2 
 PCOD9340731
Probable space group: P C A 21
;
_chemical_formula_sum "Si O2"
_cell_formula_units_Z 32
_cell_length_a 33.266486
_cell_length_b 7.938127
_cell_length_c 5.075853
_cell_angle_alpha 90.000000
_cell_angle_beta 90.000000
_cell_angle_gamma 90.000000
_cell_volume 1340.398728
_symmetry_space_group_name_H-M "P C A 21"
_symmetry_group_IT_number 29
_symmetry_cell_setting 'orthorhombic'
loop_
_space_group_symop_operation_xyz
x,y,z
-x,-y,1/2+z
1/2-x,y,1/2+z
1/2+x,-y,z
loop_
_atom_site_type_symbol
_atom_site_label
_atom_site_fract_x
_atom_site_fract_y
_atom_site_fract_z
Si Si1 0.836295 0.380488 0.222000
Si Si2 0.277751 0.309054 0.180960
Si Si3 0.776763 0.075258 0.226745
Si Si4 0.432625 0.993220 0.945265
Si Si5 0.009918 0.122332 0.125941
Si Si6 0.537998 0.679150 0.651075
Si Si7 0.455210 0.672850 0.350083
Si Si8 0.385627 0.707290 0.745381
O O1 0.810793 0.550677 0.243203
O O2 0.858267 0.324835 0.490882
O O3 0.806939 0.224650 0.158330
O O4 0.867582 0.400436 0.982299
O O5 0.241859 0.330710 0.393314
O O6 0.292708 0.115788 0.199145
O O7 0.760347 0.091934 0.523443
O O8 0.430555 0.174202 0.092751
O O9 0.491020 0.014257 0.914015
O O10 0.442420 0.062704 0.645145
O O11 0.391949 0.889098 0.880828
O O12 0.952193 0.161237 0.160619
O O13 0.015139 0.280036 0.921305
O O14 0.503331 0.680881 0.418955
O O15 0.553839 0.493077 0.689813
O O16 0.429872 0.676347 0.614659
#
# Coordination Sequence:
#
# PCOD9340731 Si02
#       8
#     4   4   4   4   4   4   4   4
#     4  12  25  44  68 101 145 194 214 266 336 433
#     4  10  21  42  76 109 138 172 227 280 318 377
#     4  10  21  42  77 110 135 171 229 282 317 377
#     4  11  22  38  61  89 116 171 224 286 347 414
#     4  11  19  36  64  83 113 152 228 304 344 391
#     4  11  22  37  66  89 115 161 243 308 352 387
#     4  11  23  40  61  91 121 168 229 300 354 409
#     4  12  27  43  65  90 147 187 222 264 358 432
#
# _framework density 23.873494999999998
#
# number of rings (size 3 to 8) (size 9 to 14) (size 15 to 20)
#    0.000    1.000    3.750    3.750    1.750    0.000 
#    2.250    0.000    0.000    0.000    0.000    0.000 
#    0.000    0.000    0.000    0.000    0.000    0.000 
#
# Total GULP energy -178249.279275 kJ/mol
# GULP energy per Si atom -5570.289977 kJ/mol
# Density = 2.381916 g / cm^3
# Si number density = 23.873495 Si / 1000 Ang^3
#
#
#
# Elastic Constant Matrix: (Units=GPa)
#
#
# Indices 1 2 3 4 5 6 
#
# 1 39.9591 26.7536 9.7236 0.0000 0.0000 0.0000
# 2 26.7536 122.2890 29.1013 0.0000 0.0000 0.0000
# 3 9.7236 29.1013 125.8207 0.0000 0.0000 0.0000
# 4 0.0000 0.0000 0.0000 28.7020 0.0000 0.0000
# 5 0.0000 0.0000 0.0000 0.0000 26.5718 0.0000
# 6 0.0000 0.0000 0.0000 0.0000 0.0000 9.5293
#
#
#
# Elastic Compliance Matrix: (Units=1/GPa)
#
#
# Indices 1 2 3 4 5 6 
#
# 1 0.029402 -0.006235 -0.000830 0.000000 0.000000 0.000000
# 2 -0.006235 0.009976 -0.001825 0.000000 0.000000 0.000000
# 3 -0.000830 -0.001825 0.008434 0.000000 0.000000 0.000000
# 4 0.000000 0.000000 0.000000 0.034841 0.000000 0.000000
# 5 0.000000 0.000000 0.000000 0.000000 0.037634 0.000000
# 6 0.000000 0.000000 0.000000 0.000000 0.000000 0.104939
#
#
# Mechanical properties :
#
#
# Convention : Reuss Voigt Hill
#
# Bulk Modulus (GPa) = 33.29892 46.58065 39.93979
# Shear Modulus (GPa) = 19.76152 27.79332 23.77742
#
# Velocity S-wave (km/s) = 2.88020 3.41573 3.15933
# Velocity P-wave (km/s) = 5.00391 5.92537 5.48403
#
# Compressibility (1/GPa) = 0.03003101
#
# Stress axis : x y z
#
# Youngs Moduli (GPa) = 34.01133 100.24279 118.56503
#
# Poissons Ratio (x) = 0.62500 0.09843
# Poissons Ratio (y) = 0.21205 0.21644
# Poissons Ratio (z) = 0.02823 0.18299
#
# Static dielectric constant tensor:
#      x y z
#    x 2.103360 0.000000 0.000000 
#    y 0.000000 2.107830 0.000000 
#    z 0.000000 0.000000 2.231840 
# 
# From -- ./inp_files/904.got.cif
#   From: 2010.05.17/outbox.cif.g08.bks.cpg/sg29_1_cif.got.tgz:904.got - 2010.06.04 01:19:37.
