data_PCOD9340076
_publ_section_title
;
Structure prediction by ZEFSAII (Michael W. Deem and Ramdas Pophale) SiO2 
 PCOD9340076
Probable space group: P C A 21
;
_chemical_formula_sum "Si O2"
_cell_formula_units_Z 28
_cell_length_a 16.122440
_cell_length_b 8.439083
_cell_length_c 9.580495
_cell_angle_alpha 90.000000
_cell_angle_beta 90.000000
_cell_angle_gamma 90.000000
_cell_volume 1303.508826
_symmetry_space_group_name_H-M "P C A 21"
_symmetry_group_IT_number 29
_symmetry_cell_setting 'orthorhombic'
loop_
_space_group_symop_operation_xyz
x,y,z
-x,-y,1/2+z
1/2-x,y,1/2+z
1/2+x,-y,z
loop_
_atom_site_type_symbol
_atom_site_label
_atom_site_fract_x
_atom_site_fract_y
_atom_site_fract_z
Si Si1 0.311804 0.015836 0.807210
Si Si2 0.634725 0.393773 0.601868
Si Si3 0.934687 0.273618 0.371065
Si Si4 0.526879 0.150223 0.439277
Si Si5 0.874720 0.728213 0.973813
Si Si6 0.558441 0.953872 0.690154
Si Si7 0.787903 0.164704 0.534852
O O1 0.398020 0.940116 0.861268
O O2 0.302220 0.970201 0.648452
O O3 0.319457 0.198461 0.850258
O O4 0.243646 0.921606 0.895624
O O5 0.599127 0.400262 0.758864
O O6 0.563597 0.306173 0.509771
O O7 0.653261 0.562730 0.535771
O O8 0.715416 0.281197 0.589581
O O9 0.871497 0.259791 0.499721
O O10 0.029670 0.290739 0.420146
O O11 0.925617 0.109780 0.282386
O O12 0.466680 0.170842 0.309361
O O13 0.500822 0.032028 0.566421
O O14 0.874925 0.861898 0.096255
#
# Coordination Sequence:
#
# PCOD9340076 Si02
#       7
#     4   4   4   4   4   4   4
#     4  10  21  40  65  95 124 176 226 276 321 411
#     4  10  24  42  60  97 145 173 219 286 353 418
#     4  11  22  41  71  97 125 185 233 277 350 408
#     4   9  19  35  61  89 125 166 212 265 328 390
#     4  11  24  40  68  99 139 167 234 299 330 401
#     4  10  18  36  63  94 122 163 225 281 313 393
#     4  11  22  44  70  91 132 186 223 266 355 423
#
# _framework density 21.480483
#
# number of rings (size 3 to 8) (size 9 to 14) (size 15 to 20)
#    0.000    1.714    4.286    1.714    2.000    0.000 
#    2.571    0.000    0.000    0.000    0.000    0.000 
#    0.000    0.000    0.000    0.000    0.000    0.000 
#
# Total GULP energy -156118.059664 kJ/mol
# GULP energy per Si atom -5575.644988 kJ/mol
# Density = 2.143159 g / cm^3
# Si number density = 21.480483 Si / 1000 Ang^3
#
#
#
# Elastic Constant Matrix: (Units=GPa)
#
#
# Indices 1 2 3 4 5 6 
#
# 1 64.9917 -1.8139 16.0172 0.0000 0.0000 0.0000
# 2 -1.8139 77.8218 3.8329 0.0000 0.0000 0.0000
# 3 16.0172 3.8329 96.9789 0.0000 0.0000 0.0000
# 4 0.0000 0.0000 0.0000 31.1998 0.0000 0.0000
# 5 0.0000 0.0000 0.0000 0.0000 14.7212 0.0000
# 6 0.0000 0.0000 0.0000 0.0000 0.0000 4.3984
#
#
#
# Elastic Compliance Matrix: (Units=1/GPa)
#
#
# Indices 1 2 3 4 5 6 
#
# 1 0.016059 0.000506 -0.002672 0.000000 0.000000 0.000000
# 2 0.000506 0.012891 -0.000593 0.000000 0.000000 0.000000
# 3 -0.002672 -0.000593 0.010776 0.000000 0.000000 0.000000
# 4 0.000000 0.000000 0.000000 0.032051 0.000000 0.000000
# 5 0.000000 0.000000 0.000000 0.000000 0.067929 0.000000
# 6 0.000000 0.000000 0.000000 0.000000 0.000000 0.227357
#
#
# Mechanical properties :
#
#
# Convention : Reuss Voigt Hill
#
# Bulk Modulus (GPa) = 29.23334 30.65166 29.94250
# Shear Modulus (GPa) = 13.02130 24.84761 18.93446
#
# Velocity S-wave (km/s) = 2.46477 3.40480 2.97218
# Velocity P-wave (km/s) = 4.66250 5.45503 5.07426
#
# Compressibility (1/GPa) = 0.03420751
#
# Stress axis : x y z
#
# Youngs Moduli (GPa) = 62.26922 77.57423 92.79591
#
# Poissons Ratio (x) = -0.03925 0.24799
# Poissons Ratio (y) = -0.03150 0.05503
# Poissons Ratio (z) = 0.16641 0.04601
#
# Static dielectric constant tensor:
#      x y z
#    x 1.872570 0.000000 0.000000 
#    y 0.000000 1.789930 0.000000 
#    z 0.000000 0.000000 1.813550 
# 
# From -- ./inp_files/2086.got.cif
#   From: 2010.05.17/outbox.cif.g08.bks.cpg/sg29_2_cif.got.tgz:2086.got - 2010.06.04 01:19:37.
