data_PCOD9340404
_publ_section_title
;
Structure prediction by ZEFSAII (Michael W. Deem and Ramdas Pophale) SiO2 
 PCOD9340404
Probable space group: P C A 21
;
_chemical_formula_sum "Si O2"
_cell_formula_units_Z 24
_cell_length_a 13.094281
_cell_length_b 12.822184
_cell_length_c 5.154456
_cell_angle_alpha 90.000000
_cell_angle_beta 90.000000
_cell_angle_gamma 90.000000
_cell_volume 865.419144
_symmetry_space_group_name_H-M "P C A 21"
_symmetry_group_IT_number 29
_symmetry_cell_setting 'orthorhombic'
loop_
_space_group_symop_operation_xyz
x,y,z
-x,-y,1/2+z
1/2-x,y,1/2+z
1/2+x,-y,z
loop_
_atom_site_type_symbol
_atom_site_label
_atom_site_fract_x
_atom_site_fract_y
_atom_site_fract_z
Si Si1 0.875136 0.687892 0.068200
Si Si2 0.424002 0.629678 0.311452
Si Si3 0.619029 0.555887 0.088123
Si Si4 0.497914 0.934394 0.145651
Si Si5 0.312671 0.793304 0.981164
Si Si6 0.720523 0.886529 0.076776
O O1 0.877019 0.637500 0.351321
O O2 0.755708 0.950041 0.322789
O O3 0.993397 0.700984 0.970752
O O4 0.899174 0.866640 0.597312
O O5 0.353019 0.559180 0.494272
O O6 0.365172 0.688000 0.086781
O O7 0.499823 0.549032 0.169136
O O8 0.666184 0.607157 0.347428
O O9 0.398417 0.876020 0.053956
O O10 0.492528 0.969530 0.443534
O O11 0.217545 0.800827 0.181083
O O12 0.800529 0.788909 0.068851
#
# Coordination Sequence:
#
# PCOD9340404 Si02
#       6
#     4   4   4   4   4   4
#     4  10  21  38  68 110 150 193 254 310 392 431
#     4  10  22  43  74 107 157 211 253 312 367 444
#     4  10  20  38  74 105 159 203 255 309 362 454
#     4  12  29  55  83 112 151 202 257 329 412 475
#     4  12  30  49  78 109 153 203 266 309 380 472
#     4  12  26  45  75 117 152 190 243 329 401 472
#
# _framework density 27.732229
#
# number of rings (size 3 to 8) (size 9 to 14) (size 15 to 20)
#    1.000    0.000    1.667    4.000    4.667    4.000 
#    0.000    5.000    0.000    0.000    0.000    0.000 
#    0.000    0.000    0.000    0.000    0.000    0.000 
#
# Total GULP energy -134430.497523 kJ/mol
# GULP energy per Si atom -5601.270730 kJ/mol
# Density = 2.766911 g / cm^3
# Si number density = 27.732229 Si / 1000 Ang^3
#
#
#
# Elastic Constant Matrix: (Units=GPa)
#
#
# Indices 1 2 3 4 5 6 
#
# 1 127.1940 27.2699 6.4625 0.0000 0.0000 0.0000
# 2 27.2699 79.1324 8.0854 0.0000 0.0000 0.0000
# 3 6.4625 8.0854 156.5464 0.0000 0.0000 0.0000
# 4 0.0000 0.0000 0.0000 29.4849 0.0000 0.0000
# 5 0.0000 0.0000 0.0000 0.0000 28.6245 0.0000
# 6 0.0000 0.0000 0.0000 0.0000 0.0000 53.4141
#
#
#
# Elastic Compliance Matrix: (Units=1/GPa)
#
#
# Indices 1 2 3 4 5 6 
#
# 1 0.008495 -0.002907 -0.000201 0.000000 0.000000 0.000000
# 2 -0.002907 0.013699 -0.000588 0.000000 0.000000 0.000000
# 3 -0.000201 -0.000588 0.006427 0.000000 0.000000 0.000000
# 4 0.000000 0.000000 0.000000 0.033916 0.000000 0.000000
# 5 0.000000 0.000000 0.000000 0.000000 0.034935 0.000000
# 6 0.000000 0.000000 0.000000 0.000000 0.000000 0.018722
#
#
# Mechanical properties :
#
#
# Convention : Reuss Voigt Hill
#
# Bulk Modulus (GPa) = 47.10213 49.61204 48.35709
# Shear Modulus (GPa) = 38.26710 43.70837 40.98773
#
# Velocity S-wave (km/s) = 3.71870 3.97430 3.84862
# Velocity P-wave (km/s) = 5.95481 6.24409 6.10116
#
# Compressibility (1/GPa) = 0.02123046
#
# Stress axis : x y z
#
# Youngs Moduli (GPa) = 117.70972 72.99850 155.60549
#
# Poissons Ratio (x) = 0.21222 0.03121
# Poissons Ratio (y) = 0.34220 0.09142
# Poissons Ratio (z) = 0.02361 0.04289
#
# Static dielectric constant tensor:
#      x y z
#    x 2.184490 0.000000 0.000000 
#    y 0.000000 2.181240 0.000000 
#    z 0.000000 0.000000 2.250510 
# 
# From -- ./inp_files/194.got.cif
#   From: 2010.05.17/outbox.cif.g08.bks.cpg/sg29_1_cif.got.tgz:194.got - 2010.06.04 01:19:37.
