data_PCOD9340902
_publ_section_title
;
Structure prediction by ZEFSAII (Michael W. Deem and Ramdas Pophale) SiO2 
 PCOD9340902
Probable space group: P C A 21
;
_chemical_formula_sum "Si O2"
_cell_formula_units_Z 32
_cell_length_a 21.202454
_cell_length_b 4.872771
_cell_length_c 13.073617
_cell_angle_alpha 90.000000
_cell_angle_beta 90.000000
_cell_angle_gamma 90.000000
_cell_volume 1350.696857
_symmetry_space_group_name_H-M "P C A 21"
_symmetry_group_IT_number 29
_symmetry_cell_setting 'orthorhombic'
loop_
_space_group_symop_operation_xyz
x,y,z
-x,-y,1/2+z
1/2-x,y,1/2+z
1/2+x,-y,z
loop_
_atom_site_type_symbol
_atom_site_label
_atom_site_fract_x
_atom_site_fract_y
_atom_site_fract_z
Si Si1 0.011455 0.374832 0.905360
Si Si2 0.579113 0.132705 0.988207
Si Si3 0.596329 0.682775 0.715918
Si Si4 0.869889 0.173086 0.891664
Si Si5 0.345386 0.624704 0.663582
Si Si6 0.656340 0.653757 0.515860
Si Si7 0.262748 0.092443 0.661734
Si Si8 0.336027 0.824392 0.298289
O O1 0.024159 0.684529 0.938327
O O2 0.036727 0.364933 0.788127
O O3 0.941424 0.266365 0.911717
O O4 0.055966 0.179197 0.975944
O O5 0.640347 0.154773 0.913887
O O6 0.596120 0.279124 0.094222
O O7 0.598155 0.626664 0.596058
O O8 0.652444 0.488127 0.763042
O O9 0.613158 0.000416 0.733136
O O10 0.855975 0.256084 0.776284
O O11 0.828628 0.363037 0.966740
O O12 0.859621 0.861947 0.924753
O O13 0.319479 0.314262 0.670392
O O14 0.289500 0.810619 0.617652
O O15 0.711719 0.776841 0.585694
O O16 0.227839 0.978568 0.765110
#
# Coordination Sequence:
#
# PCOD9340902 Si02
#       8
#     4   4   4   4   4   4   4   4
#     4  10  22  41  65  93 127 165 207 265 320 362
#     4  10  22  42  65  91 124 169 218 255 309 388
#     4   9  18  37  64  92 119 155 211 259 298 367
#     4  12  26  41  62  97 132 162 207 261 316 378
#     4  12  26  42  62  95 131 164 209 260 317 379
#     4  11  23  43  65  93 126 169 216 251 306 386
#     4  11  23  42  65  90 127 168 207 263 319 365
#     4   9  18  36  64  93 118 154 211 260 299 365
#
# _framework density 23.691473999999999
#
# number of rings (size 3 to 8) (size 9 to 14) (size 15 to 20)
#    0.000    1.500    0.000    6.000    0.000    5.000 
#    0.000    2.500    0.000    0.000    0.000    0.000 
#    0.000    0.000    0.000    0.000    0.000    0.000 
#
# Total GULP energy -178698.995578 kJ/mol
# GULP energy per Si atom -5584.343612 kJ/mol
# Density = 2.363755 g / cm^3
# Si number density = 23.691474 Si / 1000 Ang^3
#
#
#
# Elastic Constant Matrix: (Units=GPa)
#
#
# Indices 1 2 3 4 5 6 
#
# 1 45.5616 4.1930 26.2166 0.0000 0.0000 0.0000
# 2 4.1930 110.3992 3.9948 0.0000 0.0000 0.0000
# 3 26.2166 3.9948 83.5393 0.0000 0.0000 0.0000
# 4 0.0000 0.0000 0.0000 24.0237 0.0000 0.0000
# 5 0.0000 0.0000 0.0000 0.0000 28.4412 0.0000
# 6 0.0000 0.0000 0.0000 0.0000 0.0000 17.6020
#
#
#
# Elastic Compliance Matrix: (Units=1/GPa)
#
#
# Indices 1 2 3 4 5 6 
#
# 1 0.026841 -0.000716 -0.008389 0.000000 0.000000 0.000000
# 2 -0.000716 0.009093 -0.000210 0.000000 0.000000 0.000000
# 3 -0.008389 -0.000210 0.014613 0.000000 0.000000 0.000000
# 4 0.000000 0.000000 0.000000 0.041626 0.000000 0.000000
# 5 0.000000 0.000000 0.000000 0.000000 0.035160 0.000000
# 6 0.000000 0.000000 0.000000 0.000000 0.000000 0.056812
#
#
# Mechanical properties :
#
#
# Convention : Reuss Voigt Hill
#
# Bulk Modulus (GPa) = 31.33135 34.25656 32.79396
# Shear Modulus (GPa) = 23.42856 27.68642 25.55749
#
# Velocity S-wave (km/s) = 3.14809 3.42222 3.28802
# Velocity P-wave (km/s) = 5.14465 5.48692 5.31854
#
# Compressibility (1/GPa) = 0.03191691
#
# Stress axis : x y z
#
# Youngs Moduli (GPa) = 37.25580 109.97672 68.43125
#
# Poissons Ratio (x) = 0.07873 0.57409
# Poissons Ratio (y) = 0.02667 0.01438
# Poissons Ratio (z) = 0.31255 0.02311
#
# Static dielectric constant tensor:
#      x y z
#    x 1.976000 0.000000 0.000000 
#    y 0.000000 1.835960 0.000000 
#    z 0.000000 0.000000 1.912710 
# 
# From -- ./inp_files/3881.got.cif
#   From: 2010.05.17/outbox.cif.g08.bks.cpg/sg29_2_cif.got.tgz:3881.got - 2010.06.04 01:19:37.
