data_PCOD9340932
_publ_section_title
;
Structure prediction by ZEFSAII (Michael W. Deem and Ramdas Pophale) SiO2 
 PCOD9340932
Probable space group: P C A 21
;
_chemical_formula_sum "Si O2"
_cell_formula_units_Z 32
_cell_length_a 17.942344
_cell_length_b 12.570459
_cell_length_c 5.273102
_cell_angle_alpha 90.000000
_cell_angle_beta 90.000000
_cell_angle_gamma 90.000000
_cell_volume 1189.313879
_symmetry_space_group_name_H-M "P C A 21"
_symmetry_group_IT_number 29
_symmetry_cell_setting 'orthorhombic'
loop_
_space_group_symop_operation_xyz
x,y,z
-x,-y,1/2+z
1/2-x,y,1/2+z
1/2+x,-y,z
loop_
_atom_site_type_symbol
_atom_site_label
_atom_site_fract_x
_atom_site_fract_y
_atom_site_fract_z
Si Si1 0.420313 0.194036 0.994400
Si Si2 0.912803 0.615840 0.622770
Si Si3 0.541236 0.021436 0.502029
Si Si4 0.415350 0.595100 0.967028
Si Si5 0.773921 0.084611 0.695689
Si Si6 0.697416 0.487817 0.822639
Si Si7 0.084372 0.800051 0.205941
Si Si8 0.287598 0.156701 0.289850
O O1 0.398064 0.280697 0.791819
O O2 0.403673 0.072206 0.904216
O O3 0.372589 0.189236 0.251204
O O4 0.507738 0.207254 0.050060
O O5 0.854740 0.588711 0.398762
O O6 0.997321 0.617413 0.517455
O O7 0.909533 0.517207 0.822158
O O8 0.478091 0.006809 0.287524
O O9 0.562564 0.142327 0.471137
O O10 0.367604 0.593133 0.225761
O O11 0.386275 0.685115 0.775333
O O12 0.725632 0.135944 0.474604
O O13 0.856903 0.114223 0.598870
O O14 0.734439 0.970713 0.772354
O O15 0.748963 0.482728 0.074585
O O16 0.252730 0.200370 0.542453
#
# Coordination Sequence:
#
# PCOD9340932 Si02
#       8
#     4   4   4   4   4   4   4   4
#     4  11  26  45  80 117 159 215 282 345 410 501
#     4  12  26  50  83 119 166 219 280 351 426 491
#     4  10  22  42  64 108 154 194 256 334 394 470
#     4  12  26  50  83 119 166 219 280 351 426 491
#     4  10  23  45  70 103 154 211 264 327 411 486
#     4  12  28  52  82 120 164 216 278 340 412 508
#     4  11  26  45  80 117 159 215 282 345 410 501
#     4  10  23  45  70 103 154 211 264 327 411 486
#
# _framework density 26.906269999999999
#
# number of rings (size 3 to 8) (size 9 to 14) (size 15 to 20)
#    0.000    1.000    2.500    3.000    0.000   16.000 
#    0.000    0.000    0.000    0.000    0.000    0.000 
#    0.000    0.000    0.000    0.000    0.000    0.000 
#
# Total GULP energy -178694.055727 kJ/mol
# GULP energy per Si atom -5584.189241 kJ/mol
# Density = 2.684503 g / cm^3
# Si number density = 26.906270 Si / 1000 Ang^3
#
#
#
# Elastic Constant Matrix: (Units=GPa)
#
#
# Indices 1 2 3 4 5 6 
#
# 1 147.2382 19.6769 42.9002 0.0000 0.0000 0.0000
# 2 19.6769 115.2551 31.8102 0.0000 0.0000 0.0000
# 3 42.9002 31.8102 144.0737 0.0000 0.0000 0.0000
# 4 0.0000 0.0000 0.0000 37.8091 0.0000 0.0000
# 5 0.0000 0.0000 0.0000 0.0000 46.2125 0.0000
# 6 0.0000 0.0000 0.0000 0.0000 0.0000 15.9216
#
#
#
# Elastic Compliance Matrix: (Units=1/GPa)
#
#
# Indices 1 2 3 4 5 6 
#
# 1 0.007491 -0.000706 -0.002074 0.000000 0.000000 0.000000
# 2 -0.000706 0.009306 -0.001844 0.000000 0.000000 0.000000
# 3 -0.002074 -0.001844 0.007966 0.000000 0.000000 0.000000
# 4 0.000000 0.000000 0.000000 0.026449 0.000000 0.000000
# 5 0.000000 0.000000 0.000000 0.000000 0.021639 0.000000
# 6 0.000000 0.000000 0.000000 0.000000 0.000000 0.062808
#
#
# Mechanical properties :
#
#
# Convention : Reuss Voigt Hill
#
# Bulk Modulus (GPa) = 64.46575 66.14907 65.30741
# Shear Modulus (GPa) = 33.31576 40.80061 37.05818
#
# Velocity S-wave (km/s) = 3.52265 3.89832 3.71523
# Velocity P-wave (km/s) = 6.36842 6.70081 6.53673
#
# Compressibility (1/GPa) = 0.01551211
#
# Stress axis : x y z
#
# Youngs Moduli (GPa) = 133.50181 107.45717 125.53617
#
# Poissons Ratio (x) = 0.07589 0.26042
# Poissons Ratio (y) = 0.09429 0.23154
# Poissons Ratio (z) = 0.27695 0.19819
#
# Static dielectric constant tensor:
#      x y z
#    x 2.225550 0.000000 0.000000 
#    y 0.000000 2.166870 0.000000 
#    z 0.000000 0.000000 2.206580 
# 
# From -- ./inp_files/558.got.cif
#   From: 2010.05.17/outbox.cif.g08.bks.cpg/sg29_1_cif.got.tgz:558.got - 2010.06.04 01:19:37.
