data_PCOD9340034
_publ_section_title
;
Structure prediction by ZEFSAII (Michael W. Deem and Ramdas Pophale) SiO2 
 PCOD9340034
Probable space group: P C A 21
;
_chemical_formula_sum "Si O2"
_cell_formula_units_Z 32
_cell_length_a 21.510555
_cell_length_b 13.520153
_cell_length_c 5.458945
_cell_angle_alpha 90.000000
_cell_angle_beta 90.000000
_cell_angle_gamma 90.000000
_cell_volume 1587.603110
_symmetry_space_group_name_H-M "P C A 21"
_symmetry_group_IT_number 29
_symmetry_cell_setting 'orthorhombic'
loop_
_space_group_symop_operation_xyz
x,y,z
-x,-y,1/2+z
1/2-x,y,1/2+z
1/2+x,-y,z
loop_
_atom_site_type_symbol
_atom_site_label
_atom_site_fract_x
_atom_site_fract_y
_atom_site_fract_z
Si Si1 0.024849 0.786717 0.998760
Si Si2 0.600813 0.848708 0.998761
Si Si3 0.453179 0.821178 0.998760
Si Si4 0.925413 0.948281 0.998761
Si Si5 0.083849 0.496106 0.998761
Si Si6 0.050687 0.399049 0.498761
Si Si7 0.214282 0.297045 0.998758
Si Si8 0.215473 0.537324 0.998758
O O1 0.994676 0.897191 0.998761
O O2 0.964424 0.716426 0.998760
O O3 0.063654 0.771328 0.753498
O O4 0.063654 0.771327 0.244022
O O5 0.606916 0.911442 0.748248
O O6 0.648672 0.758832 0.998760
O O7 0.528651 0.815284 0.998761
O O8 0.606916 0.911442 0.249274
O O9 0.432900 0.934497 0.998760
O O10 0.083990 0.433614 0.746272
O O11 0.018047 0.552367 0.998761
O O12 0.083990 0.433615 0.251251
O O13 0.143326 0.566419 0.998759
O O14 0.249999 0.268829 0.748757
O O15 0.211291 0.416536 0.998758
O O16 0.250000 0.566743 0.248758
#
# Coordination Sequence:
#
# PCOD9340034 Si02
#       8
#     4   4   4   4   4   4   4   4
#     4  10  18  28  46  67  97 129 165 191 240 301
#     4  10  18  29  46  63  89 136 155 194 247 272
#     4  10  19  31  44  73 101 127 161 202 231 304
#     4  10  19  29  46  71 100 126 163 197 237 300
#     4  10  21  36  51  71 110 128 175 212 253 308
#     4  10  21  33  51  78  99 143 164 211 259 312
#     4  10  21  33  44  67  97 124 174 212 226 279
#     4  10  21  35  52  72  97 137 173 213 251 292
#
# _framework density 20.156172000000002
#
# number of rings (size 3 to 8) (size 9 to 14) (size 15 to 20)
#    0.000    2.000    0.000    6.000    7.000    0.000 
#    0.000    0.000    0.000    0.000    0.000    0.000 
#    0.000   34.000    0.000    0.000    0.000    0.000 
#
# Total GULP energy -178664.607740 kJ/mol
# GULP energy per Si atom -5583.268992 kJ/mol
# Density = 2.011030 g / cm^3
# Si number density = 20.156172 Si / 1000 Ang^3
#
#
#
# Elastic Constant Matrix: (Units=GPa)
#
#
# Indices 1 2 3 4 5 6 
#
# 1 43.2778 3.2132 34.5668 0.0000 0.0000 0.0000
# 2 3.2132 25.4651 16.4410 0.0000 0.0000 0.0000
# 3 34.5668 16.4410 211.1773 0.0000 0.0000 0.0000
# 4 0.0000 0.0000 0.0000 15.0246 0.0000 0.0000
# 5 0.0000 0.0000 0.0000 0.0000 23.9545 0.0000
# 6 0.0000 0.0000 0.0000 0.0000 0.0000 17.0425
#
#
#
# Elastic Compliance Matrix: (Units=1/GPa)
#
#
# Indices 1 2 3 4 5 6 
#
# 1 0.026590 -0.000574 -0.004308 0.000000 0.000000 0.000000
# 2 -0.000574 0.041360 -0.003126 0.000000 0.000000 0.000000
# 3 -0.004308 -0.003126 0.005684 0.000000 0.000000 0.000000
# 4 0.000000 0.000000 0.000000 0.066557 0.000000 0.000000
# 5 0.000000 0.000000 0.000000 0.000000 0.041746 0.000000
# 6 0.000000 0.000000 0.000000 0.000000 0.000000 0.058677
#
#
# Mechanical properties :
#
#
# Convention : Reuss Voigt Hill
#
# Bulk Modulus (GPa) = 17.35560 43.15135 30.25347
# Shear Modulus (GPa) = 18.12674 26.25092 22.18883
#
# Velocity S-wave (km/s) = 3.00211 3.61276 3.32150
# Velocity P-wave (km/s) = 4.54380 6.23359 5.45453
#
# Compressibility (1/GPa) = 0.05761830
#
# Stress axis : x y z
#
# Youngs Moduli (GPa) = 37.60838 24.17785 175.93709
#
# Poissons Ratio (x) = 0.01388 0.75788
# Poissons Ratio (y) = 0.02159 0.55000
# Poissons Ratio (z) = 0.16201 0.07558
#
# Static dielectric constant tensor:
#      x y z
#    x 1.698210 0.000000 0.000000 
#    y 0.000000 1.729140 0.000000 
#    z 0.000000 0.000000 1.829760 
# 
# From -- ./inp_files/563.got.cif
#   From: 2010.05.17/outbox.cif.g08.bks.cpg/sg29_1_cif.got.tgz:563.got - 2010.06.04 01:19:37.
