data_PCOD9340159
_publ_section_title
;
Structure prediction by ZEFSAII (Michael W. Deem and Ramdas Pophale) SiO2 
 PCOD9340159
Probable space group: P C A 21
;
_chemical_formula_sum "Si O2"
_cell_formula_units_Z 32
_cell_length_a 16.817201
_cell_length_b 14.359453
_cell_length_c 5.139936
_cell_angle_alpha 90.000000
_cell_angle_beta 90.000000
_cell_angle_gamma 90.000000
_cell_volume 1241.221595
_symmetry_space_group_name_H-M "P C A 21"
_symmetry_group_IT_number 29
_symmetry_cell_setting 'orthorhombic'
loop_
_space_group_symop_operation_xyz
x,y,z
-x,-y,1/2+z
1/2-x,y,1/2+z
1/2+x,-y,z
loop_
_atom_site_type_symbol
_atom_site_label
_atom_site_fract_x
_atom_site_fract_y
_atom_site_fract_z
Si Si1 0.221835 0.502518 0.577800
Si Si2 0.970561 0.725574 0.767744
Si Si3 0.205903 0.785228 0.932881
Si Si4 0.553195 0.211783 0.247551
Si Si5 0.034932 0.469239 0.533065
Si Si6 0.047105 0.991086 0.120999
Si Si7 0.207781 0.293384 0.078214
Si Si8 0.293817 0.012748 0.411198
O O1 0.252859 0.556244 0.330989
O O2 0.129327 0.480047 0.566020
O O3 0.274885 0.406240 0.574082
O O4 0.985853 0.621131 0.864481
O O5 0.881013 0.726383 0.661693
O O6 0.028265 0.753069 0.530584
O O7 0.981218 0.779313 0.040679
O O8 0.276998 0.761217 0.133771
O O9 0.127270 0.748624 0.080166
O O10 0.200233 0.899261 0.920252
O O11 0.572232 0.102607 0.271500
O O12 0.997878 0.457249 0.819997
O O13 0.123589 0.048684 0.030561
O O14 0.992920 0.035498 0.344383
O O15 0.268180 0.257835 0.297017
O O16 0.225765 0.039058 0.617420
#
# Coordination Sequence:
#
# PCOD9340159 Si02
#       8
#     4   4   4   4   4   4   4   4
#     4  10  19  36  63  88 115 157 218 259 285 364
#     4  12  23  40  63  92 130 159 204 271 312 375
#     4   9  17  33  57  84 110 148 204 251 289 360
#     4  11  24  38  63  96 125 162 210 263 321 363
#     4  12  25  39  63  96 127 159 206 273 319 360
#     4  11  22  39  63  90 127 167 206 257 319 385
#     4  10  19  34  63  88 113 158 219 258 281 358
#     4   9  17  31  55  86 107 144 209 254 282 347
#
# _framework density 25.781051000000001
#
# number of rings (size 3 to 8) (size 9 to 14) (size 15 to 20)
#    0.000    1.500    2.500    4.500    3.500    4.000 
#    0.000    0.000    0.000   30.000    0.000    0.000 
#    0.000    0.000    0.000    0.000    0.000    0.000 
#
# Total GULP energy -178907.827490 kJ/mol
# GULP energy per Si atom -5590.869609 kJ/mol
# Density = 2.572237 g / cm^3
# Si number density = 25.781051 Si / 1000 Ang^3
#
#
#
# Elastic Constant Matrix: (Units=GPa)
#
#
# Indices 1 2 3 4 5 6 
#
# 1 90.1895 -13.2350 8.4520 0.0000 0.0000 0.0000
# 2 -13.2350 28.0893 4.5245 0.0000 0.0000 0.0000
# 3 8.4520 4.5245 162.0194 0.0000 0.0000 0.0000
# 4 0.0000 0.0000 0.0000 24.9893 0.0000 0.0000
# 5 0.0000 0.0000 0.0000 0.0000 31.4160 0.0000
# 6 0.0000 0.0000 0.0000 0.0000 0.0000 8.9121
#
#
#
# Elastic Compliance Matrix: (Units=1/GPa)
#
#
# Indices 1 2 3 4 5 6 
#
# 1 0.012011 0.005786 -0.000788 0.000000 0.000000 0.000000
# 2 0.005786 0.038549 -0.001378 0.000000 0.000000 0.000000
# 3 -0.000788 -0.001378 0.006252 0.000000 0.000000 0.000000
# 4 0.000000 0.000000 0.000000 0.040017 0.000000 0.000000
# 5 0.000000 0.000000 0.000000 0.000000 0.031831 0.000000
# 6 0.000000 0.000000 0.000000 0.000000 0.000000 0.112208
#
#
# Mechanical properties :
#
#
# Convention : Reuss Voigt Hill
#
# Bulk Modulus (GPa) = 15.61266 31.08681 23.34973
# Shear Modulus (GPa) = 19.60953 31.76725 25.68839
#
# Velocity S-wave (km/s) = 2.76092 3.51407 3.16001
# Velocity P-wave (km/s) = 4.02897 5.34314 4.73190
#
# Compressibility (1/GPa) = 0.06405060
#
# Stress axis : x y z
#
# Youngs Moduli (GPa) = 83.25907 25.94102 159.95638
#
# Poissons Ratio (x) = -0.15010 0.12607
# Poissons Ratio (y) = -0.48174 0.22047
# Poissons Ratio (z) = 0.06562 0.03576
#
# Static dielectric constant tensor:
#      x y z
#    x 2.046210 0.000000 0.000000 
#    y 0.000000 2.227400 0.000000 
#    z 0.000000 0.000000 2.099700 
# 
# From -- ./inp_files/285.got.cif
#   From: 2010.05.17/outbox.cif.g08.bks.cpg/sg29_1_cif.got.tgz:285.got - 2010.06.04 01:19:37.
