data_PCOD9340999
_publ_section_title
;
Structure prediction by ZEFSAII (Michael W. Deem and Ramdas Pophale) SiO2 
 PCOD9340999
Probable space group: P C A 21
;
_chemical_formula_sum "Si O2"
_cell_formula_units_Z 32
_cell_length_a 17.802947
_cell_length_b 6.704693
_cell_length_c 12.147883
_cell_angle_alpha 90.000000
_cell_angle_beta 90.000000
_cell_angle_gamma 90.000000
_cell_volume 1450.011332
_symmetry_space_group_name_H-M "P C A 21"
_symmetry_group_IT_number 29
_symmetry_cell_setting 'orthorhombic'
loop_
_space_group_symop_operation_xyz
x,y,z
-x,-y,1/2+z
1/2-x,y,1/2+z
1/2+x,-y,z
loop_
_atom_site_type_symbol
_atom_site_label
_atom_site_fract_x
_atom_site_fract_y
_atom_site_fract_z
Si Si1 0.525974 0.287547 0.575880
Si Si2 0.974026 0.212452 0.842247
Si Si3 0.324823 0.690211 0.339610
Si Si4 0.668875 0.028001 0.635333
Si Si5 0.402302 0.364252 0.184132
Si Si6 0.097699 0.135750 0.233995
Si Si7 0.668876 0.471998 0.282796
Si Si8 0.824822 0.190210 0.578519
O O1 0.488202 0.250000 0.459063
O O2 0.593648 0.129663 0.588430
O O3 0.562293 0.504901 0.587273
O O4 0.467534 0.259605 0.674085
O O5 0.906351 0.370334 0.829698
O O6 0.032465 0.240397 0.744041
O O7 0.937708 0.995097 0.830854
O O8 0.321598 0.880506 0.258331
O O9 0.371151 0.523580 0.272540
O O10 0.241028 0.601035 0.349798
O O11 0.354778 0.750001 0.459064
O O12 0.741027 0.101034 0.568329
O O13 0.658956 0.791830 0.642719
O O14 0.158956 0.291831 0.275409
O O15 0.128850 0.976421 0.145589
O O16 0.678403 0.380505 0.159797
#
# Coordination Sequence:
#
# PCOD9340999 Si02
#       8
#     4   4   4   4   4   4   4   4
#     4  11  24  40  65  93 132 173 216 270 327 386
#     4  11  24  40  65  93 132 173 216 270 327 386
#     4  10  23  40  67  94 128 170 214 271 327 385
#     4  10  22  44  61  95 133 164 219 270 316 398
#     4  11  23  41  63  95 129 170 220 269 323 389
#     4  11  23  41  63  95 129 170 220 269 323 389
#     4  10  22  44  61  95 133 164 219 270 316 398
#     4  10  23  40  67  94 128 170 214 271 327 385
#
# _framework density 22.068792999999999
#
# number of rings (size 3 to 8) (size 9 to 14) (size 15 to 20)
#    0.000    1.500    2.500    1.500    3.500    1.000 
#    0.000    2.500    0.000    0.000    0.000    0.000 
#    0.000    0.000    0.000    0.000    0.000    0.000 
#
# Total GULP energy -179005.399710 kJ/mol
# GULP energy per Si atom -5593.918741 kJ/mol
# Density = 2.201856 g / cm^3
# Si number density = 22.068793 Si / 1000 Ang^3
#
#
#
# Elastic Constant Matrix: (Units=GPa)
#
#
# Indices 1 2 3 4 5 6 
#
# 1 40.5804 -4.9157 -17.7673 0.0000 0.0000 0.0000
# 2 -4.9157 124.7296 23.4577 0.0000 0.0000 0.0000
# 3 -17.7673 23.4577 56.9235 0.0000 0.0000 0.0000
# 4 0.0000 0.0000 0.0000 8.9538 0.0000 0.0000
# 5 0.0000 0.0000 0.0000 0.0000 9.8479 0.0000
# 6 0.0000 0.0000 0.0000 0.0000 0.0000 38.0398
#
#
#
# Elastic Compliance Matrix: (Units=1/GPa)
#
#
# Indices 1 2 3 4 5 6 
#
# 1 0.028584 -0.000598 0.009168 0.000000 0.000000 0.000000
# 2 -0.000598 0.008703 -0.003773 0.000000 0.000000 0.000000
# 3 0.009168 -0.003773 0.021984 0.000000 0.000000 0.000000
# 4 0.000000 0.000000 0.000000 0.111684 0.000000 0.000000
# 5 0.000000 0.000000 0.000000 0.000000 0.101544 0.000000
# 6 0.000000 0.000000 0.000000 0.000000 0.000000 0.026288
#
#
# Mechanical properties :
#
#
# Convention : Reuss Voigt Hill
#
# Bulk Modulus (GPa) = 14.52097 24.86479 19.69288
# Shear Modulus (GPa) = 16.01802 26.13225 21.07513
#
# Velocity S-wave (km/s) = 2.69703 3.44485 3.09362
# Velocity P-wave (km/s) = 4.03643 5.20711 4.65869
#
# Compressibility (1/GPa) = 0.06886594
#
# Stress axis : x y z
#
# Youngs Moduli (GPa) = 34.98448 114.89767 45.48780
#
# Poissons Ratio (x) = 0.06868 -0.41704
# Poissons Ratio (y) = 0.02091 0.17163
# Poissons Ratio (z) = -0.32074 0.43353
#
# Static dielectric constant tensor:
#      x y z
#    x 1.802820 0.000000 0.000000 
#    y 0.000000 1.803920 0.000000 
#    z 0.000000 0.000000 1.786290 
# 
# From -- ./inp_files/3839.got.cif
#   From: 2010.05.17/outbox.cif.g08.bks.cpg/sg29_2_cif.got.tgz:3839.got - 2010.06.04 01:19:37.
