data_PCOD9340256
_publ_section_title
;
Structure prediction by ZEFSAII (Michael W. Deem and Ramdas Pophale) SiO2 
 PCOD9340256
Probable space group: P C A 21
;
_chemical_formula_sum "Si O2"
_cell_formula_units_Z 20
_cell_length_a 13.866660
_cell_length_b 7.032746
_cell_length_c 8.678067
_cell_angle_alpha 90.000000
_cell_angle_beta 90.000000
_cell_angle_gamma 90.000000
_cell_volume 846.291148
_symmetry_space_group_name_H-M "P C A 21"
_symmetry_group_IT_number 29
_symmetry_cell_setting 'orthorhombic'
loop_
_space_group_symop_operation_xyz
x,y,z
-x,-y,1/2+z
1/2-x,y,1/2+z
1/2+x,-y,z
loop_
_atom_site_type_symbol
_atom_site_label
_atom_site_fract_x
_atom_site_fract_y
_atom_site_fract_z
Si Si1 0.392074 0.331317 0.696780
Si Si2 0.936779 0.240919 0.727010
Si Si3 0.959404 0.049327 0.059607
Si Si4 0.261007 0.453085 0.423767
Si Si5 0.789102 0.259326 0.170021
O O1 0.443237 0.531641 0.733850
O O2 0.468861 0.170258 0.668727
O O3 0.334839 0.351535 0.535601
O O4 0.308095 0.316771 0.825173
O O5 0.823420 0.206767 0.687822
O O6 0.961752 0.138702 0.888929
O O7 0.002509 0.161855 0.588312
O O8 0.854218 0.080709 0.132209
O O9 0.197757 0.592464 0.530353
O O10 0.313349 0.607846 0.315097
#
# Coordination Sequence:
#
# PCOD9340256 Si02
#       5
#     4   4   4   4   4
#     4  10  22  44  67  99 129 178 217 271 329 394
#     4  10  26  44  62 106 127 180 218 273 339 381
#     4  12  25  43  70  97 133 174 231 266 323 410
#     4   8  18  39  65  94 131 167 212 264 335 376
#     4  10  19  42  66  88 138 171 206 278 334 377
#
# _framework density 23.632531
#
# number of rings (size 3 to 8) (size 9 to 14) (size 15 to 20)
#    0.000    2.400    4.000    0.000    8.400    0.000 
#    7.200    0.000    0.000    0.000    0.000    0.000 
#    0.000    0.000    0.000    0.000    0.000    0.000 
#
# Total GULP energy -111770.814810 kJ/mol
# GULP energy per Si atom -5588.540741 kJ/mol
# Density = 2.357874 g / cm^3
# Si number density = 23.632531 Si / 1000 Ang^3
#
#
#
# Elastic Constant Matrix: (Units=GPa)
#
#
# Indices 1 2 3 4 5 6 
#
# 1 61.6676 17.4685 10.1558 0.0000 0.0000 0.0000
# 2 17.4685 40.7439 15.2874 0.0000 0.0000 0.0000
# 3 10.1558 15.2874 117.5324 0.0000 0.0000 0.0000
# 4 0.0000 0.0000 0.0000 3.5258 0.0000 0.0000
# 5 0.0000 0.0000 0.0000 0.0000 25.1215 0.0000
# 6 0.0000 0.0000 0.0000 0.0000 0.0000 16.8425
#
#
#
# Elastic Compliance Matrix: (Units=1/GPa)
#
#
# Indices 1 2 3 4 5 6 
#
# 1 0.018497 -0.007707 -0.000596 0.000000 0.000000 0.000000
# 2 -0.007707 0.029014 -0.003108 0.000000 0.000000 0.000000
# 3 -0.000596 -0.003108 0.008964 0.000000 0.000000 0.000000
# 4 0.000000 0.000000 0.000000 0.283625 0.000000 0.000000
# 5 0.000000 0.000000 0.000000 0.000000 0.039807 0.000000
# 6 0.000000 0.000000 0.000000 0.000000 0.000000 0.059374
#
#
# Mechanical properties :
#
#
# Convention : Reuss Voigt Hill
#
# Bulk Modulus (GPa) = 29.71430 33.97413 31.84421
# Shear Modulus (GPa) = 10.56369 20.90012 15.73190
#
# Velocity S-wave (km/s) = 2.11653 2.97708 2.58289
# Velocity P-wave (km/s) = 4.30972 5.12099 4.73277
#
# Compressibility (1/GPa) = 0.03365383
#
# Stress axis : x y z
#
# Youngs Moduli (GPa) = 54.06220 34.46623 111.55705
#
# Poissons Ratio (x) = 0.26563 0.06647
# Poissons Ratio (y) = 0.41665 0.34671
# Poissons Ratio (z) = 0.03221 0.10712
#
# Static dielectric constant tensor:
#      x y z
#    x 1.899870 0.000000 0.000000 
#    y 0.000000 1.954700 0.000000 
#    z 0.000000 0.000000 2.033790 
# 
# From -- ./inp_files/1640.got.cif
#   From: 2010.05.17/outbox.cif.g08.bks.cpg/sg29_1_cif.got.tgz:1640.got - 2010.06.04 01:19:37.
