data_PCOD9340239
_publ_section_title
;
Structure prediction by ZEFSAII (Michael W. Deem and Ramdas Pophale) SiO2 
 PCOD9340239
Probable space group: P C A 21
;
_chemical_formula_sum "Si O2"
_cell_formula_units_Z 16
_cell_length_a 5.309203
_cell_length_b 6.981593
_cell_length_c 18.774762
_cell_angle_alpha 90.000000
_cell_angle_beta 90.000000
_cell_angle_gamma 90.000000
_cell_volume 695.918367
_symmetry_space_group_name_H-M "P C A 21"
_symmetry_group_IT_number 29
_symmetry_cell_setting 'orthorhombic'
loop_
_space_group_symop_operation_xyz
x,y,z
-x,-y,1/2+z
1/2-x,y,1/2+z
1/2+x,-y,z
loop_
_atom_site_type_symbol
_atom_site_label
_atom_site_fract_x
_atom_site_fract_y
_atom_site_fract_z
Si Si1 0.476962 0.373335 0.923850
Si Si2 0.959084 0.124049 0.283695
Si Si3 0.897653 0.710490 0.638778
Si Si4 0.397228 0.724731 0.581697
O O1 0.703261 0.528364 0.919945
O O2 0.511640 0.229070 0.858932
O O3 0.511176 0.276047 0.000846
O O4 0.006452 0.272373 0.219142
O O5 0.183095 0.968463 0.277992
O O6 0.861822 0.495054 0.609544
O O7 0.622135 0.801759 0.630640
O O8 0.616079 0.197460 0.590338
#
# Coordination Sequence:
#
# PCOD9340239 Si02
#       4
#     4   4   4   4
#     4  12  23  43  72 101 129 175 232 280 323 393
#     4  12  28  46  62 100 146 182 212 266 350 412
#     4  10  20  38  66  92 132 160 219 274 321 383
#     4  10  19  39  68 101 117 159 231 286 312 366
#
# _framework density 22.991199999999999
#
# number of rings (size 3 to 8) (size 9 to 14) (size 15 to 20)
#    0.000    1.000    5.000    3.000    7.000    0.000 
#    0.000    7.500    0.000    0.000    0.000    0.000 
#    0.000    0.000    0.000    0.000    0.000    0.000 
#
# Total GULP energy -89464.568939 kJ/mol
# GULP energy per Si atom -5591.535559 kJ/mol
# Density = 2.293887 g / cm^3
# Si number density = 22.991200 Si / 1000 Ang^3
#
#
#
# Elastic Constant Matrix: (Units=GPa)
#
#
# Indices 1 2 3 4 5 6 
#
# 1 136.6651 -19.4094 -17.2606 0.0000 0.0000 0.0000
# 2 -19.4094 38.5000 7.3913 0.0000 0.0000 0.0000
# 3 -17.2606 7.3913 145.5340 0.0000 0.0000 0.0000
# 4 0.0000 0.0000 0.0000 39.7543 0.0000 0.0000
# 5 0.0000 0.0000 0.0000 0.0000 38.7017 0.0000
# 6 0.0000 0.0000 0.0000 0.0000 0.0000 38.7012
#
#
#
# Elastic Compliance Matrix: (Units=1/GPa)
#
#
# Indices 1 2 3 4 5 6 
#
# 1 0.007961 0.003870 0.000748 0.000000 0.000000 0.000000
# 2 0.003870 0.028111 -0.000969 0.000000 0.000000 0.000000
# 3 0.000748 -0.000969 0.007009 0.000000 0.000000 0.000000
# 4 0.000000 0.000000 0.000000 0.025154 0.000000 0.000000
# 5 0.000000 0.000000 0.000000 0.000000 0.025839 0.000000
# 6 0.000000 0.000000 0.000000 0.000000 0.000000 0.025839
#
#
# Mechanical properties :
#
#
# Convention : Reuss Voigt Hill
#
# Bulk Modulus (GPa) = 19.84942 29.12688 24.48815
# Shear Modulus (GPa) = 38.63730 46.76329 42.70030
#
# Velocity S-wave (km/s) = 4.10387 4.51484 4.31425
# Velocity P-wave (km/s) = 5.57744 6.31464 5.95745
#
# Compressibility (1/GPa) = 0.05037931
#
# Stress axis : x y z
#
# Youngs Moduli (GPa) = 125.60906 35.57324 142.67131
#
# Poissons Ratio (x) = -0.13767 -0.10667
# Poissons Ratio (y) = -0.48611 0.13821
# Poissons Ratio (z) = -0.09391 0.03446
#
# Static dielectric constant tensor:
#      x y z
#    x 1.929380 0.000000 0.000000 
#    y 0.000000 -0.028130 0.000000 
#    z 0.000000 0.000000 1.811890 
# 
# From -- ./inp_files/4872.got.cif
#   From: 2010.05.17/outbox.cif.g08.bks.cpg/sg29_3_cif.got.tgz:4872.got - 2010.06.04 01:19:37.
