data_PCOD9340984
_publ_section_title
;
Structure prediction by ZEFSAII (Michael W. Deem and Ramdas Pophale) SiO2 
 PCOD9340984
Probable space group: P C A 21
;
_chemical_formula_sum "Si O2"
_cell_formula_units_Z 28
_cell_length_a 19.844392
_cell_length_b 5.156697
_cell_length_c 11.088577
_cell_angle_alpha 90.000000
_cell_angle_beta 90.000000
_cell_angle_gamma 90.000000
_cell_volume 1134.710902
_symmetry_space_group_name_H-M "P C A 21"
_symmetry_group_IT_number 29
_symmetry_cell_setting 'orthorhombic'
loop_
_space_group_symop_operation_xyz
x,y,z
-x,-y,1/2+z
1/2-x,y,1/2+z
1/2+x,-y,z
loop_
_atom_site_type_symbol
_atom_site_label
_atom_site_fract_x
_atom_site_fract_y
_atom_site_fract_z
Si Si1 0.413795 0.856552 0.923840
Si Si2 0.279022 0.492384 0.567303
Si Si3 0.571808 0.729682 0.265661
Si Si4 0.941174 0.763965 0.337345
Si Si5 0.702655 0.395350 0.323561
Si Si6 0.567670 0.291222 0.689296
Si Si7 0.363388 0.994337 0.562367
O O1 0.480608 0.706945 0.873459
O O2 0.337601 0.858891 0.869036
O O3 0.441265 0.146779 0.897635
O O4 0.404071 0.744952 0.057005
O O5 0.253926 0.596038 0.700061
O O6 0.236352 0.502082 0.444725
O O7 0.301282 0.193802 0.581382
O O8 0.338658 0.703158 0.542885
O O9 0.636593 0.555035 0.282707
O O10 0.510639 0.619752 0.187658
O O11 0.591404 0.976149 0.180895
O O12 0.905388 0.512222 0.279215
O O13 0.903768 0.876651 0.453619
O O14 0.935720 0.004307 0.245300
#
# Coordination Sequence:
#
# PCOD9340984 Si02
#       7
#     4   4   4   4   4   4   4
#     4  11  23  42  71 101 140 184 230 291 364 437
#     4  11  27  44  75  97 140 192 243 297 353 420
#     4  10  22  43  68  99 139 184 230 289 357 432
#     4  11  24  41  67 105 144 179 225 291 356 437
#     4  11  25  47  70 102 141 189 248 296 360 426
#     4  11  24  39  66 107 139 181 226 285 363 434
#     4  11  23  46  69  99 139 185 232 289 359 422
#
# _framework density 24.675888
#
# number of rings (size 3 to 8) (size 9 to 14) (size 15 to 20)
#    0.000    1.143    4.286    0.857    4.000    2.286 
#    0.000    0.000    0.000    0.000    0.000    0.000 
#    0.000    0.000    0.000    0.000    0.000    0.000 
#
# Total GULP energy -155950.798179 kJ/mol
# GULP energy per Si atom -5569.671364 kJ/mol
# Density = 2.461973 g / cm^3
# Si number density = 24.675888 Si / 1000 Ang^3
#
#
#
# Elastic Constant Matrix: (Units=GPa)
#
#
# Indices 1 2 3 4 5 6 
#
# 1 32.8062 -3.6198 25.6962 0.0000 0.0000 0.0000
# 2 -3.6198 71.0426 4.3765 0.0000 0.0000 0.0000
# 3 25.6962 4.3765 145.9997 0.0000 0.0000 0.0000
# 4 0.0000 0.0000 0.0000 33.9685 0.0000 0.0000
# 5 0.0000 0.0000 0.0000 0.0000 30.7493 0.0000
# 6 0.0000 0.0000 0.0000 0.0000 0.0000 19.4930
#
#
#
# Elastic Compliance Matrix: (Units=1/GPa)
#
#
# Indices 1 2 3 4 5 6 
#
# 1 0.035699 0.002210 -0.006349 0.000000 0.000000 0.000000
# 2 0.002210 0.014239 -0.000816 0.000000 0.000000 0.000000
# 3 -0.006349 -0.000816 0.007991 0.000000 0.000000 0.000000
# 4 0.000000 0.000000 0.000000 0.029439 0.000000 0.000000
# 5 0.000000 0.000000 0.000000 0.000000 0.032521 0.000000
# 6 0.000000 0.000000 0.000000 0.000000 0.000000 0.051301
#
#
# Mechanical properties :
#
#
# Convention : Reuss Voigt Hill
#
# Bulk Modulus (GPa) = 20.82500 33.63937 27.23219
# Shear Modulus (GPa) = 25.36699 31.73519 28.55109
#
# Velocity S-wave (km/s) = 3.20973 3.59009 3.40523
# Velocity P-wave (km/s) = 4.71108 5.55401 5.14982
#
# Compressibility (1/GPa) = 0.04801920
#
# Stress axis : x y z
#
# Youngs Moduli (GPa) = 28.01189 70.23002 125.13645
#
# Poissons Ratio (x) = -0.15521 0.79453
# Poissons Ratio (y) = -0.06191 0.10209
# Poissons Ratio (z) = 0.17786 0.05729
#
# Static dielectric constant tensor:
#      x y z
#    x 2.083930 0.000000 0.000000 
#    y 0.000000 2.067380 0.000000 
#    z 0.000000 0.000000 2.115120 
# 
# From -- ./inp_files/2400.got.cif
#   From: 2010.05.17/outbox.cif.g08.bks.cpg/sg29_2_cif.got.tgz:2400.got - 2010.06.04 01:19:37.
