data_PCOD9340098
_publ_section_title
;
Structure prediction by ZEFSAII (Michael W. Deem and Ramdas Pophale) SiO2 
 PCOD9340098
Probable space group: P C A 21
;
_chemical_formula_sum "Si O2"
_cell_formula_units_Z 32
_cell_length_a 13.723208
_cell_length_b 12.250143
_cell_length_c 7.586614
_cell_angle_alpha 90.000000
_cell_angle_beta 90.000000
_cell_angle_gamma 90.000000
_cell_volume 1275.395242
_symmetry_space_group_name_H-M "P C A 21"
_symmetry_group_IT_number 29
_symmetry_cell_setting 'orthorhombic'
loop_
_space_group_symop_operation_xyz
x,y,z
-x,-y,1/2+z
1/2-x,y,1/2+z
1/2+x,-y,z
loop_
_atom_site_type_symbol
_atom_site_label
_atom_site_fract_x
_atom_site_fract_y
_atom_site_fract_z
Si Si1 0.444617 0.211541 0.418660
Si Si2 0.883922 0.087574 0.991358
Si Si3 0.814644 0.156433 0.615691
Si Si4 0.279772 0.597994 0.605196
Si Si5 0.792030 0.646867 0.579750
Si Si6 0.908039 0.650987 0.944272
Si Si7 0.483098 0.125949 0.029661
Si Si8 0.086004 0.586195 0.451377
O O1 0.513325 0.140440 0.549913
O O2 0.338687 0.251318 0.476096
O O3 0.451363 0.147036 0.234223
O O4 0.503611 0.326158 0.417433
O O5 0.849790 0.153658 0.818145
O O6 0.790477 0.100922 0.112909
O O7 0.910972 0.963220 0.952010
O O8 0.807975 0.280166 0.542916
O O9 0.903233 0.094197 0.520231
O O10 0.301853 0.479935 0.514412
O O11 0.161196 0.604308 0.612998
O O12 0.338542 0.589761 0.788064
O O13 0.847206 0.649200 0.764557
O O14 0.676127 0.661903 0.591481
O O15 0.974509 0.755061 0.946951
O O16 0.958063 0.534564 0.967991
#
# Coordination Sequence:
#
# PCOD9340098 Si02
#       8
#     4   4   4   4   4   4   4   4
#     4  11  23  43  65  98 136 176 227 277 338 405
#     4  11  26  44  68  97 129 181 224 285 333 394
#     4  11  23  45  69  96 128 169 226 282 336 398
#     4  10  18  41  64  99 132 170 218 276 340 404
#     4  10  23  38  66  97 136 176 218 274 345 407
#     4  10  23  41  62  98 134 178 220 273 341 403
#     4  11  26  44  66  96 139 180 229 277 335 406
#     4  10  20  38  66  97 136 170 218 278 340 405
#
# _framework density 25.090261000000002
#
# number of rings (size 3 to 8) (size 9 to 14) (size 15 to 20)
#    0.000    1.500    3.750    0.750    1.750    9.000 
#    2.250    0.000    0.000    0.000    0.000    0.000 
#    0.000    0.000    0.000    0.000    0.000    0.000 
#
# Total GULP energy -178715.416436 kJ/mol
# GULP energy per Si atom -5584.856764 kJ/mol
# Density = 2.503315 g / cm^3
# Si number density = 25.090261 Si / 1000 Ang^3
#
#
#
# Elastic Constant Matrix: (Units=GPa)
#
#
# Indices 1 2 3 4 5 6 
#
# 1 70.9645 45.8263 0.5000 0.0000 0.0000 0.0000
# 2 45.8263 117.2949 -6.8515 0.0000 0.0000 0.0000
# 3 0.5000 -6.8515 16.8553 0.0000 0.0000 0.0000
# 4 0.0000 0.0000 0.0000 27.9392 0.0000 0.0000
# 5 0.0000 0.0000 0.0000 0.0000 23.2988 0.0000
# 6 0.0000 0.0000 0.0000 0.0000 0.0000 41.4224
#
#
#
# Elastic Compliance Matrix: (Units=1/GPa)
#
#
# Indices 1 2 3 4 5 6 
#
# 1 0.019067 -0.007664 -0.003681 0.000000 0.000000 0.000000
# 2 -0.007664 0.011814 0.005029 0.000000 0.000000 0.000000
# 3 -0.003681 0.005029 0.061482 0.000000 0.000000 0.000000
# 4 0.000000 0.000000 0.000000 0.035792 0.000000 0.000000
# 5 0.000000 0.000000 0.000000 0.000000 0.042921 0.000000
# 6 0.000000 0.000000 0.000000 0.000000 0.000000 0.024142
#
#
# Mechanical properties :
#
#
# Convention : Reuss Voigt Hill
#
# Bulk Modulus (GPa) = 12.54220 31.56270 22.05245
# Shear Modulus (GPa) = 21.32874 29.57473 25.45174
#
# Velocity S-wave (km/s) = 2.91878 3.43699 3.18843
# Velocity P-wave (km/s) = 4.04582 5.32518 4.72897
#
# Compressibility (1/GPa) = 0.07973084
#
# Stress axis : x y z
#
# Youngs Moduli (GPa) = 52.44717 84.64762 16.26490
#
# Poissons Ratio (x) = 0.64876 0.05987
# Poissons Ratio (y) = 0.40197 -0.08180
# Poissons Ratio (z) = 0.19306 -0.42573
#
# Static dielectric constant tensor:
#      x y z
#    x 2.006230 0.000000 0.000000 
#    y 0.000000 1.943830 0.000000 
#    z 0.000000 0.000000 2.101680 
# 
# From -- ./inp_files/1840.got.cif
#   From: 2010.05.17/outbox.cif.g08.bks.cpg/sg29_1_cif.got.tgz:1840.got - 2010.06.04 01:19:37.
