data_PCOD9340804
_publ_section_title
;
Structure prediction by ZEFSAII (Michael W. Deem and Ramdas Pophale) SiO2 
 PCOD9340804
Probable space group: P C A 21
;
_chemical_formula_sum "Si O2"
_cell_formula_units_Z 32
_cell_length_a 29.385966
_cell_length_b 5.473116
_cell_length_c 6.892275
_cell_angle_alpha 90.000000
_cell_angle_beta 90.000000
_cell_angle_gamma 90.000000
_cell_volume 1108.503891
_symmetry_space_group_name_H-M "P C A 21"
_symmetry_group_IT_number 29
_symmetry_cell_setting 'orthorhombic'
loop_
_space_group_symop_operation_xyz
x,y,z
-x,-y,1/2+z
1/2-x,y,1/2+z
1/2+x,-y,z
loop_
_atom_site_type_symbol
_atom_site_label
_atom_site_fract_x
_atom_site_fract_y
_atom_site_fract_z
Si Si1 0.975523 0.349890 0.219980
Si Si2 0.932402 0.367255 0.597201
Si Si3 0.747683 0.812800 0.120605
Si Si4 0.957916 0.007434 0.883642
Si Si5 0.820496 0.056082 0.368463
Si Si6 0.619919 0.846026 0.590031
Si Si7 0.147145 0.644376 0.384674
Si Si8 0.749302 0.449274 0.369954
O O1 0.936100 0.430870 0.368981
O O2 0.021082 0.504811 0.177418
O O3 0.958835 0.247657 0.016579
O O4 0.994381 0.110763 0.333026
O O5 0.937464 0.088939 0.677135
O O6 0.884339 0.432531 0.700114
O O7 0.699037 0.922138 0.058172
O O8 0.759840 0.756583 0.870369
O O9 0.791395 0.969800 0.177865
O O10 0.753197 0.508350 0.120577
O O11 0.931901 0.813189 0.019529
O O12 0.799863 0.326281 0.385142
O O13 0.868853 0.950853 0.304502
O O14 0.642496 0.587974 0.531875
O O15 0.630927 0.092435 0.463650
O O16 0.200620 0.678226 0.349769
#
# Coordination Sequence:
#
# PCOD9340804 Si02
#       8
#     4   4   4   4   4   4   4   4
#     4  12  22  43  70 102 134 188 230 302 357 446
#     4  11  24  42  71 101 141 183 242 292 367 435
#     4  10  22  37  64  88 122 172 228 276 343 414
#     4  11  24  42  71 101 141 183 242 292 367 435
#     4  11  22  41  63  94 130 179 228 289 349 419
#     4  11  24  44  69  99 137 186 233 295 360 427
#     4  11  24  44  69  99 137 186 233 295 360 427
#     4  11  22  41  63  94 130 179 228 289 349 419
#
# _framework density 28.867740000000001
#
# number of rings (size 3 to 8) (size 9 to 14) (size 15 to 20)
#    0.000    1.000    5.000    2.250    3.500    0.000 
#    4.500    2.500    0.000    0.000    0.000    0.000 
#    0.000    0.000    0.000    0.000    0.000    0.000 
#
# Total GULP energy -178523.448710 kJ/mol
# GULP energy per Si atom -5578.857772 kJ/mol
# Density = 2.880204 g / cm^3
# Si number density = 28.867740 Si / 1000 Ang^3
#
#
#
# Elastic Constant Matrix: (Units=GPa)
#
#
# Indices 1 2 3 4 5 6 
#
# 1 83.9996 -0.7741 18.5125 0.0000 0.0000 0.0000
# 2 -0.7741 81.5664 28.1336 0.0000 0.0000 0.0000
# 3 18.5125 28.1336 179.2404 0.0000 0.0000 0.0000
# 4 0.0000 0.0000 0.0000 57.3355 0.0000 0.0000
# 5 0.0000 0.0000 0.0000 0.0000 59.1492 0.0000
# 6 0.0000 0.0000 0.0000 0.0000 0.0000 44.0460
#
#
#
# Elastic Compliance Matrix: (Units=1/GPa)
#
#
# Indices 1 2 3 4 5 6 
#
# 1 0.012208 0.000582 -0.001352 0.000000 0.000000 0.000000
# 2 0.000582 0.012989 -0.002099 0.000000 0.000000 0.000000
# 3 -0.001352 -0.002099 0.006048 0.000000 0.000000 0.000000
# 4 0.000000 0.000000 0.000000 0.017441 0.000000 0.000000
# 5 0.000000 0.000000 0.000000 0.000000 0.016906 0.000000
# 6 0.000000 0.000000 0.000000 0.000000 0.000000 0.022704
#
#
# Mechanical properties :
#
#
# Convention : Reuss Voigt Hill
#
# Bulk Modulus (GPa) = 39.20352 48.50562 43.85457
# Shear Modulus (GPa) = 48.76260 52.03511 50.39885
#
# Velocity S-wave (km/s) = 4.11441 4.25023 4.18287
# Velocity P-wave (km/s) = 6.01507 6.39728 6.20912
#
# Compressibility (1/GPa) = 0.02550792
#
# Stress axis : x y z
#
# Youngs Moduli (GPa) = 81.91205 76.98564 165.33779
#
# Poissons Ratio (x) = -0.04483 0.22359
# Poissons Ratio (y) = -0.04770 0.34704
# Poissons Ratio (z) = 0.11077 0.16159
#
# Static dielectric constant tensor:
#      x y z
#    x 2.497130 0.000000 0.000000 
#    y 0.000000 2.334170 0.000000 
#    z 0.000000 0.000000 2.427800 
# 
# From -- ./inp_files/2591.got.cif
#   From: 2010.05.17/outbox.cif.g08.bks.cpg/sg29_2_cif.got.tgz:2591.got - 2010.06.04 01:19:37.
