data_PCOD9340685
_publ_section_title
;
Structure prediction by ZEFSAII (Michael W. Deem and Ramdas Pophale) SiO2 
 PCOD9340685
Probable space group: P C A 21
;
_chemical_formula_sum "Si O2"
_cell_formula_units_Z 20
_cell_length_a 10.117482
_cell_length_b 8.239257
_cell_length_c 10.009363
_cell_angle_alpha 90.000000
_cell_angle_beta 90.000000
_cell_angle_gamma 90.000000
_cell_volume 834.385849
_symmetry_space_group_name_H-M "P C A 21"
_symmetry_group_IT_number 29
_symmetry_cell_setting 'orthorhombic'
loop_
_space_group_symop_operation_xyz
x,y,z
-x,-y,1/2+z
1/2-x,y,1/2+z
1/2+x,-y,z
loop_
_atom_site_type_symbol
_atom_site_label
_atom_site_fract_x
_atom_site_fract_y
_atom_site_fract_z
Si Si1 0.099253 0.512449 0.617770
Si Si2 0.536798 0.826608 0.237243
Si Si3 0.767910 0.388027 0.850829
Si Si4 0.057376 0.748191 0.014584
Si Si5 0.246120 0.936991 0.691523
O O1 0.004156 0.654566 0.673875
O O2 0.130545 0.548336 0.461129
O O3 0.229309 0.523971 0.712215
O O4 0.030514 0.338236 0.625427
O O5 0.525655 0.829905 0.397673
O O6 0.412660 0.937616 0.185239
O O7 0.680722 0.893631 0.207332
O O8 0.633251 0.394771 0.936192
O O9 0.781646 0.199197 0.805129
O O10 0.174869 0.859056 0.068277
#
# Coordination Sequence:
#
# PCOD9340685 Si02
#       5
#     4   4   4   4   4
#     4  10  22  40  68  92 135 180 226 282 348 403
#     4  10  24  42  69  95 137 179 225 283 343 408
#     4  10  21  41  66  91 135 178 216 291 339 399
#     4  10  21  41  63  95 133 174 232 276 347 398
#     4  10  22  42  64  93 132 179 219 282 335 406
#
# _framework density 23.969728
#
# number of rings (size 3 to 8) (size 9 to 14) (size 15 to 20)
#    0.000    2.400    4.000    0.000    8.400    0.000 
#    7.200    0.000    0.000    0.000    0.000    0.000 
#    0.000    0.000    0.000    0.000    0.000    0.000 
#
# Total GULP energy -111473.261473 kJ/mol
# GULP energy per Si atom -5573.663074 kJ/mol
# Density = 2.391517 g / cm^3
# Si number density = 23.969728 Si / 1000 Ang^3
#
#
#
# Elastic Constant Matrix: (Units=GPa)
#
#
# Indices 1 2 3 4 5 6 
#
# 1 67.0571 29.6041 -0.1637 0.0000 0.0000 0.0000
# 2 29.6041 42.4709 15.9306 0.0000 0.0000 0.0000
# 3 -0.1637 15.9306 106.9849 0.0000 0.0000 0.0000
# 4 0.0000 0.0000 0.0000 21.0568 0.0000 0.0000
# 5 0.0000 0.0000 0.0000 0.0000 13.6098 0.0000
# 6 0.0000 0.0000 0.0000 0.0000 0.0000 45.0026
#
#
#
# Elastic Compliance Matrix: (Units=1/GPa)
#
#
# Indices 1 2 3 4 5 6 
#
# 1 0.022141 -0.016360 0.002470 0.000000 0.000000 0.000000
# 2 -0.016360 0.037027 -0.005538 0.000000 0.000000 0.000000
# 3 0.002470 -0.005538 0.010176 0.000000 0.000000 0.000000
# 4 0.000000 0.000000 0.000000 0.047491 0.000000 0.000000
# 5 0.000000 0.000000 0.000000 0.000000 0.073476 0.000000
# 6 0.000000 0.000000 0.000000 0.000000 0.000000 0.022221
#
#
# Mechanical properties :
#
#
# Convention : Reuss Voigt Hill
#
# Bulk Modulus (GPa) = 32.80135 34.13944 33.47040
# Shear Modulus (GPa) = 19.11679 27.34329 23.23004
#
# Velocity S-wave (km/s) = 2.82714 3.38115 3.11648
# Velocity P-wave (km/s) = 4.93671 5.43292 5.19075
#
# Compressibility (1/GPa) = 0.03048655
#
# Stress axis : x y z
#
# Youngs Moduli (GPa) = 45.16470 27.00760 98.27422
#
# Poissons Ratio (x) = 0.44184 -0.24273
# Poissons Ratio (y) = 0.73889 0.54429
# Poissons Ratio (z) = -0.11155 0.14958
#
# Static dielectric constant tensor:
#      x y z
#    x 1.936470 0.000000 0.000000 
#    y 0.000000 1.971120 0.000000 
#    z 0.000000 0.000000 2.023520 
# 
# From -- ./inp_files/3055.got.cif
#   From: 2010.05.17/outbox.cif.g08.bks.cpg/sg29_2_cif.got.tgz:3055.got - 2010.06.04 01:19:37.
