data_PCOD9340528
_publ_section_title
;
Structure prediction by ZEFSAII (Michael W. Deem and Ramdas Pophale) SiO2 
 PCOD9340528
Probable space group: P C A 21
;
_chemical_formula_sum "Si O2"
_cell_formula_units_Z 32
_cell_length_a 10.036813
_cell_length_b 14.998541
_cell_length_c 8.879034
_cell_angle_alpha 90.000000
_cell_angle_beta 90.000000
_cell_angle_gamma 90.000000
_cell_volume 1336.628036
_symmetry_space_group_name_H-M "P C A 21"
_symmetry_group_IT_number 29
_symmetry_cell_setting 'orthorhombic'
loop_
_space_group_symop_operation_xyz
x,y,z
-x,-y,1/2+z
1/2-x,y,1/2+z
1/2+x,-y,z
loop_
_atom_site_type_symbol
_atom_site_label
_atom_site_fract_x
_atom_site_fract_y
_atom_site_fract_z
Si Si1 0.833585 0.945078 0.061610
Si Si2 0.432454 0.616036 0.521649
Si Si3 0.193634 0.884600 0.021911
Si Si4 0.485376 0.488921 0.762916
Si Si5 0.035592 0.214773 0.687128
Si Si6 0.869361 0.394090 0.030926
Si Si7 0.017084 0.793320 0.527377
Si Si8 0.996031 0.926950 0.767518
O O1 0.849996 0.841824 0.103666
O O2 0.707886 0.010673 0.063785
O O3 0.933152 0.992550 0.180796
O O4 0.889701 0.954995 0.892161
O O5 0.411045 0.523652 0.614424
O O6 0.519302 0.595441 0.374262
O O7 0.511860 0.686541 0.622412
O O8 0.279009 0.640012 0.489680
O O9 0.103812 0.833112 0.141914
O O10 0.339646 0.843034 0.010151
O O11 0.113287 0.880216 0.866210
O O12 0.622532 0.463534 0.671788
O O13 0.440314 0.564378 0.883372
O O14 0.052494 0.209904 0.865502
O O15 0.952671 0.306990 0.076548
O O16 0.945502 0.852912 0.651684
#
# Coordination Sequence:
#
# PCOD9340528 Si02
#       8
#     4   4   4   4   4   4   4   4
#     4  10  21  38  56  89 128 165 195 266 315 364
#     4  11  22  41  67 100 132 169 218 276 326 382
#     4  10  21  36  59  94 125 158 207 260 317 371
#     4  10  24  38  60 103 131 168 212 270 340 392
#     4  11  22  37  65  99 125 160 218 264 312 382
#     4  11  22  39  65  97 132 166 210 276 326 385
#     4  11  20  34  60  96 122 152 206 267 311 365
#     4  10  22  35  56  88 123 164 204 253 315 373
#
# _framework density 23.940840999999999
#
# number of rings (size 3 to 8) (size 9 to 14) (size 15 to 20)
#    0.000    1.500    2.500    3.750    3.500    2.000 
#    0.000    1.250    0.000    6.000   29.250    0.000 
#    0.000    0.000    0.000    0.000    0.000    0.000 
#
# Total GULP energy -178388.884475 kJ/mol
# GULP energy per Si atom -5574.652640 kJ/mol
# Density = 2.388635 g / cm^3
# Si number density = 23.940841 Si / 1000 Ang^3
#
#
#
# Elastic Constant Matrix: (Units=GPa)
#
#
# Indices 1 2 3 4 5 6 
#
# 1 41.9441 6.1579 3.0931 0.0000 0.0000 0.0000
# 2 6.1579 31.6911 29.8816 0.0000 0.0000 0.0000
# 3 3.0931 29.8816 120.5329 0.0000 0.0000 0.0000
# 4 0.0000 0.0000 0.0000 48.5993 0.0000 0.0000
# 5 0.0000 0.0000 0.0000 0.0000 17.3088 0.0000
# 6 0.0000 0.0000 0.0000 0.0000 0.0000 33.7799
#
#
#
# Elastic Compliance Matrix: (Units=1/GPa)
#
#
# Indices 1 2 3 4 5 6 
#
# 1 0.024589 -0.005459 0.000722 0.000000 0.000000 0.000000
# 2 -0.005459 0.042393 -0.010370 0.000000 0.000000 0.000000
# 3 0.000722 -0.010370 0.010849 0.000000 0.000000 0.000000
# 4 0.000000 0.000000 0.000000 0.020576 0.000000 0.000000
# 5 0.000000 0.000000 0.000000 0.000000 0.057774 0.000000
# 6 0.000000 0.000000 0.000000 0.000000 0.000000 0.029603
#
#
# Mechanical properties :
#
#
# Convention : Reuss Voigt Hill
#
# Bulk Modulus (GPa) = 21.00031 30.27038 25.63535
# Shear Modulus (GPa) = 21.56377 30.27331 25.91854
#
# Velocity S-wave (km/s) = 3.00444 3.55985 3.29387
# Velocity P-wave (km/s) = 4.56359 5.43764 5.01968
#
# Compressibility (1/GPa) = 0.04761834
#
# Stress axis : x y z
#
# Youngs Moduli (GPa) = 40.66788 23.58882 92.17685
#
# Poissons Ratio (x) = 0.12877 -0.06658
# Poissons Ratio (y) = 0.22201 0.95584
# Poissons Ratio (z) = -0.02938 0.24461
#
# Static dielectric constant tensor:
#      x y z
#    x 1.954680 0.000000 0.000000 
#    y 0.000000 1.957380 0.000000 
#    z 0.000000 0.000000 1.937190 
# 
# From -- ./inp_files/1568.got.cif
#   From: 2010.05.17/outbox.cif.g08.bks.cpg/sg29_1_cif.got.tgz:1568.got - 2010.06.04 01:19:37.
