data_PCOD9340741
_publ_section_title
;
Structure prediction by ZEFSAII (Michael W. Deem and Ramdas Pophale) SiO2 
 PCOD9340741
Probable space group: P C A 21
;
_chemical_formula_sum "Si O2"
_cell_formula_units_Z 28
_cell_length_a 16.093267
_cell_length_b 6.932721
_cell_length_c 11.367595
_cell_angle_alpha 90.000000
_cell_angle_beta 90.000000
_cell_angle_gamma 90.000000
_cell_volume 1268.284053
_symmetry_space_group_name_H-M "P C A 21"
_symmetry_group_IT_number 29
_symmetry_cell_setting 'orthorhombic'
loop_
_space_group_symop_operation_xyz
x,y,z
-x,-y,1/2+z
1/2-x,y,1/2+z
1/2+x,-y,z
loop_
_atom_site_type_symbol
_atom_site_label
_atom_site_fract_x
_atom_site_fract_y
_atom_site_fract_z
Si Si1 0.675141 0.091311 0.750000
Si Si2 0.430507 0.625040 0.391747
Si Si3 0.394869 0.326345 0.211808
Si Si4 0.657927 0.049662 0.357105
Si Si5 0.625597 0.601250 0.348293
Si Si6 0.668976 0.342038 0.537734
Si Si7 0.410983 0.691255 0.658357
O O1 0.594804 0.204297 0.800819
O O2 0.743524 0.087680 0.852317
O O3 0.710811 0.211452 0.638437
O O4 0.653253 0.874729 0.711882
O O5 0.390548 0.431613 0.338128
O O6 0.529713 0.586756 0.393470
O O7 0.398166 0.681120 0.519794
O O8 0.366187 0.485737 0.118240
O O9 0.490740 0.294875 0.181327
O O10 0.619666 0.171953 0.465550
O O11 0.623674 0.133772 0.235398
O O12 0.645446 0.823610 0.359671
O O13 0.690152 0.472356 0.423674
O O14 0.622881 0.504959 0.219662
#
# Coordination Sequence:
#
# PCOD9340741 Si02
#       7
#     4   4   4   4   4   4   4
#     4  11  25  42  63  97 131 169 211 260 326 388
#     4  10  22  41  66  98 126 161 221 270 306 376
#     4  10  21  43  68  92 125 174 213 261 325 370
#     4  11  25  42  63  97 131 169 211 260 326 388
#     4  10  21  43  68  92 125 174 213 261 325 370
#     4  10  22  42  66  88 128 168 210 264 312 376
#     4  10  22  41  66  98 126 161 221 270 306 376
#
# _framework density 22.077075000000001
#
# number of rings (size 3 to 8) (size 9 to 14) (size 15 to 20)
#    0.000    1.714    1.429    1.714    2.000    5.714 
#    0.000    0.000    0.000    0.000    0.000    0.000 
#    0.000    0.000    0.000    0.000    0.000    0.000 
#
# Total GULP energy -156006.977936 kJ/mol
# GULP energy per Si atom -5571.677783 kJ/mol
# Density = 2.202683 g / cm^3
# Si number density = 22.077075 Si / 1000 Ang^3
#
#
#
# Elastic Constant Matrix: (Units=GPa)
#
#
# Indices 1 2 3 4 5 6 
#
# 1 38.6582 24.5876 1.9998 0.0000 0.0000 0.0000
# 2 24.5876 185.7112 35.5879 0.0000 0.0000 0.0000
# 3 1.9998 35.5879 114.0603 0.0000 0.0000 0.0000
# 4 0.0000 0.0000 0.0000 13.8530 0.0000 0.0000
# 5 0.0000 0.0000 0.0000 0.0000 19.9090 0.0000
# 6 0.0000 0.0000 0.0000 0.0000 0.0000 14.5239
#
#
#
# Elastic Compliance Matrix: (Units=1/GPa)
#
#
# Indices 1 2 3 4 5 6 
#
# 1 0.028301 -0.003884 0.000716 0.000000 0.000000 0.000000
# 2 -0.003884 0.006260 -0.001885 0.000000 0.000000 0.000000
# 3 0.000716 -0.001885 0.009343 0.000000 0.000000 0.000000
# 4 0.000000 0.000000 0.000000 0.072186 0.000000 0.000000
# 5 0.000000 0.000000 0.000000 0.000000 0.050229 0.000000
# 6 0.000000 0.000000 0.000000 0.000000 0.000000 0.068852
#
#
# Mechanical properties :
#
#
# Convention : Reuss Voigt Hill
#
# Bulk Modulus (GPa) = 29.58836 51.42004 40.50420
# Shear Modulus (GPa) = 19.48981 28.07414 23.78197
#
# Velocity S-wave (km/s) = 2.97443 3.56988 3.28567
# Velocity P-wave (km/s) = 5.02272 6.35089 5.72545
#
# Compressibility (1/GPa) = 0.03379707
#
# Stress axis : x y z
#
# Youngs Moduli (GPa) = 35.33428 159.73931 107.03289
#
# Poissons Ratio (x) = 0.62045 -0.07660
# Poissons Ratio (y) = 0.13724 0.20177
# Poissons Ratio (z) = -0.02529 0.30113
#
# Static dielectric constant tensor:
#      x y z
#    x 1.828460 0.000000 0.000000 
#    y 0.000000 1.783740 0.000000 
#    z 0.000000 0.000000 1.839550 
# 
# From -- ./inp_files/3610.got.cif
#   From: 2010.05.17/outbox.cif.g08.bks.cpg/sg29_2_cif.got.tgz:3610.got - 2010.06.04 01:19:37.
