data_PCOD9340322
_publ_section_title
;
Structure prediction by ZEFSAII (Michael W. Deem and Ramdas Pophale) SiO2 
 PCOD9340322
Probable space group: P C A 21
;
_chemical_formula_sum "Si O2"
_cell_formula_units_Z 28
_cell_length_a 9.249570
_cell_length_b 17.442486
_cell_length_c 8.427541
_cell_angle_alpha 90.000000
_cell_angle_beta 90.000000
_cell_angle_gamma 90.000000
_cell_volume 1359.661501
_symmetry_space_group_name_H-M "P C A 21"
_symmetry_group_IT_number 29
_symmetry_cell_setting 'orthorhombic'
loop_
_space_group_symop_operation_xyz
x,y,z
-x,-y,1/2+z
1/2-x,y,1/2+z
1/2+x,-y,z
loop_
_atom_site_type_symbol
_atom_site_label
_atom_site_fract_x
_atom_site_fract_y
_atom_site_fract_z
Si Si1 0.415309 0.647336 0.363250
Si Si2 0.292509 0.984163 0.282250
Si Si3 0.576324 0.525729 0.857528
Si Si4 0.073157 0.060590 0.081997
Si Si5 0.848232 0.569007 0.014808
Si Si6 0.224697 0.738795 0.135675
Si Si7 0.888793 0.161122 0.891908
O O1 0.371211 0.561048 0.317755
O O2 0.583058 0.637608 0.410768
O O3 0.361736 0.706334 0.232310
O O4 0.337300 0.672880 0.524689
O O5 0.420975 0.963926 0.160599
O O6 0.181508 0.914162 0.310981
O O7 0.196760 0.054816 0.215599
O O8 0.369361 0.002688 0.447985
O O9 0.594735 0.571199 0.694355
O O10 0.678525 0.561638 0.991904
O O11 0.421462 0.506548 0.932871
O O12 0.033548 0.137096 0.984000
O O13 0.108857 0.772917 0.259116
O O14 0.277802 0.806637 0.022236
#
# Coordination Sequence:
#
# PCOD9340322 Si02
#       7
#     4   4   4   4   4   4   4
#     4   9  22  35  59  86 117 153 200 239 288 345
#     4  12  22  38  62  95 123 155 196 260 321 358
#     4  10  20  36  58  93 114 151 185 253 304 350
#     4  12  22  38  60  96 125 152 198 256 319 361
#     4  10  21  34  59  89 122 144 194 242 314 342
#     4  10  20  39  57  86 117 161 207 236 272 369
#     4  11  21  36  63  89 114 158 202 246 294 355
#
# _framework density 20.593359
#
# number of rings (size 3 to 8) (size 9 to 14) (size 15 to 20)
#    0.857    0.571    4.286    1.714    2.000    0.000 
#    0.000    0.000    0.000    5.143    0.000    0.000 
#    0.000    0.000    0.000    0.000    0.000    0.000 
#
# Total GULP energy -155947.010688 kJ/mol
# GULP energy per Si atom -5569.536096 kJ/mol
# Density = 2.054649 g / cm^3
# Si number density = 20.593359 Si / 1000 Ang^3
#
#
#
# Elastic Constant Matrix: (Units=GPa)
#
#
# Indices 1 2 3 4 5 6 
#
# 1 49.4578 4.4123 9.0134 0.0000 0.0000 0.0000
# 2 4.4123 35.9539 6.4099 0.0000 0.0000 0.0000
# 3 9.0134 6.4099 77.1005 0.0000 0.0000 0.0000
# 4 0.0000 0.0000 0.0000 24.7827 0.0000 0.0000
# 5 0.0000 0.0000 0.0000 0.0000 27.9812 0.0000
# 6 0.0000 0.0000 0.0000 0.0000 0.0000 17.1792
#
#
#
# Elastic Compliance Matrix: (Units=1/GPa)
#
#
# Indices 1 2 3 4 5 6 
#
# 1 0.020822 -0.002153 -0.002255 0.000000 0.000000 0.000000
# 2 -0.002153 0.028455 -0.002114 0.000000 0.000000 0.000000
# 3 -0.002255 -0.002114 0.013409 0.000000 0.000000 0.000000
# 4 0.000000 0.000000 0.000000 0.040351 0.000000 0.000000
# 5 0.000000 0.000000 0.000000 0.000000 0.035738 0.000000
# 6 0.000000 0.000000 0.000000 0.000000 0.000000 0.058210
#
#
# Mechanical properties :
#
#
# Convention : Reuss Voigt Hill
#
# Bulk Modulus (GPa) = 20.14438 22.46479 21.30459
# Shear Modulus (GPa) = 22.06752 23.50038 22.78395
#
# Velocity S-wave (km/s) = 3.27706 3.38178 3.32983
# Velocity P-wave (km/s) = 4.91142 5.11674 5.01513
#
# Compressibility (1/GPa) = 0.04964165
#
# Stress axis : x y z
#
# Youngs Moduli (GPa) = 48.02532 35.14380 74.57417
#
# Poissons Ratio (x) = 0.07567 0.16818
# Poissons Ratio (y) = 0.10341 0.15764
# Poissons Ratio (z) = 0.10831 0.07429
#
# Static dielectric constant tensor:
#      x y z
#    x 1.738500 0.000000 0.000000 
#    y 0.000000 1.736890 0.000000 
#    z 0.000000 0.000000 1.769940 
# 
# From -- ./inp_files/1225.got.cif
#   From: 2010.05.17/outbox.cif.g08.bks.cpg/sg29_1_cif.got.tgz:1225.got - 2010.06.04 01:19:37.
