data_PCOD9340301
_publ_section_title
;
Structure prediction by ZEFSAII (Michael W. Deem and Ramdas Pophale) SiO2 
 PCOD9340301
Probable space group: P C A 21
;
_chemical_formula_sum "Si O2"
_cell_formula_units_Z 24
_cell_length_a 15.270403
_cell_length_b 7.770034
_cell_length_c 9.442925
_cell_angle_alpha 90.000000
_cell_angle_beta 90.000000
_cell_angle_gamma 90.000000
_cell_volume 1120.417693
_symmetry_space_group_name_H-M "P C A 21"
_symmetry_group_IT_number 29
_symmetry_cell_setting 'orthorhombic'
loop_
_space_group_symop_operation_xyz
x,y,z
-x,-y,1/2+z
1/2-x,y,1/2+z
1/2+x,-y,z
loop_
_atom_site_type_symbol
_atom_site_label
_atom_site_fract_x
_atom_site_fract_y
_atom_site_fract_z
Si Si1 0.684580 0.866038 0.335720
Si Si2 0.242838 0.788636 0.694124
Si Si3 0.261629 0.318727 0.087188
Si Si4 0.593363 0.394102 0.544828
Si Si5 0.526396 0.616332 0.308481
Si Si6 0.157574 0.606308 0.956297
O O1 0.713996 0.849143 0.497441
O O2 0.736517 0.724214 0.244654
O O3 0.586870 0.786816 0.322641
O O4 0.717957 0.040689 0.265695
O O5 0.153524 0.769106 0.595215
O O6 0.317529 0.719778 0.591052
O O7 0.219631 0.665621 0.826773
O O8 0.343498 0.446045 0.083264
O O9 0.182356 0.416184 0.008944
O O10 0.569861 0.445314 0.382106
O O11 0.509293 0.400436 0.648274
O O12 0.439185 0.636986 0.401795
#
# Coordination Sequence:
#
# PCOD9340301 Si02
#       6
#     4   4   4   4   4   4
#     4  11  21  36  58  87 118 152 196 245 297 353
#     4  10  21  37  58  85 122 161 193 236 302 368
#     4  10  20  36  61  85 114 159 202 238 288 362
#     4   9  20  37  59  87 118 154 197 242 296 353
#     4  10  20  35  59  90 117 148 200 254 292 338
#     4  10  20  39  61  86 117 156 202 241 289 352
#
# _framework density 21.420582
#
# number of rings (size 3 to 8) (size 9 to 14) (size 15 to 20)
#    0.000    2.000    0.000    5.000    0.000    2.667 
#    0.000   11.667    0.000   22.000    0.000    0.000 
#    0.000    0.000    0.000    0.000    0.000    0.000 
#
# Total GULP energy -133696.965078 kJ/mol
# GULP energy per Si atom -5570.706878 kJ/mol
# Density = 2.137183 g / cm^3
# Si number density = 21.420582 Si / 1000 Ang^3
#
#
#
# Elastic Constant Matrix: (Units=GPa)
#
#
# Indices 1 2 3 4 5 6 
#
# 1 75.3509 29.4551 27.1449 0.0000 0.0000 0.0000
# 2 29.4551 90.9597 28.4509 0.0000 0.0000 0.0000
# 3 27.1449 28.4509 62.5864 0.0000 0.0000 0.0000
# 4 0.0000 0.0000 0.0000 47.6068 0.0000 0.0000
# 5 0.0000 0.0000 0.0000 0.0000 46.9888 0.0000
# 6 0.0000 0.0000 0.0000 0.0000 0.0000 15.6113
#
#
#
# Elastic Compliance Matrix: (Units=1/GPa)
#
#
# Indices 1 2 3 4 5 6 
#
# 1 0.016716 -0.003667 -0.005583 0.000000 0.000000 0.000000
# 2 -0.003667 0.013620 -0.004601 0.000000 0.000000 0.000000
# 3 -0.005583 -0.004601 0.020491 0.000000 0.000000 0.000000
# 4 0.000000 0.000000 0.000000 0.021005 0.000000 0.000000
# 5 0.000000 0.000000 0.000000 0.000000 0.021282 0.000000
# 6 0.000000 0.000000 0.000000 0.000000 0.000000 0.064056
#
#
# Mechanical properties :
#
#
# Convention : Reuss Voigt Hill
#
# Bulk Modulus (GPa) = 43.24311 44.33319 43.78815
# Shear Modulus (GPa) = 25.96303 31.63112 28.79707
#
# Velocity S-wave (km/s) = 3.48524 3.84691 3.67054
# Velocity P-wave (km/s) = 6.03551 6.36185 6.20083
#
# Compressibility (1/GPa) = 0.02312507
#
# Stress axis : x y z
#
# Youngs Moduli (GPa) = 59.82329 73.41875 48.80150
#
# Poissons Ratio (x) = 0.26920 0.27247
# Poissons Ratio (y) = 0.21935 0.22455
# Poissons Ratio (z) = 0.33400 0.33783
#
# Static dielectric constant tensor:
#      x y z
#    x 1.807530 0.000000 0.000000 
#    y 0.000000 1.814160 0.000000 
#    z 0.000000 0.000000 1.798770 
# 
# From -- ./inp_files/1740.got.cif
#   From: 2010.05.17/outbox.cif.g08.bks.cpg/sg29_1_cif.got.tgz:1740.got - 2010.06.04 01:19:37.
