data_PCOD9340722
_publ_section_title
;
Structure prediction by ZEFSAII (Michael W. Deem and Ramdas Pophale) SiO2 
 PCOD9340722
Probable space group: P C A 21
;
_chemical_formula_sum "Si O2"
_cell_formula_units_Z 28
_cell_length_a 9.664807
_cell_length_b 9.578597
_cell_length_c 12.362938
_cell_angle_alpha 90.000000
_cell_angle_beta 90.000000
_cell_angle_gamma 90.000000
_cell_volume 1144.502587
_symmetry_space_group_name_H-M "P C A 21"
_symmetry_group_IT_number 29
_symmetry_cell_setting 'orthorhombic'
loop_
_space_group_symop_operation_xyz
x,y,z
-x,-y,1/2+z
1/2-x,y,1/2+z
1/2+x,-y,z
loop_
_atom_site_type_symbol
_atom_site_label
_atom_site_fract_x
_atom_site_fract_y
_atom_site_fract_z
Si Si1 0.817543 0.486516 0.292410
Si Si2 0.855691 0.665563 0.096644
Si Si3 0.956144 0.205669 0.296714
Si Si4 0.474044 0.101189 0.243724
Si Si5 0.941026 0.421440 0.944843
Si Si6 0.309507 0.852305 0.922336
Si Si7 0.764667 0.842285 0.918614
O O1 0.898531 0.349453 0.249787
O O2 0.683227 0.447585 0.359429
O O3 0.782923 0.585576 0.193660
O O4 0.922150 0.564172 0.373574
O O5 0.938007 0.546068 0.031353
O O6 0.746763 0.738343 0.017626
O O7 0.892720 0.783982 0.848787
O O8 0.948192 0.789259 0.148286
O O9 0.849528 0.184069 0.397782
O O10 0.959303 0.065049 0.224645
O O11 0.619206 0.130490 0.303341
O O12 0.360448 0.130828 0.337532
O O13 0.896736 0.266395 0.983160
O O14 0.310694 0.008151 0.967666
#
# Coordination Sequence:
#
# PCOD9340722 Si02
#       7
#     4   4   4   4   4   4   4
#     4  11  24  44  65  93 132 166 210 267 317 374
#     4  12  24  38  68  96 126 172 218 254 318 390
#     4   9  20  42  65  87 128 165 203 270 317 362
#     4  10  21  42  66  91 127 166 212 265 313 375
#     4  11  24  44  65  93 132 166 210 267 317 374
#     4   9  20  42  65  87 128 165 203 270 317 362
#     4  10  21  42  66  91 127 166 212 265 313 375
#
# _framework density 24.464777999999999
#
# number of rings (size 3 to 8) (size 9 to 14) (size 15 to 20)
#    0.000    1.714    2.857    0.857    0.000    2.286 
#    0.000   12.857    0.000    0.000    0.000    0.000 
#    0.000    0.000    0.000    0.000    0.000    0.000 
#
# Total GULP energy -156627.493447 kJ/mol
# GULP energy per Si atom -5593.839052 kJ/mol
# Density = 2.440909 g / cm^3
# Si number density = 24.464778 Si / 1000 Ang^3
#
#
#
# Elastic Constant Matrix: (Units=GPa)
#
#
# Indices 1 2 3 4 5 6 
#
# 1 76.6257 -11.1121 15.4547 0.0000 0.0000 0.0000
# 2 -11.1121 188.5009 55.5899 0.0000 0.0000 0.0000
# 3 15.4547 55.5899 80.6764 0.0000 0.0000 0.0000
# 4 0.0000 0.0000 0.0000 61.9634 0.0000 0.0000
# 5 0.0000 0.0000 0.0000 0.0000 3.3984 0.0000
# 6 0.0000 0.0000 0.0000 0.0000 0.0000 27.0110
#
#
#
# Elastic Compliance Matrix: (Units=1/GPa)
#
#
# Indices 1 2 3 4 5 6 
#
# 1 0.014182 0.002055 -0.004133 0.000000 0.000000 0.000000
# 2 0.002055 0.006956 -0.005186 0.000000 0.000000 0.000000
# 3 -0.004133 -0.005186 0.016761 0.000000 0.000000 0.000000
# 4 0.000000 0.000000 0.000000 0.016139 0.000000 0.000000
# 5 0.000000 0.000000 0.000000 0.000000 0.294258 0.000000
# 6 0.000000 0.000000 0.000000 0.000000 0.000000 0.037022
#
#
# Mechanical properties :
#
#
# Convention : Reuss Voigt Hill
#
# Bulk Modulus (GPa) = 42.79051 51.74088 47.26569
# Shear Modulus (GPa) = 12.26587 37.53259 24.89923
#
# Velocity S-wave (km/s) = 2.24156 3.92107 3.19369
# Velocity P-wave (km/s) = 4.92220 6.45715 5.74120
#
# Compressibility (1/GPa) = 0.02336967
#
# Stress axis : x y z
#
# Youngs Moduli (GPa) = 70.51224 143.76843 59.66402
#
# Poissons Ratio (x) = -0.29541 0.24657
# Poissons Ratio (y) = -0.14488 0.30944
# Poissons Ratio (z) = 0.29140 0.74564
#
# Static dielectric constant tensor:
#      x y z
#    x 1.902900 0.000000 0.000000 
#    y 0.000000 2.069630 0.000000 
#    z 0.000000 0.000000 1.936010 
# 
# From -- ./inp_files/4493.got.cif
#   From: 2010.05.17/outbox.cif.g08.bks.cpg/sg29_3_cif.got.tgz:4493.got - 2010.06.04 01:19:37.
