data_PCOD9340200
_publ_section_title
;
Structure prediction by ZEFSAII (Michael W. Deem and Ramdas Pophale) SiO2 
 PCOD9340200
Probable space group: P C A 21
;
_chemical_formula_sum "Si O2"
_cell_formula_units_Z 28
_cell_length_a 16.993761
_cell_length_b 17.064580
_cell_length_c 5.159574
_cell_angle_alpha 90.000000
_cell_angle_beta 90.000000
_cell_angle_gamma 90.000000
_cell_volume 1496.232057
_symmetry_space_group_name_H-M "P C A 21"
_symmetry_group_IT_number 29
_symmetry_cell_setting 'orthorhombic'
loop_
_space_group_symop_operation_xyz
x,y,z
-x,-y,1/2+z
1/2-x,y,1/2+z
1/2+x,-y,z
loop_
_atom_site_type_symbol
_atom_site_label
_atom_site_fract_x
_atom_site_fract_y
_atom_site_fract_z
Si Si1 0.514802 0.103386 0.197270
Si Si2 0.700384 0.812137 0.277003
Si Si3 0.065906 0.316440 0.197638
Si Si4 0.414544 0.058321 0.697166
Si Si5 0.801545 0.559668 0.788935
Si Si6 0.536275 0.286000 0.198310
Si Si7 0.300679 0.627215 0.796276
O O1 0.452228 0.084851 0.424745
O O2 0.543272 0.191953 0.219605
O O3 0.580765 0.035649 0.214399
O O4 0.470823 0.090759 0.924843
O O5 0.732683 0.797714 0.563749
O O6 0.627155 0.755426 0.221426
O O7 0.668528 0.900214 0.239031
O O8 0.118722 0.393095 0.243645
O O9 0.000865 0.307027 0.420753
O O10 0.024202 0.313978 0.920302
O O11 0.760061 0.579797 0.060568
O O12 0.815700 0.466423 0.782548
O O13 0.619501 0.326953 0.242506
O O14 0.236515 0.645254 0.575103
#
# Coordination Sequence:
#
# PCOD9340200 Si02
#       7
#     4   4   4   4   4   4   4
#     4  10  19  37  58  80 110 145 194 240 279 337
#     4  12  22  35  54  83 122 152 189 238 287 340
#     4  12  23  36  58  90 118 154 199 233 292 347
#     4  10  20  36  57  78 109 156 193 225 284 347
#     4  10  21  40  59  82 122 162 193 229 288 357
#     4  12  22  38  62  89 117 146 199 252 285 346
#     4  10  23  42  62  84 114 155 193 241 305 348
#
# _framework density 18.713674999999999
#
# number of rings (size 3 to 8) (size 9 to 14) (size 15 to 20)
#    0.000    1.143    2.857    4.286    0.000    1.143 
#    0.000    1.429    0.000    0.000    0.000    0.000 
#    0.000    0.000    0.000    0.000    0.000    0.000 
#
# Total GULP energy -156523.845406 kJ/mol
# GULP energy per Si atom -5590.137336 kJ/mol
# Density = 1.867108 g / cm^3
# Si number density = 18.713675 Si / 1000 Ang^3
#
#
#
# Elastic Constant Matrix: (Units=GPa)
#
#
# Indices 1 2 3 4 5 6 
#
# 1 40.5260 19.2494 -25.5874 0.0000 0.0000 0.0000
# 2 19.2494 54.9989 -10.8134 0.0000 0.0000 0.0000
# 3 -25.5874 -10.8134 38.9725 0.0000 0.0000 0.0000
# 4 0.0000 0.0000 0.0000 17.2015 0.0000 0.0000
# 5 0.0000 0.0000 0.0000 0.0000 30.4328 0.0000
# 6 0.0000 0.0000 0.0000 0.0000 0.0000 34.8338
#
#
#
# Elastic Compliance Matrix: (Units=1/GPa)
#
#
# Indices 1 2 3 4 5 6 
#
# 1 0.047875 -0.011186 0.028329 0.000000 0.000000 0.000000
# 2 -0.011186 0.021845 -0.001283 0.000000 0.000000 0.000000
# 3 0.028329 -0.001283 0.043902 0.000000 0.000000 0.000000
# 4 0.000000 0.000000 0.000000 0.058134 0.000000 0.000000
# 5 0.000000 0.000000 0.000000 0.000000 0.032859 0.000000
# 6 0.000000 0.000000 0.000000 0.000000 0.000000 0.028708
#
#
# Mechanical properties :
#
#
# Convention : Reuss Voigt Hill
#
# Bulk Modulus (GPa) = 6.88039 11.13272 9.00656
# Shear Modulus (GPa) = 19.99580 26.60354 23.29967
#
# Velocity S-wave (km/s) = 3.27236 3.77451 3.53237
# Velocity P-wave (km/s) = 4.23821 4.99578 4.63251
#
# Compressibility (1/GPa) = 0.14534062
#
# Stress axis : x y z
#
# Youngs Moduli (GPa) = 20.88769 45.77697 22.77786
#
# Poissons Ratio (x) = 0.51208 -0.64527
# Poissons Ratio (y) = 0.23366 0.02923
# Poissons Ratio (z) = -0.59172 0.05874
#
# Static dielectric constant tensor:
#      x y z
#    x 1.606840 0.000000 0.000000 
#    y 0.000000 1.662690 0.000000 
#    z 0.000000 0.000000 1.633570 
# 
# From -- ./inp_files/225.got.cif
#   From: 2010.05.17/outbox.cif.g08.bks.cpg/sg29_1_cif.got.tgz:225.got - 2010.06.04 01:19:37.
