data_PCOD9340898
_publ_section_title
;
Structure prediction by ZEFSAII (Michael W. Deem and Ramdas Pophale) SiO2 
 PCOD9340898
Probable space group: P C A 21
;
_chemical_formula_sum "Si O2"
_cell_formula_units_Z 32
_cell_length_a 11.146464
_cell_length_b 6.475889
_cell_length_c 18.562666
_cell_angle_alpha 90.000000
_cell_angle_beta 90.000000
_cell_angle_gamma 90.000000
_cell_volume 1339.913813
_symmetry_space_group_name_H-M "P C A 21"
_symmetry_group_IT_number 29
_symmetry_cell_setting 'orthorhombic'
loop_
_space_group_symop_operation_xyz
x,y,z
-x,-y,1/2+z
1/2-x,y,1/2+z
1/2+x,-y,z
loop_
_atom_site_type_symbol
_atom_site_label
_atom_site_fract_x
_atom_site_fract_y
_atom_site_fract_z
Si Si1 0.446461 0.901374 0.047410
Si Si2 0.772436 0.684074 0.704465
Si Si3 0.806083 0.912256 0.570731
Si Si4 0.711526 0.892315 0.358313
Si Si5 0.878312 0.303974 0.907218
Si Si6 0.179302 0.414947 0.962160
Si Si7 0.951592 0.384409 0.190967
Si Si8 0.979982 0.352024 0.352427
O O1 0.569570 0.030780 0.056803
O O2 0.437919 0.764905 0.121030
O O3 0.317681 0.008453 0.038712
O O4 0.460333 0.789307 0.970239
O O5 0.783486 0.884948 0.654400
O O6 0.760281 0.777617 0.783969
O O7 0.652598 0.557492 0.683899
O O8 0.903260 0.572146 0.695191
O O9 0.832207 0.679155 0.541184
O O10 0.802659 0.788296 0.413201
O O11 0.573613 0.824825 0.372436
O O12 0.706011 0.135897 0.369164
O O13 0.805434 0.469526 0.953982
O O14 0.946004 0.431702 0.845890
O O15 0.096518 0.580995 0.921850
O O16 0.927626 0.301818 0.273403
#
# Coordination Sequence:
#
# PCOD9340898 Si02
#       8
#     4   4   4   4   4   4   4   4
#     4  11  24  43  68  99 142 185 230 294 351 421
#     4  10  22  43  66  96 140 182 232 293 346 433
#     4  11  24  44  66 102 145 177 246 283 355 429
#     4  10  22  41  65 100 138 176 240 288 354 421
#     4  11  23  41  68 101 137 182 233 295 355 414
#     4  11  21  40  69  96 133 186 230 291 349 418
#     4  10  22  43  66  95 136 184 233 284 355 418
#     4  10  22  41  66  95 137 186 230 288 353 424
#
# _framework density 23.882135000000002
#
# number of rings (size 3 to 8) (size 9 to 14) (size 15 to 20)
#    0.000    1.500    3.750    0.750    0.000    4.000 
#    6.750    0.000    0.000    0.000    0.000    0.000 
#    0.000    0.000    0.000    0.000    0.000    0.000 
#
# Total GULP energy -178250.048622 kJ/mol
# GULP energy per Si atom -5570.314019 kJ/mol
# Density = 2.382778 g / cm^3
# Si number density = 23.882135 Si / 1000 Ang^3
#
#
#
# Elastic Constant Matrix: (Units=GPa)
#
#
# Indices 1 2 3 4 5 6 
#
# 1 112.6559 30.3189 37.4821 0.0000 0.0000 0.0000
# 2 30.3189 51.0842 18.4336 0.0000 0.0000 0.0000
# 3 37.4821 18.4336 123.1378 0.0000 0.0000 0.0000
# 4 0.0000 0.0000 0.0000 30.5707 0.0000 0.0000
# 5 0.0000 0.0000 0.0000 0.0000 40.0297 0.0000
# 6 0.0000 0.0000 0.0000 0.0000 0.0000 20.6572
#
#
#
# Elastic Compliance Matrix: (Units=1/GPa)
#
#
# Indices 1 2 3 4 5 6 
#
# 1 0.011285 -0.005770 -0.002571 0.000000 0.000000 0.000000
# 2 -0.005770 0.023643 -0.001783 0.000000 0.000000 0.000000
# 3 -0.002571 -0.001783 0.009171 0.000000 0.000000 0.000000
# 4 0.000000 0.000000 0.000000 0.032711 0.000000 0.000000
# 5 0.000000 0.000000 0.000000 0.000000 0.024981 0.000000
# 6 0.000000 0.000000 0.000000 0.000000 0.000000 0.048409
#
#
# Mechanical properties :
#
#
# Convention : Reuss Voigt Hill
#
# Bulk Modulus (GPa) = 41.92797 51.03856 46.48326
# Shear Modulus (GPa) = 28.02701 31.62774 29.82738
#
# Velocity S-wave (km/s) = 3.42944 3.64308 3.53787
# Velocity P-wave (km/s) = 5.76851 6.25407 6.01619
#
# Compressibility (1/GPa) = 0.02385043
#
# Stress axis : x y z
#
# Youngs Moduli (GPa) = 88.61383 42.29512 109.04424
#
# Poissons Ratio (x) = 0.24404 0.28038
# Poissons Ratio (y) = 0.51129 0.19444
# Poissons Ratio (z) = 0.22785 0.07542
#
# Static dielectric constant tensor:
#      x y z
#    x 2.084320 0.000000 0.000000 
#    y 0.000000 1.908400 0.000000 
#    z 0.000000 0.000000 1.904260 
# 
# From -- ./inp_files/5589.got.cif
#   From: 2010.05.17/outbox.cif.g08.bks.cpg/sg29_3_cif.got.tgz:5589.got - 2010.06.04 01:19:37.
