data_PCOD9340989
_publ_section_title
;
Structure prediction by ZEFSAII (Michael W. Deem and Ramdas Pophale) SiO2 
 PCOD9340989
Probable space group: P C A 21
;
_chemical_formula_sum "Si O2"
_cell_formula_units_Z 28
_cell_length_a 12.727698
_cell_length_b 6.784171
_cell_length_c 13.510250
_cell_angle_alpha 90.000000
_cell_angle_beta 90.000000
_cell_angle_gamma 90.000000
_cell_volume 1166.567931
_symmetry_space_group_name_H-M "P C A 21"
_symmetry_group_IT_number 29
_symmetry_cell_setting 'orthorhombic'
loop_
_space_group_symop_operation_xyz
x,y,z
-x,-y,1/2+z
1/2-x,y,1/2+z
1/2+x,-y,z
loop_
_atom_site_type_symbol
_atom_site_label
_atom_site_fract_x
_atom_site_fract_y
_atom_site_fract_z
Si Si1 0.465574 0.669924 0.463590
Si Si2 0.231394 0.666095 0.443982
Si Si3 0.719894 0.425431 0.217954
Si Si4 0.830674 0.700148 0.077289
Si Si5 0.659805 0.024173 0.112051
Si Si6 0.519016 0.233186 0.529635
Si Si7 0.461891 0.261443 0.739877
O O1 0.549768 0.738145 0.546340
O O2 0.469547 0.432416 0.481716
O O3 0.500195 0.725143 0.352359
O O4 0.428939 0.068913 0.535646
O O5 0.242008 0.638813 0.328210
O O6 0.210448 0.452389 0.493374
O O7 0.345934 0.740340 0.476321
O O8 0.128413 0.791628 0.472219
O O9 0.806960 0.576537 0.176291
O O10 0.700002 0.234441 0.152239
O O11 0.612836 0.552172 0.219231
O O12 0.761781 0.893922 0.085121
O O13 0.607644 0.930441 0.214249
O O14 0.543002 0.263457 0.647398
#
# Coordination Sequence:
#
# PCOD9340989 Si02
#       7
#     4   4   4   4   4   4   4
#     4  11  20  40  75 106 141 207 244 310 381 470
#     4  11  22  40  76 106 143 200 252 296 384 464
#     4  11  21  42  77 111 145 189 254 319 375 456
#     4  10  22  43  70 110 144 197 245 308 379 457
#     4   9  21  43  72 108 147 184 245 323 381 438
#     4   9  20  41  70 109 140 190 248 306 378 456
#     4   9  20  41  74 104 144 183 252 308 386 443
#
# _framework density 24.002030000000001
#
# number of rings (size 3 to 8) (size 9 to 14) (size 15 to 20)
#    0.857    1.143    4.286    0.000    4.000    0.000 
#    2.571    2.857   22.000    0.000    0.000    0.000 
#    0.000    0.000    0.000    0.000    0.000    0.000 
#
# Total GULP energy -156263.710164 kJ/mol
# GULP energy per Si atom -5580.846792 kJ/mol
# Density = 2.394740 g / cm^3
# Si number density = 24.002030 Si / 1000 Ang^3
#
#
#
# Elastic Constant Matrix: (Units=GPa)
#
#
# Indices 1 2 3 4 5 6 
#
# 1 -483.5942-1408.0445 -877.2149 0.0000 0.0000 0.0000
# 2 -1408.0445-3149.4808-2038.4740 0.0000 0.0000 0.0000
# 3 -877.2149-2038.4740-1124.7892 0.0000 0.0000 0.0000
# 4 0.0000 0.0000 0.0000 -26.3588 0.0000 0.0000
# 5 0.0000 0.0000 0.0000 0.0000 26.7417 0.0000
# 6 0.0000 0.0000 0.0000 0.0000 0.0000 23.3172
#
#
#
# Elastic Compliance Matrix: (Units=1/GPa)
#
#
# Indices 1 2 3 4 5 6 
#
# 1 0.007147 -0.002384 -0.001254 0.000000 0.000000 0.000000
# 2 -0.002384 0.002630 -0.002908 0.000000 0.000000 0.000000
# 3 -0.001254 -0.002908 0.005359 0.000000 0.000000 0.000000
# 4 0.000000 0.000000 0.000000 -0.037938 0.000000 0.000000
# 5 0.000000 0.000000 0.000000 0.000000 0.037395 0.000000
# 6 0.000000 0.000000 0.000000 0.000000 0.000000 0.042887
#
#
# Mechanical properties :
#
#
# Convention : Reuss Voigt Hill
#
# Bulk Modulus (GPa) = 488.90189 -1489.48123 -500.28967
# Shear Modulus (GPa) = 70.17285 -24.20205 22.98540
#
# Velocity S-wave (km/s) = 5.41292 -3.17887 3.09794
# Velocity P-wave (km/s) = 15.59488 25.20685 14.00331
#
# Compressibility (1/GPa) = 0.00204540
#
# Stress axis : x y z
#
# Youngs Moduli (GPa) = 139.91703 380.16442 186.61170
#
# Poissons Ratio (x) = 0.90629 0.23392
# Poissons Ratio (y) = 0.33355 0.54266
# Poissons Ratio (z) = 0.17539 1.10551
#
# Static dielectric constant tensor:
#      x y z
#    x 1.944200 0.000000 0.000000 
#    y 0.000000 2.504650 0.000000 
#    z 0.000000 0.000000 9.679810 
# 
# From -- ./inp_files/3758.got.cif
#   From: 2010.05.17/outbox.cif.g08.bks.cpg/sg29_2_cif.got.tgz:3758.got - 2010.06.04 01:19:37.
