data_PCOD9340196
_publ_section_title
;
Structure prediction by ZEFSAII (Michael W. Deem and Ramdas Pophale) SiO2 
 PCOD9340196
Probable space group: P C A 21
;
_chemical_formula_sum "Si O2"
_cell_formula_units_Z 24
_cell_length_a 9.148125
_cell_length_b 6.726548
_cell_length_c 17.175807
_cell_angle_alpha 90.000000
_cell_angle_beta 90.000000
_cell_angle_gamma 90.000000
_cell_volume 1056.918470
_symmetry_space_group_name_H-M "P C A 21"
_symmetry_group_IT_number 29
_symmetry_cell_setting 'orthorhombic'
loop_
_space_group_symop_operation_xyz
x,y,z
-x,-y,1/2+z
1/2-x,y,1/2+z
1/2+x,-y,z
loop_
_atom_site_type_symbol
_atom_site_label
_atom_site_fract_x
_atom_site_fract_y
_atom_site_fract_z
Si Si1 0.624923 0.375648 0.721870
Si Si2 0.460720 0.768286 0.070514
Si Si3 0.754378 0.530174 0.570904
Si Si4 0.571910 0.958405 0.919908
Si Si5 0.140241 0.263555 0.427930
Si Si6 0.605040 0.370980 0.322514
O O1 0.555002 0.209139 0.663694
O O2 0.702022 0.527009 0.659900
O O3 0.505887 0.501808 0.768393
O O4 0.757983 0.293559 0.772784
O O5 0.301545 0.687772 0.044608
O O6 0.577449 0.586452 0.062672
O O7 0.522265 0.924625 0.010072
O O8 0.667983 0.685937 0.517832
O O9 0.739455 0.903327 0.908932
O O10 0.484039 0.796974 0.868383
O O11 0.515841 0.178257 0.903449
O O12 0.168718 0.466273 0.382430
#
# Coordination Sequence:
#
# PCOD9340196 Si02
#       6
#     4   4   4   4   4   4
#     4  10  19  36  67  88 118 164 200 253 312 358
#     4   9  18  37  60  87 114 155 205 242 299 354
#     4   9  18  37  60  87 114 156 204 242 298 355
#     4  11  25  41  62  92 123 165 208 248 306 365
#     4  11  25  41  62  92 125 163 208 252 299 369
#     4  12  21  40  65  90 126 161 201 253 312 365
#
# _framework density 22.707522999999998
#
# number of rings (size 3 to 8) (size 9 to 14) (size 15 to 20)
#    1.000    0.667    5.000    0.000    2.333    1.333 
#    0.000    3.333    0.000    0.000    0.000    0.000 
#    0.000    0.000    0.000    0.000    0.000    0.000 
#
# Total GULP energy -133769.261302 kJ/mol
# GULP energy per Si atom -5573.719221 kJ/mol
# Density = 2.265584 g / cm^3
# Si number density = 22.707523 Si / 1000 Ang^3
#
#
#
# Elastic Constant Matrix: (Units=GPa)
#
#
# Indices 1 2 3 4 5 6 
#
# 1 72.5239 -1.1047 21.6556 0.0000 0.0000 0.0000
# 2 -1.1047 19.2920 10.9810 0.0000 0.0000 0.0000
# 3 21.6556 10.9810 88.4446 0.0000 0.0000 0.0000
# 4 0.0000 0.0000 0.0000 13.4386 0.0000 0.0000
# 5 0.0000 0.0000 0.0000 0.0000 36.8354 0.0000
# 6 0.0000 0.0000 0.0000 0.0000 0.0000 24.7508
#
#
#
# Elastic Compliance Matrix: (Units=1/GPa)
#
#
# Indices 1 2 3 4 5 6 
#
# 1 0.015056 0.003186 -0.004082 0.000000 0.000000 0.000000
# 2 0.003186 0.056451 -0.007789 0.000000 0.000000 0.000000
# 3 -0.004082 -0.007789 0.013273 0.000000 0.000000 0.000000
# 4 0.000000 0.000000 0.000000 0.074412 0.000000 0.000000
# 5 0.000000 0.000000 0.000000 0.000000 0.027148 0.000000
# 6 0.000000 0.000000 0.000000 0.000000 0.000000 0.040403
#
#
# Mechanical properties :
#
#
# Convention : Reuss Voigt Hill
#
# Bulk Modulus (GPa) = 14.83471 27.03603 20.93537
# Shear Modulus (GPa) = 18.75592 24.92022 21.83807
#
# Velocity S-wave (km/s) = 2.87710 3.31636 3.10451
# Velocity P-wave (km/s) = 4.19334 5.15717 4.70003
#
# Compressibility (1/GPa) = 0.06740947
#
# Stress axis : x y z
#
# Youngs Moduli (GPa) = 66.41893 17.71458 75.34097
#
# Poissons Ratio (x) = -0.05643 0.30754
# Poissons Ratio (y) = -0.21158 0.58681
# Poissons Ratio (z) = 0.27112 0.13797
#
# Static dielectric constant tensor:
#      x y z
#    x 1.840530 0.000000 0.000000 
#    y 0.000000 1.810150 0.000000 
#    z 0.000000 0.000000 1.890290 
# 
# From -- ./inp_files/4946.got.cif
#   From: 2010.05.17/outbox.cif.g08.bks.cpg/sg29_3_cif.got.tgz:4946.got - 2010.06.04 01:19:37.
