data_PCOD9340906
_publ_section_title
;
Structure prediction by ZEFSAII (Michael W. Deem and Ramdas Pophale) SiO2 
 PCOD9340906
Probable space group: P C A 21
;
_chemical_formula_sum "Si O2"
_cell_formula_units_Z 16
_cell_length_a 8.003521
_cell_length_b 6.610608
_cell_length_c 13.427525
_cell_angle_alpha 90.000000
_cell_angle_beta 90.000000
_cell_angle_gamma 90.000000
_cell_volume 710.425372
_symmetry_space_group_name_H-M "P C A 21"
_symmetry_group_IT_number 29
_symmetry_cell_setting 'orthorhombic'
loop_
_space_group_symop_operation_xyz
x,y,z
-x,-y,1/2+z
1/2-x,y,1/2+z
1/2+x,-y,z
loop_
_atom_site_type_symbol
_atom_site_label
_atom_site_fract_x
_atom_site_fract_y
_atom_site_fract_z
Si Si1 0.001653 0.265797 0.764570
Si Si2 0.810471 0.050930 0.923378
Si Si3 0.498350 0.265797 0.817959
Si Si4 0.310469 0.949070 0.159151
O O1 0.969403 0.158928 0.871167
O O2 0.842459 0.189504 0.698468
O O3 0.000001 0.500000 0.791264
O O4 0.158989 0.174969 0.703855
O O5 0.657544 0.189504 0.884061
O O6 0.813080 0.046880 0.041264
O O7 0.841014 0.825030 0.878673
O O8 0.530600 0.158928 0.711362
#
# Coordination Sequence:
#
# PCOD9340906 Si02
#       4
#     4   4   4   4
#     4  10  23  42  64  97 136 172 219 279 335 394
#     4  10  22  41  66  94 127 172 225 276 331 399
#     4  10  23  42  64  97 136 172 219 279 335 394
#     4  10  22  41  66  94 127 172 225 276 331 399
#
# _framework density 22.521716999999999
#
# number of rings (size 3 to 8) (size 9 to 14) (size 15 to 20)
#    0.000    2.000    0.000    1.500    0.000   20.000 
#    0.000    0.000    0.000    0.000    0.000    0.000 
#    0.000    0.000    0.000    0.000    0.000    0.000 
#
# Total GULP energy -89129.546775 kJ/mol
# GULP energy per Si atom -5570.596673 kJ/mol
# Density = 2.247046 g / cm^3
# Si number density = 22.521717 Si / 1000 Ang^3
#
#
#
# Elastic Constant Matrix: (Units=GPa)
#
#
# Indices 1 2 3 4 5 6 
#
# 1 137.1472 43.3467 63.0696 0.0000 0.0000 0.0000
# 2 43.3467 213.3597 99.3761 0.0000 0.0000 0.0000
# 3 63.0696 99.3761 258.7760 0.0000 0.0000 0.0000
# 4 0.0000 0.0000 0.0000 9.5053 0.0000 0.0000
# 5 0.0000 0.0000 0.0000 0.0000 19.6847 0.0000
# 6 0.0000 0.0000 0.0000 0.0000 0.0000 31.2737
#
#
#
# Elastic Compliance Matrix: (Units=1/GPa)
#
#
# Indices 1 2 3 4 5 6 
#
# 1 0.008355 -0.000912 -0.001686 0.000000 0.000000 0.000000
# 2 -0.000912 0.005807 -0.002008 0.000000 0.000000 0.000000
# 3 -0.001686 -0.002008 0.005046 0.000000 0.000000 0.000000
# 4 0.000000 0.000000 0.000000 0.105205 0.000000 0.000000
# 5 0.000000 0.000000 0.000000 0.000000 0.050801 0.000000
# 6 0.000000 0.000000 0.000000 0.000000 0.000000 0.031976
#
#
# Mechanical properties :
#
#
# Convention : Reuss Voigt Hill
#
# Bulk Modulus (GPa) = 100.03259 113.42975 106.73117
# Shear Modulus (GPa) = 22.75471 38.99211 30.87341
#
# Velocity S-wave (km/s) = 3.18204 4.16542 3.70649
# Velocity P-wave (km/s) = 7.61663 8.57952 8.11237
#
# Compressibility (1/GPa) = 0.00999674
#
# Stress axis : x y z
#
# Youngs Moduli (GPa) = 119.68767 172.19290 198.16319
#
# Poissons Ratio (x) = 0.15706 0.33411
# Poissons Ratio (y) = 0.10917 0.39789
# Poissons Ratio (z) = 0.20180 0.34574
#
# Static dielectric constant tensor:
#      x y z
#    x 2.136990 0.000000 0.000000 
#    y 0.000000 1.919410 0.000000 
#    z 0.000000 0.000000 1.785670 
# 
# From -- ./inp_files/4162.got.cif
#   From: 2010.05.17/outbox.cif.g08.bks.cpg/sg29_3_cif.got.tgz:4162.got - 2010.06.04 01:19:37.
