data_PCOD9340278
_publ_section_title
;
Structure prediction by ZEFSAII (Michael W. Deem and Ramdas Pophale) SiO2 
 PCOD9340278
Probable space group: P C A 21
;
_chemical_formula_sum "Si O2"
_cell_formula_units_Z 32
_cell_length_a 33.545452
_cell_length_b 5.510529
_cell_length_c 7.150606
_cell_angle_alpha 90.000000
_cell_angle_beta 90.000000
_cell_angle_gamma 90.000000
_cell_volume 1321.812301
_symmetry_space_group_name_H-M "P C A 21"
_symmetry_group_IT_number 29
_symmetry_cell_setting 'orthorhombic'
loop_
_space_group_symop_operation_xyz
x,y,z
-x,-y,1/2+z
1/2-x,y,1/2+z
1/2+x,-y,z
loop_
_atom_site_type_symbol
_atom_site_label
_atom_site_fract_x
_atom_site_fract_y
_atom_site_fract_z
Si Si1 0.491364 0.867009 0.153130
Si Si2 0.306831 0.536546 0.798042
Si Si3 0.785522 0.468194 0.363240
Si Si4 0.846522 0.964291 0.759442
Si Si5 0.044045 0.489907 0.924692
Si Si6 0.413410 0.103908 0.233735
Si Si7 0.571123 0.121909 0.146976
Si Si8 0.325371 0.033960 0.310015
O O1 0.481840 0.697932 0.329588
O O2 0.448871 0.989419 0.112338
O O3 0.526599 0.051738 0.201506
O O4 0.512181 0.698716 0.000849
O O5 0.262075 0.523670 0.874287
O O6 0.302255 0.534723 0.573148
O O7 0.332254 0.294209 0.839065
O O8 0.325371 0.797967 0.843977
O O9 0.800877 0.719124 0.272552
O O10 0.801508 0.216163 0.274615
O O11 0.835389 0.962915 0.535019
O O12 0.893518 0.019091 0.770486
O O13 0.074163 0.382811 0.769805
O O14 0.070038 0.592508 0.097892
O O15 0.367383 0.050991 0.200496
O O16 0.420242 0.994801 0.442718
#
# Coordination Sequence:
#
# PCOD9340278 Si02
#       8
#     4   4   4   4   4   4   4   4
#     4  10  20  34  54  84 112 150 186 236 286 340
#     4  10  20  35  57  81 109 141 178 226 280 337
#     4  10  20  35  57  81 109 141 178 226 280 337
#     4   9  19  32  56  84 107 140 187 232 270 322
#     4  10  20  34  58  78 114 148 190 240 288 336
#     4   9  19  32  53  81 110 142 194 236 272 328
#     4   9  19  32  53  81 110 142 194 236 272 328
#     4   9  19  32  56  84 107 140 187 232 270 322
#
# _framework density 24.209185999999999
#
# number of rings (size 3 to 8) (size 9 to 14) (size 15 to 20)
#    0.000    2.500    0.000    1.500   12.250    0.000 
#    0.000    0.000    2.750    3.000    0.000    0.000 
#    0.000    0.000    0.000    0.000    0.000    0.000 
#
# Total GULP energy -178760.788287 kJ/mol
# GULP energy per Si atom -5586.274634 kJ/mol
# Density = 2.415408 g / cm^3
# Si number density = 24.209186 Si / 1000 Ang^3
#
#
#
# Elastic Constant Matrix: (Units=GPa)
#
#
# Indices 1 2 3 4 5 6 
#
# 1 159.5414 77.5734 14.8278 0.0000 0.0000 0.0000
# 2 77.5734 158.7923 15.0673 0.0000 0.0000 0.0000
# 3 14.8278 15.0673 55.4118 0.0000 0.0000 0.0000
# 4 0.0000 0.0000 0.0000 11.2457 0.0000 0.0000
# 5 0.0000 0.0000 0.0000 0.0000 29.6828 0.0000
# 6 0.0000 0.0000 0.0000 0.0000 0.0000 33.0691
#
#
#
# Elastic Compliance Matrix: (Units=1/GPa)
#
#
# Indices 1 2 3 4 5 6 
#
# 1 0.008291 -0.003942 -0.001147 0.000000 0.000000 0.000000
# 2 -0.003942 0.008338 -0.001213 0.000000 0.000000 0.000000
# 3 -0.001147 -0.001213 0.018683 0.000000 0.000000 0.000000
# 4 0.000000 0.000000 0.000000 0.088923 0.000000 0.000000
# 5 0.000000 0.000000 0.000000 0.000000 0.033690 0.000000
# 6 0.000000 0.000000 0.000000 0.000000 0.000000 0.030240
#
#
# Mechanical properties :
#
#
# Convention : Reuss Voigt Hill
#
# Bulk Modulus (GPa) = 44.03230 65.40918 54.72074
# Shear Modulus (GPa) = 23.99958 32.55130 28.27544
#
# Velocity S-wave (km/s) = 3.15197 3.67084 3.42126
# Velocity P-wave (km/s) = 5.61020 6.71146 6.18539
#
# Compressibility (1/GPa) = 0.02271060
#
# Stress axis : x y z
#
# Youngs Moduli (GPa) = 120.61225 119.93135 53.52371
#
# Poissons Ratio (x) = 0.47271 0.06138
# Poissons Ratio (y) = 0.47540 0.06490
# Poissons Ratio (z) = 0.13833 0.14542
#
# Static dielectric constant tensor:
#      x y z
#    x 1.898760 0.000000 0.000000 
#    y 0.000000 2.049200 0.000000 
#    z 0.000000 0.000000 2.045370 
# 
# From -- ./inp_files/3977.got.cif
#   From: 2010.05.17/outbox.cif.g08.bks.cpg/sg29_2_cif.got.tgz:3977.got - 2010.06.04 01:19:37.
