data_PCOD9340575
_publ_section_title
;
Structure prediction by ZEFSAII (Michael W. Deem and Ramdas Pophale) SiO2 
 PCOD9340575
Probable space group: P C A 21
;
_chemical_formula_sum "Si O2"
_cell_formula_units_Z 32
_cell_length_a 14.219892
_cell_length_b 5.515000
_cell_length_c 17.170737
_cell_angle_alpha 90.000000
_cell_angle_beta 90.000000
_cell_angle_gamma 90.000000
_cell_volume 1346.575632
_symmetry_space_group_name_H-M "P C A 21"
_symmetry_group_IT_number 29
_symmetry_cell_setting 'orthorhombic'
loop_
_space_group_symop_operation_xyz
x,y,z
-x,-y,1/2+z
1/2-x,y,1/2+z
1/2+x,-y,z
loop_
_atom_site_type_symbol
_atom_site_label
_atom_site_fract_x
_atom_site_fract_y
_atom_site_fract_z
Si Si1 0.572491 0.479966 0.896330
Si Si2 0.136413 0.504781 0.409881
Si Si3 0.778874 0.242550 0.497166
Si Si4 0.165568 0.749164 0.742128
Si Si5 0.495688 0.574749 0.135451
Si Si6 0.374418 0.685301 0.749809
Si Si7 0.701778 0.864187 0.857993
Si Si8 0.426641 0.933115 0.610388
O O1 0.467799 0.404076 0.917197
O O2 0.640728 0.425475 0.968136
O O3 0.611920 0.347072 0.819232
O O4 0.598413 0.755733 0.875608
O O5 0.180714 0.615671 0.488483
O O6 0.120580 0.704381 0.341973
O O7 0.214718 0.330224 0.371133
O O8 0.825003 0.123202 0.572317
O O9 0.776851 0.051084 0.427004
O O10 0.266796 0.630643 0.729481
O O11 0.101155 0.680061 0.669689
O O12 0.193937 0.018917 0.772164
O O13 0.560967 0.522165 0.211944
O O14 0.504456 0.303031 0.098147
O O15 0.537099 0.802535 0.087527
O O16 0.410449 0.919970 0.703452
#
# Coordination Sequence:
#
# PCOD9340575 Si02
#       8
#     4   4   4   4   4   4   4   4
#     4  10  21  38  62  94 127 163 222 272 335 398
#     4  11  21  39  66  97 128 170 219 280 337 398
#     4  10  23  43  60  93 128 177 222 270 339 396
#     4  11  21  38  63 103 124 174 214 281 332 397
#     4  10  25  41  69  91 135 174 223 270 334 399
#     4  10  22  39  63  99 130 165 223 272 333 391
#     4  10  22  35  69  91 135 164 217 285 332 401
#     4  10  25  45  64  92 135 183 218 280 330 404
#
# _framework density 23.763983
#
# number of rings (size 3 to 8) (size 9 to 14) (size 15 to 20)
#    0.750    1.000    5.000    0.000    8.750    2.000 
#    2.250    1.250    0.000    0.000    0.000    0.000 
#    0.000    0.000    0.000    0.000    0.000    0.000 
#
# Total GULP energy -178145.622312 kJ/mol
# GULP energy per Si atom -5567.050697 kJ/mol
# Density = 2.370990 g / cm^3
# Si number density = 23.763983 Si / 1000 Ang^3
#
#
#
# Elastic Constant Matrix: (Units=GPa)
#
#
# Indices 1 2 3 4 5 6 
#
# 1 117.8329 7.4285 -12.6030 0.0000 0.0000 0.0000
# 2 7.4285 79.4809 -5.2092 0.0000 0.0000 0.0000
# 3 -12.6030 -5.2092 42.8341 0.0000 0.0000 0.0000
# 4 0.0000 0.0000 0.0000 17.1334 0.0000 0.0000
# 5 0.0000 0.0000 0.0000 0.0000 22.2071 0.0000
# 6 0.0000 0.0000 0.0000 0.0000 0.0000 15.5362
#
#
#
# Elastic Compliance Matrix: (Units=1/GPa)
#
#
# Indices 1 2 3 4 5 6 
#
# 1 0.008796 -0.000658 0.002508 0.000000 0.000000 0.000000
# 2 -0.000658 0.012732 0.001355 0.000000 0.000000 0.000000
# 3 0.002508 0.001355 0.024249 0.000000 0.000000 0.000000
# 4 0.000000 0.000000 0.000000 0.058365 0.000000 0.000000
# 5 0.000000 0.000000 0.000000 0.000000 0.045031 0.000000
# 6 0.000000 0.000000 0.000000 0.000000 0.000000 0.064366
#
#
# Mechanical properties :
#
#
# Convention : Reuss Voigt Hill
#
# Bulk Modulus (GPa) = 19.16175 24.37562 21.76869
# Shear Modulus (GPa) = 22.26932 27.67744 24.97338
#
# Velocity S-wave (km/s) = 3.06454 3.41644 3.24526
# Velocity P-wave (km/s) = 4.53902 5.08355 4.81898
#
# Compressibility (1/GPa) = 0.05218729
#
# Stress axis : x y z
#
# Youngs Moduli (GPa) = 113.68389 78.54278 41.23948
#
# Poissons Ratio (x) = 0.05166 -0.10343
# Poissons Ratio (y) = 0.07478 -0.05587
# Poissons Ratio (z) = -0.28513 -0.10641
#
# Static dielectric constant tensor:
#      x y z
#    x 1.956430 0.000000 0.000000 
#    y 0.000000 2.015100 0.000000 
#    z 0.000000 0.000000 1.950230 
# 
# From -- ./inp_files/5602.got.cif
#   From: 2010.05.17/outbox.cif.g08.bks.cpg/sg29_3_cif.got.tgz:5602.got - 2010.06.04 01:19:37.
