data_PCOD9340424
_publ_section_title
;
Structure prediction by ZEFSAII (Michael W. Deem and Ramdas Pophale) SiO2 
 PCOD9340424
Probable space group: P C A 21
;
_chemical_formula_sum "Si O2"
_cell_formula_units_Z 28
_cell_length_a 11.352031
_cell_length_b 12.044650
_cell_length_c 8.676187
_cell_angle_alpha 90.000000
_cell_angle_beta 90.000000
_cell_angle_gamma 90.000000
_cell_volume 1186.305809
_symmetry_space_group_name_H-M "P C A 21"
_symmetry_group_IT_number 29
_symmetry_cell_setting 'orthorhombic'
loop_
_space_group_symop_operation_xyz
x,y,z
-x,-y,1/2+z
1/2-x,y,1/2+z
1/2+x,-y,z
loop_
_atom_site_type_symbol
_atom_site_label
_atom_site_fract_x
_atom_site_fract_y
_atom_site_fract_z
Si Si1 0.818397 0.716517 0.855580
Si Si2 0.904015 0.515965 0.015451
Si Si3 0.658265 0.230014 0.020287
Si Si4 0.753387 0.390930 0.265997
Si Si5 0.084771 0.864224 0.544896
Si Si6 0.585891 0.660634 0.019065
Si Si7 0.972084 0.917568 0.874235
O O1 0.894112 0.645687 0.980732
O O2 0.855979 0.676896 0.686411
O O3 0.852481 0.845445 0.865579
O O4 0.684012 0.691249 0.895233
O O5 0.825559 0.462772 0.879419
O O6 0.839949 0.468690 0.167014
O O7 0.032659 0.462133 0.006419
O O8 0.671221 0.302810 0.864444
O O9 0.551800 0.145740 0.000717
O O10 0.667100 0.318609 0.157756
O O11 0.776959 0.158004 0.039757
O O12 0.021431 0.747181 0.510332
O O13 0.038738 0.904546 0.711455
O O14 0.050003 0.957204 0.422132
#
# Coordination Sequence:
#
# PCOD9340424 Si02
#       7
#     4   4   4   4   4   4   4
#     4  11  27  46  69 105 144 187 229 288 355 422
#     4  11  23  44  73 105 143 184 231 289 352 424
#     4  11  21  44  69 101 136 174 237 291 355 425
#     4  10  20  39  72 101 132 178 228 278 345 422
#     4  11  25  46  69  99 136 185 234 300 352 418
#     4  11  25  49  67 101 149 181 236 289 352 417
#     4  11  27  44  69 100 138 183 239 293 355 420
#
# _framework density 23.602682000000001
#
# number of rings (size 3 to 8) (size 9 to 14) (size 15 to 20)
#    0.000    1.143    4.286    1.714    4.000    8.000 
#    0.000    0.000    0.000    0.000    0.000    0.000 
#    0.000    0.000    0.000    0.000    0.000    0.000 
#
# Total GULP energy -156998.110648 kJ/mol
# GULP energy per Si atom -5607.075380 kJ/mol
# Density = 2.354896 g / cm^3
# Si number density = 23.602682 Si / 1000 Ang^3
#
#
#
# Elastic Constant Matrix: (Units=GPa)
#
#
# Indices 1 2 3 4 5 6 
#
# 1 75.2656 -7.3796 4.8881 0.0000 0.0000 0.0000
# 2 -7.3796 81.4119 16.9308 0.0000 0.0000 0.0000
# 3 4.8881 16.9308 84.4565 0.0000 0.0000 0.0000
# 4 0.0000 0.0000 0.0000 22.1609 0.0000 0.0000
# 5 0.0000 0.0000 0.0000 0.0000 21.7624 0.0000
# 6 0.0000 0.0000 0.0000 0.0000 0.0000 13.1547
#
#
#
# Elastic Compliance Matrix: (Units=1/GPa)
#
#
# Indices 1 2 3 4 5 6 
#
# 1 0.013498 0.001446 -0.001071 0.000000 0.000000 0.000000
# 2 0.001446 0.012973 -0.002684 0.000000 0.000000 0.000000
# 3 -0.001071 -0.002684 0.012441 0.000000 0.000000 0.000000
# 4 0.000000 0.000000 0.000000 0.045125 0.000000 0.000000
# 5 0.000000 0.000000 0.000000 0.000000 0.045951 0.000000
# 6 0.000000 0.000000 0.000000 0.000000 0.000000 0.076018
#
#
# Mechanical properties :
#
#
# Convention : Reuss Voigt Hill
#
# Bulk Modulus (GPa) = 29.16099 30.00141 29.58120
# Shear Modulus (GPa) = 22.51711 26.52859 24.52285
#
# Velocity S-wave (km/s) = 3.09205 3.35620 3.22683
# Velocity P-wave (km/s) = 5.01293 5.26852 5.14231
#
# Compressibility (1/GPa) = 0.03429239
#
# Stress axis : x y z
#
# Youngs Moduli (GPa) = 74.08694 77.08587 80.38251
#
# Poissons Ratio (x) = -0.11149 0.08610
# Poissons Ratio (y) = -0.10715 0.21577
# Poissons Ratio (z) = 0.07936 0.20692
#
# Static dielectric constant tensor:
#      x y z
#    x 1.888170 0.000000 0.000000 
#    y 0.000000 1.871910 0.000000 
#    z 0.000000 0.000000 1.903180 
# 
# From -- ./inp_files/1479.got.cif
#   From: 2010.05.17/outbox.cif.g08.bks.cpg/sg29_1_cif.got.tgz:1479.got - 2010.06.04 01:19:37.
