data_PCOD9340626
_publ_section_title
;
Structure prediction by ZEFSAII (Michael W. Deem and Ramdas Pophale) SiO2 
 PCOD9340626
Probable space group: P C A 21
;
_chemical_formula_sum "Si O2"
_cell_formula_units_Z 28
_cell_length_a 11.392604
_cell_length_b 11.849998
_cell_length_c 8.516906
_cell_angle_alpha 90.000000
_cell_angle_beta 90.000000
_cell_angle_gamma 90.000000
_cell_volume 1149.802194
_symmetry_space_group_name_H-M "P C A 21"
_symmetry_group_IT_number 29
_symmetry_cell_setting 'orthorhombic'
loop_
_space_group_symop_operation_xyz
x,y,z
-x,-y,1/2+z
1/2-x,y,1/2+z
1/2+x,-y,z
loop_
_atom_site_type_symbol
_atom_site_label
_atom_site_fract_x
_atom_site_fract_y
_atom_site_fract_z
Si Si1 0.008022 0.102867 0.033550
Si Si2 0.447962 0.281885 0.288680
Si Si3 0.394242 0.344184 0.838018
Si Si4 0.696544 0.553578 0.011579
Si Si5 0.723041 0.870875 0.255594
Si Si6 0.619766 0.310609 0.995006
Si Si7 0.635095 0.077234 0.847544
O O1 0.139208 0.119461 0.105913
O O2 0.916177 0.098727 0.173999
O O3 0.986425 0.208238 0.921185
O O4 0.028917 0.988464 0.936427
O O5 0.384348 0.387816 0.375125
O O6 0.344543 0.196804 0.231609
O O7 0.538325 0.304380 0.149722
O O8 0.350516 0.394598 0.673788
O O9 0.328609 0.409773 0.975184
O O10 0.351847 0.215750 0.859048
O O11 0.532002 0.345153 0.854032
O O12 0.699414 0.419031 0.015809
O O13 0.756489 0.991836 0.324384
O O14 0.667227 0.188952 0.944290
#
# Coordination Sequence:
#
# PCOD9340626 Si02
#       7
#     4   4   4   4   4   4   4
#     4  11  22  42  64 100 136 174 239 286 347 422
#     4  10  22  38  70 100 129 184 231 287 345 409
#     4  11  22  44  74  96 138 182 237 289 342 425
#     4  11  23  41  70 105 133 183 238 291 348 416
#     4  10  21  39  69  96 131 173 237 282 337 422
#     4  12  24  43  68 104 142 178 233 292 359 417
#     4  11  24  39  69 101 135 184 221 295 358 415
#
# _framework density 24.352017
#
# number of rings (size 3 to 8) (size 9 to 14) (size 15 to 20)
#    0.000    1.143    2.857    4.286    4.000    2.286 
#    2.571    1.429    0.000    0.000    0.000    0.000 
#    0.000    0.000    0.000    0.000    0.000    0.000 
#
# Total GULP energy -156751.541824 kJ/mol
# GULP energy per Si atom -5598.269351 kJ/mol
# Density = 2.429659 g / cm^3
# Si number density = 24.352017 Si / 1000 Ang^3
#
#
#
# Elastic Constant Matrix: (Units=GPa)
#
#
# Indices 1 2 3 4 5 6 
#
# 1 32.0376 20.1464 5.6304 0.0000 0.0000 0.0000
# 2 20.1464 164.1225 30.0584 0.0000 0.0000 0.0000
# 3 5.6304 30.0584 94.9385 0.0000 0.0000 0.0000
# 4 0.0000 0.0000 0.0000 12.1581 0.0000 0.0000
# 5 0.0000 0.0000 0.0000 0.0000 15.1778 0.0000
# 6 0.0000 0.0000 0.0000 0.0000 0.0000 24.4798
#
#
#
# Elastic Compliance Matrix: (Units=1/GPa)
#
#
# Indices 1 2 3 4 5 6 
#
# 1 0.033872 -0.004023 -0.000735 0.000000 0.000000 0.000000
# 2 -0.004023 0.006946 -0.001961 0.000000 0.000000 0.000000
# 3 -0.000735 -0.001961 0.011197 0.000000 0.000000 0.000000
# 4 0.000000 0.000000 0.000000 0.082250 0.000000 0.000000
# 5 0.000000 0.000000 0.000000 0.000000 0.065886 0.000000
# 6 0.000000 0.000000 0.000000 0.000000 0.000000 0.040850
#
#
# Mechanical properties :
#
#
# Convention : Reuss Voigt Hill
#
# Bulk Modulus (GPa) = 25.92142 44.75211 35.33677
# Shear Modulus (GPa) = 18.70567 26.04736 22.37652
#
# Velocity S-wave (km/s) = 2.77453 3.27405 3.03459
# Velocity P-wave (km/s) = 4.57511 5.71923 5.17886
#
# Compressibility (1/GPa) = 0.03857813
#
# Stress axis : x y z
#
# Youngs Moduli (GPa) = 29.52251 143.96889 89.30608
#
# Poissons Ratio (x) = 0.57923 0.06564
# Poissons Ratio (y) = 0.11878 0.17509
# Poissons Ratio (z) = 0.02170 0.28226
#
# Static dielectric constant tensor:
#      x y z
#    x 1.949830 0.000000 0.000000 
#    y 0.000000 1.955860 0.000000 
#    z 0.000000 0.000000 1.981330 
# 
# From -- ./inp_files/1503.got.cif
#   From: 2010.05.17/outbox.cif.g08.bks.cpg/sg29_1_cif.got.tgz:1503.got - 2010.06.04 01:19:37.
