data_PCOD9340166
_publ_section_title
;
Structure prediction by ZEFSAII (Michael W. Deem and Ramdas Pophale) SiO2 
 PCOD9340166
Probable space group: P C A 21
;
_chemical_formula_sum "Si O2"
_cell_formula_units_Z 32
_cell_length_a 25.406808
_cell_length_b 10.068505
_cell_length_c 5.210411
_cell_angle_alpha 90.000000
_cell_angle_beta 90.000000
_cell_angle_gamma 90.000000
_cell_volume 1332.867805
_symmetry_space_group_name_H-M "P C A 21"
_symmetry_group_IT_number 29
_symmetry_cell_setting 'orthorhombic'
loop_
_space_group_symop_operation_xyz
x,y,z
-x,-y,1/2+z
1/2-x,y,1/2+z
1/2+x,-y,z
loop_
_atom_site_type_symbol
_atom_site_label
_atom_site_fract_x
_atom_site_fract_y
_atom_site_fract_z
Si Si1 0.608906 0.614076 0.974430
Si Si2 0.311416 0.739588 0.354655
Si Si3 0.365624 0.825242 0.850736
Si Si4 0.732819 0.000289 0.344746
Si Si5 0.777271 0.557646 0.279815
Si Si6 0.022033 0.565927 0.854523
Si Si7 0.434532 0.256754 0.974822
Si Si8 0.034290 0.984467 0.315329
O O1 0.668716 0.611802 0.894048
O O2 0.581343 0.471477 0.921169
O O3 0.579512 0.707590 0.765511
O O4 0.597559 0.658181 0.264616
O O5 0.340519 0.736195 0.626973
O O6 0.270296 0.864951 0.354535
O O7 0.282474 0.603150 0.293768
O O8 0.353192 0.767459 0.129547
O O9 0.327097 0.954475 0.833784
O O10 0.426310 0.859801 0.808837
O O11 0.747717 0.923965 0.598649
O O12 0.732861 0.594641 0.486474
O O13 0.009810 0.527880 0.559983
O O14 0.995719 0.705896 0.916447
O O15 0.428960 0.104371 0.911735
O O16 0.009739 0.021400 0.039168
#
# Coordination Sequence:
#
# PCOD9340166 Si02
#       8
#     4   4   4   4   4   4   4   4
#     4  10  21  38  63  86 115 162 200 239 300 363
#     4  10  19  35  57  86 121 153 188 247 308 358
#     4  10  20  35  56  82 116 157 197 238 297 370
#     4   8  14  27  49  73 104 139 175 222 282 335
#     4  12  23  37  60  96 132 162 196 243 301 365
#     4   8  16  32  57  85 110 146 197 241 290 353
#     4  10  21  42  61  82 119 156 198 256 300 349
#     4  12  26  42  61  90 121 159 205 256 310 357
#
# _framework density 24.008384
#
# number of rings (size 3 to 8) (size 9 to 14) (size 15 to 20)
#    0.000    2.000    0.000    5.250    0.000    2.000 
#    0.000    5.000    0.000   13.500    0.000    0.000 
#    0.000    0.000    0.000    0.000    0.000    0.000 
#
# Total GULP energy -178849.390937 kJ/mol
# GULP energy per Si atom -5589.043467 kJ/mol
# Density = 2.395374 g / cm^3
# Si number density = 24.008384 Si / 1000 Ang^3
#
#
#
# Elastic Constant Matrix: (Units=GPa)
#
#
# Indices 1 2 3 4 5 6 
#
# 1 78.6194 4.3292 11.9444 0.0000 0.0000 0.0000
# 2 4.3292 35.3331 -13.5405 0.0000 0.0000 0.0000
# 3 11.9444 -13.5405 109.5636 0.0000 0.0000 0.0000
# 4 0.0000 0.0000 0.0000 12.2374 0.0000 0.0000
# 5 0.0000 0.0000 0.0000 0.0000 39.5564 0.0000
# 6 0.0000 0.0000 0.0000 0.0000 0.0000 17.1245
#
#
#
# Elastic Compliance Matrix: (Units=1/GPa)
#
#
# Indices 1 2 3 4 5 6 
#
# 1 0.013103 -0.002260 -0.001708 0.000000 0.000000 0.000000
# 2 -0.002260 0.030099 0.003966 0.000000 0.000000 0.000000
# 3 -0.001708 0.003966 0.009803 0.000000 0.000000 0.000000
# 4 0.000000 0.000000 0.000000 0.081717 0.000000 0.000000
# 5 0.000000 0.000000 0.000000 0.000000 0.025280 0.000000
# 6 0.000000 0.000000 0.000000 0.000000 0.000000 0.058396
#
#
# Mechanical properties :
#
#
# Convention : Reuss Voigt Hill
#
# Bulk Modulus (GPa) = 18.86703 25.44249 22.15476
# Shear Modulus (GPa) = 21.18018 28.50252 24.84135
#
# Velocity S-wave (km/s) = 2.97341 3.44930 3.22016
# Velocity P-wave (km/s) = 4.43439 5.14625 4.80352
#
# Compressibility (1/GPa) = 0.05300251
#
# Stress axis : x y z
#
# Youngs Moduli (GPa) = 76.31603 33.22384 102.00482
#
# Poissons Ratio (x) = 0.07508 0.17420
# Poissons Ratio (y) = 0.17247 -0.40457
# Poissons Ratio (z) = 0.13033 -0.13177
#
# Static dielectric constant tensor:
#      x y z
#    x 1.929210 0.000000 0.000000 
#    y 0.000000 1.941210 0.000000 
#    z 0.000000 0.000000 1.934200 
# 
# From -- ./inp_files/705.got.cif
#   From: 2010.05.17/outbox.cif.g08.bks.cpg/sg29_1_cif.got.tgz:705.got - 2010.06.04 01:19:37.
