data_PCOD9340275
_publ_section_title
;
Structure prediction by ZEFSAII (Michael W. Deem and Ramdas Pophale) SiO2 
 PCOD9340275
Probable space group: P C A 21
;
_chemical_formula_sum "Si O2"
_cell_formula_units_Z 28
_cell_length_a 17.938652
_cell_length_b 11.081112
_cell_length_c 7.045784
_cell_angle_alpha 90.000000
_cell_angle_beta 90.000000
_cell_angle_gamma 90.000000
_cell_volume 1400.562437
_symmetry_space_group_name_H-M "P C A 21"
_symmetry_group_IT_number 29
_symmetry_cell_setting 'orthorhombic'
loop_
_space_group_symop_operation_xyz
x,y,z
-x,-y,1/2+z
1/2-x,y,1/2+z
1/2+x,-y,z
loop_
_atom_site_type_symbol
_atom_site_label
_atom_site_fract_x
_atom_site_fract_y
_atom_site_fract_z
Si Si1 0.848041 0.609077 0.459440
Si Si2 0.080070 0.619504 0.872855
Si Si3 0.076073 0.114005 0.559524
Si Si4 0.925882 0.492694 0.949140
Si Si5 0.996025 0.733539 0.394532
Si Si6 0.947637 0.123287 0.254037
Si Si7 0.815414 0.678225 0.028064
O O1 0.859705 0.465382 0.478089
O O2 0.927025 0.669597 0.505380
O O3 0.841292 0.641498 0.237147
O O4 0.773094 0.667843 0.536330
O O5 0.082110 0.567377 0.656886
O O6 0.090762 0.763268 0.862034
O O7 0.996544 0.582606 0.938158
O O8 0.146761 0.192647 0.488847
O O9 0.019294 0.089556 0.384890
O O10 0.095745 0.996330 0.686289
O O11 0.031600 0.195951 0.711369
O O12 0.853965 0.573388 0.900442
O O13 0.948360 0.373746 0.832457
O O14 0.028841 0.820996 0.551979
#
# Coordination Sequence:
#
# PCOD9340275 Si02
#       7
#     4   4   4   4   4   4   4
#     4   9  20  34  53  80 114 143 184 236 290 346
#     4   9  18  32  52  79 108 142 181 233 289 334
#     4  11  21  35  55  84 110 148 191 232 281 341
#     4   9  17  31  53  79 107 137 179 242 286 327
#     4   9  20  36  54  83 112 139 193 242 279 339
#     4  11  20  34  58  79 112 148 187 235 286 328
#     4  10  20  34  53  82 113 147 189 234 289 343
#
# _framework density 19.991969000000001
#
# number of rings (size 3 to 8) (size 9 to 14) (size 15 to 20)
#    0.000    2.286    2.857    0.857    2.000    1.143 
#    0.000    0.000    0.000   12.000    0.000    0.000 
#    0.000    0.000    0.000    0.000    0.000    0.000 
#
# Total GULP energy -155937.233723 kJ/mol
# GULP energy per Si atom -5569.186919 kJ/mol
# Density = 1.994647 g / cm^3
# Si number density = 19.991969 Si / 1000 Ang^3
#
#
#
# Elastic Constant Matrix: (Units=GPa)
#
#
# Indices 1 2 3 4 5 6 
#
# 1 64.9710 36.4086 -2.0627 0.0000 0.0000 0.0000
# 2 36.4086 139.0893 11.8562 0.0000 0.0000 0.0000
# 3 -2.0627 11.8562 37.7319 0.0000 0.0000 0.0000
# 4 0.0000 0.0000 0.0000 33.1145 0.0000 0.0000
# 5 0.0000 0.0000 0.0000 0.0000 21.0465 0.0000
# 6 0.0000 0.0000 0.0000 0.0000 0.0000 21.4290
#
#
#
# Elastic Compliance Matrix: (Units=1/GPa)
#
#
# Indices 1 2 3 4 5 6 
#
# 1 0.018277 -0.005003 0.002571 0.000000 0.000000 0.000000
# 2 -0.005003 0.008757 -0.003025 0.000000 0.000000 0.000000
# 3 0.002571 -0.003025 0.027594 0.000000 0.000000 0.000000
# 4 0.000000 0.000000 0.000000 0.030198 0.000000 0.000000
# 5 0.000000 0.000000 0.000000 0.000000 0.047514 0.000000
# 6 0.000000 0.000000 0.000000 0.000000 0.000000 0.046666
#
#
# Mechanical properties :
#
#
# Convention : Reuss Voigt Hill
#
# Bulk Modulus (GPa) = 22.87627 37.13292 30.00459
# Shear Modulus (GPa) = 24.45086 28.15733 26.30410
#
# Velocity S-wave (km/s) = 3.50098 3.75698 3.63124
# Velocity P-wave (km/s) = 5.27353 6.11834 5.71158
#
# Compressibility (1/GPa) = 0.04371342
#
# Stress axis : x y z
#
# Youngs Moduli (GPa) = 54.71373 114.19154 36.23987
#
# Poissons Ratio (x) = 0.57135 -0.09318
# Poissons Ratio (y) = 0.27376 0.10963
# Poissons Ratio (z) = -0.14069 0.34545
#
# Static dielectric constant tensor:
#      x y z
#    x 1.836920 0.000000 0.000000 
#    y 0.000000 1.775260 0.000000 
#    z 0.000000 0.000000 1.813390 
# 
# From -- ./inp_files/2142.got.cif
#   From: 2010.05.17/outbox.cif.g08.bks.cpg/sg29_2_cif.got.tgz:2142.got - 2010.06.04 01:19:37.
