data_PCOD9340784
_publ_section_title
;
Structure prediction by ZEFSAII (Michael W. Deem and Ramdas Pophale) SiO2 
 PCOD9340784
Probable space group: P C A 21
;
_chemical_formula_sum "Si O2"
_cell_formula_units_Z 28
_cell_length_a 5.035267
_cell_length_b 17.488777
_cell_length_c 12.961883
_cell_angle_alpha 90.000000
_cell_angle_beta 90.000000
_cell_angle_gamma 90.000000
_cell_volume 1141.431994
_symmetry_space_group_name_H-M "P C A 21"
_symmetry_group_IT_number 29
_symmetry_cell_setting 'orthorhombic'
loop_
_space_group_symop_operation_xyz
x,y,z
-x,-y,1/2+z
1/2-x,y,1/2+z
1/2+x,-y,z
loop_
_atom_site_type_symbol
_atom_site_label
_atom_site_fract_x
_atom_site_fract_y
_atom_site_fract_z
Si Si1 0.909816 0.689239 0.875000
Si Si2 0.477029 0.054617 0.440756
Si Si3 0.606057 0.312113 0.239185
Si Si4 0.603086 0.949314 0.176927
Si Si5 0.674877 0.169662 0.817455
Si Si6 0.131253 0.454547 0.924960
Si Si7 0.415374 0.457246 0.174183
O O1 0.676135 0.703432 0.792697
O O2 0.765569 0.627763 0.948450
O O3 0.167823 0.653245 0.817178
O O4 0.026907 0.773389 0.899306
O O5 0.459412 0.078461 0.561000
O O6 0.589164 0.124531 0.373761
O O7 0.197601 0.012024 0.424548
O O8 0.723773 0.227666 0.227635
O O9 0.548909 0.375038 0.153098
O O10 0.519887 0.887758 0.260585
O O11 0.903685 0.978140 0.188408
O O12 0.841318 0.480781 0.956276
O O13 0.882812 0.524133 0.642844
O O14 0.112864 0.455186 0.799276
#
# Coordination Sequence:
#
# PCOD9340784 Si02
#       7
#     4   4   4   4   4   4   4
#     4   9  18  26  39  68  97 127 163 195 242 292
#     4  10  22  38  56  76  97 129 169 201 242 302
#     4   9  18  26  39  68  97 127 163 195 242 292
#     4  10  22  38  56  76  97 129 169 201 242 302
#     4  10  22  32  54  74 108 128 158 208 256 286
#     4   9  14  22  36  54  91 130 156 197 233 267
#     4   9  14  22  36  54  91 130 156 197 233 267
#
# _framework density 24.530588999999999
#
# number of rings (size 3 to 8) (size 9 to 14) (size 15 to 20)
#    0.857    1.714    0.000    5.143    4.000    0.000 
#    0.000    0.000    0.000    0.000    0.000    0.000 
#    0.000    9.143    0.000    6.286    0.000    0.000 
#
# Total GULP energy -156109.107162 kJ/mol
# GULP energy per Si atom -5575.325256 kJ/mol
# Density = 2.447476 g / cm^3
# Si number density = 24.530589 Si / 1000 Ang^3
#
#
#
# Elastic Constant Matrix: (Units=GPa)
#
#
# Indices 1 2 3 4 5 6 
#
# 1 125.8847 20.4778 9.6401 0.0000 0.0000 0.0000
# 2 20.4778 127.3347 28.2934 0.0000 0.0000 0.0000
# 3 9.6401 28.2934 58.5890 0.0000 0.0000 0.0000
# 4 0.0000 0.0000 0.0000 -9.8403 0.0000 0.0000
# 5 0.0000 0.0000 0.0000 0.0000 30.8868 0.0000
# 6 0.0000 0.0000 0.0000 0.0000 0.0000 37.4387
#
#
#
# Elastic Compliance Matrix: (Units=1/GPa)
#
#
# Indices 1 2 3 4 5 6 
#
# 1 0.008190 -0.001140 -0.000797 0.000000 0.000000 0.000000
# 2 -0.001140 0.008956 -0.004137 0.000000 0.000000 0.000000
# 3 -0.000797 -0.004137 0.019197 0.000000 0.000000 0.000000
# 4 0.000000 0.000000 0.000000 -0.101623 0.000000 0.000000
# 5 0.000000 0.000000 0.000000 0.000000 0.032376 0.000000
# 6 0.000000 0.000000 0.000000 0.000000 0.000000 0.026710
#
#
# Mechanical properties :
#
#
# Convention : Reuss Voigt Hill
#
# Bulk Modulus (GPa) = 41.33178 47.62567 44.47873
# Shear Modulus (GPa) = 356.61632 28.59018 192.60325
#
# Velocity S-wave (km/s) = 12.07028 3.41763 8.87051
# Velocity P-wave (km/s) = 14.53070 5.91866 11.09441
#
# Compressibility (1/GPa) = 0.02419446
#
# Stress axis : x y z
#
# Youngs Moduli (GPa) = 122.09619 111.65738 52.09094
#
# Poissons Ratio (x) = 0.12729 0.04152
# Poissons Ratio (y) = 0.13919 0.21552
# Poissons Ratio (z) = 0.09732 0.46197
#
# Static dielectric constant tensor:
#      x y z
#    x 1.926220 0.000000 0.000000 
#    y 0.000000 2.022710 0.000000 
#    z 0.000000 0.000000 2.095990 
# 
# From -- ./inp_files/4151.got.cif
#   From: 2010.05.17/outbox.cif.g08.bks.cpg/sg29_3_cif.got.tgz:4151.got - 2010.06.04 01:19:37.
