data_PCOD9340697
_publ_section_title
;
Structure prediction by ZEFSAII (Michael W. Deem and Ramdas Pophale) SiO2 
 PCOD9340697
Probable space group: P C A 21
;
_chemical_formula_sum "Si O2"
_cell_formula_units_Z 20
_cell_length_a 8.149902
_cell_length_b 9.453029
_cell_length_c 11.077557
_cell_angle_alpha 90.000000
_cell_angle_beta 90.000000
_cell_angle_gamma 90.000000
_cell_volume 853.428948
_symmetry_space_group_name_H-M "P C A 21"
_symmetry_group_IT_number 29
_symmetry_cell_setting 'orthorhombic'
loop_
_space_group_symop_operation_xyz
x,y,z
-x,-y,1/2+z
1/2-x,y,1/2+z
1/2+x,-y,z
loop_
_atom_site_type_symbol
_atom_site_label
_atom_site_fract_x
_atom_site_fract_y
_atom_site_fract_z
Si Si1 0.169168 0.162706 0.604910
Si Si2 0.123200 0.702470 0.684957
Si Si3 0.537092 0.798442 0.937873
Si Si4 0.009195 0.597523 0.222972
Si Si5 0.540588 0.966832 0.248483
O O1 0.282967 0.160746 0.488072
O O2 0.107005 0.321134 0.627758
O O3 0.291197 0.108825 0.711371
O O4 0.016076 0.059201 0.630328
O O5 0.009370 0.569384 0.716190
O O6 0.306920 0.648509 0.697493
O O7 0.085416 0.837849 0.767875
O O8 0.074652 0.756774 0.551964
O O9 0.543968 0.662115 0.851288
O O10 0.462665 0.924557 0.857942
#
# Coordination Sequence:
#
# PCOD9340697 Si02
#       5
#     4   4   4   4   4
#     4  10  22  42  66  98 133 174 229 276 333 410
#     4  11  24  45  70 103 138 177 232 281 335 414
#     4  10  24  46  70  97 138 183 218 286 351 389
#     4  11  25  46  70 102 137 179 233 283 337 413
#     4  10  21  41  68 100 134 175 226 274 332 410
#
# _framework density 23.434875999999999
#
# number of rings (size 3 to 8) (size 9 to 14) (size 15 to 20)
#    0.000    1.600    0.000    4.800    0.000   12.800 
#    0.000   22.000    0.000    0.000    0.000    0.000 
#    0.000    0.000    0.000    0.000    0.000    0.000 
#
# Total GULP energy -111924.395878 kJ/mol
# GULP energy per Si atom -5596.219794 kJ/mol
# Density = 2.338154 g / cm^3
# Si number density = 23.434876 Si / 1000 Ang^3
#
#
#
# Elastic Constant Matrix: (Units=GPa)
#
#
# Indices 1 2 3 4 5 6 
#
# 1 67.7963 15.9858 3.7552 0.0000 0.0000 0.0000
# 2 15.9858 174.7111 43.4662 0.0000 0.0000 0.0000
# 3 3.7552 43.4662 82.0227 0.0000 0.0000 0.0000
# 4 0.0000 0.0000 0.0000 22.7961 0.0000 0.0000
# 5 0.0000 0.0000 0.0000 0.0000 35.1152 0.0000
# 6 0.0000 0.0000 0.0000 0.0000 0.0000 48.2932
#
#
#
# Elastic Compliance Matrix: (Units=1/GPa)
#
#
# Indices 1 2 3 4 5 6 
#
# 1 0.015075 -0.001391 0.000047 0.000000 0.000000 0.000000
# 2 -0.001391 0.006721 -0.003498 0.000000 0.000000 0.000000
# 3 0.000047 -0.003498 0.014043 0.000000 0.000000 0.000000
# 4 0.000000 0.000000 0.000000 0.043867 0.000000 0.000000
# 5 0.000000 0.000000 0.000000 0.000000 0.028478 0.000000
# 6 0.000000 0.000000 0.000000 0.000000 0.000000 0.020707
#
#
# Mechanical properties :
#
#
# Convention : Reuss Voigt Hill
#
# Bulk Modulus (GPa) = 38.23260 50.10495 44.16878
# Shear Modulus (GPa) = 33.94553 38.66242 36.30398
#
# Velocity S-wave (km/s) = 3.81005 4.06616 3.94019
# Velocity P-wave (km/s) = 5.97538 6.59331 6.29194
#
# Compressibility (1/GPa) = 0.02615569
#
# Stress axis : x y z
#
# Youngs Moduli (GPa) = 66.33294 148.78049 71.20801
#
# Poissons Ratio (x) = 0.20696 -0.00335
# Poissons Ratio (y) = 0.09227 0.24910
# Poissons Ratio (z) = -0.00312 0.52045
#
# Static dielectric constant tensor:
#      x y z
#    x 1.941590 0.000000 0.000000 
#    y 0.000000 1.852470 0.000000 
#    z 0.000000 0.000000 1.915730 
# 
# From -- ./inp_files/2746.got.cif
#   From: 2010.05.17/outbox.cif.g08.bks.cpg/sg29_2_cif.got.tgz:2746.got - 2010.06.04 01:19:37.
