data_PCOD9340483
_publ_section_title
;
Structure prediction by ZEFSAII (Michael W. Deem and Ramdas Pophale) SiO2 
 PCOD9340483
Probable space group: P C A 21
;
_chemical_formula_sum "Si O2"
_cell_formula_units_Z 32
_cell_length_a 11.065812
_cell_length_b 8.896150
_cell_length_c 13.808287
_cell_angle_alpha 90.000000
_cell_angle_beta 90.000000
_cell_angle_gamma 90.000000
_cell_volume 1359.330901
_symmetry_space_group_name_H-M "P C A 21"
_symmetry_group_IT_number 29
_symmetry_cell_setting 'orthorhombic'
loop_
_space_group_symop_operation_xyz
x,y,z
-x,-y,1/2+z
1/2-x,y,1/2+z
1/2+x,-y,z
loop_
_atom_site_type_symbol
_atom_site_label
_atom_site_fract_x
_atom_site_fract_y
_atom_site_fract_z
Si Si1 0.835288 0.283852 0.760200
Si Si2 0.581212 0.786490 0.659320
Si Si3 0.661351 0.586297 0.495539
Si Si4 0.157224 0.530627 0.849641
Si Si5 0.709461 0.963572 0.212082
Si Si6 0.440924 0.016124 0.527919
Si Si7 0.012205 0.683037 0.433692
Si Si8 0.976206 0.808984 0.858401
O O1 0.761382 0.437915 0.770861
O O2 0.952079 0.280532 0.691752
O O3 0.878350 0.254219 0.870101
O O4 0.761127 0.136037 0.735067
O O5 0.656863 0.664952 0.598458
O O6 0.675195 0.861445 0.732355
O O7 0.539450 0.927479 0.592313
O O8 0.775970 0.496032 0.453612
O O9 0.555459 0.462774 0.491492
O O10 0.626864 0.719544 0.420248
O O11 0.077139 0.382316 0.851419
O O12 0.068219 0.672112 0.835728
O O13 0.674178 0.972128 0.098401
O O14 0.594348 0.899204 0.273522
O O15 0.466271 0.186948 0.500552
O O16 0.448430 0.921557 0.428179
#
# Coordination Sequence:
#
# PCOD9340483 Si02
#       8
#     4   4   4   4   4   4   4   4
#     4  10  23  40  65 100 136 176 230 285 346 421
#     4  10  23  43  65 102 142 181 235 291 350 431
#     4   9  21  43  64  96 133 180 230 285 355 415
#     4  10  22  41  71  97 132 185 234 283 360 422
#     4  11  23  40  68 103 138 181 236 288 352 416
#     4  10  22  42  67 102 132 180 237 294 345 414
#     4  10  20  42  66  94 134 175 227 289 353 417
#     4  10  22  43  70  98 139 182 231 299 351 416
#
# _framework density 23.540991999999999
#
# number of rings (size 3 to 8) (size 9 to 14) (size 15 to 20)
#    0.000    2.000    1.250    0.750    5.250    2.000 
#    6.750    5.000    0.000    0.000    0.000    0.000 
#    0.000    0.000    0.000    0.000    0.000    0.000 
#
# Total GULP energy -178405.333238 kJ/mol
# GULP energy per Si atom -5575.166664 kJ/mol
# Density = 2.348741 g / cm^3
# Si number density = 23.540992 Si / 1000 Ang^3
#
#
#
# Elastic Constant Matrix: (Units=GPa)
#
#
# Indices 1 2 3 4 5 6 
#
# 1 68.9311 20.3910 13.0891 0.0000 0.0000 0.0000
# 2 20.3910 95.5130 27.9457 0.0000 0.0000 0.0000
# 3 13.0891 27.9457 41.9033 0.0000 0.0000 0.0000
# 4 0.0000 0.0000 0.0000 44.1594 0.0000 0.0000
# 5 0.0000 0.0000 0.0000 0.0000 20.1117 0.0000
# 6 0.0000 0.0000 0.0000 0.0000 0.0000 178.4281
#
#
#
# Elastic Compliance Matrix: (Units=1/GPa)
#
#
# Indices 1 2 3 4 5 6 
#
# 1 0.015855 -0.002405 -0.003348 0.000000 0.000000 0.000000
# 2 -0.002405 0.013373 -0.008167 0.000000 0.000000 0.000000
# 3 -0.003348 -0.008167 0.030357 0.000000 0.000000 0.000000
# 4 0.000000 0.000000 0.000000 0.022645 0.000000 0.000000
# 5 0.000000 0.000000 0.000000 0.000000 0.049722 0.000000
# 6 0.000000 0.000000 0.000000 0.000000 0.000000 0.005604
#
#
# Mechanical properties :
#
#
# Convention : Reuss Voigt Hill
#
# Bulk Modulus (GPa) = 31.50290 36.57767 34.04029
# Shear Modulus (GPa) = 28.41249 58.20128 43.30689
#
# Velocity S-wave (km/s) = 3.47787 4.97766 4.29375
# Velocity P-wave (km/s) = 5.43494 6.97192 6.25085
#
# Compressibility (1/GPa) = 0.03174311
#
# Stress axis : x y z
#
# Youngs Moduli (GPa) = 63.07341 74.77848 32.94117
#
# Poissons Ratio (x) = 0.17985 0.11030
# Poissons Ratio (y) = 0.15170 0.26904
# Poissons Ratio (z) = 0.21120 0.61073
#
# Static dielectric constant tensor:
#      x y z
#    x 1.968440 0.000000 0.000000 
#    y 0.000000 1.912100 0.000000 
#    z 0.000000 0.000000 1.938200 
# 
# From -- ./inp_files/4594.got.cif
#   From: 2010.05.17/outbox.cif.g08.bks.cpg/sg29_3_cif.got.tgz:4594.got - 2010.06.04 01:19:37.
