data_PCOD9340315
_publ_section_title
;
Structure prediction by ZEFSAII (Michael W. Deem and Ramdas Pophale) SiO2 
 PCOD9340315
Probable space group: P C A 21
;
_chemical_formula_sum "Si O2"
_cell_formula_units_Z 32
_cell_length_a 14.181850
_cell_length_b 8.054921
_cell_length_c 13.418549
_cell_angle_alpha 90.000000
_cell_angle_beta 90.000000
_cell_angle_gamma 90.000000
_cell_volume 1532.850251
_symmetry_space_group_name_H-M "P C A 21"
_symmetry_group_IT_number 29
_symmetry_cell_setting 'orthorhombic'
loop_
_space_group_symop_operation_xyz
x,y,z
-x,-y,1/2+z
1/2-x,y,1/2+z
1/2+x,-y,z
loop_
_atom_site_type_symbol
_atom_site_label
_atom_site_fract_x
_atom_site_fract_y
_atom_site_fract_z
Si Si1 0.421758 0.953320 0.443130
Si Si2 0.997008 0.429288 0.959706
Si Si3 0.837254 0.260176 0.833287
Si Si4 0.578177 0.763959 0.559019
Si Si5 0.717435 0.020222 0.512466
Si Si6 0.937643 0.218092 0.135935
Si Si7 0.496188 0.104219 0.247220
Si Si8 0.367595 0.617676 0.323192
O O1 0.508791 0.903451 0.511890
O O2 0.329971 0.988094 0.509168
O O3 0.395672 0.787545 0.380788
O O4 0.454859 0.084438 0.358996
O O5 0.958417 0.593078 0.015710
O O6 0.999339 0.289689 0.045455
O O7 0.913583 0.376322 0.886149
O O8 0.088372 0.476256 0.894042
O O9 0.897956 0.174838 0.746628
O O10 0.744775 0.366842 0.811177
O O11 0.810175 0.110580 0.908673
O O12 0.567233 0.779355 0.677400
O O13 0.678384 0.833883 0.524566
O O14 0.660014 0.133424 0.593661
O O15 0.912009 0.363937 0.213644
O O16 0.990312 0.077826 0.199335
#
# Coordination Sequence:
#
# PCOD9340315 Si02
#       8
#     4   4   4   4   4   4   4   4
#     4   9  18  36  60  86 120 161 209 264 318 358
#     4  10  22  40  58  86 132 169 200 265 329 385
#     4  10  20  38  62  86 119 168 211 256 322 375
#     4  10  20  36  56  89 124 160 209 259 319 382
#     4   9  18  36  59  83 121 163 210 262 301 375
#     4   9  20  38  61  93 124 166 218 258 311 395
#     4  10  20  36  63  91 117 161 219 268 310 374
#     4   9  20  38  63  86 123 168 208 254 322 388
#
# _framework density 20.876142999999999
#
# number of rings (size 3 to 8) (size 9 to 14) (size 15 to 20)
#    0.000    2.500    1.250    0.000    3.500    0.000 
#    2.250    0.000    0.000    1.500    0.000    0.000 
#    0.000    0.000    0.000    0.000    0.000    0.000 
#
# Total GULP energy -178429.531646 kJ/mol
# GULP energy per Si atom -5575.922864 kJ/mol
# Density = 2.082863 g / cm^3
# Si number density = 20.876143 Si / 1000 Ang^3
#
#
#
# Elastic Constant Matrix: (Units=GPa)
#
#
# Indices 1 2 3 4 5 6 
#
# 1 109.4990 27.0106 44.2352 0.0000 0.0000 0.0000
# 2 27.0106 79.6569 30.7997 0.0000 0.0000 0.0000
# 3 44.2352 30.7997 96.0530 0.0000 0.0000 0.0000
# 4 0.0000 0.0000 0.0000 32.1558 0.0000 0.0000
# 5 0.0000 0.0000 0.0000 0.0000 20.7807 0.0000
# 6 0.0000 0.0000 0.0000 0.0000 0.0000 29.1861
#
#
#
# Elastic Compliance Matrix: (Units=1/GPa)
#
#
# Indices 1 2 3 4 5 6 
#
# 1 0.011525 -0.002118 -0.004628 0.000000 0.000000 0.000000
# 2 -0.002118 0.014720 -0.003744 0.000000 0.000000 0.000000
# 3 -0.004628 -0.003744 0.013743 0.000000 0.000000 0.000000
# 4 0.000000 0.000000 0.000000 0.031099 0.000000 0.000000
# 5 0.000000 0.000000 0.000000 0.000000 0.048122 0.000000
# 6 0.000000 0.000000 0.000000 0.000000 0.000000 0.034263
#
#
# Mechanical properties :
#
#
# Convention : Reuss Voigt Hill
#
# Bulk Modulus (GPa) = 52.61585 54.36665 53.49125
# Shear Modulus (GPa) = 27.65671 28.63542 28.14606
#
# Velocity S-wave (km/s) = 3.64373 3.70764 3.67582
# Velocity P-wave (km/s) = 6.55445 6.66542 6.61017
#
# Compressibility (1/GPa) = 0.01900568
#
# Stress axis : x y z
#
# Youngs Moduli (GPa) = 86.76981 67.93504 72.76427
#
# Poissons Ratio (x) = 0.14391 0.33677
# Poissons Ratio (y) = 0.18381 0.27246
# Poissons Ratio (z) = 0.40159 0.25438
#
# Static dielectric constant tensor:
#      x y z
#    x 1.740210 0.000000 0.000000 
#    y 0.000000 1.791680 0.000000 
#    z 0.000000 0.000000 1.781320 
# 
# From -- ./inp_files/4551.got.cif
#   From: 2010.05.17/outbox.cif.g08.bks.cpg/sg29_3_cif.got.tgz:4551.got - 2010.06.04 01:19:37.
