data_PCOD9340624
_publ_section_title
;
Structure prediction by ZEFSAII (Michael W. Deem and Ramdas Pophale) SiO2 
 PCOD9340624
Probable space group: P C A 21
;
_chemical_formula_sum "Si O2"
_cell_formula_units_Z 32
_cell_length_a 15.674226
_cell_length_b 11.298326
_cell_length_c 7.905201
_cell_angle_alpha 90.000000
_cell_angle_beta 90.000000
_cell_angle_gamma 90.000000
_cell_volume 1399.951928
_symmetry_space_group_name_H-M "P C A 21"
_symmetry_group_IT_number 29
_symmetry_cell_setting 'orthorhombic'
loop_
_space_group_symop_operation_xyz
x,y,z
-x,-y,1/2+z
1/2-x,y,1/2+z
1/2+x,-y,z
loop_
_atom_site_type_symbol
_atom_site_label
_atom_site_fract_x
_atom_site_fract_y
_atom_site_fract_z
Si Si1 0.933805 0.331837 0.007850
Si Si2 0.021580 0.759056 0.024299
Si Si3 0.616276 0.583494 0.390328
Si Si4 0.360834 0.958720 0.500893
Si Si5 0.799371 0.161027 0.840424
Si Si6 0.087754 0.212245 0.868455
Si Si7 0.159345 0.636320 0.852651
Si Si8 0.719123 0.609294 0.738515
O O1 0.906003 0.361051 0.196833
O O2 0.920130 0.450237 0.895477
O O3 0.872585 0.223435 0.950959
O O4 0.030363 0.292440 0.989637
O O5 0.061577 0.874803 0.936611
O O6 0.108105 0.677062 0.020444
O O7 0.953980 0.682693 0.921257
O O8 0.973199 0.792193 0.198865
O O9 0.675644 0.592119 0.557806
O O10 0.679328 0.611873 0.237858
O O11 0.268482 0.929941 0.420766
O O12 0.345625 0.909993 0.690613
O O13 0.389797 0.089653 0.457827
O O14 0.735318 0.272290 0.805981
O O15 0.175053 0.275485 0.815775
O O16 0.195033 0.505413 0.850411
#
# Coordination Sequence:
#
# PCOD9340624 Si02
#       8
#     4   4   4   4   4   4   4   4
#     4  11  21  40  67  98 132 174 231 281 361 421
#     4  10  23  43  65  96 135 178 231 286 346 416
#     4  10  22  39  66 100 136 181 223 293 359 422
#     4  11  25  43  67  96 136 188 235 287 338 417
#     4  11  21  42  67  95 128 174 235 287 341 417
#     4  11  25  43  62  98 138 186 229 288 352 409
#     4  10  21  39  69 102 127 173 230 289 357 415
#     4  10  22  39  63  99 142 174 228 293 358 415
#
# _framework density 22.857928000000001
#
# number of rings (size 3 to 8) (size 9 to 14) (size 15 to 20)
#    0.000    1.500    3.750    0.750    0.000    6.000 
#    2.250    0.000    0.000    0.000    0.000    0.000 
#    0.000    0.000    0.000    0.000    0.000    0.000 
#
# Total GULP energy -178709.173903 kJ/mol
# GULP energy per Si atom -5584.661684 kJ/mol
# Density = 2.280590 g / cm^3
# Si number density = 22.857928 Si / 1000 Ang^3
#
#
#
# Elastic Constant Matrix: (Units=GPa)
#
#
# Indices 1 2 3 4 5 6 
#
# 1 113.5966 66.7555 34.2122 0.0000 0.0000 0.0000
# 2 66.7555 107.2846 37.0111 0.0000 0.0000 0.0000
# 3 34.2122 37.0111 60.5524 0.0000 0.0000 0.0000
# 4 0.0000 0.0000 0.0000 23.0647 0.0000 0.0000
# 5 0.0000 0.0000 0.0000 0.0000 33.3963 0.0000
# 6 0.0000 0.0000 0.0000 0.0000 0.0000 32.0477
#
#
#
# Elastic Compliance Matrix: (Units=1/GPa)
#
#
# Indices 1 2 3 4 5 6 
#
# 1 0.014400 -0.007798 -0.003370 0.000000 0.000000 0.000000
# 2 -0.007798 0.016034 -0.005395 0.000000 0.000000 0.000000
# 3 -0.003370 -0.005395 0.021716 0.000000 0.000000 0.000000
# 4 0.000000 0.000000 0.000000 0.043356 0.000000 0.000000
# 5 0.000000 0.000000 0.000000 0.000000 0.029943 0.000000
# 6 0.000000 0.000000 0.000000 0.000000 0.000000 0.031203
#
#
# Mechanical properties :
#
#
# Convention : Reuss Voigt Hill
#
# Bulk Modulus (GPa) = 52.56089 61.93237 57.24663
# Shear Modulus (GPa) = 25.49452 27.26540 26.37996
#
# Velocity S-wave (km/s) = 3.34330 3.45747 3.40087
# Velocity P-wave (km/s) = 6.16020 6.56446 6.36554
#
# Compressibility (1/GPa) = 0.01902555
#
# Stress axis : x y z
#
# Youngs Moduli (GPa) = 69.44231 62.36729 46.04881
#
# Poissons Ratio (x) = 0.48632 0.15519
# Poissons Ratio (y) = 0.54149 0.24842
# Poissons Ratio (z) = 0.23403 0.33645
#
# Static dielectric constant tensor:
#      x y z
#    x 1.860200 0.000000 0.000000 
#    y 0.000000 1.817650 0.000000 
#    z 0.000000 0.000000 1.948930 
# 
# From -- ./inp_files/1892.got.cif
#   From: 2010.05.17/outbox.cif.g08.bks.cpg/sg29_1_cif.got.tgz:1892.got - 2010.06.04 01:19:37.
