data_PCOD9340142
_publ_section_title
;
Structure prediction by ZEFSAII (Michael W. Deem and Ramdas Pophale) SiO2 
 PCOD9340142
Probable space group: P C A 21
;
_chemical_formula_sum "Si O2"
_cell_formula_units_Z 32
_cell_length_a 18.006557
_cell_length_b 9.864437
_cell_length_c 8.537940
_cell_angle_alpha 90.000000
_cell_angle_beta 90.000000
_cell_angle_gamma 90.000000
_cell_volume 1516.547726
_symmetry_space_group_name_H-M "P C A 21"
_symmetry_group_IT_number 29
_symmetry_cell_setting 'orthorhombic'
loop_
_space_group_symop_operation_xyz
x,y,z
-x,-y,1/2+z
1/2-x,y,1/2+z
1/2+x,-y,z
loop_
_atom_site_type_symbol
_atom_site_label
_atom_site_fract_x
_atom_site_fract_y
_atom_site_fract_z
Si Si1 0.531456 0.504003 0.494340
Si Si2 0.381389 0.136247 0.395214
Si Si3 0.906285 0.957794 0.746540
Si Si4 0.896699 0.423927 0.323471
Si Si5 0.148797 0.285328 0.415989
Si Si6 0.077530 0.874128 0.734595
Si Si7 0.448067 0.781016 0.881691
Si Si8 0.218377 0.361243 0.746677
O O1 0.554622 0.469272 0.671076
O O2 0.443868 0.519315 0.468608
O O3 0.569829 0.642558 0.439942
O O4 0.563614 0.378999 0.392217
O O5 0.381786 0.090062 0.575227
O O6 0.463095 0.199751 0.362830
O O7 0.319989 0.245405 0.352828
O O8 0.375535 0.003853 0.286168
O O9 0.860734 0.872182 0.874644
O O10 0.991954 0.911888 0.773456
O O11 0.907095 0.120217 0.760940
O O12 0.895806 0.261985 0.320403
O O13 0.818463 0.497279 0.298638
O O14 0.193276 0.323206 0.572437
O O15 0.194541 0.353144 0.275112
O O16 0.075483 0.841915 0.550359
#
# Coordination Sequence:
#
# PCOD9340142 Si02
#       8
#     4   4   4   4   4   4   4   4
#     4  10  20  35  57  84 112 146 187 235 285 334
#     4  10  19  33  55  82 111 145 185 228 277 331
#     4  10  19  33  55  82 111 145 185 228 277 331
#     4  10  20  35  57  84 112 146 187 235 285 334
#     4  11  23  38  57  81 113 151 189 230 283 341
#     4   9  18  33  54  82 114 143 179 230 281 329
#     4   9  18  33  54  82 114 143 179 230 281 329
#     4  11  23  38  57  81 113 151 189 230 283 341
#
# _framework density 21.100553999999999
#
# number of rings (size 3 to 8) (size 9 to 14) (size 15 to 20)
#    0.000    2.000    2.500    1.500    0.000    3.000 
#    0.000    1.250    0.000    3.000    0.000    0.000 
#    0.000    0.000    0.000    0.000    0.000    0.000 
#
# Total GULP energy -178690.246860 kJ/mol
# GULP energy per Si atom -5584.070214 kJ/mol
# Density = 2.105253 g / cm^3
# Si number density = 21.100554 Si / 1000 Ang^3
#
#
#
# Elastic Constant Matrix: (Units=GPa)
#
#
# Indices 1 2 3 4 5 6 
#
# 1 8.8634 -12.9955 7.6603 0.0000 0.0000 0.0000
# 2 -12.9955 65.5418 3.1249 0.0000 0.0000 0.0000
# 3 7.6603 3.1249 15.7780 0.0000 0.0000 0.0000
# 4 0.0000 0.0000 0.0000 23.0835 0.0000 0.0000
# 5 0.0000 0.0000 0.0000 0.0000 20.0195 0.0000
# 6 0.0000 0.0000 0.0000 0.0000 0.0000 21.0455
#
#
#
# Elastic Compliance Matrix: (Units=1/GPa)
#
#
# Indices 1 2 3 4 5 6 
#
# 1 0.526252 0.117637 -0.278795 0.000000 0.000000 0.000000
# 2 0.117637 0.041699 -0.065372 0.000000 0.000000 0.000000
# 3 -0.278795 -0.065372 0.211683 0.000000 0.000000 0.000000
# 4 0.000000 0.000000 0.000000 0.043321 0.000000 0.000000
# 5 0.000000 0.000000 0.000000 0.000000 0.049951 0.000000
# 6 0.000000 0.000000 0.000000 0.000000 0.000000 0.047516
#
#
# Mechanical properties :
#
#
# Convention : Reuss Voigt Hill
#
# Bulk Modulus (GPa) = 3.06211 9.52917 6.29564
# Shear Modulus (GPa) = 3.37304 18.98925 11.18115
#
# Velocity S-wave (km/s) = 1.26571 3.00316 2.30445
# Velocity P-wave (km/s) = 1.89483 4.06831 3.17345
#
# Compressibility (1/GPa) = 0.32657264
#
# Stress axis : x y z
#
# Youngs Moduli (GPa) = 1.90023 23.98139 4.72405
#
# Poissons Ratio (x) = -2.82109 1.31704
# Poissons Ratio (y) = -0.22354 0.30882
# Poissons Ratio (z) = 0.52978 1.56770
#
# Static dielectric constant tensor:
#      x y z
#    x 1.751500 0.000000 0.000000 
#    y 0.000000 1.766740 0.000000 
#    z 0.000000 0.000000 1.789980 
# 
# From -- ./inp_files/2288.got.cif
#   From: 2010.05.17/outbox.cif.g08.bks.cpg/sg29_2_cif.got.tgz:2288.got - 2010.06.04 01:19:37.
