data_PCOD9340835
_publ_section_title
;
Structure prediction by ZEFSAII (Michael W. Deem and Ramdas Pophale) SiO2 
 PCOD9340835
Probable space group: P C A 21
;
_chemical_formula_sum "Si O2"
_cell_formula_units_Z 28
_cell_length_a 8.878451
_cell_length_b 14.303129
_cell_length_c 8.981004
_cell_angle_alpha 90.000000
_cell_angle_beta 90.000000
_cell_angle_gamma 90.000000
_cell_volume 1140.494375
_symmetry_space_group_name_H-M "P C A 21"
_symmetry_group_IT_number 29
_symmetry_cell_setting 'orthorhombic'
loop_
_space_group_symop_operation_xyz
x,y,z
-x,-y,1/2+z
1/2-x,y,1/2+z
1/2+x,-y,z
loop_
_atom_site_type_symbol
_atom_site_label
_atom_site_fract_x
_atom_site_fract_y
_atom_site_fract_z
Si Si1 0.526344 0.565415 0.473450
Si Si2 0.193787 0.986201 0.156830
Si Si3 0.748969 0.297382 0.026186
Si Si4 0.086029 0.080017 0.454241
Si Si5 0.738380 0.626961 0.202002
Si Si6 0.445343 0.359462 0.436993
Si Si7 0.130794 0.815458 0.788109
O O1 0.406425 0.645748 0.519176
O O2 0.621497 0.585864 0.323072
O O3 0.649768 0.559045 0.606593
O O4 0.430742 0.471818 0.448761
O O5 0.318069 0.907237 0.198805
O O6 0.060339 0.951134 0.049098
O O7 0.126787 0.012257 0.317494
O O8 0.277536 0.071132 0.070856
O O9 0.823097 0.271192 0.183503
O O10 0.730585 0.202444 0.933736
O O11 0.878133 0.350525 0.938049
O O12 0.034093 0.172245 0.361708
O O13 0.860512 0.683091 0.297288
O O14 0.639721 0.679757 0.080691
#
# Coordination Sequence:
#
# PCOD9340835 Si02
#       7
#     4   4   4   4   4   4   4
#     4  11  23  42  68  98 131 186 242 288 356 429
#     4  12  23  45  79 105 147 186 243 282 347 440
#     4  12  25  44  70 101 142 192 232 306 366 422
#     4  12  23  45  75 110 142 194 238 289 343 443
#     4  10  22  39  62  89 129 163 229 301 331 409
#     4  11  23  42  68  96 131 183 241 289 357 431
#     4  12  25  43  70 107 146 176 235 291 360 418
#
# _framework density 24.550756
#
# number of rings (size 3 to 8) (size 9 to 14) (size 15 to 20)
#    0.000    0.571    4.286    4.286    0.000    2.286 
#    0.000    5.714    0.000    0.000    0.000    0.000 
#    0.000    0.000    0.000    0.000    0.000    0.000 
#
# Total GULP energy -156227.405968 kJ/mol
# GULP energy per Si atom -5579.550213 kJ/mol
# Density = 2.449488 g / cm^3
# Si number density = 24.550756 Si / 1000 Ang^3
#
#
#
# Elastic Constant Matrix: (Units=GPa)
#
#
# Indices 1 2 3 4 5 6 
#
# 1 117.9830 12.8399 37.3130 0.0000 0.0000 0.0000
# 2 12.8399 43.9465 6.7624 0.0000 0.0000 0.0000
# 3 37.3130 6.7624 118.5035 0.0000 0.0000 0.0000
# 4 0.0000 0.0000 0.0000 14.8772 0.0000 0.0000
# 5 0.0000 0.0000 0.0000 0.0000 44.4343 0.0000
# 6 0.0000 0.0000 0.0000 0.0000 0.0000 20.8417
#
#
#
# Elastic Compliance Matrix: (Units=1/GPa)
#
#
# Indices 1 2 3 4 5 6 
#
# 1 0.009652 -0.002373 -0.002904 0.000000 0.000000 0.000000
# 2 -0.002373 0.023540 -0.000596 0.000000 0.000000 0.000000
# 3 -0.002904 -0.000596 0.009387 0.000000 0.000000 0.000000
# 4 0.000000 0.000000 0.000000 0.067217 0.000000 0.000000
# 5 0.000000 0.000000 0.000000 0.000000 0.022505 0.000000
# 6 0.000000 0.000000 0.000000 0.000000 0.000000 0.047981
#
#
# Mechanical properties :
#
#
# Convention : Reuss Voigt Hill
#
# Bulk Modulus (GPa) = 32.43272 43.80706 38.11989
# Shear Modulus (GPa) = 24.71499 30.93182 27.82340
#
# Velocity S-wave (km/s) = 3.17628 3.55338 3.37011
# Velocity P-wave (km/s) = 5.16632 5.89216 5.54113
#
# Compressibility (1/GPa) = 0.03083306
#
# Stress axis : x y z
#
# Youngs Moduli (GPa) = 103.60084 42.48079 106.53148
#
# Poissons Ratio (x) = 0.10082 0.30935
# Poissons Ratio (y) = 0.24588 0.06349
# Poissons Ratio (z) = 0.30084 0.02532
#
# Static dielectric constant tensor:
#      x y z
#    x 1.945850 0.000000 0.000000 
#    y 0.000000 2.010820 0.000000 
#    z 0.000000 0.000000 1.988380 
# 
# From -- ./inp_files/1237.got.cif
#   From: 2010.05.17/outbox.cif.g08.bks.cpg/sg29_1_cif.got.tgz:1237.got - 2010.06.04 01:19:37.
