data_PCOD9340736
_publ_section_title
;
Structure prediction by ZEFSAII (Michael W. Deem and Ramdas Pophale) SiO2 
 PCOD9340736
Probable space group: P C A 21
;
_chemical_formula_sum "Si O2"
_cell_formula_units_Z 32
_cell_length_a 19.386306
_cell_length_b 5.357701
_cell_length_c 14.801272
_cell_angle_alpha 90.000000
_cell_angle_beta 90.000000
_cell_angle_gamma 90.000000
_cell_volume 1537.349377
_symmetry_space_group_name_H-M "P C A 21"
_symmetry_group_IT_number 29
_symmetry_cell_setting 'orthorhombic'
loop_
_space_group_symop_operation_xyz
x,y,z
-x,-y,1/2+z
1/2-x,y,1/2+z
1/2+x,-y,z
loop_
_atom_site_type_symbol
_atom_site_label
_atom_site_fract_x
_atom_site_fract_y
_atom_site_fract_z
Si Si1 0.700961 0.634556 0.315330
Si Si2 0.701037 0.152390 0.431638
Si Si3 0.441738 0.592759 0.266677
Si Si4 0.962361 0.168889 0.587203
Si Si5 0.610504 0.050129 0.603738
Si Si6 0.075020 0.324861 0.193192
Si Si7 0.157071 0.216669 0.760222
Si Si8 0.140622 0.832632 0.921713
O O1 0.681524 0.385144 0.368538
O O2 0.651344 0.657929 0.230016
O O3 0.779085 0.604137 0.279194
O O4 0.696978 0.886799 0.377211
O O5 0.781641 0.208467 0.457302
O O6 0.650073 0.150279 0.516600
O O7 0.521679 0.641630 0.276519
O O8 0.420653 0.313008 0.244760
O O9 0.397004 0.634837 0.356184
O O10 0.416626 0.750288 0.179068
O O11 0.946102 0.446640 0.626144
O O12 0.914267 0.125759 0.500078
O O13 0.043603 0.109464 0.571386
O O14 0.938130 0.948851 0.654139
O O15 0.668803 0.912123 0.664009
O O16 0.151452 0.050902 0.848888
#
# Coordination Sequence:
#
# PCOD9340736 Si02
#       8
#     4   4   4   4   4   4   4   4
#     4  11  25  43  65  97 132 168 218 269 328 386
#     4  11  25  42  65 100 128 166 224 264 322 388
#     4  10  21  43  68  88 132 173 213 254 336 385
#     4  11  25  42  65  99 129 166 224 263 323 388
#     4  10  24  41  65  97 128 172 214 271 319 391
#     4  11  25  43  65  97 131 169 217 270 325 387
#     4  10  21  43  66  88 132 175 210 259 334 391
#     4  10  24  41  65  96 128 171 214 268 321 390
#
# _framework density 20.815047
#
# number of rings (size 3 to 8) (size 9 to 14) (size 15 to 20)
#    0.000    1.500    2.500    0.750    7.000    2.000 
#    0.000    0.000    0.000    0.000    0.000    0.000 
#    0.000    0.000    0.000    0.000    0.000    0.000 
#
# Total GULP energy -178204.971106 kJ/mol
# GULP energy per Si atom -5568.905347 kJ/mol
# Density = 2.076767 g / cm^3
# Si number density = 20.815047 Si / 1000 Ang^3
#
#
#
# Elastic Constant Matrix: (Units=GPa)
#
#
# Indices 1 2 3 4 5 6 
#
# 1 86.2724 -10.6378 30.1849 0.0000 0.0000 0.0000
# 2 -10.6378 57.4305 -0.1388 0.0000 0.0000 0.0000
# 3 30.1849 -0.1388 49.0788 0.0000 0.0000 0.0000
# 4 0.0000 0.0000 0.0000 -21.0539 0.0000 0.0000
# 5 0.0000 0.0000 0.0000 0.0000 14.9346 0.0000
# 6 0.0000 0.0000 0.0000 0.0000 0.0000 13.9747
#
#
#
# Elastic Compliance Matrix: (Units=1/GPa)
#
#
# Indices 1 2 3 4 5 6 
#
# 1 0.015205 0.002794 -0.009343 0.000000 0.000000 0.000000
# 2 0.002794 0.017926 -0.001668 0.000000 0.000000 0.000000
# 3 -0.009343 -0.001668 0.026117 0.000000 0.000000 0.000000
# 4 0.000000 0.000000 0.000000 -0.047497 0.000000 0.000000
# 5 0.000000 0.000000 0.000000 0.000000 0.066959 0.000000
# 6 0.000000 0.000000 0.000000 0.000000 0.000000 0.071558
#
#
# Mechanical properties :
#
#
# Convention : Reuss Voigt Hill
#
# Bulk Modulus (GPa) = 23.35726 25.73314 24.54520
# Shear Modulus (GPa) = 27.62847 13.12931 20.37889
#
# Velocity S-wave (km/s) = 3.64721 2.51422 3.13237
# Velocity P-wave (km/s) = 5.38348 4.56267 4.98998
#
# Compressibility (1/GPa) = 0.04281324
#
# Stress axis : x y z
#
# Youngs Moduli (GPa) = 65.76885 55.78550 38.28895
#
# Poissons Ratio (x) = -0.15585 0.35775
# Poissons Ratio (y) = -0.18374 0.06385
# Poissons Ratio (z) = 0.61451 0.09303
#
# Static dielectric constant tensor:
#      x y z
#    x 1.748750 0.000000 0.000000 
#    y 0.000000 1.847960 0.000000 
#    z 0.000000 0.000000 1.747730 
# 
# From -- ./inp_files/3830.got.cif
#   From: 2010.05.17/outbox.cif.g08.bks.cpg/sg29_2_cif.got.tgz:3830.got - 2010.06.04 01:19:37.
