data_PCOD9340338
_publ_section_title
;
Structure prediction by ZEFSAII (Michael W. Deem and Ramdas Pophale) SiO2 
 PCOD9340338
Probable space group: P C A 21
;
_chemical_formula_sum "Si O2"
_cell_formula_units_Z 32
_cell_length_a 20.261882
_cell_length_b 5.165200
_cell_length_c 13.888924
_cell_angle_alpha 90.000000
_cell_angle_beta 90.000000
_cell_angle_gamma 90.000000
_cell_volume 1453.568576
_symmetry_space_group_name_H-M "P C A 21"
_symmetry_group_IT_number 29
_symmetry_cell_setting 'orthorhombic'
loop_
_space_group_symop_operation_xyz
x,y,z
-x,-y,1/2+z
1/2-x,y,1/2+z
1/2+x,-y,z
loop_
_atom_site_type_symbol
_atom_site_label
_atom_site_fract_x
_atom_site_fract_y
_atom_site_fract_z
Si Si1 0.829542 0.007894 0.836640
Si Si2 0.540574 0.761982 0.802398
Si Si3 0.751630 0.857385 0.170334
Si Si4 0.751632 0.642612 0.982372
Si Si5 0.459430 0.261981 0.850315
Si Si6 0.329539 0.507896 0.316067
Si Si7 0.388187 0.905205 0.164592
Si Si8 0.888188 0.405203 0.988116
O O1 0.788271 0.052362 0.739633
O O2 0.780354 0.865170 0.911460
O O3 0.888786 0.815170 0.805525
O O4 0.866675 0.234094 0.894954
O O5 0.503601 0.004253 0.850957
O O6 0.563383 0.869779 0.698926
O O7 0.496403 0.504253 0.801757
O O8 0.611218 0.684834 0.847184
O O9 0.780351 0.634825 0.241247
O O10 0.817811 0.989020 0.130339
O O11 0.714977 0.750000 0.076352
O O12 0.711732 0.447631 0.913074
O O13 0.817812 0.510977 0.022370
O O14 0.436617 0.369779 0.953785
O O15 0.366674 0.734092 0.257754
O O16 0.417998 0.750004 0.076354
#
# Coordination Sequence:
#
# PCOD9340338 Si02
#       8
#     4   4   4   4   4   4   4   4
#     4  10  21  38  64  94 130 174 211 277 332 394
#     4  11  23  43  66  89 128 172 226 278 326 387
#     4  10  20  36  62  98 133 167 213 269 340 406
#     4  10  20  36  62  98 133 167 213 269 340 406
#     4  11  23  43  66  89 128 172 226 278 326 387
#     4  10  21  38  64  94 130 174 211 277 332 394
#     4  11  21  38  68  97 129 173 227 275 338 408
#     4  11  21  38  68  97 129 173 227 275 338 408
#
# _framework density 22.014783999999999
#
# number of rings (size 3 to 8) (size 9 to 14) (size 15 to 20)
#    0.000    1.500    5.000    0.750    0.000    0.000 
#    0.000    1.250    5.500    0.000    0.000    0.000 
#    0.000    0.000    0.000    0.000    0.000    0.000 
#
# Total GULP energy -178499.921795 kJ/mol
# GULP energy per Si atom -5578.122556 kJ/mol
# Density = 2.196468 g / cm^3
# Si number density = 22.014784 Si / 1000 Ang^3
#
#
#
# Elastic Constant Matrix: (Units=GPa)
#
#
# Indices 1 2 3 4 5 6 
#
# 1 70.3749 32.3350 33.0444 0.0000 0.0000 0.0000
# 2 32.3350 100.5626 19.7889 0.0000 0.0000 0.0000
# 3 33.0444 19.7889 82.9500 0.0000 0.0000 0.0000
# 4 0.0000 0.0000 0.0000 37.6655 0.0000 0.0000
# 5 0.0000 0.0000 0.0000 0.0000 9.7968 0.0000
# 6 0.0000 0.0000 0.0000 0.0000 0.0000 33.8000
#
#
#
# Elastic Compliance Matrix: (Units=1/GPa)
#
#
# Indices 1 2 3 4 5 6 
#
# 1 0.019618 -0.005005 -0.006621 0.000000 0.000000 0.000000
# 2 -0.005005 0.011711 -0.000800 0.000000 0.000000 0.000000
# 3 -0.006621 -0.000800 0.014884 0.000000 0.000000 0.000000
# 4 0.000000 0.000000 0.000000 0.026550 0.000000 0.000000
# 5 0.000000 0.000000 0.000000 0.000000 0.102074 0.000000
# 6 0.000000 0.000000 0.000000 0.000000 0.000000 0.029586
#
#
# Mechanical properties :
#
#
# Convention : Reuss Voigt Hill
#
# Bulk Modulus (GPa) = 46.81527 47.13600 46.97563
# Shear Modulus (GPa) = 21.15107 27.50042 24.32575
#
# Velocity S-wave (km/s) = 3.10299 3.53821 3.32772
# Velocity P-wave (km/s) = 5.84376 6.17652 6.01245
#
# Compressibility (1/GPa) = 0.02136055
#
# Stress axis : x y z
#
# Youngs Moduli (GPa) = 50.97287 85.39114 67.18655
#
# Poissons Ratio (x) = 0.42740 0.44485
# Poissons Ratio (y) = 0.25513 0.05374
# Poissons Ratio (z) = 0.33750 0.06830
#
# Static dielectric constant tensor:
#      x y z
#    x 1.825370 0.000000 0.000000 
#    y 0.000000 1.969490 0.000000 
#    z 0.000000 0.000000 1.934950 
# 
# From -- ./inp_files/4868.got.cif
#   From: 2010.05.17/outbox.cif.g08.bks.cpg/sg29_3_cif.got.tgz:4868.got - 2010.06.04 01:19:37.
