data_PCOD9340670
_publ_section_title
;
Structure prediction by ZEFSAII (Michael W. Deem and Ramdas Pophale) SiO2 
 PCOD9340670
Probable space group: P C A 21
;
_chemical_formula_sum "Si O2"
_cell_formula_units_Z 32
_cell_length_a 11.791258
_cell_length_b 13.604904
_cell_length_c 8.945521
_cell_angle_alpha 90.000000
_cell_angle_beta 90.000000
_cell_angle_gamma 90.000000
_cell_volume 1435.030935
_symmetry_space_group_name_H-M "P C A 21"
_symmetry_group_IT_number 29
_symmetry_cell_setting 'orthorhombic'
loop_
_space_group_symop_operation_xyz
x,y,z
-x,-y,1/2+z
1/2-x,y,1/2+z
1/2+x,-y,z
loop_
_atom_site_type_symbol
_atom_site_label
_atom_site_fract_x
_atom_site_fract_y
_atom_site_fract_z
Si Si1 0.757720 0.075446 0.507870
Si Si2 0.475152 0.656034 0.930441
Si Si3 0.901397 0.167551 0.757274
Si Si4 0.809951 0.743708 0.334351
Si Si5 0.797909 0.434550 0.138861
Si Si6 0.125600 0.353008 0.524114
Si Si7 0.592655 0.443559 0.945212
Si Si8 0.359597 0.052294 0.263834
O O1 0.823260 0.151145 0.614119
O O2 0.666014 0.124776 0.399736
O O3 0.693244 0.998844 0.617860
O O4 0.850286 0.024287 0.399784
O O5 0.422629 0.718180 0.794216
O O6 0.588364 0.722747 0.953324
O O7 0.529737 0.547347 0.909076
O O8 0.378376 0.644352 0.055104
O O9 0.017335 0.103163 0.741972
O O10 0.707671 0.678269 0.391215
O O11 0.781357 0.857377 0.320215
O O12 0.850596 0.712770 0.169004
O O13 0.818598 0.425049 0.313516
O O14 0.847923 0.538311 0.082876
O O15 0.667470 0.444486 0.093717
O O16 0.999792 0.358973 0.460256
#
# Coordination Sequence:
#
# PCOD9340670 Si02
#       8
#     4   4   4   4   4   4   4   4
#     4  10  21  41  67 100 127 177 211 264 349 393
#     4  10  23  40  63  94 129 177 222 273 336 376
#     4  10  22  41  68  93 137 166 219 274 323 412
#     4  11  22  40  64  97 134 172 223 287 320 399
#     4  11  23  41  65  89 132 174 229 269 328 399
#     4  11  23  39  63  94 131 174 225 277 335 383
#     4  11  25  42  67  93 132 184 227 279 332 401
#     4  10  21  40  69  96 134 168 218 271 331 401
#
# _framework density 22.299171000000001
#
# number of rings (size 3 to 8) (size 9 to 14) (size 15 to 20)
#    0.000    1.500    2.500    1.500    3.500    2.000 
#    2.250    1.250    8.250    0.000    0.000    0.000 
#    0.000    0.000    0.000    0.000    0.000    0.000 
#
# Total GULP energy -178717.563973 kJ/mol
# GULP energy per Si atom -5584.923874 kJ/mol
# Density = 2.224842 g / cm^3
# Si number density = 22.299171 Si / 1000 Ang^3
#
#
#
# Elastic Constant Matrix: (Units=GPa)
#
#
# Indices 1 2 3 4 5 6 
#
# 1 82.0504 27.9775 31.8001 0.0000 0.0000 0.0000
# 2 27.9775 48.6175 40.7687 0.0000 0.0000 0.0000
# 3 31.8001 40.7687 93.6053 0.0000 0.0000 0.0000
# 4 0.0000 0.0000 0.0000 29.8709 0.0000 0.0000
# 5 0.0000 0.0000 0.0000 0.0000 32.4531 0.0000
# 6 0.0000 0.0000 0.0000 0.0000 0.0000 30.2734
#
#
#
# Elastic Compliance Matrix: (Units=1/GPa)
#
#
# Indices 1 2 3 4 5 6 
#
# 1 0.015437 -0.007067 -0.002167 0.000000 0.000000 0.000000
# 2 -0.007067 0.035638 -0.013121 0.000000 0.000000 0.000000
# 3 -0.002167 -0.013121 0.017134 0.000000 0.000000 0.000000
# 4 0.000000 0.000000 0.000000 0.033477 0.000000 0.000000
# 5 0.000000 0.000000 0.000000 0.000000 0.030814 0.000000
# 6 0.000000 0.000000 0.000000 0.000000 0.000000 0.033032
#
#
# Mechanical properties :
#
#
# Convention : Reuss Voigt Hill
#
# Bulk Modulus (GPa) = 42.55223 47.26287 44.90755
# Shear Modulus (GPa) = 22.92798 26.76792 24.84795
#
# Velocity S-wave (km/s) = 3.21003 3.46844 3.34173
# Velocity P-wave (km/s) = 5.73262 6.10582 5.92216
#
# Compressibility (1/GPa) = 0.02350053
#
# Stress axis : x y z
#
# Youngs Moduli (GPa) = 64.77993 28.05988 58.36383
#
# Poissons Ratio (x) = 0.19829 0.12645
# Poissons Ratio (y) = 0.45777 0.76579
# Poissons Ratio (z) = 0.14035 0.36818
#
# Static dielectric constant tensor:
#      x y z
#    x 1.885500 0.000000 0.000000 
#    y 0.000000 1.825330 0.000000 
#    z 0.000000 0.000000 1.812520 
# 
# From -- ./inp_files/1538.got.cif
#   From: 2010.05.17/outbox.cif.g08.bks.cpg/sg29_1_cif.got.tgz:1538.got - 2010.06.04 01:19:37.
