data_PCOD9340457
_publ_section_title
;
Structure prediction by ZEFSAII (Michael W. Deem and Ramdas Pophale) SiO2 
 PCOD9340457
Probable space group: P C A 21
;
_chemical_formula_sum "Si O2"
_cell_formula_units_Z 20
_cell_length_a 13.385363
_cell_length_b 5.187752
_cell_length_c 14.185330
_cell_angle_alpha 90.000000
_cell_angle_beta 90.000000
_cell_angle_gamma 90.000000
_cell_volume 985.028516
_symmetry_space_group_name_H-M "P C A 21"
_symmetry_group_IT_number 29
_symmetry_cell_setting 'orthorhombic'
loop_
_space_group_symop_operation_xyz
x,y,z
-x,-y,1/2+z
1/2-x,y,1/2+z
1/2+x,-y,z
loop_
_atom_site_type_symbol
_atom_site_label
_atom_site_fract_x
_atom_site_fract_y
_atom_site_fract_z
Si Si1 0.481488 0.052891 0.586150
Si Si2 0.887100 0.056017 0.779913
Si Si3 0.080297 0.454089 0.527325
Si Si4 0.934583 0.722842 0.396346
Si Si5 0.283072 0.449484 0.863645
O O1 0.546909 0.314524 0.596208
O O2 0.420973 0.097442 0.488738
O O3 0.407270 0.995051 0.670652
O O4 0.558577 0.819362 0.572260
O O5 0.494748 0.872415 0.824222
O O6 0.817126 0.298803 0.806033
O O7 0.841518 0.801874 0.826819
O O8 0.002067 0.495009 0.440714
O O9 0.184975 0.487106 0.473738
O O10 0.833051 0.614364 0.356387
#
# Coordination Sequence:
#
# PCOD9340457 Si02
#       5
#     4   4   4   4   4
#     4  10  20  41  61  85 130 158 201 260 306 361
#     4  11  23  40  63  94 126 159 211 260 306 378
#     4   9  19  39  60  85 118 165 194 257 302 370
#     4   9  23  39  66  85 129 163 200 261 316 364
#     4  11  21  39  64  89 123 165 208 250 316 371
#
# _framework density 20.303981
#
# number of rings (size 3 to 8) (size 9 to 14) (size 15 to 20)
#    1.200    0.800    2.000    1.200    2.800    0.000 
#    3.600    0.000    0.000    0.000    0.000    0.000 
#    0.000    0.000    0.000    0.000    0.000    0.000 
#
# Total GULP energy -111486.423043 kJ/mol
# GULP energy per Si atom -5574.321152 kJ/mol
# Density = 2.025777 g / cm^3
# Si number density = 20.303981 Si / 1000 Ang^3
#
#
#
# Elastic Constant Matrix: (Units=GPa)
#
#
# Indices 1 2 3 4 5 6 
#
# 1 54.3827 21.1857 13.0750 0.0000 0.0000 0.0000
# 2 21.1857 131.3839 21.9833 0.0000 0.0000 0.0000
# 3 13.0750 21.9833 57.2532 0.0000 0.0000 0.0000
# 4 0.0000 0.0000 0.0000 15.6832 0.0000 0.0000
# 5 0.0000 0.0000 0.0000 0.0000 -3.2038 0.0000
# 6 0.0000 0.0000 0.0000 0.0000 0.0000 10.3866
#
#
#
# Elastic Compliance Matrix: (Units=1/GPa)
#
#
# Indices 1 2 3 4 5 6 
#
# 1 0.020296 -0.002669 -0.003610 0.000000 0.000000 0.000000
# 2 -0.002669 0.008485 -0.002648 0.000000 0.000000 0.000000
# 3 -0.003610 -0.002648 0.019308 0.000000 0.000000 0.000000
# 4 0.000000 0.000000 0.000000 0.063762 0.000000 0.000000
# 5 0.000000 0.000000 0.000000 0.000000 -0.312129 0.000000
# 6 0.000000 0.000000 0.000000 0.000000 0.000000 0.096278
#
#
# Mechanical properties :
#
#
# Convention : Reuss Voigt Hill
#
# Bulk Modulus (GPa) = 33.07588 39.50087 36.28837
# Shear Modulus (GPa) = -65.73087 17.02492 -24.35297
#
# Velocity S-wave (km/s) = -5.69593 2.89883 -3.46702
# Velocity P-wave (km/s) = 5.18965 5.54087 1.37273
#
# Compressibility (1/GPa) = 0.03023351
#
# Stress axis : x y z
#
# Youngs Moduli (GPa) = 49.27120 117.85867 51.79288
#
# Poissons Ratio (x) = 0.31452 0.18699
# Poissons Ratio (y) = 0.13149 0.13717
# Poissons Ratio (z) = 0.17788 0.31214
#
# Static dielectric constant tensor:
#      x y z
#    x 1.715190 0.000000 0.000000 
#    y 0.000000 1.721360 0.000000 
#    z 0.000000 0.000000 1.739270 
# 
# From -- ./inp_files/3537.got.cif
#   From: 2010.05.17/outbox.cif.g08.bks.cpg/sg29_2_cif.got.tgz:3537.got - 2010.06.04 01:19:37.
