data_PCOD9340345
_publ_section_title
;
Structure prediction by ZEFSAII (Michael W. Deem and Ramdas Pophale) SiO2 
 PCOD9340345
Probable space group: P C A 21
;
_chemical_formula_sum "Si O2"
_cell_formula_units_Z 28
_cell_length_a 9.839198
_cell_length_b 7.731744
_cell_length_c 13.765753
_cell_angle_alpha 90.000000
_cell_angle_beta 90.000000
_cell_angle_gamma 90.000000
_cell_volume 1047.218098
_symmetry_space_group_name_H-M "P C A 21"
_symmetry_group_IT_number 29
_symmetry_cell_setting 'orthorhombic'
loop_
_space_group_symop_operation_xyz
x,y,z
-x,-y,1/2+z
1/2-x,y,1/2+z
1/2+x,-y,z
loop_
_atom_site_type_symbol
_atom_site_label
_atom_site_fract_x
_atom_site_fract_y
_atom_site_fract_z
Si Si1 0.893038 0.424747 0.405140
Si Si2 0.432164 0.999577 0.946856
Si Si3 0.873639 0.705004 0.749871
Si Si4 0.833490 0.236434 0.778803
Si Si5 0.810530 0.812693 0.407803
Si Si6 0.900576 0.227639 0.129451
Si Si7 0.546676 0.426682 0.120779
O O1 0.015406 0.367891 0.331213
O O2 0.752921 0.366893 0.351165
O O3 0.887375 0.631588 0.425943
O O4 0.912293 0.355068 0.515610
O O5 0.378773 0.916185 0.847552
O O6 0.594099 0.976803 0.931464
O O7 0.332812 0.162460 0.964213
O O8 0.394137 0.870037 0.030849
O O9 0.964076 0.833288 0.686139
O O10 0.841845 0.554483 0.672580
O O11 0.743615 0.782316 0.799387
O O12 0.960312 0.296342 0.711258
O O13 0.775912 0.190659 0.197811
O O14 0.926739 0.432601 0.112123
#
# Coordination Sequence:
#
# PCOD9340345 Si02
#       7
#     4   4   4   4   4   4   4
#     4  11  21  43  75 106 142 189 249 320 364 430
#     4  12  28  50  73 107 158 204 246 301 389 461
#     4   9  22  42  71 104 149 181 254 314 362 440
#     4  11  23  43  74 105 151 186 251 321 369 442
#     4  12  26  48  73 108 150 203 242 308 376 455
#     4   9  22  44  67 104 148 191 247 303 368 455
#     4  10  20  36  71 110 136 186 247 309 372 437
#
# _framework density 26.737506
#
# number of rings (size 3 to 8) (size 9 to 14) (size 15 to 20)
#    0.857    0.571    2.857    1.714    4.000    1.143 
#    5.143    0.000    0.000    0.000    0.000    0.000 
#    0.000    0.000    0.000    0.000    0.000    0.000 
#
# Total GULP energy -156224.110805 kJ/mol
# GULP energy per Si atom -5579.432529 kJ/mol
# Density = 2.667665 g / cm^3
# Si number density = 26.737506 Si / 1000 Ang^3
#
#
#
# Elastic Constant Matrix: (Units=GPa)
#
#
# Indices 1 2 3 4 5 6 
#
# 1 111.2437 24.5299 21.3857 0.0000 0.0000 0.0000
# 2 24.5299 48.8322 27.5325 0.0000 0.0000 0.0000
# 3 21.3857 27.5325 153.1680 0.0000 0.0000 0.0000
# 4 0.0000 0.0000 0.0000 30.6774 0.0000 0.0000
# 5 0.0000 0.0000 0.0000 0.0000 26.8505 0.0000
# 6 0.0000 0.0000 0.0000 0.0000 0.0000 29.5715
#
#
#
# Elastic Compliance Matrix: (Units=1/GPa)
#
#
# Indices 1 2 3 4 5 6 
#
# 1 0.010152 -0.004785 -0.000557 0.000000 0.000000 0.000000
# 2 -0.004785 0.025043 -0.003834 0.000000 0.000000 0.000000
# 3 -0.000557 -0.003834 0.007296 0.000000 0.000000 0.000000
# 4 0.000000 0.000000 0.000000 0.032597 0.000000 0.000000
# 5 0.000000 0.000000 0.000000 0.000000 0.037243 0.000000
# 6 0.000000 0.000000 0.000000 0.000000 0.000000 0.033816
#
#
# Mechanical properties :
#
#
# Convention : Reuss Voigt Hill
#
# Bulk Modulus (GPa) = 41.42729 51.12670 46.27699
# Shear Modulus (GPa) = 28.97781 33.40628 31.19204
#
# Velocity S-wave (km/s) = 3.29567 3.53854 3.41926
# Velocity P-wave (km/s) = 5.47810 5.98818 5.73881
#
# Compressibility (1/GPa) = 0.02413868
#
# Stress axis : x y z
#
# Youngs Moduli (GPa) = 98.50685 39.93054 137.06761
#
# Poissons Ratio (x) = 0.19108 0.07638
# Poissons Ratio (y) = 0.47138 0.52545
# Poissons Ratio (z) = 0.05489 0.15307
#
# Static dielectric constant tensor:
#      x y z
#    x 2.200790 0.000000 0.000000 
#    y 0.000000 2.297280 0.000000 
#    z 0.000000 0.000000 2.041690 
# 
# From -- ./inp_files/4529.got.cif
#   From: 2010.05.17/outbox.cif.g08.bks.cpg/sg29_3_cif.got.tgz:4529.got - 2010.06.04 01:19:37.
