data_PCOD9340990
_publ_section_title
;
Structure prediction by ZEFSAII (Michael W. Deem and Ramdas Pophale) SiO2 
 PCOD9340990
Probable space group: P C A 21
;
_chemical_formula_sum "Si O2"
_cell_formula_units_Z 32
_cell_length_a 13.348083
_cell_length_b 5.073429
_cell_length_c 19.518146
_cell_angle_alpha 90.000000
_cell_angle_beta 90.000000
_cell_angle_gamma 90.000000
_cell_volume 1321.779609
_symmetry_space_group_name_H-M "P C A 21"
_symmetry_group_IT_number 29
_symmetry_cell_setting 'orthorhombic'
loop_
_space_group_symop_operation_xyz
x,y,z
-x,-y,1/2+z
1/2-x,y,1/2+z
1/2+x,-y,z
loop_
_atom_site_type_symbol
_atom_site_label
_atom_site_fract_x
_atom_site_fract_y
_atom_site_fract_z
Si Si1 0.642699 0.990769 0.020390
Si Si2 0.036499 0.959089 0.785204
Si Si3 0.752519 0.658598 0.907479
Si Si4 0.035680 0.076964 0.440129
Si Si5 0.483564 0.185186 0.645208
Si Si6 0.823726 0.313527 0.006922
Si Si7 0.335143 0.450916 0.264727
Si Si8 0.119933 0.319272 0.625351
O O1 0.599040 0.851745 0.087516
O O2 0.745368 0.125421 0.044517
O O3 0.553157 0.175537 0.989890
O O4 0.671538 0.806908 0.955055
O O5 0.959741 0.879051 0.724653
O O6 0.069105 0.258774 0.773288
O O7 0.004321 0.946436 0.863392
O O8 0.128418 0.751685 0.773903
O O9 0.861588 0.768744 0.926553
O O10 0.733249 0.641105 0.827448
O O11 0.760515 0.366636 0.937733
O O12 0.074152 0.814835 0.479979
O O13 0.573017 0.972082 0.627878
O O14 0.529149 0.475537 0.640030
O O15 0.838541 0.567942 0.054259
O O16 0.303257 0.381092 0.187497
#
# Coordination Sequence:
#
# PCOD9340990 Si02
#       8
#     4   4   4   4   4   4   4   4
#     4  11  23  42  67  96 135 178 228 283 338 407
#     4  10  22  43  70  98 134 179 223 275 341 405
#     4  11  25  40  65 100 133 180 229 282 344 404
#     4  11  23  42  67  96 135 178 228 283 338 407
#     4  10  22  43  70  98 134 179 223 275 341 405
#     4  11  25  40  65 100 133 180 229 282 344 404
#     4  10  22  44  69  98 136 177 222 279 341 405
#     4  10  22  44  69  98 136 177 222 279 341 405
#
# _framework density 24.209786000000001
#
# number of rings (size 3 to 8) (size 9 to 14) (size 15 to 20)
#    0.000    1.500    2.500    1.500    7.000    1.000 
#    4.500    0.000    0.000    0.000    0.000    0.000 
#    0.000    0.000    0.000    0.000    0.000    0.000 
#
# Total GULP energy -178640.988271 kJ/mol
# GULP energy per Si atom -5582.530883 kJ/mol
# Density = 2.415468 g / cm^3
# Si number density = 24.209786 Si / 1000 Ang^3
#
#
#
# Elastic Constant Matrix: (Units=GPa)
#
#
# Indices 1 2 3 4 5 6 
#
# 1 61.9802 12.1290 26.1425 0.0000 0.0000 0.0000
# 2 12.1290 72.1034 6.3920 0.0000 0.0000 0.0000
# 3 26.1425 6.3920 171.2075 0.0000 0.0000 0.0000
# 4 0.0000 0.0000 0.0000 32.1280 0.0000 0.0000
# 5 0.0000 0.0000 0.0000 0.0000 37.5149 0.0000
# 6 0.0000 0.0000 0.0000 0.0000 0.0000 12.3214
#
#
#
# Elastic Compliance Matrix: (Units=1/GPa)
#
#
# Indices 1 2 3 4 5 6 
#
# 1 0.017775 -0.002759 -0.002611 0.000000 0.000000 0.000000
# 2 -0.002759 0.014343 -0.000114 0.000000 0.000000 0.000000
# 3 -0.002611 -0.000114 0.006244 0.000000 0.000000 0.000000
# 4 0.000000 0.000000 0.000000 0.031126 0.000000 0.000000
# 5 0.000000 0.000000 0.000000 0.000000 0.026656 0.000000
# 6 0.000000 0.000000 0.000000 0.000000 0.000000 0.081159
#
#
# Mechanical properties :
#
#
# Convention : Reuss Voigt Hill
#
# Bulk Modulus (GPa) = 36.50416 43.84648 40.17532
# Shear Modulus (GPa) = 25.32891 33.76804 29.54847
#
# Velocity S-wave (km/s) = 3.23805 3.73877 3.49738
# Velocity P-wave (km/s) = 5.39360 6.06533 5.73930
#
# Compressibility (1/GPa) = 0.02739414
#
# Stress axis : x y z
#
# Youngs Moduli (GPa) = 56.25754 69.71974 160.15754
#
# Poissons Ratio (x) = 0.19233 0.41821
# Poissons Ratio (y) = 0.15519 0.01830
# Poissons Ratio (z) = 0.14690 0.00797
#
# Static dielectric constant tensor:
#      x y z
#    x 1.974210 0.000000 0.000000 
#    y 0.000000 2.032530 0.000000 
#    z 0.000000 0.000000 1.996010 
# 
# From -- ./inp_files/5575.got.cif
#   From: 2010.05.17/outbox.cif.g08.bks.cpg/sg29_3_cif.got.tgz:5575.got - 2010.06.04 01:19:37.
