data_PCOD9340186
_publ_section_title
;
Structure prediction by ZEFSAII (Michael W. Deem and Ramdas Pophale) SiO2 
 PCOD9340186
Probable space group: P C A 21
;
_chemical_formula_sum "Si O2"
_cell_formula_units_Z 32
_cell_length_a 13.263347
_cell_length_b 22.438922
_cell_length_c 4.984996
_cell_angle_alpha 90.000000
_cell_angle_beta 90.000000
_cell_angle_gamma 90.000000
_cell_volume 1483.610625
_symmetry_space_group_name_H-M "P C A 21"
_symmetry_group_IT_number 29
_symmetry_cell_setting 'orthorhombic'
loop_
_space_group_symop_operation_xyz
x,y,z
-x,-y,1/2+z
1/2-x,y,1/2+z
1/2+x,-y,z
loop_
_atom_site_type_symbol
_atom_site_label
_atom_site_fract_x
_atom_site_fract_y
_atom_site_fract_z
Si Si1 0.000001 0.958764 0.048650
Si Si2 0.819582 0.737966 0.217054
Si Si3 0.682898 0.612091 0.582117
Si Si4 0.682897 0.387909 0.015189
Si Si5 0.562333 0.500000 0.798653
Si Si6 0.677243 0.866947 0.605535
Si Si7 0.680418 0.262034 0.880252
Si Si8 0.822757 0.133053 0.491775
O O1 0.093153 0.916975 0.964819
O O2 0.029174 0.000000 0.298650
O O3 0.906849 0.916974 0.132483
O O4 0.778864 0.737990 0.520272
O O5 0.870649 0.674911 0.150725
O O6 0.869862 0.800928 0.150669
O O7 0.718620 0.611511 0.275792
O O8 0.624189 0.553346 0.664441
O O9 0.781379 0.388489 0.821513
O O10 0.624188 0.446654 0.932867
O O11 0.629350 0.325089 0.946581
O O12 0.500001 0.474216 0.548651
O O13 0.767319 0.871599 0.820789
O O14 0.721136 0.262010 0.577034
O O15 0.630138 0.199071 0.946637
O O16 0.767322 0.128401 0.776527
#
# Coordination Sequence:
#
# PCOD9340186 Si02
#       8
#     4   4   4   4   4   4   4   4
#     4  12  26  40  60  92 124 158 206 240 288 370
#     4   8  16  32  58  83 105 139 190 238 281 338
#     4  10  19  36  60  80 104 150 198 233 281 348
#     4  10  19  36  60  80 104 150 198 233 281 348
#     4  12  24  36  50  80 124 148 184 240 292 344
#     4  10  21  40  63  87 121 158 196 249 299 345
#     4   8  16  32  58  83 105 139 190 238 281 338
#     4  10  21  40  63  87 121 158 196 249 299 345
#
# _framework density 21.569001
#
# number of rings (size 3 to 8) (size 9 to 14) (size 15 to 20)
#    0.000    2.000    0.000    3.750    0.000    3.000 
#    2.250    0.000    2.750    0.000    0.000    0.000 
#    0.000    0.000    0.000    0.000    0.000    0.000 
#
# Total GULP energy -178663.996655 kJ/mol
# GULP energy per Si atom -5583.249895 kJ/mol
# Density = 2.151991 g / cm^3
# Si number density = 21.569001 Si / 1000 Ang^3
#
#
#
# Elastic Constant Matrix: (Units=GPa)
#
#
# Indices 1 2 3 4 5 6 
#
# 1 26.6783 36.0896 -1.5480 0.0000 0.0000 0.0000
# 2 36.0896 162.8527 0.2759 0.0000 0.0000 0.0000
# 3 -1.5480 0.2759 80.3479 0.0000 0.0000 0.0000
# 4 0.0000 0.0000 0.0000 36.6100 0.0000 0.0000
# 5 0.0000 0.0000 0.0000 0.0000 0.2789 0.0000
# 6 0.0000 0.0000 0.0000 0.0000 0.0000 38.0784
#
#
#
# Elastic Compliance Matrix: (Units=1/GPa)
#
#
# Indices 1 2 3 4 5 6 
#
# 1 0.053624 -0.011885 0.001074 0.000000 0.000000 0.000000
# 2 -0.011885 0.008775 -0.000259 0.000000 0.000000 0.000000
# 3 0.001074 -0.000259 0.012467 0.000000 0.000000 0.000000
# 4 0.000000 0.000000 0.000000 0.027315 0.000000 0.000000
# 5 0.000000 0.000000 0.000000 0.000000 3.586020 0.000000
# 6 0.000000 0.000000 0.000000 0.000000 0.000000 0.026262
#
#
# Mechanical properties :
#
#
# Convention : Reuss Voigt Hill
#
# Bulk Modulus (GPa) = 18.96623 37.72377 28.34500
# Shear Modulus (GPa) = 1.33185 30.66421 15.99803
#
# Velocity S-wave (km/s) = 0.78665 3.77461 2.72640
# Velocity P-wave (km/s) = 3.10443 6.04356 4.80428
#
# Compressibility (1/GPa) = 0.05272529
#
# Stress axis : x y z
#
# Youngs Moduli (GPa) = 18.64831 113.96190 80.20884
#
# Poissons Ratio (x) = 1.35448 -0.08614
# Poissons Ratio (y) = 0.22164 0.02078
# Poissons Ratio (z) = -0.02003 0.02953
#
# Static dielectric constant tensor:
#      x y z
#    x 1.771180 0.000000 0.000000 
#    y 0.000000 1.854690 0.000000 
#    z 0.000000 0.000000 1.740850 
# 
# From -- ./inp_files/130.got.cif
#   From: 2010.05.17/outbox.cif.g08.bks.cpg/sg29_1_cif.got.tgz:130.got - 2010.06.04 01:19:37.
