data_PCOD9340851
_publ_section_title
;
Structure prediction by ZEFSAII (Michael W. Deem and Ramdas Pophale) SiO2 
 PCOD9340851
Probable space group: P C A 21
;
_chemical_formula_sum "Si O2"
_cell_formula_units_Z 28
_cell_length_a 18.228722
_cell_length_b 8.271842
_cell_length_c 8.872363
_cell_angle_alpha 90.000000
_cell_angle_beta 90.000000
_cell_angle_gamma 90.000000
_cell_volume 1337.820215
_symmetry_space_group_name_H-M "P C A 21"
_symmetry_group_IT_number 29
_symmetry_cell_setting 'orthorhombic'
loop_
_space_group_symop_operation_xyz
x,y,z
-x,-y,1/2+z
1/2-x,y,1/2+z
1/2+x,-y,z
loop_
_atom_site_type_symbol
_atom_site_label
_atom_site_fract_x
_atom_site_fract_y
_atom_site_fract_z
Si Si1 0.874000 0.777521 0.130430
Si Si2 0.604973 0.780050 0.295792
Si Si3 0.597542 0.471265 0.807062
Si Si4 0.006714 0.352303 0.049209
Si Si5 0.979738 0.958173 0.348879
Si Si6 0.160983 0.839353 0.948914
Si Si7 0.239743 0.007737 0.203383
O O1 0.861765 0.633057 0.250013
O O2 0.942662 0.874953 0.202134
O O3 0.805810 0.899499 0.118366
O O4 0.890328 0.711363 0.964497
O O5 0.574929 0.665727 0.164783
O O6 0.545752 0.925151 0.306863
O O7 0.682019 0.856196 0.250204
O O8 0.560942 0.395117 0.657135
O O9 0.646472 0.341636 0.894007
O O10 0.532430 0.522994 0.921105
O O11 0.995906 0.183686 0.961606
O O12 0.915117 0.063322 0.425724
O O13 0.219924 0.922853 0.840566
O O14 0.194455 0.873430 0.111660
#
# Coordination Sequence:
#
# PCOD9340851 Si02
#       7
#     4   4   4   4   4   4   4
#     4  10  24  43  63  96 139 176 219 277 347 409
#     4  12  21  40  73  96 125 178 235 272 336 399
#     4  11  25  43  67 100 147 171 221 286 352 408
#     4  11  23  41  67 103 135 173 217 283 348 399
#     4  10  22  39  71  96 129 171 228 285 319 396
#     4  11  23  45  65  98 134 172 233 282 332 404
#     4  11  24  43  68  95 129 183 233 279 332 409
#
# _framework density 20.929566999999999
#
# number of rings (size 3 to 8) (size 9 to 14) (size 15 to 20)
#    0.000    1.143    4.286    1.714    2.000    1.143 
#    5.143    0.000    0.000    0.000    0.000    0.000 
#    0.000    0.000    0.000    0.000    0.000    0.000 
#
# Total GULP energy -156497.428743 kJ/mol
# GULP energy per Si atom -5589.193884 kJ/mol
# Density = 2.088193 g / cm^3
# Si number density = 20.929567 Si / 1000 Ang^3
#
#
#
# Elastic Constant Matrix: (Units=GPa)
#
#
# Indices 1 2 3 4 5 6 
#
# 1 45.7828 4.4444 11.5198 0.0000 0.0000 0.0000
# 2 4.4444 51.5551 5.0085 0.0000 0.0000 0.0000
# 3 11.5198 5.0085 77.2779 0.0000 0.0000 0.0000
# 4 0.0000 0.0000 0.0000 34.5135 0.0000 0.0000
# 5 0.0000 0.0000 0.0000 0.0000 14.7222 0.0000
# 6 0.0000 0.0000 0.0000 0.0000 0.0000 28.0498
#
#
#
# Elastic Compliance Matrix: (Units=1/GPa)
#
#
# Indices 1 2 3 4 5 6 
#
# 1 0.022832 -0.001648 -0.003297 0.000000 0.000000 0.000000
# 2 -0.001648 0.019639 -0.001027 0.000000 0.000000 0.000000
# 3 -0.003297 -0.001027 0.013498 0.000000 0.000000 0.000000
# 4 0.000000 0.000000 0.000000 0.028974 0.000000 0.000000
# 5 0.000000 0.000000 0.000000 0.000000 0.067924 0.000000
# 6 0.000000 0.000000 0.000000 0.000000 0.000000 0.035651
#
#
# Mechanical properties :
#
#
# Convention : Reuss Voigt Hill
#
# Bulk Modulus (GPa) = 22.71440 24.06237 23.38839
# Shear Modulus (GPa) = 23.24102 25.69998 24.47050
#
# Velocity S-wave (km/s) = 3.33594 3.50798 3.42304
# Velocity P-wave (km/s) = 5.07093 5.28485 5.17900
#
# Compressibility (1/GPa) = 0.04402493
#
# Stress axis : x y z
#
# Youngs Moduli (GPa) = 43.79868 50.92016 74.08331
#
# Poissons Ratio (x) = 0.08392 0.24423
# Poissons Ratio (y) = 0.07218 0.07609
# Poissons Ratio (z) = 0.14439 0.05230
#
# Static dielectric constant tensor:
#      x y z
#    x 1.719650 0.000000 0.000000 
#    y 0.000000 1.742050 0.000000 
#    z 0.000000 0.000000 1.780540 
# 
# From -- ./inp_files/2053.got.cif
#   From: 2010.05.17/outbox.cif.g08.bks.cpg/sg29_2_cif.got.tgz:2053.got - 2010.06.04 01:19:37.
