data_PCOD9340946
_publ_section_title
;
Structure prediction by ZEFSAII (Michael W. Deem and Ramdas Pophale) SiO2 
 PCOD9340946
Probable space group: P C A 21
;
_chemical_formula_sum "Si O2"
_cell_formula_units_Z 28
_cell_length_a 8.709739
_cell_length_b 9.804217
_cell_length_c 11.769366
_cell_angle_alpha 90.000000
_cell_angle_beta 90.000000
_cell_angle_gamma 90.000000
_cell_volume 1005.011716
_symmetry_space_group_name_H-M "P C A 21"
_symmetry_group_IT_number 29
_symmetry_cell_setting 'orthorhombic'
loop_
_space_group_symop_operation_xyz
x,y,z
-x,-y,1/2+z
1/2-x,y,1/2+z
1/2+x,-y,z
loop_
_atom_site_type_symbol
_atom_site_label
_atom_site_fract_x
_atom_site_fract_y
_atom_site_fract_z
Si Si1 0.828422 0.976757 0.722470
Si Si2 0.514585 0.348583 0.334701
Si Si3 0.182906 0.569858 0.529538
Si Si4 0.282648 0.300531 0.132945
Si Si5 0.920909 0.930668 0.387107
Si Si6 0.169975 0.746670 0.721254
Si Si7 0.553652 0.215617 0.965857
O O1 0.816041 0.836188 0.653926
O O2 0.985962 0.041066 0.768287
O O3 0.752609 0.936016 0.844745
O O4 0.727095 0.104872 0.677977
O O5 0.571110 0.462375 0.423501
O O6 0.369990 0.349234 0.249793
O O7 0.668479 0.318673 0.263258
O O8 0.479699 0.218168 0.415969
O O9 0.273368 0.438336 0.573269
O O10 0.098128 0.639163 0.635813
O O11 0.302057 0.690027 0.498759
O O12 0.415060 0.256599 0.044838
O O13 0.934485 0.051192 0.476663
O O14 0.059128 0.766181 0.829199
#
# Coordination Sequence:
#
# PCOD9340946 Si02
#       7
#     4   4   4   4   4   4   4
#     4   9  20  41  68 103 132 181 227 302 350 420
#     4   9  20  41  68  98 133 176 245 294 361 429
#     4  11  23  40  67  96 138 197 228 299 369 429
#     4  11  23  41  64 100 142 179 240 296 358 444
#     4   9  19  42  71 100 134 176 238 301 357 414
#     4   9  19  41  68  94 135 177 242 287 373 421
#     4  10  22  42  66  97 136 188 234 303 360 437
#
# _framework density 27.860371000000001
#
# number of rings (size 3 to 8) (size 9 to 14) (size 15 to 20)
#    0.000    2.286    1.429    0.857    4.000    0.000 
#   10.286    0.000    0.000    0.000    0.000    0.000 
#    0.000    0.000    0.000    0.000    0.000    0.000 
#
# Total GULP energy -156598.958937 kJ/mol
# GULP energy per Si atom -5592.819962 kJ/mol
# Density = 2.779696 g / cm^3
# Si number density = 27.860371 Si / 1000 Ang^3
#
#
#
# Elastic Constant Matrix: (Units=GPa)
#
#
# Indices 1 2 3 4 5 6 
#
# 1 64.6285 15.8259 19.5886 0.0000 0.0000 0.0000
# 2 15.8259 157.4556 59.1851 0.0000 0.0000 0.0000
# 3 19.5886 59.1851 99.4584 0.0000 0.0000 0.0000
# 4 0.0000 0.0000 0.0000 56.2017 0.0000 0.0000
# 5 0.0000 0.0000 0.0000 0.0000 41.4401 0.0000
# 6 0.0000 0.0000 0.0000 0.0000 0.0000 37.8425
#
#
#
# Elastic Compliance Matrix: (Units=1/GPa)
#
#
# Indices 1 2 3 4 5 6 
#
# 1 0.016494 -0.000563 -0.002914 0.000000 0.000000 0.000000
# 2 -0.000563 0.008200 -0.004769 0.000000 0.000000 0.000000
# 3 -0.002914 -0.004769 0.013466 0.000000 0.000000 0.000000
# 4 0.000000 0.000000 0.000000 0.017793 0.000000 0.000000
# 5 0.000000 0.000000 0.000000 0.000000 0.024131 0.000000
# 6 0.000000 0.000000 0.000000 0.000000 0.000000 0.026425
#
#
# Mechanical properties :
#
#
# Convention : Reuss Voigt Hill
#
# Bulk Modulus (GPa) = 46.14715 56.74907 51.44811
# Shear Modulus (GPa) = 38.39556 42.22639 40.31097
#
# Velocity S-wave (km/s) = 3.71636 3.89735 3.80793
# Velocity P-wave (km/s) = 5.91733 6.37697 6.15145
#
# Compressibility (1/GPa) = 0.02166981
#
# Stress axis : x y z
#
# Youngs Moduli (GPa) = 60.62828 121.95010 74.26030
#
# Poissons Ratio (x) = 0.06861 0.21638
# Poissons Ratio (y) = 0.03411 0.35414
# Poissons Ratio (z) = 0.17666 0.58156
#
# Static dielectric constant tensor:
#      x y z
#    x 2.174900 0.000000 0.000000 
#    y 0.000000 2.217600 0.000000 
#    z 0.000000 0.000000 2.249520 
# 
# From -- ./inp_files/3152.got.cif
#   From: 2010.05.17/outbox.cif.g08.bks.cpg/sg29_2_cif.got.tgz:3152.got - 2010.06.04 01:19:37.
