data_PCOD9340579
_publ_section_title
;
Structure prediction by ZEFSAII (Michael W. Deem and Ramdas Pophale) SiO2 
 PCOD9340579
Probable space group: P C A 21
;
_chemical_formula_sum "Si O2"
_cell_formula_units_Z 32
_cell_length_a 13.301278
_cell_length_b 15.250968
_cell_length_c 7.548963
_cell_angle_alpha 90.000000
_cell_angle_beta 90.000000
_cell_angle_gamma 90.000000
_cell_volume 1531.362744
_symmetry_space_group_name_H-M "P C A 21"
_symmetry_group_IT_number 29
_symmetry_cell_setting 'orthorhombic'
loop_
_space_group_symop_operation_xyz
x,y,z
-x,-y,1/2+z
1/2-x,y,1/2+z
1/2+x,-y,z
loop_
_atom_site_type_symbol
_atom_site_label
_atom_site_fract_x
_atom_site_fract_y
_atom_site_fract_z
Si Si1 0.744406 0.507504 0.793930
Si Si2 0.832780 0.246793 0.791612
Si Si3 0.119238 0.593459 0.034661
Si Si4 0.921123 0.783661 0.881243
Si Si5 0.117707 0.392322 0.557171
Si Si6 0.547217 0.905502 0.088073
Si Si7 0.886883 0.227785 0.179921
Si Si8 0.993595 0.101491 0.696331
O O1 0.823533 0.482386 0.642117
O O2 0.667817 0.586704 0.746655
O O3 0.674343 0.423571 0.846002
O O4 0.822189 0.538939 0.940403
O O5 0.853040 0.320414 0.645654
O O6 0.716166 0.221698 0.784937
O O7 0.900299 0.164731 0.736381
O O8 0.866909 0.273425 0.990407
O O9 0.999889 0.586039 0.047263
O O10 0.885386 0.839870 0.709569
O O11 0.023002 0.737004 0.802657
O O12 0.864464 0.704870 0.978497
O O13 0.950279 0.855190 0.029368
O O14 0.435122 0.866888 0.130266
O O15 0.546334 0.005028 0.151087
O O16 0.559459 0.899656 0.876879
#
# Coordination Sequence:
#
# PCOD9340579 Si02
#       8
#     4   4   4   4   4   4   4   4
#     4  10  25  43  65  92 133 173 226 281 340 420
#     4  11  20  34  61  98 133 170 220 281 338 405
#     4  11  22  41  66  99 130 172 222 283 354 401
#     4  10  21  38  64  88 125 177 216 270 333 394
#     4  11  23  46  65  94 128 178 221 285 338 406
#     4   9  20  34  59  91 127 177 217 267 329 402
#     4   9  21  34  54  98 132 171 215 276 332 397
#     4  11  18  36  60  90 130 174 219 267 336 393
#
# _framework density 20.896419999999999
#
# number of rings (size 3 to 8) (size 9 to 14) (size 15 to 20)
#    0.750    1.000    2.500    2.250    1.750    0.000 
#   11.250    0.000    2.750    0.000    0.000    0.000 
#    0.000    0.000    0.000    0.000    0.000    0.000 
#
# Total GULP energy -178195.122999 kJ/mol
# GULP energy per Si atom -5568.597594 kJ/mol
# Density = 2.084886 g / cm^3
# Si number density = 20.896420 Si / 1000 Ang^3
#
#
#
# Elastic Constant Matrix: (Units=GPa)
#
#
# Indices 1 2 3 4 5 6 
#
# 1 48.6413 7.3234 7.8522 0.0000 0.0000 0.0000
# 2 7.3234 64.3268 10.3064 0.0000 0.0000 0.0000
# 3 7.8522 10.3064 87.5512 0.0000 0.0000 0.0000
# 4 0.0000 0.0000 0.0000 32.8061 0.0000 0.0000
# 5 0.0000 0.0000 0.0000 0.0000 18.6137 0.0000
# 6 0.0000 0.0000 0.0000 0.0000 0.0000 13.5255
#
#
#
# Elastic Compliance Matrix: (Units=1/GPa)
#
#
# Indices 1 2 3 4 5 6 
#
# 1 0.021147 -0.002144 -0.001644 0.000000 0.000000 0.000000
# 2 -0.002144 0.016062 -0.001698 0.000000 0.000000 0.000000
# 3 -0.001644 -0.001698 0.011769 0.000000 0.000000 0.000000
# 4 0.000000 0.000000 0.000000 0.030482 0.000000 0.000000
# 5 0.000000 0.000000 0.000000 0.000000 0.053724 0.000000
# 6 0.000000 0.000000 0.000000 0.000000 0.000000 0.073935
#
#
# Mechanical properties :
#
#
# Convention : Reuss Voigt Hill
#
# Bulk Modulus (GPa) = 26.31265 27.94258 27.12762
# Shear Modulus (GPa) = 21.66750 24.65821 23.16286
#
# Velocity S-wave (km/s) = 3.22359 3.43887 3.33297
# Velocity P-wave (km/s) = 5.14535 5.40081 5.27463
#
# Compressibility (1/GPa) = 0.03800453
#
# Stress axis : x y z
#
# Youngs Moduli (GPa) = 47.28827 62.25938 84.96691
#
# Poissons Ratio (x) = 0.13349 0.13970
# Poissons Ratio (y) = 0.10139 0.14431
# Poissons Ratio (z) = 0.07775 0.10575
#
# Static dielectric constant tensor:
#      x y z
#    x 1.730890 0.000000 0.000000 
#    y 0.000000 1.752960 0.000000 
#    z 0.000000 0.000000 2.086570 
# 
# From -- ./inp_files/1577.got.cif
#   From: 2010.05.17/outbox.cif.g08.bks.cpg/sg29_1_cif.got.tgz:1577.got - 2010.06.04 01:19:37.
