data_PCOD9340089
_publ_section_title
;
Structure prediction by ZEFSAII (Michael W. Deem and Ramdas Pophale) SiO2 
 PCOD9340089
Probable space group: P C A 21
;
_chemical_formula_sum "Si O2"
_cell_formula_units_Z 32
_cell_length_a 20.175809
_cell_length_b 7.963509
_cell_length_c 9.498248
_cell_angle_alpha 90.000000
_cell_angle_beta 90.000000
_cell_angle_gamma 90.000000
_cell_volume 1526.085753
_symmetry_space_group_name_H-M "P C A 21"
_symmetry_group_IT_number 29
_symmetry_cell_setting 'orthorhombic'
loop_
_space_group_symop_operation_xyz
x,y,z
-x,-y,1/2+z
1/2-x,y,1/2+z
1/2+x,-y,z
loop_
_atom_site_type_symbol
_atom_site_label
_atom_site_fract_x
_atom_site_fract_y
_atom_site_fract_z
Si Si1 0.943603 0.862166 0.196430
Si Si2 0.840590 0.771554 0.599387
Si Si3 0.698916 0.517150 0.850103
Si Si4 0.343641 0.425738 0.879690
Si Si5 0.063959 0.656381 0.847938
Si Si6 0.960663 0.980949 0.485616
Si Si7 0.533777 0.497076 0.558529
Si Si8 0.804476 0.798476 0.124407
O O1 0.864693 0.897520 0.196153
O O2 0.980535 0.989593 0.093997
O O3 0.974177 0.864895 0.351268
O O4 0.953131 0.677230 0.133262
O O5 0.823474 0.652539 0.467139
O O6 0.859998 0.646364 0.726071
O O7 0.770276 0.863648 0.631686
O O8 0.897791 0.902242 0.564169
O O9 0.775127 0.470200 0.877253
O O10 0.642129 0.379997 0.841953
O O11 0.699367 0.620318 0.705166
O O12 0.403416 0.522186 0.954288
O O13 0.326812 0.255721 0.968598
O O14 0.033682 0.628349 0.691287
O O15 0.029476 0.526051 0.958148
O O16 0.052473 0.839210 0.912322
#
# Coordination Sequence:
#
# PCOD9340089 Si02
#       8
#     4   4   4   4   4   4   4   4
#     4  10  21  40  57  84 116 156 205 239 295 364
#     4  10  20  34  65  87 109 149 208 243 293 355
#     4  10  18  37  64  83 112 151 202 253 285 354
#     4   9  19  34  64  88 102 151 210 242 279 353
#     4  11  23  38  58  88 125 154 195 256 310 347
#     4  11  24  36  59  90 122 157 194 255 310 351
#     4  10  22  40  59  84 119 159 205 245 295 369
#     4   9  17  37  62  84 105 153 205 247 275 353
#
# _framework density 20.968677
#
# number of rings (size 3 to 8) (size 9 to 14) (size 15 to 20)
#    0.000    2.000    3.750    0.000    7.000    1.000 
#    0.000    1.250    0.000    0.000    0.000    0.000 
#    0.000    0.000    0.000    0.000    0.000    0.000 
#
# Total GULP energy -178597.123974 kJ/mol
# GULP energy per Si atom -5581.160124 kJ/mol
# Density = 2.092095 g / cm^3
# Si number density = 20.968677 Si / 1000 Ang^3
#
#
#
# Elastic Constant Matrix: (Units=GPa)
#
#
# Indices 1 2 3 4 5 6 
#
# 1 96.7840 19.2409 16.8859 0.0000 0.0000 0.0000
# 2 19.2409 46.4585 15.2844 0.0000 0.0000 0.0000
# 3 16.8859 15.2844 84.7620 0.0000 0.0000 0.0000
# 4 0.0000 0.0000 0.0000 27.7809 0.0000 0.0000
# 5 0.0000 0.0000 0.0000 0.0000 30.3750 0.0000
# 6 0.0000 0.0000 0.0000 0.0000 0.0000 28.0989
#
#
#
# Elastic Compliance Matrix: (Units=1/GPa)
#
#
# Indices 1 2 3 4 5 6 
#
# 1 0.011439 -0.004239 -0.001514 0.000000 0.000000 0.000000
# 2 -0.004239 0.024453 -0.003565 0.000000 0.000000 0.000000
# 3 -0.001514 -0.003565 0.012742 0.000000 0.000000 0.000000
# 4 0.000000 0.000000 0.000000 0.035996 0.000000 0.000000
# 5 0.000000 0.000000 0.000000 0.000000 0.032922 0.000000
# 6 0.000000 0.000000 0.000000 0.000000 0.000000 0.035589
#
#
# Mechanical properties :
#
#
# Convention : Reuss Voigt Hill
#
# Bulk Modulus (GPa) = 33.33630 36.75855 35.04742
# Shear Modulus (GPa) = 27.50615 29.02385 28.26500
#
# Velocity S-wave (km/s) = 3.62577 3.72446 3.67544
# Velocity P-wave (km/s) = 5.78454 6.00531 5.89596
#
# Compressibility (1/GPa) = 0.02999733
#
# Stress axis : x y z
#
# Youngs Moduli (GPa) = 87.41785 40.89452 78.47903
#
# Poissons Ratio (x) = 0.17337 0.11885
# Poissons Ratio (y) = 0.37060 0.27977
# Poissons Ratio (z) = 0.13239 0.14578
#
# Static dielectric constant tensor:
#      x y z
#    x 1.813730 0.000000 0.000000 
#    y 0.000000 1.741130 0.000000 
#    z 0.000000 0.000000 1.775850 
# 
# From -- ./inp_files/2279.got.cif
#   From: 2010.05.17/outbox.cif.g08.bks.cpg/sg29_2_cif.got.tgz:2279.got - 2010.06.04 01:19:37.
