data_PCOD9340774
_publ_section_title
;
Structure prediction by ZEFSAII (Michael W. Deem and Ramdas Pophale) SiO2 
 PCOD9340774
Probable space group: P C A 21
;
_chemical_formula_sum "Si O2"
_cell_formula_units_Z 32
_cell_length_a 9.122136
_cell_length_b 14.983489
_cell_length_c 9.702302
_cell_angle_alpha 90.000000
_cell_angle_beta 90.000000
_cell_angle_gamma 90.000000
_cell_volume 1326.124457
_symmetry_space_group_name_H-M "P C A 21"
_symmetry_group_IT_number 29
_symmetry_cell_setting 'orthorhombic'
loop_
_space_group_symop_operation_xyz
x,y,z
-x,-y,1/2+z
1/2-x,y,1/2+z
1/2+x,-y,z
loop_
_atom_site_type_symbol
_atom_site_label
_atom_site_fract_x
_atom_site_fract_y
_atom_site_fract_z
Si Si1 0.575192 0.963492 0.917030
Si Si2 0.886985 0.880979 0.902865
Si Si3 0.354593 0.867192 0.758923
Si Si4 0.564435 0.162906 0.638495
Si Si5 0.235650 0.715184 0.463655
Si Si6 0.660477 0.550183 0.695760
Si Si7 0.045262 0.268973 0.589716
Si Si8 0.892903 0.470258 0.887375
O O1 0.743393 0.942587 0.890200
O O2 0.465135 0.947445 0.789279
O O3 0.521457 0.060184 0.965506
O O4 0.519742 0.886330 0.017454
O O5 0.952445 0.839790 0.763914
O O6 0.856081 0.796842 0.999616
O O7 0.212057 0.893901 0.672095
O O8 0.275766 0.808080 0.879314
O O9 0.462608 0.793493 0.697501
O O10 0.632621 0.258632 0.594878
O O11 0.404179 0.695811 0.502555
O O12 0.169473 0.630733 0.386439
O O13 0.635825 0.653148 0.658439
O O14 0.813104 0.525319 0.765439
O O15 0.628828 0.502802 0.546482
O O16 0.555767 0.529595 0.826951
#
# Coordination Sequence:
#
# PCOD9340774 Si02
#       8
#     4   4   4   4   4   4   4   4
#     4  11  28  44  69 106 142 196 251 310 384 457
#     4  12  27  45  70 104 152 196 254 318 398 455
#     4  10  21  45  73  99 138 181 257 310 372 460
#     4  10  24  45  73 104 138 191 251 324 376 475
#     4  10  21  45  78 104 135 196 256 297 397 472
#     4  12  27  48  75 114 157 199 264 317 404 467
#     4  11  24  43  71 107 142 196 243 322 381 467
#     4  12  26  49  77 114 154 207 254 328 382 493
#
# _framework density 24.130462000000001
#
# number of rings (size 3 to 8) (size 9 to 14) (size 15 to 20)
#    0.000    1.000    2.500    3.000    8.750    2.000 
#    4.500    0.000    0.000    0.000    0.000    0.000 
#    0.000    0.000    0.000    0.000    0.000    0.000 
#
# Total GULP energy -178778.104500 kJ/mol
# GULP energy per Si atom -5586.815766 kJ/mol
# Density = 2.407554 g / cm^3
# Si number density = 24.130462 Si / 1000 Ang^3
#
#
#
# Elastic Constant Matrix: (Units=GPa)
#
#
# Indices 1 2 3 4 5 6 
#
# 1 99.3967 36.5731 14.3658 0.0000 0.0000 0.0000
# 2 36.5731 70.1378 12.4360 0.0000 0.0000 0.0000
# 3 14.3658 12.4360 73.3047 0.0000 0.0000 0.0000
# 4 0.0000 0.0000 0.0000 37.4455 0.0000 0.0000
# 5 0.0000 0.0000 0.0000 0.0000 26.6495 0.0000
# 6 0.0000 0.0000 0.0000 0.0000 0.0000 23.1315
#
#
#
# Elastic Compliance Matrix: (Units=1/GPa)
#
#
# Indices 1 2 3 4 5 6 
#
# 1 0.012586 -0.006316 -0.001395 0.000000 0.000000 0.000000
# 2 -0.006316 0.017869 -0.001794 0.000000 0.000000 0.000000
# 3 -0.001395 -0.001794 0.014219 0.000000 0.000000 0.000000
# 4 0.000000 0.000000 0.000000 0.026705 0.000000 0.000000
# 5 0.000000 0.000000 0.000000 0.000000 0.037524 0.000000
# 6 0.000000 0.000000 0.000000 0.000000 0.000000 0.043231
#
#
# Mechanical properties :
#
#
# Convention : Reuss Voigt Hill
#
# Bulk Modulus (GPa) = 38.96275 41.06544 40.01410
# Shear Modulus (GPa) = 27.82426 29.40961 28.61693
#
# Velocity S-wave (km/s) = 3.39938 3.49488 3.44746
# Velocity P-wave (km/s) = 5.62045 5.77414 5.69781
#
# Compressibility (1/GPa) = 0.02566554
#
# Stress axis : x y z
#
# Youngs Moduli (GPa) = 79.45221 55.96293 70.32648
#
# Poissons Ratio (x) = 0.35344 0.09811
# Poissons Ratio (y) = 0.50179 0.12615
# Poissons Ratio (z) = 0.11085 0.10038
#
# Static dielectric constant tensor:
#      x y z
#    x 1.899650 0.000000 0.000000 
#    y 0.000000 1.927380 0.000000 
#    z 0.000000 0.000000 2.122370 
# 
# From -- ./inp_files/2959.got.cif
#   From: 2010.05.17/outbox.cif.g08.bks.cpg/sg29_2_cif.got.tgz:2959.got - 2010.06.04 01:19:37.
