data_PCOD9340091
_publ_section_title
;
Structure prediction by ZEFSAII (Michael W. Deem and Ramdas Pophale) SiO2 
 PCOD9340091
Probable space group: P C A 21
;
_chemical_formula_sum "Si O2"
_cell_formula_units_Z 28
_cell_length_a 18.443247
_cell_length_b 8.799441
_cell_length_c 8.209063
_cell_angle_alpha 90.000000
_cell_angle_beta 90.000000
_cell_angle_gamma 90.000000
_cell_volume 1332.251000
_symmetry_space_group_name_H-M "P C A 21"
_symmetry_group_IT_number 29
_symmetry_cell_setting 'orthorhombic'
loop_
_space_group_symop_operation_xyz
x,y,z
-x,-y,1/2+z
1/2-x,y,1/2+z
1/2+x,-y,z
loop_
_atom_site_type_symbol
_atom_site_label
_atom_site_fract_x
_atom_site_fract_y
_atom_site_fract_z
Si Si1 0.217574 0.013956 0.922930
Si Si2 0.017091 0.073199 0.648827
Si Si3 0.882891 0.857724 0.686860
Si Si4 0.468109 0.321898 0.901942
Si Si5 0.626646 0.723897 0.855826
Si Si6 0.586030 0.437837 0.650691
Si Si7 0.151932 0.871350 0.604472
O O1 0.179265 0.906608 0.789463
O O2 0.202313 0.180975 0.842563
O O3 0.294442 0.947272 0.973387
O O4 0.178772 0.040195 0.099902
O O5 0.993796 0.197719 0.517078
O O6 0.063193 0.169278 0.780370
O O7 0.075210 0.953314 0.582090
O O8 0.949618 0.973850 0.701840
O O9 0.892081 0.758411 0.849126
O O10 0.890163 0.727675 0.546794
O O11 0.522533 0.360857 0.757103
O O12 0.449484 0.471555 0.002098
O O13 0.624045 0.565304 0.764479
O O14 0.640078 0.307715 0.590253
#
# Coordination Sequence:
#
# PCOD9340091 Si02
#       7
#     4   4   4   4   4   4   4
#     4   9  23  41  64  90 126 172 229 271 318 396
#     4  10  19  36  65  92 124 167 218 273 326 382
#     4  10  18  38  63  96 119 170 216 270 324 387
#     4  11  22  36  63 101 133 167 209 274 338 404
#     4   8  20  38  60  90 129 164 204 277 332 384
#     4  11  22  40  63 100 141 164 213 279 356 390
#     4  11  22  43  64  93 130 174 227 278 322 407
#
# _framework density 21.017060000000001
#
# number of rings (size 3 to 8) (size 9 to 14) (size 15 to 20)
#    0.857    1.143    1.429    2.571    2.000    0.000 
#    0.000    7.143    3.143    0.000    0.000    0.000 
#    0.000    0.000    0.000    0.000    0.000    0.000 
#
# Total GULP energy -155971.702720 kJ/mol
# GULP energy per Si atom -5570.417954 kJ/mol
# Density = 2.096922 g / cm^3
# Si number density = 21.017060 Si / 1000 Ang^3
#
#
#
# Elastic Constant Matrix: (Units=GPa)
#
#
# Indices 1 2 3 4 5 6 
#
# 1 58.6811 32.9371 4.9445 0.0000 0.0000 0.0000
# 2 32.9371 97.4037 7.8658 0.0000 0.0000 0.0000
# 3 4.9445 7.8658 50.6095 0.0000 0.0000 0.0000
# 4 0.0000 0.0000 0.0000 23.6666 0.0000 0.0000
# 5 0.0000 0.0000 0.0000 0.0000 25.1537 0.0000
# 6 0.0000 0.0000 0.0000 0.0000 0.0000 24.8984
#
#
#
# Elastic Compliance Matrix: (Units=1/GPa)
#
#
# Indices 1 2 3 4 5 6 
#
# 1 0.021080 -0.007050 -0.000964 0.000000 0.000000 0.000000
# 2 -0.007050 0.012755 -0.001294 0.000000 0.000000 0.000000
# 3 -0.000964 -0.001294 0.020054 0.000000 0.000000 0.000000
# 4 0.000000 0.000000 0.000000 0.042254 0.000000 0.000000
# 5 0.000000 0.000000 0.000000 0.000000 0.039756 0.000000
# 6 0.000000 0.000000 0.000000 0.000000 0.000000 0.040163
#
#
# Mechanical properties :
#
#
# Convention : Reuss Voigt Hill
#
# Bulk Modulus (GPa) = 28.34954 33.13213 30.74083
# Shear Modulus (GPa) = 24.22073 25.47354 24.84713
#
# Velocity S-wave (km/s) = 3.39843 3.48521 3.44210
# Velocity P-wave (km/s) = 5.37747 5.65635 5.51867
#
# Compressibility (1/GPa) = 0.03527394
#
# Stress axis : x y z
#
# Youngs Moduli (GPa) = 47.43891 78.40011 49.86454
#
# Poissons Ratio (x) = 0.55275 0.04805
# Poissons Ratio (y) = 0.33446 0.06451
# Poissons Ratio (z) = 0.04572 0.10142
#
# Static dielectric constant tensor:
#      x y z
#    x 1.801230 0.000000 0.000000 
#    y 0.000000 1.727000 0.000000 
#    z 0.000000 0.000000 1.819160 
# 
# From -- ./inp_files/2448.got.cif
#   From: 2010.05.17/outbox.cif.g08.bks.cpg/sg29_2_cif.got.tgz:2448.got - 2010.06.04 01:19:37.
