data_PCOD9340877
_publ_section_title
;
Structure prediction by ZEFSAII (Michael W. Deem and Ramdas Pophale) SiO2 
 PCOD9340877
Probable space group: P C A 21
;
_chemical_formula_sum "Si O2"
_cell_formula_units_Z 32
_cell_length_a 13.296883
_cell_length_b 6.655784
_cell_length_c 15.746422
_cell_angle_alpha 90.000000
_cell_angle_beta 90.000000
_cell_angle_gamma 90.000000
_cell_volume 1393.576945
_symmetry_space_group_name_H-M "P C A 21"
_symmetry_group_IT_number 29
_symmetry_cell_setting 'orthorhombic'
loop_
_space_group_symop_operation_xyz
x,y,z
-x,-y,1/2+z
1/2-x,y,1/2+z
1/2+x,-y,z
loop_
_atom_site_type_symbol
_atom_site_label
_atom_site_fract_x
_atom_site_fract_y
_atom_site_fract_z
Si Si1 0.875636 0.416200 0.617370
Si Si2 0.049941 0.307967 0.379972
Si Si3 0.068310 0.709903 0.293080
Si Si4 0.095958 0.944645 0.001050
Si Si5 0.939660 0.066801 0.242484
Si Si6 0.778052 0.510991 0.977647
Si Si7 0.457199 0.716899 0.067868
Si Si8 0.237477 0.847756 0.869199
O O1 0.866730 0.399150 0.718744
O O2 0.876822 0.187127 0.583080
O O3 0.795532 0.537568 0.558660
O O4 0.981664 0.523376 0.600012
O O5 0.028108 0.540151 0.356272
O O6 0.157677 0.321654 0.427387
O O7 0.974957 0.200979 0.445056
O O8 0.025473 0.196800 0.291388
O O9 0.147098 0.852349 0.342201
O O10 0.979876 0.840331 0.251979
O O11 0.033833 0.144137 0.016131
O O12 0.196130 0.979999 0.946812
O O13 0.835949 0.101727 0.291987
O O14 0.927952 0.146424 0.148003
O O15 0.722567 0.379764 0.905270
O O16 0.862042 0.360618 0.016877
#
# Coordination Sequence:
#
# PCOD9340877 Si02
#       8
#     4   4   4   4   4   4   4   4
#     4  11  22  43  64  97 134 173 224 268 336 400
#     4  10  22  40  65  95 127 174 218 271 332 391
#     4  11  22  43  66  94 137 178 216 278 338 393
#     4  10  22  41  65  96 129 170 227 269 329 398
#     4  11  23  41  68  96 133 173 225 276 336 395
#     4  10  23  42  68  95 139 176 218 284 329 397
#     4  12  23  42  70  96 133 181 216 281 334 396
#     4   9  23  40  64  95 130 171 216 279 322 392
#
# _framework density 22.962492999999998
#
# number of rings (size 3 to 8) (size 9 to 14) (size 15 to 20)
#    0.000    1.500    3.750    0.750    7.000    1.000 
#    2.250    6.250    0.000    0.000    0.000    0.000 
#    0.000    0.000    0.000    0.000    0.000    0.000 
#
# Total GULP energy -178667.846555 kJ/mol
# GULP energy per Si atom -5583.370205 kJ/mol
# Density = 2.291023 g / cm^3
# Si number density = 22.962493 Si / 1000 Ang^3
#
#
#
# Elastic Constant Matrix: (Units=GPa)
#
#
# Indices 1 2 3 4 5 6 
#
# 1 57.9498 26.4498 2.2675 0.0000 0.0000 0.0000
# 2 26.4498 64.7112 12.3064 0.0000 0.0000 0.0000
# 3 2.2675 12.3064 73.9403 0.0000 0.0000 0.0000
# 4 0.0000 0.0000 0.0000 21.2780 0.0000 0.0000
# 5 0.0000 0.0000 0.0000 0.0000 36.0162 0.0000
# 6 0.0000 0.0000 0.0000 0.0000 0.0000 46.6201
#
#
#
# Elastic Compliance Matrix: (Units=1/GPa)
#
#
# Indices 1 2 3 4 5 6 
#
# 1 0.021262 -0.008847 0.000820 0.000000 0.000000 0.000000
# 2 -0.008847 0.019639 -0.002997 0.000000 0.000000 0.000000
# 3 0.000820 -0.002997 0.013998 0.000000 0.000000 0.000000
# 4 0.000000 0.000000 0.000000 0.046997 0.000000 0.000000
# 5 0.000000 0.000000 0.000000 0.000000 0.027765 0.000000
# 6 0.000000 0.000000 0.000000 0.000000 0.000000 0.021450
#
#
# Mechanical properties :
#
#
# Convention : Reuss Voigt Hill
#
# Bulk Modulus (GPa) = 30.43940 30.96099 30.70020
# Shear Modulus (GPa) = 27.15773 31.15468 29.15621
#
# Velocity S-wave (km/s) = 3.44277 3.68742 3.56720
# Velocity P-wave (km/s) = 5.39337 5.62512 5.51047
#
# Compressibility (1/GPa) = 0.03285215
#
# Stress axis : x y z
#
# Youngs Moduli (GPa) = 47.03219 50.91850 71.43803
#
# Poissons Ratio (x) = 0.45045 -0.05861
# Poissons Ratio (y) = 0.41607 0.21413
# Poissons Ratio (z) = -0.03858 0.15262
#
# Static dielectric constant tensor:
#      x y z
#    x 1.838800 0.000000 0.000000 
#    y 0.000000 1.856690 0.000000 
#    z 0.000000 0.000000 1.895860 
# 
# From -- ./inp_files/5256.got.cif
#   From: 2010.05.17/outbox.cif.g08.bks.cpg/sg29_3_cif.got.tgz:5256.got - 2010.06.04 01:19:37.
