data_PCOD9340215
_publ_section_title
;
Structure prediction by ZEFSAII (Michael W. Deem and Ramdas Pophale) SiO2 
 PCOD9340215
Probable space group: P C A 21
;
_chemical_formula_sum "Si O2"
_cell_formula_units_Z 32
_cell_length_a 25.713937
_cell_length_b 9.370975
_cell_length_c 5.060728
_cell_angle_alpha 90.000000
_cell_angle_beta 90.000000
_cell_angle_gamma 90.000000
_cell_volume 1219.456606
_symmetry_space_group_name_H-M "P C A 21"
_symmetry_group_IT_number 29
_symmetry_cell_setting 'orthorhombic'
loop_
_space_group_symop_operation_xyz
x,y,z
-x,-y,1/2+z
1/2-x,y,1/2+z
1/2+x,-y,z
loop_
_atom_site_type_symbol
_atom_site_label
_atom_site_fract_x
_atom_site_fract_y
_atom_site_fract_z
Si Si1 0.773046 0.996108 0.008740
Si Si2 0.122529 0.332483 0.793027
Si Si3 0.278598 0.420759 0.643476
Si Si4 0.880635 0.097745 0.892897
Si Si5 0.577213 0.801421 0.312888
Si Si6 0.509321 0.402034 0.038468
Si Si7 0.199328 0.740119 0.014945
Si Si8 0.105482 0.649248 0.730035
O O1 0.739035 0.920344 0.231726
O O2 0.743642 0.147297 0.942245
O O3 0.832943 0.027370 0.065304
O O4 0.172499 0.363542 0.976709
O O5 0.121744 0.237729 0.530473
O O6 0.104789 0.482998 0.661395
O O7 0.085377 0.266040 0.022325
O O8 0.269176 0.383315 0.947693
O O9 0.283881 0.594253 0.653690
O O10 0.844986 0.171311 0.670228
O O11 0.917730 0.972102 0.793215
O O12 0.911368 0.221526 0.044519
O O13 0.527039 0.730233 0.451991
O O14 0.496953 0.527994 0.825051
O O15 0.568502 0.353760 0.985672
O O16 0.166165 0.682089 0.769107
#
# Coordination Sequence:
#
# PCOD9340215 Si02
#       8
#     4   4   4   4   4   4   4   4
#     4  10  19  38  60  97 134 185 223 284 349 427
#     4  11  26  45  76  98 150 193 246 295 376 444
#     4  11  23  39  67 105 140 183 249 311 351 418
#     4  11  26  42  72 108 149 184 246 301 373 426
#     4  12  26  51  69 108 148 198 235 314 378 455
#     4  12  25  49  77 105 140 194 247 304 385 458
#     4  10  23  38  67 103 144 184 244 299 361 430
#     4  11  24  44  76 104 133 189 258 300 357 440
#
# _framework density 26.241195999999999
#
# number of rings (size 3 to 8) (size 9 to 14) (size 15 to 20)
#    0.000    1.000    3.750    2.250   12.250    0.000 
#    2.250    7.500    0.000    0.000    0.000    0.000 
#    0.000    0.000    0.000    0.000    0.000    0.000 
#
# Total GULP energy -178785.388500 kJ/mol
# GULP energy per Si atom -5587.043391 kJ/mol
# Density = 2.618147 g / cm^3
# Si number density = 26.241196 Si / 1000 Ang^3
#
#
#
# Elastic Constant Matrix: (Units=GPa)
#
#
# Indices 1 2 3 4 5 6 
#
# 1 69.8358 22.3413 -8.5772 0.0000 0.0000 0.0000
# 2 22.3413 127.4685 34.2971 0.0000 0.0000 0.0000
# 3 -8.5772 34.2971 125.8751 0.0000 0.0000 0.0000
# 4 0.0000 0.0000 0.0000 23.8461 0.0000 0.0000
# 5 0.0000 0.0000 0.0000 0.0000 39.3506 0.0000
# 6 0.0000 0.0000 0.0000 0.0000 0.0000 34.4520
#
#
#
# Elastic Compliance Matrix: (Units=1/GPa)
#
#
# Indices 1 2 3 4 5 6 
#
# 1 0.015602 -0.003260 0.001951 0.000000 0.000000 0.000000
# 2 -0.003260 0.009147 -0.002714 0.000000 0.000000 0.000000
# 3 0.001951 -0.002714 0.008817 0.000000 0.000000 0.000000
# 4 0.000000 0.000000 0.000000 0.041936 0.000000 0.000000
# 5 0.000000 0.000000 0.000000 0.000000 0.025413 0.000000
# 6 0.000000 0.000000 0.000000 0.000000 0.000000 0.029026
#
#
# Mechanical properties :
#
#
# Convention : Reuss Voigt Hill
#
# Bulk Modulus (GPa) = 39.18473 46.58910 42.88692
# Shear Modulus (GPa) = 34.13175 37.87095 36.00135
#
# Velocity S-wave (km/s) = 3.61043 3.80305 3.70799
# Velocity P-wave (km/s) = 5.68728 6.08909 5.89161
#
# Compressibility (1/GPa) = 0.02552014
#
# Stress axis : x y z
#
# Youngs Moduli (GPa) = 64.09553 109.32919 113.41847
#
# Poissons Ratio (x) = 0.35636 -0.22130
# Poissons Ratio (y) = 0.20892 0.30785
# Poissons Ratio (z) = -0.12506 0.29675
#
# Static dielectric constant tensor:
#      x y z
#    x 2.137460 0.000000 0.000000 
#    y 0.000000 2.111630 0.000000 
#    z 0.000000 0.000000 2.160940 
# 
# From -- ./inp_files/947.got.cif
#   From: 2010.05.17/outbox.cif.g08.bks.cpg/sg29_1_cif.got.tgz:947.got - 2010.06.04 01:19:37.
