data_PCOD9340677
_publ_section_title
;
Structure prediction by ZEFSAII (Michael W. Deem and Ramdas Pophale) SiO2 
 PCOD9340677
Probable space group: P C A 21
;
_chemical_formula_sum "Si O2"
_cell_formula_units_Z 32
_cell_length_a 13.613245
_cell_length_b 15.140460
_cell_length_c 7.031306
_cell_angle_alpha 90.000000
_cell_angle_beta 90.000000
_cell_angle_gamma 90.000000
_cell_volume 1449.228044
_symmetry_space_group_name_H-M "P C A 21"
_symmetry_group_IT_number 29
_symmetry_cell_setting 'orthorhombic'
loop_
_space_group_symop_operation_xyz
x,y,z
-x,-y,1/2+z
1/2-x,y,1/2+z
1/2+x,-y,z
loop_
_atom_site_type_symbol
_atom_site_label
_atom_site_fract_x
_atom_site_fract_y
_atom_site_fract_z
Si Si1 0.617983 0.047220 0.291490
Si Si2 0.336379 0.363290 0.999270
Si Si3 0.484080 0.600463 0.784691
Si Si4 0.831540 0.014033 0.223417
Si Si5 0.984258 0.217287 0.926723
Si Si6 0.855458 0.815987 0.157806
Si Si7 0.863449 0.555775 0.616437
Si Si8 0.492368 0.120340 0.809111
O O1 0.727815 0.061159 0.225436
O O2 0.624537 0.024404 0.515277
O O3 0.557126 0.136279 0.300783
O O4 0.572319 0.957277 0.210747
O O5 0.436410 0.383116 0.116046
O O6 0.299204 0.266383 0.064900
O O7 0.247154 0.432647 0.034673
O O8 0.366311 0.369930 0.780108
O O9 0.437169 0.691221 0.862925
O O10 0.399044 0.533672 0.720702
O O11 0.554888 0.567605 0.954282
O O12 0.908480 0.064552 0.359773
O O13 0.812628 0.908809 0.235590
O O14 0.094046 0.223766 0.845907
O O15 0.981422 0.191600 0.147396
O O16 0.932062 0.840207 0.985401
#
# Coordination Sequence:
#
# PCOD9340677 Si02
#       8
#     4   4   4   4   4   4   4   4
#     4  10  22  36  59  86 127 173 212 265 321 384
#     4  11  24  41  69 105 134 172 228 283 339 424
#     4  11  24  43  71  97 135 178 219 282 353 415
#     4  10  22  34  60  89 121 174 216 259 327 380
#     4  10  22  40  62  89 125 173 218 265 323 398
#     4  10  22  38  62  92 128 170 216 275 331 382
#     4  12  23  45  71 101 138 174 221 288 359 415
#     4  10  21  41  58  89 130 176 216 271 321 388
#
# _framework density 22.080724
#
# number of rings (size 3 to 8) (size 9 to 14) (size 15 to 20)
#    0.000    1.500    3.750    0.750    3.500    3.000 
#    0.000    2.500    0.000    0.000    0.000    0.000 
#    0.000    0.000    0.000    0.000    0.000    0.000 
#
# Total GULP energy -178443.439746 kJ/mol
# GULP energy per Si atom -5576.357492 kJ/mol
# Density = 2.203047 g / cm^3
# Si number density = 22.080724 Si / 1000 Ang^3
#
#
#
# Elastic Constant Matrix: (Units=GPa)
#
#
# Indices 1 2 3 4 5 6 
#
# 1 86.0334 24.5350 10.5073 0.0000 0.0000 0.0000
# 2 24.5350 92.7248 8.7719 0.0000 0.0000 0.0000
# 3 10.5073 8.7719 66.1032 0.0000 0.0000 0.0000
# 4 0.0000 0.0000 0.0000 28.1304 0.0000 0.0000
# 5 0.0000 0.0000 0.0000 0.0000 19.0463 0.0000
# 6 0.0000 0.0000 0.0000 0.0000 0.0000 25.6871
#
#
#
# Elastic Compliance Matrix: (Units=1/GPa)
#
#
# Indices 1 2 3 4 5 6 
#
# 1 0.012736 -0.003219 -0.001597 0.000000 0.000000 0.000000
# 2 -0.003219 0.011735 -0.001046 0.000000 0.000000 0.000000
# 3 -0.001597 -0.001046 0.015521 0.000000 0.000000 0.000000
# 4 0.000000 0.000000 0.000000 0.035549 0.000000 0.000000
# 5 0.000000 0.000000 0.000000 0.000000 0.052504 0.000000
# 6 0.000000 0.000000 0.000000 0.000000 0.000000 0.038930
#
#
# Mechanical properties :
#
#
# Convention : Reuss Voigt Hill
#
# Bulk Modulus (GPa) = 35.37518 36.94331 36.15925
# Shear Modulus (GPa) = 26.57860 27.97590 27.27725
#
# Velocity S-wave (km/s) = 3.47320 3.56333 3.51856
# Velocity P-wave (km/s) = 5.66920 5.80492 5.73746
#
# Compressibility (1/GPa) = 0.02826841
#
# Stress axis : x y z
#
# Youngs Moduli (GPa) = 78.51472 85.21332 64.43086
#
# Poissons Ratio (x) = 0.27430 0.10292
# Poissons Ratio (y) = 0.25274 0.06737
# Poissons Ratio (z) = 0.12541 0.08910
#
# Static dielectric constant tensor:
#      x y z
#    x 1.842640 0.000000 0.000000 
#    y 0.000000 1.888170 0.000000 
#    z 0.000000 0.000000 1.855850 
# 
# From -- ./inp_files/1919.got.cif
#   From: 2010.05.17/outbox.cif.g08.bks.cpg/sg29_1_cif.got.tgz:1919.got - 2010.06.04 01:19:37.
