data_PCOD9340675
_publ_section_title
;
Structure prediction by ZEFSAII (Michael W. Deem and Ramdas Pophale) SiO2 
 PCOD9340675
Probable space group: P C A 21
;
_chemical_formula_sum "Si O2"
_cell_formula_units_Z 28
_cell_length_a 17.064190
_cell_length_b 5.545357
_cell_length_c 12.735511
_cell_angle_alpha 90.000000
_cell_angle_beta 90.000000
_cell_angle_gamma 90.000000
_cell_volume 1205.123524
_symmetry_space_group_name_H-M "P C A 21"
_symmetry_group_IT_number 29
_symmetry_cell_setting 'orthorhombic'
loop_
_space_group_symop_operation_xyz
x,y,z
-x,-y,1/2+z
1/2-x,y,1/2+z
1/2+x,-y,z
loop_
_atom_site_type_symbol
_atom_site_label
_atom_site_fract_x
_atom_site_fract_y
_atom_site_fract_z
Si Si1 0.654533 0.979711 0.341720
Si Si2 0.793822 0.760136 0.233203
Si Si3 0.443440 0.358892 0.350274
Si Si4 0.461963 0.965745 0.017853
Si Si5 0.404084 0.646202 0.536050
Si Si6 0.466899 0.292810 0.699321
Si Si7 0.265700 0.750151 0.672576
O O1 0.725974 0.794397 0.322174
O O2 0.582509 0.894464 0.267445
O O3 0.619409 0.992339 0.457803
O O4 0.687971 0.219380 0.284840
O O5 0.879314 0.773164 0.282165
O O6 0.778190 0.505768 0.175268
O O7 0.783434 0.004492 0.167569
O O8 0.489420 0.193186 0.432396
O O9 0.395762 0.554313 0.418686
O O10 0.501609 0.504054 0.276403
O O11 0.465540 0.824385 0.127691
O O12 0.515065 0.202924 0.037959
O O13 0.410952 0.420574 0.614892
O O14 0.329002 0.779236 0.580116
#
# Coordination Sequence:
#
# PCOD9340675 Si02
#       7
#     4   4   4   4   4   4   4
#     4  10  21  40  72  93 139 180 231 282 357 413
#     4  10  24  43  69  97 142 188 222 293 355 421
#     4  11  26  41  70 101 146 178 244 295 359 417
#     4  11  23  39  70 104 128 189 236 298 349 433
#     4  11  21  40  70 100 135 182 235 282 358 421
#     4  11  22  41  67 104 137 182 233 297 352 423
#     4  10  21  42  70  93 139 185 229 275 364 420
#
# _framework density 23.234134000000001
#
# number of rings (size 3 to 8) (size 9 to 14) (size 15 to 20)
#    0.857    0.571    4.286    0.857    4.000    0.000 
#    0.000    4.286    0.000    0.000    0.000    0.000 
#    0.000    0.000    0.000    0.000    0.000    0.000 
#
# Total GULP energy -156401.567172 kJ/mol
# GULP energy per Si atom -5585.770256 kJ/mol
# Density = 2.318125 g / cm^3
# Si number density = 23.234134 Si / 1000 Ang^3
#
#
#
# Elastic Constant Matrix: (Units=GPa)
#
#
# Indices 1 2 3 4 5 6 
#
# 1 51.3008 18.2910 17.6145 0.0000 0.0000 0.0000
# 2 18.2910 92.0393 13.4174 0.0000 0.0000 0.0000
# 3 17.6145 13.4174 50.5416 0.0000 0.0000 0.0000
# 4 0.0000 0.0000 0.0000 36.9809 0.0000 0.0000
# 5 0.0000 0.0000 0.0000 0.0000 -13.6266 0.0000
# 6 0.0000 0.0000 0.0000 0.0000 0.0000 -8.1251
#
#
#
# Elastic Compliance Matrix: (Units=1/GPa)
#
#
# Indices 1 2 3 4 5 6 
#
# 1 0.023220 -0.003573 -0.007144 0.000000 0.000000 0.000000
# 2 -0.003573 0.011852 -0.001901 0.000000 0.000000 0.000000
# 3 -0.007144 -0.001901 0.022780 0.000000 0.000000 0.000000
# 4 0.000000 0.000000 0.000000 0.027041 0.000000 0.000000
# 5 0.000000 0.000000 0.000000 0.000000 -0.073386 0.000000
# 6 0.000000 0.000000 0.000000 0.000000 0.000000 -0.123076
#
#
# Mechanical properties :
#
#
# Convention : Reuss Voigt Hill
#
# Bulk Modulus (GPa) = 30.65992 32.50304 31.58148
# Shear Modulus (GPa) = -66.25952 12.68309 -26.78822
#
# Velocity S-wave (km/s) = -5.34604 2.33895 -3.39922
# Velocity P-wave (km/s) = 4.98819 4.61670 1.33569
#
# Compressibility (1/GPa) = 0.03261587
#
# Stress axis : x y z
#
# Youngs Moduli (GPa) = 43.06688 84.37289 43.89787
#
# Poissons Ratio (x) = 0.30147 0.31360
# Poissons Ratio (y) = 0.15388 0.08346
# Poissons Ratio (z) = 0.30766 0.16041
#
# Static dielectric constant tensor:
#      x y z
#    x 1.908670 0.000000 0.000000 
#    y 0.000000 1.918990 0.000000 
#    z 0.000000 0.000000 1.842820 
# 
# From -- ./inp_files/3780.got.cif
#   From: 2010.05.17/outbox.cif.g08.bks.cpg/sg29_2_cif.got.tgz:3780.got - 2010.06.04 01:19:37.
