data_PCOD9340399
_publ_section_title
;
Structure prediction by ZEFSAII (Michael W. Deem and Ramdas Pophale) SiO2 
 PCOD9340399
Probable space group: P C A 21
;
_chemical_formula_sum "Si O2"
_cell_formula_units_Z 32
_cell_length_a 15.100096
_cell_length_b 5.316021
_cell_length_c 17.323378
_cell_angle_alpha 90.000000
_cell_angle_beta 90.000000
_cell_angle_gamma 90.000000
_cell_volume 1390.589603
_symmetry_space_group_name_H-M "P C A 21"
_symmetry_group_IT_number 29
_symmetry_cell_setting 'orthorhombic'
loop_
_space_group_symop_operation_xyz
x,y,z
-x,-y,1/2+z
1/2-x,y,1/2+z
1/2+x,-y,z
loop_
_atom_site_type_symbol
_atom_site_label
_atom_site_fract_x
_atom_site_fract_y
_atom_site_fract_z
Si Si1 0.550627 0.127960 0.890470
Si Si2 0.096209 0.591040 0.267408
Si Si3 0.254805 0.108716 0.392447
Si Si4 0.745435 0.002209 0.221214
Si Si5 0.544625 0.980770 0.725459
Si Si6 0.988803 0.636915 0.477354
Si Si7 0.899774 0.797489 0.628448
Si Si8 0.835054 0.410772 0.936261
O O1 0.548031 0.395462 0.931640
O O2 0.646624 0.998297 0.892432
O O3 0.526719 0.156950 0.800403
O O4 0.497479 0.905077 0.933337
O O5 0.098214 0.397125 0.198289
O O6 0.111683 0.526657 0.356638
O O7 0.000546 0.727619 0.258601
O O8 0.183204 0.764594 0.247507
O O9 0.236367 0.159404 0.300875
O O10 0.236435 0.365935 0.437874
O O11 0.201249 0.870479 0.426172
O O12 0.851169 0.010243 0.208932
O O13 0.695793 0.920243 0.142844
O O14 0.483299 0.027814 0.651291
O O15 0.921986 0.685447 0.546801
O O16 0.089659 0.567459 0.501325
#
# Coordination Sequence:
#
# PCOD9340399 Si02
#       8
#     4   4   4   4   4   4   4   4
#     4  11  24  44  67 100 131 177 231 285 337 408
#     4  10  20  38  67  93 129 172 225 283 339 398
#     4  10  21  40  69  96 125 166 232 281 332 389
#     4   9  21  39  65  96 128 169 229 292 330 399
#     4  10  22  42  70  98 126 182 242 283 332 421
#     4  12  26  41  67  96 142 181 214 279 357 415
#     4  11  24  42  64  97 137 183 220 283 359 413
#     4  11  20  40  65  96 128 172 219 280 330 407
#
# _framework density 23.011821999999999
#
# number of rings (size 3 to 8) (size 9 to 14) (size 15 to 20)
#    0.000    1.500    2.500    2.250    5.250    1.000 
#    2.250    2.500    0.000    0.000    0.000    0.000 
#    0.000    0.000    0.000    0.000    0.000    0.000 
#
# Total GULP energy -178310.376053 kJ/mol
# GULP energy per Si atom -5572.199252 kJ/mol
# Density = 2.295945 g / cm^3
# Si number density = 23.011822 Si / 1000 Ang^3
#
#
#
# Elastic Constant Matrix: (Units=GPa)
#
#
# Indices 1 2 3 4 5 6 
#
# 1 107.4955 14.6273 6.4439 0.0000 0.0000 0.0000
# 2 14.6273 72.1286 25.8235 0.0000 0.0000 0.0000
# 3 6.4439 25.8235 35.4874 0.0000 0.0000 0.0000
# 4 0.0000 0.0000 0.0000 19.2880 0.0000 0.0000
# 5 0.0000 0.0000 0.0000 0.0000 15.7747 0.0000
# 6 0.0000 0.0000 0.0000 0.0000 0.0000 24.5909
#
#
#
# Elastic Compliance Matrix: (Units=1/GPa)
#
#
# Indices 1 2 3 4 5 6 
#
# 1 0.009572 -0.001783 -0.000440 0.000000 0.000000 0.000000
# 2 -0.001783 0.019081 -0.013561 0.000000 0.000000 0.000000
# 3 -0.000440 -0.013561 0.038127 0.000000 0.000000 0.000000
# 4 0.000000 0.000000 0.000000 0.051846 0.000000 0.000000
# 5 0.000000 0.000000 0.000000 0.000000 0.063393 0.000000
# 6 0.000000 0.000000 0.000000 0.000000 0.000000 0.040665
#
#
# Mechanical properties :
#
#
# Convention : Reuss Voigt Hill
#
# Bulk Modulus (GPa) = 28.40081 34.32233 31.36157
# Shear Modulus (GPa) = 18.79773 23.14518 20.97146
#
# Velocity S-wave (km/s) = 2.86120 3.17487 3.02211
# Velocity P-wave (km/s) = 4.82534 5.32796 5.08287
#
# Compressibility (1/GPa) = 0.03521026
#
# Stress axis : x y z
#
# Youngs Moduli (GPa) = 104.47361 52.40847 26.22816
#
# Poissons Ratio (x) = 0.09347 0.01155
# Poissons Ratio (y) = 0.18633 0.35568
# Poissons Ratio (z) = 0.04600 0.71071
#
# Static dielectric constant tensor:
#      x y z
#    x 1.999880 0.000000 0.000000 
#    y 0.000000 1.934720 0.000000 
#    z 0.000000 0.000000 1.859960 
# 
# From -- ./inp_files/5216.got.cif
#   From: 2010.05.17/outbox.cif.g08.bks.cpg/sg29_3_cif.got.tgz:5216.got - 2010.06.04 01:19:37.
