data_PCOD9340644
_publ_section_title
;
Structure prediction by ZEFSAII (Michael W. Deem and Ramdas Pophale) SiO2 
 PCOD9340644
Probable space group: P C A 21
;
_chemical_formula_sum "Si O2"
_cell_formula_units_Z 28
_cell_length_a 9.596661
_cell_length_b 8.384566
_cell_length_c 16.397473
_cell_angle_alpha 90.000000
_cell_angle_beta 90.000000
_cell_angle_gamma 90.000000
_cell_volume 1319.403603
_symmetry_space_group_name_H-M "P C A 21"
_symmetry_group_IT_number 29
_symmetry_cell_setting 'orthorhombic'
loop_
_space_group_symop_operation_xyz
x,y,z
-x,-y,1/2+z
1/2-x,y,1/2+z
1/2+x,-y,z
loop_
_atom_site_type_symbol
_atom_site_label
_atom_site_fract_x
_atom_site_fract_y
_atom_site_fract_z
Si Si1 0.503314 0.186090 0.773230
Si Si2 0.720474 0.683260 0.145216
Si Si3 0.867430 0.588913 0.886556
Si Si4 0.121391 0.502311 0.989395
Si Si5 0.569151 0.972393 0.636910
Si Si6 0.311025 0.805417 0.588268
Si Si7 0.272680 0.612546 0.744336
O O1 0.401768 0.251046 0.702454
O O2 0.418665 0.238356 0.854142
O O3 0.648055 0.282072 0.780314
O O4 0.540444 0.015307 0.732776
O O5 0.647958 0.611597 0.065674
O O6 0.833809 0.817622 0.129044
O O7 0.789933 0.537602 0.194804
O O8 0.873119 0.462630 0.811996
O O9 0.709838 0.574900 0.916516
O O10 0.965117 0.531699 0.960015
O O11 0.178530 0.676152 0.017165
O O12 0.428808 0.940898 0.586630
O O13 0.660370 0.116948 0.600393
O O14 0.344840 0.715197 0.673681
#
# Coordination Sequence:
#
# PCOD9340644 Si02
#       7
#     4   4   4   4   4   4   4
#     4  10  21  40  62  94 126 170 219 269 320 393
#     4  10  22  36  68  93 118 171 225 270 321 378
#     4  11  22  40  64  91 134 163 209 270 332 385
#     4  11  24  39  67  97 130 168 214 278 330 390
#     4  11  21  40  64  92 130 168 216 271 319 390
#     4  10  23  39  67  93 128 168 223 268 322 382
#     4   9  21  38  64  94 122 162 226 276 308 380
#
# _framework density 21.221709000000001
#
# number of rings (size 3 to 8) (size 9 to 14) (size 15 to 20)
#    0.000    1.714    2.857    0.857   12.000    0.000 
#    0.000    0.000   22.000    0.000    0.000    0.000 
#    0.000    0.000    0.000    0.000    0.000    0.000 
#
# Total GULP energy -156188.318176 kJ/mol
# GULP energy per Si atom -5578.154221 kJ/mol
# Density = 2.117341 g / cm^3
# Si number density = 21.221709 Si / 1000 Ang^3
#
#
#
# Elastic Constant Matrix: (Units=GPa)
#
#
# Indices 1 2 3 4 5 6 
#
# 1 56.7832 0.0612 -7.2899 0.0000 0.0000 0.0000
# 2 0.0612 43.3822 -3.0217 0.0000 0.0000 0.0000
# 3 -7.2899 -3.0217 39.7546 0.0000 0.0000 0.0000
# 4 0.0000 0.0000 0.0000 23.4771 0.0000 0.0000
# 5 0.0000 0.0000 0.0000 0.0000 25.1127 0.0000
# 6 0.0000 0.0000 0.0000 0.0000 0.0000 21.9675
#
#
#
# Elastic Compliance Matrix: (Units=1/GPa)
#
#
# Indices 1 2 3 4 5 6 
#
# 1 0.018037 0.000206 0.003323 0.000000 0.000000 0.000000
# 2 0.000206 0.023176 0.001799 0.000000 0.000000 0.000000
# 3 0.003323 0.001799 0.025900 0.000000 0.000000 0.000000
# 4 0.000000 0.000000 0.000000 0.042595 0.000000 0.000000
# 5 0.000000 0.000000 0.000000 0.000000 0.039820 0.000000
# 6 0.000000 0.000000 0.000000 0.000000 0.000000 0.045522
#
#
# Mechanical properties :
#
#
# Convention : Reuss Voigt Hill
#
# Bulk Modulus (GPa) = 12.85828 13.26880 13.06354
# Shear Modulus (GPa) = 23.77364 24.12284 23.94824
#
# Velocity S-wave (km/s) = 3.35065 3.37516 3.36293
# Velocity P-wave (km/s) = 4.58708 4.63196 4.60957
#
# Compressibility (1/GPa) = 0.07777088
#
# Stress axis : x y z
#
# Youngs Moduli (GPa) = 55.44083 43.14818 38.60931
#
# Poissons Ratio (x) = -0.00889 -0.12831
# Poissons Ratio (y) = -0.01142 -0.06947
# Poissons Ratio (z) = -0.18424 -0.07764
#
# Static dielectric constant tensor:
#      x y z
#    x 1.757070 0.000000 0.000000 
#    y 0.000000 1.814330 0.000000 
#    z 0.000000 0.000000 1.794180 
# 
# From -- ./inp_files/4982.got.cif
#   From: 2010.05.17/outbox.cif.g08.bks.cpg/sg29_3_cif.got.tgz:4982.got - 2010.06.04 01:19:37.
