data_PCOD9340385
_publ_section_title
;
Structure prediction by ZEFSAII (Michael W. Deem and Ramdas Pophale) SiO2 
 PCOD9340385
Probable space group: P C A 21
;
_chemical_formula_sum "Si O2"
_cell_formula_units_Z 32
_cell_length_a 19.495113
_cell_length_b 8.586476
_cell_length_c 8.207331
_cell_angle_alpha 90.000000
_cell_angle_beta 90.000000
_cell_angle_gamma 90.000000
_cell_volume 1373.860591
_symmetry_space_group_name_H-M "P C A 21"
_symmetry_group_IT_number 29
_symmetry_cell_setting 'orthorhombic'
loop_
_space_group_symop_operation_xyz
x,y,z
-x,-y,1/2+z
1/2-x,y,1/2+z
1/2+x,-y,z
loop_
_atom_site_type_symbol
_atom_site_label
_atom_site_fract_x
_atom_site_fract_y
_atom_site_fract_z
Si Si1 0.931907 0.360291 0.760140
Si Si2 0.671520 0.612855 0.758336
Si Si3 0.525057 0.033868 0.401712
Si Si4 0.345101 0.134797 0.794335
Si Si5 0.811978 0.523718 0.884341
Si Si6 0.090176 0.877975 0.745070
Si Si7 0.715114 0.949186 0.647103
Si Si8 0.451218 0.557402 0.386182
O O1 0.963526 0.198125 0.814948
O O2 0.853097 0.377978 0.813926
O O3 0.941937 0.387548 0.569879
O O4 0.972790 0.497495 0.852755
O O5 0.730723 0.523465 0.857264
O O6 0.671697 0.550162 0.573489
O O7 0.690647 0.793943 0.743621
O O8 0.599649 0.583616 0.843601
O O9 0.553182 0.054833 0.583789
O O10 0.576259 0.913279 0.310928
O O11 0.448021 0.971396 0.389176
O O12 0.336805 0.321012 0.786923
O O13 0.297241 0.051592 0.660757
O O14 0.309361 0.078671 0.963047
O O15 0.071746 0.698650 0.770334
O O16 0.170666 0.910835 0.722096
#
# Coordination Sequence:
#
# PCOD9340385 Si02
#       8
#     4   4   4   4   4   4   4   4
#     4  12  25  41  61  87 118 157 201 250 304 360
#     4  10  20  38  62  90 121 156 197 243 295 356
#     4  11  23  40  61  88 120 156 197 245 297 356
#     4   9  20  37  60  87 117 151 191 236 287 346
#     4  10  20  38  62  90 121 156 197 243 295 356
#     4  11  23  40  61  88 120 156 197 245 297 356
#     4   9  20  37  60  87 117 151 191 236 287 346
#     4  12  25  41  61  87 118 157 201 250 304 360
#
# _framework density 23.292027999999998
#
# number of rings (size 3 to 8) (size 9 to 14) (size 15 to 20)
#    0.000    1.500    0.000    5.250    0.000    6.000 
#    0.000    2.500    0.000    0.000    0.000    0.000 
#    0.000    0.000    0.000    0.000    0.000    0.000 
#
# Total GULP energy -179117.502226 kJ/mol
# GULP energy per Si atom -5597.421945 kJ/mol
# Density = 2.323901 g / cm^3
# Si number density = 23.292028 Si / 1000 Ang^3
#
#
#
# Elastic Constant Matrix: (Units=GPa)
#
#
# Indices 1 2 3 4 5 6 
#
# 1 68.0770 -11.8634 3.2562 0.0000 0.0000 0.0000
# 2 -11.8634 40.6342 -8.4320 0.0000 0.0000 0.0000
# 3 3.2562 -8.4320 43.2675 0.0000 0.0000 0.0000
# 4 0.0000 0.0000 0.0000 21.8779 0.0000 0.0000
# 5 0.0000 0.0000 0.0000 0.0000 34.6991 0.0000
# 6 0.0000 0.0000 0.0000 0.0000 0.0000 31.7703
#
#
#
# Elastic Compliance Matrix: (Units=1/GPa)
#
#
# Indices 1 2 3 4 5 6 
#
# 1 0.015480 0.004458 -0.000296 0.000000 0.000000 0.000000
# 2 0.004458 0.026931 0.004913 0.000000 0.000000 0.000000
# 3 -0.000296 0.004913 0.024092 0.000000 0.000000 0.000000
# 4 0.000000 0.000000 0.000000 0.045708 0.000000 0.000000
# 5 0.000000 0.000000 0.000000 0.000000 0.028819 0.000000
# 6 0.000000 0.000000 0.000000 0.000000 0.000000 0.031476
#
#
# Mechanical properties :
#
#
# Convention : Reuss Voigt Hill
#
# Bulk Modulus (GPa) = 11.81303 13.10002 12.45652
# Shear Modulus (GPa) = 27.38611 28.93733 28.16172
#
# Velocity S-wave (km/s) = 3.43267 3.52855 3.48094
# Velocity P-wave (km/s) = 4.56001 4.71565 4.63848
#
# Compressibility (1/GPa) = 0.08465230
#
# Stress axis : x y z
#
# Youngs Moduli (GPa) = 64.59816 37.13218 41.50798
#
# Poissons Ratio (x) = -0.16554 0.01229
# Poissons Ratio (y) = -0.28799 -0.20392
# Poissons Ratio (z) = 0.01913 -0.18242
#
# Static dielectric constant tensor:
#      x y z
#    x 1.849170 0.000000 0.000000 
#    y 0.000000 1.857140 0.000000 
#    z 0.000000 0.000000 1.866740 
# 
# From -- ./inp_files/2139.got.cif
#   From: 2010.05.17/outbox.cif.g08.bks.cpg/sg29_2_cif.got.tgz:2139.got - 2010.06.04 01:19:37.
