data_PCOD9340883
_publ_section_title
;
Structure prediction by ZEFSAII (Michael W. Deem and Ramdas Pophale) SiO2 
 PCOD9340883
Probable space group: P C A 21
;
_chemical_formula_sum "Si O2"
_cell_formula_units_Z 32
_cell_length_a 21.055022
_cell_length_b 5.510028
_cell_length_c 12.310725
_cell_angle_alpha 90.000000
_cell_angle_beta 90.000000
_cell_angle_gamma 90.000000
_cell_volume 1428.213505
_symmetry_space_group_name_H-M "P C A 21"
_symmetry_group_IT_number 29
_symmetry_cell_setting 'orthorhombic'
loop_
_space_group_symop_operation_xyz
x,y,z
-x,-y,1/2+z
1/2-x,y,1/2+z
1/2+x,-y,z
loop_
_atom_site_type_symbol
_atom_site_label
_atom_site_fract_x
_atom_site_fract_y
_atom_site_fract_z
Si Si1 0.770243 0.432804 0.265070
Si Si2 0.858297 0.215669 0.672480
Si Si3 0.010256 0.895470 0.536895
Si Si4 0.639155 0.132392 0.644033
Si Si5 0.265587 0.161843 0.639283
Si Si6 0.325322 0.496754 0.471991
Si Si7 0.014533 0.600704 0.166955
Si Si8 0.575576 0.804966 0.832443
O O1 0.706291 0.303920 0.228014
O O2 0.830398 0.381622 0.187860
O O3 0.753537 0.713895 0.252601
O O4 0.788885 0.347364 0.383173
O O5 0.863361 0.334107 0.553344
O O6 0.920403 0.319776 0.727660
O O7 0.837397 0.940666 0.652435
O O8 0.086387 0.858528 0.550429
O O9 0.984197 0.657866 0.604638
O O10 0.977034 0.898256 0.419099
O O11 0.996907 0.159256 0.591475
O O12 0.704685 0.998882 0.610455
O O13 0.605466 0.999310 0.747749
O O14 0.274622 0.357642 0.545301
O O15 0.370059 0.317144 0.405170
O O16 0.959252 0.606721 0.256382
#
# Coordination Sequence:
#
# PCOD9340883 Si02
#       8
#     4   4   4   4   4   4   4   4
#     4  10  22  40  67  95 126 174 219 282 341 408
#     4  10  23  41  63  94 138 165 223 280 341 400
#     4  11  25  43  70  99 137 183 233 283 342 416
#     4  10  23  43  66  96 139 174 230 287 348 409
#     4  10  22  41  64  96 130 172 218 298 333 403
#     4  11  21  39  69  92 124 174 228 264 348 411
#     4  11  25  45  67 102 140 180 232 288 336 417
#     4  11  23  44  70  98 134 190 229 278 351 422
#
# _framework density 22.405615999999998
#
# number of rings (size 3 to 8) (size 9 to 14) (size 15 to 20)
#    0.000    1.500    2.500    1.500    7.000    2.000 
#    9.000    0.000    0.000    0.000    0.000    0.000 
#    0.000    0.000    0.000    0.000    0.000    0.000 
#
# Total GULP energy -178330.720411 kJ/mol
# GULP energy per Si atom -5572.835013 kJ/mol
# Density = 2.235462 g / cm^3
# Si number density = 22.405616 Si / 1000 Ang^3
#
#
#
# Elastic Constant Matrix: (Units=GPa)
#
#
# Indices 1 2 3 4 5 6 
#
# 1 119.1780 14.8315 11.2732 0.0000 0.0000 0.0000
# 2 14.8315 55.1406 6.4580 0.0000 0.0000 0.0000
# 3 11.2732 6.4580 55.8253 0.0000 0.0000 0.0000
# 4 0.0000 0.0000 0.0000 17.6401 0.0000 0.0000
# 5 0.0000 0.0000 0.0000 0.0000 37.6062 0.0000
# 6 0.0000 0.0000 0.0000 0.0000 0.0000 32.3879
#
#
#
# Elastic Compliance Matrix: (Units=1/GPa)
#
#
# Indices 1 2 3 4 5 6 
#
# 1 0.008808 -0.002190 -0.001525 0.000000 0.000000 0.000000
# 2 -0.002190 0.018929 -0.001747 0.000000 0.000000 0.000000
# 3 -0.001525 -0.001747 0.018423 0.000000 0.000000 0.000000
# 4 0.000000 0.000000 0.000000 0.056689 0.000000 0.000000
# 5 0.000000 0.000000 0.000000 0.000000 0.026591 0.000000
# 6 0.000000 0.000000 0.000000 0.000000 0.000000 0.030876
#
#
# Mechanical properties :
#
#
# Convention : Reuss Voigt Hill
#
# Bulk Modulus (GPa) = 28.38169 32.80768 30.59469
# Shear Modulus (GPa) = 27.32435 30.69893 29.01164
#
# Velocity S-wave (km/s) = 3.49597 3.70556 3.60229
# Velocity P-wave (km/s) = 5.38428 5.74305 5.56656
#
# Compressibility (1/GPa) = 0.03523398
#
# Stress axis : x y z
#
# Youngs Moduli (GPa) = 113.53734 52.82817 54.27953
#
# Poissons Ratio (x) = 0.11572 0.08279
# Poissons Ratio (y) = 0.24870 0.09485
# Poissons Ratio (z) = 0.17317 0.09231
#
# Static dielectric constant tensor:
#      x y z
#    x 1.876160 0.000000 0.000000 
#    y 0.000000 1.985590 0.000000 
#    z 0.000000 0.000000 1.829640 
# 
# From -- ./inp_files/3814.got.cif
#   From: 2010.05.17/outbox.cif.g08.bks.cpg/sg29_2_cif.got.tgz:3814.got - 2010.06.04 01:19:37.
