data_PCOD9340601
_publ_section_title
;
Structure prediction by ZEFSAII (Michael W. Deem and Ramdas Pophale) SiO2 
 PCOD9340601
Probable space group: P C A 21
;
_chemical_formula_sum "Si O2"
_cell_formula_units_Z 32
_cell_length_a 8.722140
_cell_length_b 19.226940
_cell_length_c 9.565816
_cell_angle_alpha 90.000000
_cell_angle_beta 90.000000
_cell_angle_gamma 90.000000
_cell_volume 1604.187941
_symmetry_space_group_name_H-M "P C A 21"
_symmetry_group_IT_number 29
_symmetry_cell_setting 'orthorhombic'
loop_
_space_group_symop_operation_xyz
x,y,z
-x,-y,1/2+z
1/2-x,y,1/2+z
1/2+x,-y,z
loop_
_atom_site_type_symbol
_atom_site_label
_atom_site_fract_x
_atom_site_fract_y
_atom_site_fract_z
Si Si1 0.921022 0.938186 0.368860
Si Si2 0.931771 0.564759 0.222897
Si Si3 0.419800 0.650068 0.483144
Si Si4 0.397403 0.217909 0.341364
Si Si5 0.604029 0.945530 0.535058
Si Si6 0.559655 0.352010 0.460302
Si Si7 0.916059 0.789649 0.014720
Si Si8 0.570511 0.585804 0.219887
O O1 0.972581 0.857617 0.368735
O O2 0.770118 0.938568 0.465198
O O3 0.893758 0.956619 0.203869
O O4 0.027870 0.992796 0.447497
O O5 0.751690 0.576301 0.199512
O O6 0.033154 0.617413 0.131084
O O7 0.974174 0.585200 0.380815
O O8 0.983778 0.486691 0.192596
O O9 0.241555 0.638612 0.452207
O O10 0.459669 0.731520 0.478543
O O11 0.528847 0.610203 0.374777
O O12 0.502948 0.280373 0.393018
O O13 0.233935 0.220709 0.419367
O O14 0.369409 0.222660 0.175868
O O15 0.528692 0.869647 0.507059
O O16 0.500385 0.356629 0.618039
#
# Coordination Sequence:
#
# PCOD9340601 Si02
#       8
#     4   4   4   4   4   4   4   4
#     4  10  21  39  63  94 129 171 217 267 324 388
#     4  12  24  46  66  90 127 164 215 262 322 392
#     4  12  25  42  63  95 129 164 212 267 322 379
#     4  10  22  41  65  92 126 168 214 263 319 386
#     4  10  21  39  63  94 129 171 217 267 324 388
#     4  12  25  42  63  95 129 164 212 267 322 379
#     4  10  22  41  65  92 126 168 214 263 319 386
#     4  12  26  42  68  94 123 170 209 264 324 384
#
# _framework density 19.947787000000002
#
# number of rings (size 3 to 8) (size 9 to 14) (size 15 to 20)
#    0.000    1.000    1.250    6.000    1.750    2.000 
#    0.000    0.000    0.000    0.000    0.000    0.000 
#    0.000    0.000    0.000    0.000    0.000    0.000 
#
# Total GULP energy -178807.223138 kJ/mol
# GULP energy per Si atom -5587.725723 kJ/mol
# Density = 1.990238 g / cm^3
# Si number density = 19.947787 Si / 1000 Ang^3
#
#
#
# Elastic Constant Matrix: (Units=GPa)
#
#
# Indices 1 2 3 4 5 6 
#
# 1 72.7607 22.1322 11.2013 0.0000 0.0000 0.0000
# 2 22.1322 84.8401 24.4248 0.0000 0.0000 0.0000
# 3 11.2013 24.4248 67.3562 0.0000 0.0000 0.0000
# 4 0.0000 0.0000 0.0000 34.2291 0.0000 0.0000
# 5 0.0000 0.0000 0.0000 0.0000 -396.9568 0.0000
# 6 0.0000 0.0000 0.0000 0.0000 0.0000 25.0092
#
#
#
# Elastic Compliance Matrix: (Units=1/GPa)
#
#
# Indices 1 2 3 4 5 6 
#
# 1 0.015015 -0.003571 -0.001202 0.000000 0.000000 0.000000
# 2 -0.003571 0.014010 -0.004487 0.000000 0.000000 0.000000
# 3 -0.001202 -0.004487 0.016673 0.000000 0.000000 0.000000
# 4 0.000000 0.000000 0.000000 0.029215 0.000000 0.000000
# 5 0.000000 0.000000 0.000000 0.000000 -0.002519 0.000000
# 6 0.000000 0.000000 0.000000 0.000000 0.000000 0.039985
#
#
# Mechanical properties :
#
#
# Convention : Reuss Voigt Hill
#
# Bulk Modulus (GPa) = 36.79275 37.83041 37.31158
# Shear Modulus (GPa) = 35.72504 -56.39710 -10.33603
#
# Velocity S-wave (km/s) = 4.23653 -5.32294 -2.27877
# Velocity P-wave (km/s) = 6.51271 4.33272 3.43824
#
# Compressibility (1/GPa) = 0.02717926
#
# Stress axis : x y z
#
# Youngs Moduli (GPa) = 66.60042 71.37743 59.97630
#
# Poissons Ratio (x) = 0.25488 0.07210
# Poissons Ratio (y) = 0.23782 0.26908
# Poissons Ratio (z) = 0.08006 0.32023
#
# Static dielectric constant tensor:
#      x y z
#    x 1.799990 0.000000 0.000000 
#    y 0.000000 1.726720 0.000000 
#    z 0.000000 0.000000 1.689000 
# 
# From -- ./inp_files/1255.got.cif
#   From: 2010.05.17/outbox.cif.g08.bks.cpg/sg29_1_cif.got.tgz:1255.got - 2010.06.04 01:19:37.
