data_PCOD9340967
_publ_section_title
;
Structure prediction by ZEFSAII (Michael W. Deem and Ramdas Pophale) SiO2 
 PCOD9340967
Probable space group: P C A 21
;
_chemical_formula_sum "Si O2"
_cell_formula_units_Z 20
_cell_length_a 27.590727
_cell_length_b 4.798526
_cell_length_c 5.438888
_cell_angle_alpha 90.000000
_cell_angle_beta 90.000000
_cell_angle_gamma 90.000000
_cell_volume 720.080602
_symmetry_space_group_name_H-M "P C A 21"
_symmetry_group_IT_number 29
_symmetry_cell_setting 'orthorhombic'
loop_
_space_group_symop_operation_xyz
x,y,z
-x,-y,1/2+z
1/2-x,y,1/2+z
1/2+x,-y,z
loop_
_atom_site_type_symbol
_atom_site_label
_atom_site_fract_x
_atom_site_fract_y
_atom_site_fract_z
Si Si1 0.886660 0.338155 0.170300
Si Si2 0.904974 0.864058 0.504026
Si Si3 0.742977 0.615732 0.672844
Si Si4 0.992747 0.325960 0.022928
Si Si5 0.329407 0.072308 0.884989
O O1 0.897142 0.636951 0.289786
O O2 0.937369 0.234814 0.049619
O O3 0.881146 0.148107 0.413027
O O4 0.845339 0.230198 0.982605
O O5 0.962856 0.891718 0.533588
O O6 0.876135 0.791468 0.752581
O O7 0.757695 0.455096 0.427448
O O8 0.692546 0.764836 0.619658
O O9 0.784057 0.856300 0.707146
O O10 0.002882 0.513630 0.264633
#
# Coordination Sequence:
#
# PCOD9340967 Si02
#       5
#     4   4   4   4   4
#     4  11  27  45  75 109 150 197 252 303 380 452
#     4  11  27  45  75 109 150 197 252 303 380 452
#     4   8  18  40  68 104 140 186 244 306 368 434
#     4  10  26  48  72 110 152 192 246 304 364 446
#     4  10  22  42  78 102 154 190 252 310 376 446
#
# _framework density 27.774667000000001
#
# number of rings (size 3 to 8) (size 9 to 14) (size 15 to 20)
#    1.200    0.800    0.000    1.200   14.000    1.600 
#    0.000    2.000    0.000    0.000    0.000    0.000 
#    0.000    0.000    0.000    0.000    0.000    0.000 
#
# Total GULP energy -111799.517954 kJ/mol
# GULP energy per Si atom -5589.975898 kJ/mol
# Density = 2.771145 g / cm^3
# Si number density = 27.774667 Si / 1000 Ang^3
#
#
#
# Elastic Constant Matrix: (Units=GPa)
#
#
# Indices 1 2 3 4 5 6 
#
# 1 154.0981 17.8053 16.2464 0.0000 0.0000 0.0000
# 2 17.8053 57.4281 21.9782 0.0000 0.0000 0.0000
# 3 16.2464 21.9782 162.4671 0.0000 0.0000 0.0000
# 4 0.0000 0.0000 0.0000 29.1929 0.0000 0.0000
# 5 0.0000 0.0000 0.0000 0.0000 57.7378 0.0000
# 6 0.0000 0.0000 0.0000 0.0000 0.0000 34.9884
#
#
#
# Elastic Compliance Matrix: (Units=1/GPa)
#
#
# Indices 1 2 3 4 5 6 
#
# 1 0.006757 -0.001937 -0.000414 0.000000 0.000000 0.000000
# 2 -0.001937 0.018919 -0.002366 0.000000 0.000000 0.000000
# 3 -0.000414 -0.002366 0.006516 0.000000 0.000000 0.000000
# 4 0.000000 0.000000 0.000000 0.034255 0.000000 0.000000
# 5 0.000000 0.000000 0.000000 0.000000 0.017320 0.000000
# 6 0.000000 0.000000 0.000000 0.000000 0.000000 0.028581
#
#
# Mechanical properties :
#
#
# Convention : Reuss Voigt Hill
#
# Bulk Modulus (GPa) = 43.93624 54.00591 48.97107
# Shear Modulus (GPa) = 38.64997 45.58136 42.11567
#
# Velocity S-wave (km/s) = 3.73440 4.05546 3.89824
# Velocity P-wave (km/s) = 5.86920 6.43549 6.15886
#
# Compressibility (1/GPa) = 0.02276026
#
# Stress axis : x y z
#
# Youngs Moduli (GPa) = 148.00016 52.85735 153.45707
#
# Poissons Ratio (x) = 0.10236 0.06348
# Poissons Ratio (y) = 0.28661 0.36303
# Poissons Ratio (z) = 0.06123 0.12504
#
# Static dielectric constant tensor:
#      x y z
#    x 2.171160 0.000000 0.000000 
#    y 0.000000 2.156770 0.000000 
#    z 0.000000 0.000000 2.233860 
# 
# From -- ./inp_files/846.got.cif
#   From: 2010.05.17/outbox.cif.g08.bks.cpg/sg29_1_cif.got.tgz:846.got - 2010.06.04 01:19:37.
