data_PCOD9340274
_publ_section_title
;
Structure prediction by ZEFSAII (Michael W. Deem and Ramdas Pophale) SiO2 
 PCOD9340274
Probable space group: P C A 21
;
_chemical_formula_sum "Si O2"
_cell_formula_units_Z 32
_cell_length_a 7.778463
_cell_length_b 20.638561
_cell_length_c 8.070954
_cell_angle_alpha 90.000000
_cell_angle_beta 90.000000
_cell_angle_gamma 90.000000
_cell_volume 1295.680956
_symmetry_space_group_name_H-M "P C A 21"
_symmetry_group_IT_number 29
_symmetry_cell_setting 'orthorhombic'
loop_
_space_group_symop_operation_xyz
x,y,z
-x,-y,1/2+z
1/2-x,y,1/2+z
1/2+x,-y,z
loop_
_atom_site_type_symbol
_atom_site_label
_atom_site_fract_x
_atom_site_fract_y
_atom_site_fract_z
Si Si1 0.982728 0.796930 0.551710
Si Si2 0.871209 0.454196 0.311759
Si Si3 0.013372 0.958006 0.161987
Si Si4 0.686422 0.926239 0.999114
Si Si5 0.683645 0.171893 0.215923
Si Si6 0.507721 0.421031 0.181970
Si Si7 0.460000 0.669274 0.166121
Si Si8 0.572901 0.295305 0.048856
O O1 0.115843 0.811827 0.700267
O O2 0.105211 0.811579 0.394382
O O3 0.927469 0.722087 0.567051
O O4 0.837994 0.850927 0.541376
O O5 0.676990 0.428731 0.295636
O O6 0.941137 0.444428 0.496543
O O7 0.979116 0.408042 0.184260
O O8 0.874617 0.528377 0.256006
O O9 0.884357 0.944085 0.011401
O O10 0.902779 0.944418 0.326468
O O11 0.157817 0.902576 0.167790
O O12 0.089431 0.028215 0.131515
O O13 0.573750 0.220968 0.101138
O O14 0.463468 0.345447 0.161152
O O15 0.463417 0.690874 0.358330
O O16 0.270264 0.682428 0.088904
#
# Coordination Sequence:
#
# PCOD9340274 Si02
#       8
#     4   4   4   4   4   4   4   4
#     4  10  20  34  55  82 108 138 176 218 265 316
#     4  10  20  34  53  78 107 141 181 224 270 320
#     4  11  24  40  59  83 111 144 181 221 266 316
#     4  11  24  40  59  83 111 144 181 221 266 316
#     4  10  20  34  55  82 108 138 176 218 265 316
#     4  10  20  34  53  78 107 141 181 224 270 320
#     4   9  17  30  51  77 104 137 176 217 263 316
#     4   9  17  30  51  77 104 137 176 217 263 316
#
# _framework density 24.697434999999999
#
# number of rings (size 3 to 8) (size 9 to 14) (size 15 to 20)
#    0.000    2.000    0.000    5.250    0.000    9.000 
#    0.000    1.250    0.000    3.000    0.000    0.000 
#    0.000    0.000    0.000    0.000    0.000    0.000 
#
# Total GULP energy -178862.354011 kJ/mol
# GULP energy per Si atom -5589.448563 kJ/mol
# Density = 2.464122 g / cm^3
# Si number density = 24.697435 Si / 1000 Ang^3
#
#
#
# Elastic Constant Matrix: (Units=GPa)
#
#
# Indices 1 2 3 4 5 6 
#
# 1 26.3051 2.4501 -7.6773 0.0000 0.0000 0.0000
# 2 2.4501 54.9841 21.7714 0.0000 0.0000 0.0000
# 3 -7.6773 21.7714 70.3231 0.0000 0.0000 0.0000
# 4 0.0000 0.0000 0.0000 -5.1297 0.0000 0.0000
# 5 0.0000 0.0000 0.0000 0.0000 16.0758 0.0000
# 6 0.0000 0.0000 0.0000 0.0000 0.0000 34.1867
#
#
#
# Elastic Compliance Matrix: (Units=1/GPa)
#
#
# Indices 1 2 3 4 5 6 
#
# 1 0.040026 -0.004005 0.005609 0.000000 0.000000 0.000000
# 2 -0.004005 0.021129 -0.006978 0.000000 0.000000 0.000000
# 3 0.005609 -0.006978 0.016993 0.000000 0.000000 0.000000
# 4 0.000000 0.000000 0.000000 -0.194944 0.000000 0.000000
# 5 0.000000 0.000000 0.000000 0.000000 0.062205 0.000000
# 6 0.000000 0.000000 0.000000 0.000000 0.000000 0.029251
#
#
# Mechanical properties :
#
#
# Convention : Reuss Voigt Hill
#
# Bulk Modulus (GPa) = 14.83679 20.52230 17.67954
# Shear Modulus (GPa) = 635.00378 18.03109 326.51744
#
# Velocity S-wave (km/s) = 16.05215 2.70493 11.51061
# Velocity P-wave (km/s) = 18.69712 4.25242 13.55849
#
# Compressibility (1/GPa) = 0.06740003
#
# Stress axis : x y z
#
# Youngs Moduli (GPa) = 24.98400 47.32901 58.84792
#
# Poissons Ratio (x) = 0.18954 -0.33011
# Poissons Ratio (y) = 0.10005 0.41067
# Poissons Ratio (z) = -0.14015 0.33028
#
# Static dielectric constant tensor:
#      x y z
#    x 1.958840 0.000000 0.000000 
#    y 0.000000 2.019260 0.000000 
#    z 0.000000 0.000000 1.986530 
# 
# From -- ./inp_files/1272.got.cif
#   From: 2010.05.17/outbox.cif.g08.bks.cpg/sg29_1_cif.got.tgz:1272.got - 2010.06.04 01:19:37.
