data_PCOD9340527
_publ_section_title
;
Structure prediction by ZEFSAII (Michael W. Deem and Ramdas Pophale) SiO2 
 PCOD9340527
Probable space group: P C A 21
;
_chemical_formula_sum "Si O2"
_cell_formula_units_Z 20
_cell_length_a 18.932463
_cell_length_b 8.232158
_cell_length_c 5.281883
_cell_angle_alpha 90.000000
_cell_angle_beta 90.000000
_cell_angle_gamma 90.000000
_cell_volume 823.208016
_symmetry_space_group_name_H-M "P C A 21"
_symmetry_group_IT_number 29
_symmetry_cell_setting 'orthorhombic'
loop_
_space_group_symop_operation_xyz
x,y,z
-x,-y,1/2+z
1/2-x,y,1/2+z
1/2+x,-y,z
loop_
_atom_site_type_symbol
_atom_site_label
_atom_site_fract_x
_atom_site_fract_y
_atom_site_fract_z
Si Si1 0.225352 0.409586 0.800480
Si Si2 0.427339 0.137464 0.891823
Si Si3 0.545307 0.504800 0.414630
Si Si4 0.341538 0.638494 0.603899
Si Si5 0.594448 0.050593 0.891825
O O1 0.238406 0.321211 0.537766
O O2 0.271563 0.576324 0.747902
O O3 0.152960 0.486236 0.904502
O O4 0.413872 0.326051 0.937070
O O5 0.513097 0.115300 0.901531
O O6 0.401409 0.079433 0.618712
O O7 0.396234 0.031055 0.119790
O O8 0.506257 0.469358 0.674214
O O9 0.597687 0.366282 0.316179
O O10 0.352036 0.804507 0.456923
#
# Coordination Sequence:
#
# PCOD9340527 Si02
#       5
#     4   4   4   4   4
#     4   8  20  35  58  87 106 155 212 260 292 341
#     4  10  22  37  51  91 121 157 187 234 320 367
#     4  12  25  36  61  92 126 162 203 254 311 378
#     4  10  22  38  65  85 119 157 216 255 299 365
#     4  10  21  36  59  77 126 157 188 243 300 373
#
# _framework density 24.295196000000001
#
# number of rings (size 3 to 8) (size 9 to 14) (size 15 to 20)
#    1.200    0.800    2.000    1.200   11.200    0.000 
#    0.000    0.000    0.000    7.200    0.000    0.000 
#    0.000    0.000    0.000    0.000    0.000    0.000 
#
# Total GULP energy -111615.060043 kJ/mol
# GULP energy per Si atom -5580.753002 kJ/mol
# Density = 2.423990 g / cm^3
# Si number density = 24.295196 Si / 1000 Ang^3
#
#
#
# Elastic Constant Matrix: (Units=GPa)
#
#
# Indices 1 2 3 4 5 6 
#
# 1 48.1133 -13.7670 17.0714 0.0000 0.0000 0.0000
# 2 -13.7670 55.2587 6.6472 0.0000 0.0000 0.0000
# 3 17.0714 6.6472 131.7305 0.0000 0.0000 0.0000
# 4 0.0000 0.0000 0.0000 32.6342 0.0000 0.0000
# 5 0.0000 0.0000 0.0000 0.0000 23.3821 0.0000
# 6 0.0000 0.0000 0.0000 0.0000 0.0000 21.7933
#
#
#
# Elastic Compliance Matrix: (Units=1/GPa)
#
#
# Indices 1 2 3 4 5 6 
#
# 1 0.023807 0.006341 -0.003405 0.000000 0.000000 0.000000
# 2 0.006341 0.019896 -0.001826 0.000000 0.000000 0.000000
# 3 -0.003405 -0.001826 0.008125 0.000000 0.000000 0.000000
# 4 0.000000 0.000000 0.000000 0.030643 0.000000 0.000000
# 5 0.000000 0.000000 0.000000 0.000000 0.042768 0.000000
# 6 0.000000 0.000000 0.000000 0.000000 0.000000 0.045886
#
#
# Mechanical properties :
#
#
# Convention : Reuss Voigt Hill
#
# Bulk Modulus (GPa) = 18.50229 28.33396 23.41812
# Shear Modulus (GPa) = 26.74948 30.57198 28.66073
#
# Velocity S-wave (km/s) = 3.32176 3.55118 3.43838
# Velocity P-wave (km/s) = 4.72697 5.33874 5.04215
#
# Compressibility (1/GPa) = 0.05404737
#
# Stress axis : x y z
#
# Youngs Moduli (GPa) = 42.00478 50.26125 123.08192
#
# Poissons Ratio (x) = -0.31870 0.41911
# Poissons Ratio (y) = -0.26634 0.22471
# Poissons Ratio (z) = 0.14303 0.09176
#
# Static dielectric constant tensor:
#      x y z
#    x 2.047790 0.000000 0.000000 
#    y 0.000000 1.914720 0.000000 
#    z 0.000000 0.000000 2.074490 
# 
# From -- ./inp_files/624.got.cif
#   From: 2010.05.17/outbox.cif.g08.bks.cpg/sg29_1_cif.got.tgz:624.got - 2010.06.04 01:19:37.
