data_PCOD9340115
_publ_section_title
;
Structure prediction by ZEFSAII (Michael W. Deem and Ramdas Pophale) SiO2 
 PCOD9340115
Probable space group: P C A 21
;
_chemical_formula_sum "Si O2"
_cell_formula_units_Z 32
_cell_length_a 8.966885
_cell_length_b 8.765418
_cell_length_c 19.978755
_cell_angle_alpha 90.000000
_cell_angle_beta 90.000000
_cell_angle_gamma 90.000000
_cell_volume 1570.300079
_symmetry_space_group_name_H-M "P C A 21"
_symmetry_group_IT_number 29
_symmetry_cell_setting 'orthorhombic'
loop_
_space_group_symop_operation_xyz
x,y,z
-x,-y,1/2+z
1/2-x,y,1/2+z
1/2+x,-y,z
loop_
_atom_site_type_symbol
_atom_site_label
_atom_site_fract_x
_atom_site_fract_y
_atom_site_fract_z
Si Si1 0.381087 0.610933 0.390260
Si Si2 0.765386 0.790130 0.719651
Si Si3 0.674783 0.612100 0.002664
Si Si4 0.325755 0.563523 0.686702
Si Si5 0.299951 0.802877 0.800934
Si Si6 0.969741 0.007107 0.238438
Si Si7 0.773203 0.688567 0.865420
Si Si8 0.078648 0.537384 0.592635
O O1 0.363960 0.548424 0.465063
O O2 0.261367 0.739244 0.370814
O O3 0.326162 0.461648 0.349240
O O4 0.551036 0.650355 0.373210
O O5 0.788976 0.614559 0.701383
O O6 0.617493 0.877844 0.696726
O O7 0.757362 0.794251 0.801363
O O8 0.908435 0.891144 0.700495
O O9 0.529410 0.641353 0.047144
O O10 0.816661 0.572530 0.048080
O O11 0.714031 0.723940 0.940706
O O12 0.343866 0.661421 0.753123
O O13 0.469602 0.558922 0.640012
O O14 0.189333 0.625822 0.642236
O O15 0.437180 0.918156 0.796168
O O16 0.156119 0.882870 0.767892
#
# Coordination Sequence:
#
# PCOD9340115 Si02
#       8
#     4   4   4   4   4   4   4   4
#     4  10  19  31  58  80 112 145 177 232 273 353
#     4  11  21  38  54  88 112 149 186 224 299 330
#     4   9  17  34  48  84 117 141 174 236 296 313
#     4  11  21  34  60  80 115 141 194 236 266 341
#     4  11  21  38  54  88 112 149 186 224 299 330
#     4  10  24  34  52  80 128 146 174 232 282 362
#     4  10  19  31  58  80 112 145 177 232 273 353
#     4  10  20  30  50  86 116 134 184 244 282 296
#
# _framework density 20.378270000000001
#
# number of rings (size 3 to 8) (size 9 to 14) (size 15 to 20)
#    0.750    1.000    3.750    1.500    1.750    0.000 
#    0.000    0.000    0.000    0.000    0.000  122.500 
#    0.000    0.000    0.000    0.000    0.000    0.000 
#
# Total GULP energy -178243.734763 kJ/mol
# GULP energy per Si atom -5570.116711 kJ/mol
# Density = 2.033189 g / cm^3
# Si number density = 20.378270 Si / 1000 Ang^3
#
#
#
# Elastic Constant Matrix: (Units=GPa)
#
#
# Indices 1 2 3 4 5 6 
#
# 1 103.0844 4.4220 8.5009 0.0000 0.0000 0.0000
# 2 4.4220 57.9980 -2.7406 0.0000 0.0000 0.0000
# 3 8.5009 -2.7406 58.5040 0.0000 0.0000 0.0000
# 4 0.0000 0.0000 0.0000 11.0824 0.0000 0.0000
# 5 0.0000 0.0000 0.0000 0.0000 26.6972 0.0000
# 6 0.0000 0.0000 0.0000 0.0000 0.0000 27.1176
#
#
#
# Elastic Compliance Matrix: (Units=1/GPa)
#
#
# Indices 1 2 3 4 5 6 
#
# 1 0.009857 -0.000821 -0.001471 0.000000 0.000000 0.000000
# 2 -0.000821 0.017349 0.000932 0.000000 0.000000 0.000000
# 3 -0.001471 0.000932 0.017350 0.000000 0.000000 0.000000
# 4 0.000000 0.000000 0.000000 0.090233 0.000000 0.000000
# 5 0.000000 0.000000 0.000000 0.000000 0.037457 0.000000
# 6 0.000000 0.000000 0.000000 0.000000 0.000000 0.036876
#
#
# Mechanical properties :
#
#
# Convention : Reuss Voigt Hill
#
# Bulk Modulus (GPa) = 23.90261 26.66123 25.28192
# Shear Modulus (GPa) = 22.14470 26.93971 24.54221
#
# Velocity S-wave (km/s) = 3.30006 3.63985 3.47411
# Velocity P-wave (km/s) = 5.12596 5.54764 5.34096
#
# Compressibility (1/GPa) = 0.04183644
#
# Stress axis : x y z
#
# Youngs Moduli (GPa) = 101.44763 57.64153 57.63617
#
# Poissons Ratio (x) = 0.04733 0.08477
# Poissons Ratio (y) = 0.08329 -0.05372
# Poissons Ratio (z) = 0.14921 -0.05372
#
# Static dielectric constant tensor:
#      x y z
#    x 1.769410 0.000000 0.000000 
#    y 0.000000 1.734670 0.000000 
#    z 0.000000 0.000000 1.743350 
# 
# From -- ./inp_files/5696.got.cif
#   From: 2010.05.17/outbox.cif.g08.bks.cpg/sg29_3_cif.got.tgz:5696.got - 2010.06.04 01:19:37.
