data_PCOD9340448
_publ_section_title
;
Structure prediction by ZEFSAII (Michael W. Deem and Ramdas Pophale) SiO2 
 PCOD9340448
Probable space group: P C A 21
;
_chemical_formula_sum "Si O2"
_cell_formula_units_Z 32
_cell_length_a 9.716486
_cell_length_b 18.917151
_cell_length_c 8.298847
_cell_angle_alpha 90.000000
_cell_angle_beta 90.000000
_cell_angle_gamma 90.000000
_cell_volume 1525.396402
_symmetry_space_group_name_H-M "P C A 21"
_symmetry_group_IT_number 29
_symmetry_cell_setting 'orthorhombic'
loop_
_space_group_symop_operation_xyz
x,y,z
-x,-y,1/2+z
1/2-x,y,1/2+z
1/2+x,-y,z
loop_
_atom_site_type_symbol
_atom_site_label
_atom_site_fract_x
_atom_site_fract_y
_atom_site_fract_z
Si Si1 0.935933 0.720796 0.405080
Si Si2 0.943700 0.561052 0.416672
Si Si3 0.127752 0.283046 0.524352
Si Si4 0.199096 0.084719 0.704154
Si Si5 0.856767 0.556607 0.044123
Si Si6 0.556216 0.858857 0.382225
Si Si7 0.200500 0.919927 0.706158
Si Si8 0.938566 0.135242 0.890178
O O1 0.988267 0.642272 0.443798
O O2 0.905578 0.725147 0.213101
O O3 0.789427 0.730380 0.492515
O O4 0.038427 0.784205 0.442425
O O5 0.896297 0.555390 0.231536
O O6 0.806482 0.548046 0.521557
O O7 0.059997 0.504712 0.456147
O O8 0.104852 0.364988 0.478653
O O9 0.045783 0.223830 0.425436
O O10 0.128604 0.103917 0.535164
O O11 0.234528 0.002453 0.718438
O O12 0.335732 0.129529 0.737351
O O13 0.085282 0.104338 0.838006
O O14 0.414697 0.895734 0.334469
O O15 0.132494 0.906794 0.533662
O O16 0.336159 0.874069 0.739259
#
# Coordination Sequence:
#
# PCOD9340448 Si02
#       8
#     4   4   4   4   4   4   4   4
#     4  10  22  41  67  92 128 165 212 260 308 376
#     4  10  21  41  65 100 127 169 208 256 312 372
#     4  10  20  40  66  94 123 163 210 258 303 371
#     4  12  23  42  67  89 122 163 212 262 311 382
#     4  10  21  39  66  95 133 162 212 254 311 371
#     4  12  23  41  66  94 121 161 216 256 314 375
#     4  12  27  41  60  91 126 166 206 266 323 367
#     4  12  25  45  61  89 130 165 212 256 322 376
#
# _framework density 20.978152999999999
#
# number of rings (size 3 to 8) (size 9 to 14) (size 15 to 20)
#    0.000    1.000    2.500    4.500    1.750    1.000 
#    2.250    0.000    0.000    0.000    0.000    0.000 
#    0.000    0.000    0.000    0.000    0.000    0.000 
#
# Total GULP energy -179127.454623 kJ/mol
# GULP energy per Si atom -5597.732957 kJ/mol
# Density = 2.093041 g / cm^3
# Si number density = 20.978153 Si / 1000 Ang^3
#
#
#
# Elastic Constant Matrix: (Units=GPa)
#
#
# Indices 1 2 3 4 5 6 
#
# 1 46.1762 20.8799 -5.3656 0.0000 0.0000 0.0000
# 2 20.8799 123.0414 4.8500 0.0000 0.0000 0.0000
# 3 -5.3656 4.8500 38.8221 0.0000 0.0000 0.0000
# 4 0.0000 0.0000 0.0000 31.2119 0.0000 0.0000
# 5 0.0000 0.0000 0.0000 0.0000 28.1693 0.0000
# 6 0.0000 0.0000 0.0000 0.0000 0.0000 33.8873
#
#
#
# Elastic Compliance Matrix: (Units=1/GPa)
#
#
# Indices 1 2 3 4 5 6 
#
# 1 0.024015 -0.004227 0.003847 0.000000 0.000000 0.000000
# 2 -0.004227 0.008912 -0.001698 0.000000 0.000000 0.000000
# 3 0.003847 -0.001698 0.026502 0.000000 0.000000 0.000000
# 4 0.000000 0.000000 0.000000 0.032039 0.000000 0.000000
# 5 0.000000 0.000000 0.000000 0.000000 0.035500 0.000000
# 6 0.000000 0.000000 0.000000 0.000000 0.000000 0.029510
#
#
# Mechanical properties :
#
#
# Convention : Reuss Voigt Hill
#
# Bulk Modulus (GPa) = 18.09176 27.64094 22.86635
# Shear Modulus (GPa) = 27.92426 31.16539 29.54483
#
# Velocity S-wave (km/s) = 3.65240 3.85855 3.75689
# Velocity P-wave (km/s) = 5.14096 5.74942 5.45368
#
# Compressibility (1/GPa) = 0.05527378
#
# Stress axis : x y z
#
# Youngs Moduli (GPa) = 41.64150 112.21391 37.73254
#
# Poissons Ratio (x) = 0.47431 -0.14516
# Poissons Ratio (y) = 0.17601 0.06405
# Poissons Ratio (z) = -0.16020 0.19048
#
# Static dielectric constant tensor:
#      x y z
#    x 1.710140 0.000000 0.000000 
#    y 0.000000 1.746350 0.000000 
#    z 0.000000 0.000000 1.800090 
# 
# From -- ./inp_files/1282.got.cif
#   From: 2010.05.17/outbox.cif.g08.bks.cpg/sg29_1_cif.got.tgz:1282.got - 2010.06.04 01:19:37.
