data_PCOD9340086
_publ_section_title
;
Structure prediction by ZEFSAII (Michael W. Deem and Ramdas Pophale) SiO2 
 PCOD9340086
Probable space group: P C A 21
;
_chemical_formula_sum "Si O2"
_cell_formula_units_Z 32
_cell_length_a 10.035349
_cell_length_b 8.516503
_cell_length_c 19.589904
_cell_angle_alpha 90.000000
_cell_angle_beta 90.000000
_cell_angle_gamma 90.000000
_cell_volume 1674.272300
_symmetry_space_group_name_H-M "P C A 21"
_symmetry_group_IT_number 29
_symmetry_cell_setting 'orthorhombic'
loop_
_space_group_symop_operation_xyz
x,y,z
-x,-y,1/2+z
1/2-x,y,1/2+z
1/2+x,-y,z
loop_
_atom_site_type_symbol
_atom_site_label
_atom_site_fract_x
_atom_site_fract_y
_atom_site_fract_z
Si Si1 0.093393 0.784673 0.776560
Si Si2 0.888651 0.834351 0.283229
Si Si3 0.282607 0.337963 0.553233
Si Si4 0.346170 0.162740 0.686831
Si Si5 0.471658 0.634144 0.564095
Si Si6 0.247173 0.127986 0.920404
Si Si7 0.136461 0.785735 0.204168
Si Si8 0.445420 0.832523 0.425079
O O1 0.221121 0.732212 0.733110
O O2 0.085811 0.733275 0.855797
O O3 0.962492 0.758338 0.731423
O O4 0.102320 0.975363 0.783195
O O5 0.792383 0.791888 0.221455
O O6 0.816119 0.793905 0.353159
O O7 0.031132 0.764183 0.265617
O O8 0.339539 0.220595 0.610236
O O9 0.385627 0.479753 0.550301
O O10 0.272623 0.243640 0.483139
O O11 0.131084 0.390686 0.570981
O O12 0.359173 0.974085 0.690909
O O13 0.413679 0.708273 0.634164
O O14 0.451537 0.741994 0.496784
O O15 0.405345 0.098914 0.911810
O O16 0.165374 0.967843 0.931424
#
# Coordination Sequence:
#
# PCOD9340086 Si02
#       8
#     4   4   4   4   4   4   4   4
#     4   9  19  32  61  95 116 142 186 242 294 345
#     4   9  17  34  59  90 118 142 184 241 292 338
#     4  11  25  42  57  81 119 160 197 240 287 342
#     4  10  18  37  62  88 115 146 188 238 294 339
#     4  11  25  43  57  81 119 159 199 239 285 344
#     4  10  21  38  62  89 117 151 191 242 294 344
#     4  10  20  37  62  91 116 149 192 240 289 346
#     4  10  21  39  62  89 118 149 193 240 291 348
#
# _framework density 19.112780999999998
#
# number of rings (size 3 to 8) (size 9 to 14) (size 15 to 20)
#    0.000    2.000    2.500    0.750    7.000    1.000 
#    0.000    2.500    0.000    0.000    0.000    0.000 
#    0.000    0.000    0.000    0.000    0.000    0.000 
#
# Total GULP energy -178476.645147 kJ/mol
# GULP energy per Si atom -5577.395161 kJ/mol
# Density = 1.906928 g / cm^3
# Si number density = 19.112781 Si / 1000 Ang^3
#
#
#
# Elastic Constant Matrix: (Units=GPa)
#
#
# Indices 1 2 3 4 5 6 
#
# 1 84.9453 19.6842 11.9910 0.0000 0.0000 0.0000
# 2 19.6842 18.7118 11.3650 0.0000 0.0000 0.0000
# 3 11.9910 11.3650 92.2246 0.0000 0.0000 0.0000
# 4 0.0000 0.0000 0.0000 -12.4500 0.0000 0.0000
# 5 0.0000 0.0000 0.0000 0.0000 36.7253 0.0000
# 6 0.0000 0.0000 0.0000 0.0000 0.0000 23.4821
#
#
#
# Elastic Compliance Matrix: (Units=1/GPa)
#
#
# Indices 1 2 3 4 5 6 
#
# 1 0.015567 -0.016372 -0.000006 0.000000 0.000000 0.000000
# 2 -0.016372 0.074985 -0.007112 0.000000 0.000000 0.000000
# 3 -0.000006 -0.007112 0.011720 0.000000 0.000000 0.000000
# 4 0.000000 0.000000 0.000000 -0.080321 0.000000 0.000000
# 5 0.000000 0.000000 0.000000 0.000000 0.027229 0.000000
# 6 0.000000 0.000000 0.000000 0.000000 0.000000 0.042586
#
#
# Mechanical properties :
#
#
# Convention : Reuss Voigt Hill
#
# Bulk Modulus (GPa) = 18.08598 31.32911 24.70755
# Shear Modulus (GPa) = 31.81122 19.74092 25.77607
#
# Velocity S-wave (km/s) = 4.08413 3.21731 3.67635
# Velocity P-wave (km/s) = 5.63236 5.49806 5.56562
#
# Compressibility (1/GPa) = 0.05529144
#
# Stress axis : x y z
#
# Youngs Moduli (GPa) = 64.23803 13.33601 85.32183
#
# Poissons Ratio (x) = 0.21834 0.00055
# Poissons Ratio (y) = 1.05172 0.60679
# Poissons Ratio (z) = 0.00041 0.09484
#
# Static dielectric constant tensor:
#      x y z
#    x 1.662050 0.000000 0.000000 
#    y 0.000000 1.646450 0.000000 
#    z 0.000000 0.000000 1.666490 
# 
# From -- ./inp_files/5430.got.cif
#   From: 2010.05.17/outbox.cif.g08.bks.cpg/sg29_3_cif.got.tgz:5430.got - 2010.06.04 01:19:37.
