data_PCOD9340139
_publ_section_title
;
Structure prediction by ZEFSAII (Michael W. Deem and Ramdas Pophale) SiO2 
 PCOD9340139
Probable space group: P C A 21
;
_chemical_formula_sum "Si O2"
_cell_formula_units_Z 32
_cell_length_a 24.531237
_cell_length_b 13.171998
_cell_length_c 5.230457
_cell_angle_alpha 90.000000
_cell_angle_beta 90.000000
_cell_angle_gamma 90.000000
_cell_volume 1690.093535
_symmetry_space_group_name_H-M "P C A 21"
_symmetry_group_IT_number 29
_symmetry_cell_setting 'orthorhombic'
loop_
_space_group_symop_operation_xyz
x,y,z
-x,-y,1/2+z
1/2-x,y,1/2+z
1/2+x,-y,z
loop_
_atom_site_type_symbol
_atom_site_label
_atom_site_fract_x
_atom_site_fract_y
_atom_site_fract_z
Si Si1 0.190277 0.438883 0.430750
Si Si2 0.989239 0.934211 0.614065
Si Si3 0.214050 0.204832 0.538521
Si Si4 0.371170 0.054158 0.801509
Si Si5 0.216759 0.954755 0.964294
Si Si6 0.846649 0.246604 0.489451
Si Si7 0.686389 0.475567 0.929352
Si Si8 0.905025 0.168039 0.985447
O O1 0.198028 0.322946 0.509618
O O2 0.250151 0.491292 0.397945
O O3 0.160814 0.498443 0.656581
O O4 0.163731 0.454639 0.156039
O O5 0.928586 0.904666 0.698678
O O6 0.030747 0.845919 0.533187
O O7 0.986695 0.008246 0.365798
O O8 0.240081 0.188736 0.817764
O O9 0.163081 0.134569 0.464390
O O10 0.334581 0.018964 0.560714
O O11 0.383867 0.948886 0.952173
O O12 0.262939 0.973915 0.178576
O O13 0.200822 0.837333 0.999072
O O14 0.822120 0.358740 0.495297
O O15 0.877508 0.221886 0.226016
O O16 0.886482 0.224128 0.727612
#
# Coordination Sequence:
#
# PCOD9340139 Si02
#       8
#     4   4   4   4   4   4   4   4
#     4  10  19  35  52  77 107 143 195 228 256 320
#     4  10  20  37  61  77 109 150 189 241 276 326
#     4  12  22  38  56  82 117 157 186 236 269 325
#     4  10  23  37  57  81 112 155 191 215 284 334
#     4  11  22  33  44  73 113 149 174 217 251 327
#     4  11  22  34  56  80 112 148 189 225 281 340
#     4  10  19  33  55  75 105 147 187 226 276 315
#     4  10  21  39  53  85 113 139 189 240 277 331
#
# _framework density 18.933862000000001
#
# number of rings (size 3 to 8) (size 9 to 14) (size 15 to 20)
#    0.000    1.500    2.500    5.250    3.500    5.000 
#    0.000    0.000    0.000    0.000    0.000    3.500 
#    0.000    0.000    0.000    0.000    0.000    0.000 
#
# Total GULP energy -178695.330117 kJ/mol
# GULP energy per Si atom -5584.229066 kJ/mol
# Density = 1.889077 g / cm^3
# Si number density = 18.933862 Si / 1000 Ang^3
#
#
#
# Elastic Constant Matrix: (Units=GPa)
#
#
# Indices 1 2 3 4 5 6 
#
# 1 83.1157 24.9102 15.4510 0.0000 0.0000 0.0000
# 2 24.9102 74.1406 -7.8700 0.0000 0.0000 0.0000
# 3 15.4510 -7.8700 115.8524 0.0000 0.0000 0.0000
# 4 0.0000 0.0000 0.0000 25.5864 0.0000 0.0000
# 5 0.0000 0.0000 0.0000 0.0000 20.4805 0.0000
# 6 0.0000 0.0000 0.0000 0.0000 0.0000 15.1716
#
#
#
# Elastic Compliance Matrix: (Units=1/GPa)
#
#
# Indices 1 2 3 4 5 6 
#
# 1 0.013908 -0.004905 -0.002188 0.000000 0.000000 0.000000
# 2 -0.004905 0.015316 0.001695 0.000000 0.000000 0.000000
# 3 -0.002188 0.001695 0.009039 0.000000 0.000000 0.000000
# 4 0.000000 0.000000 0.000000 0.039083 0.000000 0.000000
# 5 0.000000 0.000000 0.000000 0.000000 0.048827 0.000000
# 6 0.000000 0.000000 0.000000 0.000000 0.000000 0.065913
#
#
# Mechanical properties :
#
#
# Convention : Reuss Voigt Hill
#
# Bulk Modulus (GPa) = 36.40966 37.56568 36.98767
# Shear Modulus (GPa) = 23.58063 28.28885 25.93474
#
# Velocity S-wave (km/s) = 3.53288 3.86954 3.70503
# Velocity P-wave (km/s) = 5.99277 6.31252 6.15473
#
# Compressibility (1/GPa) = 0.02746524
#
# Stress axis : x y z
#
# Youngs Moduli (GPa) = 71.89932 65.29170 110.63643
#
# Poissons Ratio (x) = 0.32027 0.24209
# Poissons Ratio (y) = 0.35269 -0.18749
# Poissons Ratio (z) = 0.15733 -0.11065
#
# Static dielectric constant tensor:
#      x y z
#    x 2.086320 0.000000 0.000000 
#    y 0.000000 1.675000 0.000000 
#    z 0.000000 0.000000 1.735730 
# 
# From -- ./inp_files/690.got.cif
#   From: 2010.05.17/outbox.cif.g08.bks.cpg/sg29_1_cif.got.tgz:690.got - 2010.06.04 01:19:37.
