data_PCOD9340506
_publ_section_title
;
Structure prediction by ZEFSAII (Michael W. Deem and Ramdas Pophale) SiO2 
 PCOD9340506
Probable space group: P C A 21
;
_chemical_formula_sum "Si O2"
_cell_formula_units_Z 28
_cell_length_a 5.711889
_cell_length_b 13.727601
_cell_length_c 13.746653
_cell_angle_alpha 90.000000
_cell_angle_beta 90.000000
_cell_angle_gamma 90.000000
_cell_volume 1077.882391
_symmetry_space_group_name_H-M "P C A 21"
_symmetry_group_IT_number 29
_symmetry_cell_setting 'orthorhombic'
loop_
_space_group_symop_operation_xyz
x,y,z
-x,-y,1/2+z
1/2-x,y,1/2+z
1/2+x,-y,z
loop_
_atom_site_type_symbol
_atom_site_label
_atom_site_fract_x
_atom_site_fract_y
_atom_site_fract_z
Si Si1 0.476263 0.466557 0.016390
Si Si2 0.851158 0.787612 0.148736
Si Si3 0.228823 0.763567 0.309276
Si Si4 0.495801 0.624028 0.172685
Si Si5 0.310301 0.726457 0.510127
Si Si6 0.076264 0.968956 0.841863
Si Si7 0.593876 0.959507 0.067532
O O1 0.227156 0.499148 0.974271
O O2 0.500582 0.514256 0.127350
O O3 0.487102 0.352755 0.992782
O O4 0.744480 0.679221 0.167261
O O5 0.634250 0.852117 0.112800
O O6 0.015514 0.799520 0.242963
O O7 0.039445 0.809094 0.061839
O O8 0.359815 0.667257 0.266910
O O9 0.150112 0.744038 0.418795
O O10 0.409399 0.851853 0.330813
O O11 0.341616 0.674675 0.090313
O O12 0.325454 0.002906 0.799377
O O13 0.083040 0.019647 0.950153
O O14 0.337185 0.991251 0.100482
#
# Coordination Sequence:
#
# PCOD9340506 Si02
#       7
#     4   4   4   4   4   4   4
#     4  10  20  44  72 100 138 189 240 294 371 449
#     4  11  24  43  71 101 146 194 247 310 386 449
#     4  11  26  43  70 113 146 195 257 321 380 459
#     4  10  24  43  71 103 149 190 244 312 382 456
#     4  10  22  44  73 100 142 198 243 306 379 466
#     4  10  23  42  65  99 146 191 244 309 366 446
#     4  10  23  41  68  98 135 195 245 296 366 443
#
# _framework density 25.976861
#
# number of rings (size 3 to 8) (size 9 to 14) (size 15 to 20)
#    0.000    1.714    1.429    1.714   10.000    2.286 
#    0.000    8.571    0.000    0.000    0.000    0.000 
#    0.000    0.000    0.000    0.000    0.000    0.000 
#
# Total GULP energy -155931.687165 kJ/mol
# GULP energy per Si atom -5568.988827 kJ/mol
# Density = 2.591774 g / cm^3
# Si number density = 25.976861 Si / 1000 Ang^3
#
#
#
# Elastic Constant Matrix: (Units=GPa)
#
#
# Indices 1 2 3 4 5 6 
#
# 1 146.5908 5.2160 14.8267 0.0000 0.0000 0.0000
# 2 5.2160 79.2233 -6.2481 0.0000 0.0000 0.0000
# 3 14.8267 -6.2481 111.9814 0.0000 0.0000 0.0000
# 4 0.0000 0.0000 0.0000 24.1346 0.0000 0.0000
# 5 0.0000 0.0000 0.0000 0.0000 0.3411 0.0000
# 6 0.0000 0.0000 0.0000 0.0000 0.0000 54.8698
#
#
#
# Elastic Compliance Matrix: (Units=1/GPa)
#
#
# Indices 1 2 3 4 5 6 
#
# 1 0.006937 -0.000531 -0.000948 0.000000 0.000000 0.000000
# 2 -0.000531 0.012719 0.000780 0.000000 0.000000 0.000000
# 3 -0.000948 0.000780 0.009099 0.000000 0.000000 0.000000
# 4 0.000000 0.000000 0.000000 0.041434 0.000000 0.000000
# 5 0.000000 0.000000 0.000000 0.000000 2.931298 0.000000
# 6 0.000000 0.000000 0.000000 0.000000 0.000000 0.018225
#
#
# Mechanical properties :
#
#
# Convention : Reuss Voigt Hill
#
# Bulk Modulus (GPa) = 36.55549 40.59831 38.57690
# Shear Modulus (GPa) = 1.65004 37.46916 19.55960
#
# Velocity S-wave (km/s) = 0.79786 3.80202 2.74699
# Velocity P-wave (km/s) = 3.86674 5.91070 4.99440
#
# Compressibility (1/GPa) = 0.02735567
#
# Stress axis : x y z
#
# Youngs Moduli (GPa) = 144.16471 78.62220 109.90093
#
# Poissons Ratio (x) = 0.04179 0.10419
# Poissons Ratio (y) = 0.07662 -0.08573
# Poissons Ratio (z) = 0.13668 -0.06133
#
# Static dielectric constant tensor:
#      x y z
#    x 2.011290 0.000000 0.000000 
#    y 0.000000 2.423080 0.000000 
#    z 0.000000 0.000000 2.157010 
# 
# From -- ./inp_files/4077.got.cif
#   From: 2010.05.17/outbox.cif.g08.bks.cpg/sg29_3_cif.got.tgz:4077.got - 2010.06.04 01:19:37.
