data_PCOD9340440
_publ_section_title
;
Structure prediction by ZEFSAII (Michael W. Deem and Ramdas Pophale) SiO2 
 PCOD9340440
Probable space group: P C A 21
;
_chemical_formula_sum "Si O2"
_cell_formula_units_Z 28
_cell_length_a 19.800722
_cell_length_b 9.378286
_cell_length_c 8.547439
_cell_angle_alpha 90.000000
_cell_angle_beta 90.000000
_cell_angle_gamma 90.000000
_cell_volume 1587.232360
_symmetry_space_group_name_H-M "P C A 21"
_symmetry_group_IT_number 29
_symmetry_cell_setting 'orthorhombic'
loop_
_space_group_symop_operation_xyz
x,y,z
-x,-y,1/2+z
1/2-x,y,1/2+z
1/2+x,-y,z
loop_
_atom_site_type_symbol
_atom_site_label
_atom_site_fract_x
_atom_site_fract_y
_atom_site_fract_z
Si Si1 0.657112 0.136630 0.582780
Si Si2 0.931652 0.895627 0.943055
Si Si3 0.467536 0.655029 0.008269
Si Si4 0.773675 0.250000 0.367380
Si Si5 0.967536 0.155029 0.726490
Si Si6 0.568348 0.604373 0.291704
Si Si7 0.657112 0.363370 0.151979
O O1 0.602602 0.262172 0.546182
O O2 0.723647 0.162368 0.479319
O O3 0.679809 0.150609 0.760966
O O4 0.622817 0.989383 0.535860
O O5 0.906107 0.750000 0.867380
O O6 0.956387 0.000505 0.804017
O O7 0.989695 0.857772 0.068788
O O8 0.499590 0.750000 0.867380
O O9 0.456387 0.500505 0.930742
O O10 0.510305 0.642228 0.165971
O O11 0.723647 0.337632 0.255440
O O12 0.820191 0.349391 0.473793
O O13 0.897398 0.237828 0.688577
O O14 0.622817 0.510617 0.198899
#
# Coordination Sequence:
#
# PCOD9340440 Si02
#       7
#     4   4   4   4   4   4   4
#     4  10  21  39  61  85 109 155 199 233 289 341
#     4  11  21  36  57  88 124 144 190 251 295 345
#     4  10  21  37  56  88 117 155 191 233 295 353
#     4  10  20  40  64  76 112 158 206 232 260 374
#     4  10  21  37  56  88 117 155 191 233 295 353
#     4  11  21  36  57  88 124 144 190 251 295 345
#     4  10  21  39  61  85 109 155 199 233 289 341
#
# _framework density 17.64077
#
# number of rings (size 3 to 8) (size 9 to 14) (size 15 to 20)
#    0.000    1.714    4.286    3.429    6.000    0.000 
#    0.000    1.429    0.000    0.000    0.000    0.000 
#    0.000    0.000    0.000    0.000    0.000    0.000 
#
# Total GULP energy -156147.406960 kJ/mol
# GULP energy per Si atom -5576.693106 kJ/mol
# Density = 1.760062 g / cm^3
# Si number density = 17.640770 Si / 1000 Ang^3
#
#
#
# Elastic Constant Matrix: (Units=GPa)
#
#
# Indices 1 2 3 4 5 6 
#
# 1 68.0985 39.1475 50.9298 0.0000 0.0000 0.0000
# 2 39.1475 129.4914 45.1373 0.0000 0.0000 0.0000
# 3 50.9298 45.1373 103.7259 0.0000 0.0000 0.0000
# 4 0.0000 0.0000 0.0000 17.3030 0.0000 0.0000
# 5 0.0000 0.0000 0.0000 0.0000 37.9066 0.0000
# 6 0.0000 0.0000 0.0000 0.0000 0.0000 -17.2435
#
#
#
# Elastic Compliance Matrix: (Units=1/GPa)
#
#
# Indices 1 2 3 4 5 6 
#
# 1 0.024712 -0.003821 -0.010471 0.000000 0.000000 0.000000
# 2 -0.003821 0.009694 -0.002342 0.000000 0.000000 0.000000
# 3 -0.010471 -0.002342 0.015801 0.000000 0.000000 0.000000
# 4 0.000000 0.000000 0.000000 0.057793 0.000000 0.000000
# 5 0.000000 0.000000 0.000000 0.000000 0.026381 0.000000
# 6 0.000000 0.000000 0.000000 0.000000 0.000000 -0.057993
#
#
# Mechanical properties :
#
#
# Convention : Reuss Voigt Hill
#
# Bulk Modulus (GPa) = 59.03545 63.52725 61.28135
# Shear Modulus (GPa) = 43.36338 18.66663 31.01500
#
# Velocity S-wave (km/s) = 4.96334 3.25645 4.19757
# Velocity P-wave (km/s) = 8.14765 7.08725 7.63588
#
# Compressibility (1/GPa) = 0.01693898
#
# Stress axis : x y z
#
# Youngs Moduli (GPa) = 40.46553 103.15472 63.28531
#
# Poissons Ratio (x) = 0.39416 0.66267
# Poissons Ratio (y) = 0.15462 0.14824
# Poissons Ratio (z) = 0.42372 0.24163
#
# Static dielectric constant tensor:
#      x y z
#    x 1.597540 0.000000 0.000000 
#    y 0.000000 1.589400 0.000000 
#    z 0.000000 0.000000 1.625150 
# 
# From -- ./inp_files/2084.got.cif
#   From: 2010.05.17/outbox.cif.g08.bks.cpg/sg29_2_cif.got.tgz:2084.got - 2010.06.04 01:19:37.
