data_PCOD9340617
_publ_section_title
;
Structure prediction by ZEFSAII (Michael W. Deem and Ramdas Pophale) SiO2 
 PCOD9340617
Probable space group: P C A 21
;
_chemical_formula_sum "Si O2"
_cell_formula_units_Z 32
_cell_length_a 13.589912
_cell_length_b 11.063176
_cell_length_c 8.511068
_cell_angle_alpha 90.000000
_cell_angle_beta 90.000000
_cell_angle_gamma 90.000000
_cell_volume 1279.618547
_symmetry_space_group_name_H-M "P C A 21"
_symmetry_group_IT_number 29
_symmetry_cell_setting 'orthorhombic'
loop_
_space_group_symop_operation_xyz
x,y,z
-x,-y,1/2+z
1/2-x,y,1/2+z
1/2+x,-y,z
loop_
_atom_site_type_symbol
_atom_site_label
_atom_site_fract_x
_atom_site_fract_y
_atom_site_fract_z
Si Si1 0.129411 0.801691 0.485920
Si Si2 0.184050 0.350206 0.302499
Si Si3 0.828614 0.810111 0.088416
Si Si4 0.329635 0.547866 0.402063
Si Si5 0.207124 0.715387 0.178216
Si Si6 0.462561 0.999309 0.213588
Si Si7 0.950070 0.652955 0.514932
Si Si8 0.129873 0.072828 0.027988
O O1 0.141692 0.788673 0.300028
O O2 0.237237 0.800513 0.557739
O O3 0.077966 0.908699 0.579469
O O4 0.064559 0.681637 0.521803
O O5 0.144390 0.258365 0.430623
O O6 0.269777 0.281435 0.203315
O O7 0.234459 0.459286 0.396429
O O8 0.099241 0.382786 0.180361
O O9 0.924704 0.870057 0.160110
O O10 0.746419 0.912388 0.048184
O O11 0.294015 0.645917 0.275035
O O12 0.343663 0.618520 0.565151
O O13 0.418281 0.450966 0.392613
O O14 0.412203 0.990125 0.385326
O O15 0.577337 0.969260 0.189594
O O16 0.902589 0.787216 0.488690
#
# Coordination Sequence:
#
# PCOD9340617 Si02
#       8
#     4   4   4   4   4   4   4   4
#     4  10  25  43  58  85 129 171 215 259 300 382
#     4  11  19  36  65  96 123 155 197 271 332 381
#     4  11  21  36  61  91 126 160 210 253 333 384
#     4  11  18  38  68  88 123 157 198 269 321 369
#     4  10  23  41  61  88 123 169 215 246 318 385
#     4  11  24  40  62  86 130 169 213 264 310 384
#     4  10  21  39  66  93 127 152 210 270 321 375
#     4  10  23  39  59  95 123 167 214 262 317 390
#
# _framework density 25.007451
#
# number of rings (size 3 to 8) (size 9 to 14) (size 15 to 20)
#    0.000    1.500    5.000    0.000    7.000    1.000 
#    2.250    0.000    5.500    0.000    0.000    0.000 
#    0.000    0.000    0.000    0.000    0.000    0.000 
#
# Total GULP energy -178636.146938 kJ/mol
# GULP energy per Si atom -5582.379592 kJ/mol
# Density = 2.495053 g / cm^3
# Si number density = 25.007451 Si / 1000 Ang^3
#
#
#
# Elastic Constant Matrix: (Units=GPa)
#
#
# Indices 1 2 3 4 5 6 
#
# 1 37.7445 5.5772 0.7682 0.0000 0.0000 0.0000
# 2 5.5772 78.8640 28.3446 0.0000 0.0000 0.0000
# 3 0.7682 28.3446 42.2487 0.0000 0.0000 0.0000
# 4 0.0000 0.0000 0.0000 47.0352 0.0000 0.0000
# 5 0.0000 0.0000 0.0000 0.0000 35.3772 0.0000
# 6 0.0000 0.0000 0.0000 0.0000 0.0000 33.0667
#
#
#
# Elastic Compliance Matrix: (Units=1/GPa)
#
#
# Indices 1 2 3 4 5 6 
#
# 1 0.026808 -0.002267 0.001034 0.000000 0.000000 0.000000
# 2 -0.002267 0.016901 -0.011298 0.000000 0.000000 0.000000
# 3 0.001034 -0.011298 0.031230 0.000000 0.000000 0.000000
# 4 0.000000 0.000000 0.000000 0.021261 0.000000 0.000000
# 5 0.000000 0.000000 0.000000 0.000000 0.028267 0.000000
# 6 0.000000 0.000000 0.000000 0.000000 0.000000 0.030242
#
#
# Mechanical properties :
#
#
# Convention : Reuss Voigt Hill
#
# Bulk Modulus (GPa) = 20.04955 25.35969 22.70462
# Shear Modulus (GPa) = 25.45877 31.37364 28.41620
#
# Velocity S-wave (km/s) = 3.19415 3.54584 3.37458
# Velocity P-wave (km/s) = 4.65170 5.18910 4.92773
#
# Compressibility (1/GPa) = 0.04987644
#
# Stress axis : x y z
#
# Youngs Moduli (GPa) = 37.30243 59.16861 32.02046
#
# Poissons Ratio (x) = 0.13416 -0.03310
# Poissons Ratio (y) = 0.08458 0.36175
# Poissons Ratio (z) = -0.03856 0.66846
#
# Static dielectric constant tensor:
#      x y z
#    x 2.022340 0.000000 0.000000 
#    y 0.000000 2.016030 0.000000 
#    z 0.000000 0.000000 2.019120 
# 
# From -- ./inp_files/1884.got.cif
#   From: 2010.05.17/outbox.cif.g08.bks.cpg/sg29_1_cif.got.tgz:1884.got - 2010.06.04 01:19:37.
