data_PCOD9340244
_publ_section_title
;
Structure prediction by ZEFSAII (Michael W. Deem and Ramdas Pophale) SiO2 
 PCOD9340244
Probable space group: P C A 21
;
_chemical_formula_sum "Si O2"
_cell_formula_units_Z 28
_cell_length_a 18.320541
_cell_length_b 7.457664
_cell_length_c 7.847616
_cell_angle_alpha 90.000000
_cell_angle_beta 90.000000
_cell_angle_gamma 90.000000
_cell_volume 1072.207525
_symmetry_space_group_name_H-M "P C A 21"
_symmetry_group_IT_number 29
_symmetry_cell_setting 'orthorhombic'
loop_
_space_group_symop_operation_xyz
x,y,z
-x,-y,1/2+z
1/2-x,y,1/2+z
1/2+x,-y,z
loop_
_atom_site_type_symbol
_atom_site_label
_atom_site_fract_x
_atom_site_fract_y
_atom_site_fract_z
Si Si1 0.002420 0.074115 0.340350
Si Si2 0.745811 0.309862 0.114343
Si Si3 0.266707 0.103225 0.693628
Si Si4 0.587193 0.793584 0.002971
Si Si5 0.405715 0.628115 0.517175
Si Si6 0.859535 0.433695 0.870617
Si Si7 0.364661 0.189259 0.010140
O O1 0.040586 0.132954 0.165592
O O2 0.070438 0.053728 0.471986
O O3 0.954715 0.237132 0.413894
O O4 0.949689 0.902601 0.348925
O O5 0.713152 0.455819 0.248593
O O6 0.741665 0.110502 0.184097
O O7 0.678719 0.323987 0.978943
O O8 0.824092 0.334863 0.030303
O O9 0.330080 0.162621 0.560310
O O10 0.302593 0.140927 0.873552
O O11 0.186764 0.190528 0.673833
O O12 0.579399 0.580396 0.984711
O O13 0.410635 0.653778 0.725826
O O14 0.890780 0.614697 0.949173
#
# Coordination Sequence:
#
# PCOD9340244 Si02
#       7
#     4   4   4   4   4   4   4
#     4  11  24  45  70 103 137 184 232 279 345 414
#     4  10  20  38  69  99 130 174 218 276 340 398
#     4  11  21  41  68  97 136 170 223 282 336 400
#     4  11  23  47  71  97 140 183 227 286 342 408
#     4  10  22  43  71  95 143 175 223 285 339 402
#     4  10  19  40  65  94 133 170 219 280 331 402
#     4  11  23  42  68  97 133 178 224 278 345 402
#
# _framework density 26.114348
#
# number of rings (size 3 to 8) (size 9 to 14) (size 15 to 20)
#    0.857    0.571    4.286    2.571    0.000    2.286 
#   10.286    2.857    0.000    0.000    0.000    0.000 
#    0.000    0.000    0.000    0.000    0.000    0.000 
#
# Total GULP energy -156484.972172 kJ/mol
# GULP energy per Si atom -5588.749006 kJ/mol
# Density = 2.605491 g / cm^3
# Si number density = 26.114348 Si / 1000 Ang^3
#
#
#
# Elastic Constant Matrix: (Units=GPa)
#
#
# Indices 1 2 3 4 5 6 
#
# 1 98.8130 3.3265 -4.8218 0.0000 0.0000 0.0000
# 2 3.3265 71.0050 -12.7068 0.0000 0.0000 0.0000
# 3 -4.8218 -12.7068 38.6310 0.0000 0.0000 0.0000
# 4 0.0000 0.0000 0.0000 17.6410 0.0000 0.0000
# 5 0.0000 0.0000 0.0000 0.0000 46.5061 0.0000
# 6 0.0000 0.0000 0.0000 0.0000 0.0000 37.8225
#
#
#
# Elastic Compliance Matrix: (Units=1/GPa)
#
#
# Indices 1 2 3 4 5 6 
#
# 1 0.010187 -0.000265 0.001184 0.000000 0.000000 0.000000
# 2 -0.000265 0.014971 0.004891 0.000000 0.000000 0.000000
# 3 0.001184 0.004891 0.027643 0.000000 0.000000 0.000000
# 4 0.000000 0.000000 0.000000 0.056686 0.000000 0.000000
# 5 0.000000 0.000000 0.000000 0.000000 0.021503 0.000000
# 6 0.000000 0.000000 0.000000 0.000000 0.000000 0.026439
#
#
# Mechanical properties :
#
#
# Convention : Reuss Voigt Hill
#
# Bulk Modulus (GPa) = 15.52283 20.00499 17.76391
# Shear Modulus (GPa) = 29.88963 35.23733 32.56348
#
# Velocity S-wave (km/s) = 3.38682 3.67733 3.53506
# Velocity P-wave (km/s) = 4.60989 5.07026 4.84555
#
# Compressibility (1/GPa) = 0.06442123
#
# Stress axis : x y z
#
# Youngs Moduli (GPa) = 98.16585 66.79458 36.17597
#
# Poissons Ratio (x) = 0.01772 -0.04284
# Poissons Ratio (y) = 0.02605 -0.17695
# Poissons Ratio (z) = -0.11625 -0.32671
#
# Static dielectric constant tensor:
#      x y z
#    x 2.057470 0.000000 0.000000 
#    y 0.000000 2.013960 0.000000 
#    z 0.000000 0.000000 2.221110 
# 
# From -- ./inp_files/2112.got.cif
#   From: 2010.05.17/outbox.cif.g08.bks.cpg/sg29_2_cif.got.tgz:2112.got - 2010.06.04 01:19:37.
