data_PCOD9340520
_publ_section_title
;
Structure prediction by ZEFSAII (Michael W. Deem and Ramdas Pophale) SiO2 
 PCOD9340520
Probable space group: P C A 21
;
_chemical_formula_sum "Si O2"
_cell_formula_units_Z 32
_cell_length_a 34.405563
_cell_length_b 5.081146
_cell_length_c 7.240015
_cell_angle_alpha 90.000000
_cell_angle_beta 90.000000
_cell_angle_gamma 90.000000
_cell_volume 1265.697169
_symmetry_space_group_name_H-M "P C A 21"
_symmetry_group_IT_number 29
_symmetry_cell_setting 'orthorhombic'
loop_
_space_group_symop_operation_xyz
x,y,z
-x,-y,1/2+z
1/2-x,y,1/2+z
1/2+x,-y,z
loop_
_atom_site_type_symbol
_atom_site_label
_atom_site_fract_x
_atom_site_fract_y
_atom_site_fract_z
Si Si1 0.685296 0.441757 0.375000
Si Si2 0.513679 0.288017 0.509340
Si Si3 0.228776 0.066426 0.286738
Si Si4 0.456398 0.205885 0.792232
Si Si5 0.416750 0.773696 0.246521
Si Si6 0.613752 0.723408 0.526642
Si Si7 0.857978 0.437425 0.486401
Si Si8 0.312632 0.044486 0.391219
O O1 0.705431 0.158360 0.402552
O O2 0.657761 0.629898 0.499207
O O3 0.657208 0.409556 0.194938
O O4 0.721185 0.634652 0.343844
O O5 0.524387 0.570235 0.424773
O O6 0.537917 0.216811 0.696803
O O7 0.528214 0.075781 0.361400
O O8 0.469739 0.258154 0.582342
O O9 0.274900 0.052358 0.264851
O O10 0.208671 0.038326 0.089015
O O11 0.410219 0.218478 0.837086
O O12 0.404013 0.535187 0.115878
O O13 0.401203 0.674409 0.444993
O O14 0.397073 0.033019 0.158891
O O15 0.833624 0.230926 0.363882
O O16 0.844080 0.722091 0.415074
#
# Coordination Sequence:
#
# PCOD9340520 Si02
#       8
#     4   4   4   4   4   4   4   4
#     4  10  21  37  55  79 110 142 181 228 277 333
#     4  10  21  38  59  86 119 153 194 241 287 343
#     4  10  21  36  54  78 107 139 180 227 274 330
#     4  10  21  38  59  86 119 153 194 241 287 343
#     4  10  21  37  57  83 113 146 188 234 280 336
#     4  10  21  37  57  83 113 146 188 234 280 336
#     4  10  21  37  55  79 110 142 181 228 277 333
#     4  10  21  36  54  78 107 139 180 227 274 330
#
# _framework density 25.282509999999998
#
# number of rings (size 3 to 8) (size 9 to 14) (size 15 to 20)
#    0.000    2.000    0.000    3.000    0.000    4.000 
#    0.000    3.750    0.000    0.000    0.000    0.000 
#    0.000    0.000    0.000    0.000    0.000    0.000 
#
# Total GULP energy -178587.896946 kJ/mol
# GULP energy per Si atom -5580.871780 kJ/mol
# Density = 2.522497 g / cm^3
# Si number density = 25.282510 Si / 1000 Ang^3
#
#
#
# Elastic Constant Matrix: (Units=GPa)
#
#
# Indices 1 2 3 4 5 6 
#
# 1 56.0754 0.0000 -1.9188 0.0000 0.0000 0.0000
# 2 0.0000 131.8522 22.9909 0.0000 0.0000 0.0000
# 3 -1.9188 22.9909 30.2508 0.0000 0.0000 0.0000
# 4 0.0000 0.0000 0.0000 22.7387 0.0000 0.0000
# 5 0.0000 0.0000 0.0000 0.0000 16.9637 0.0000
# 6 0.0000 0.0000 0.0000 0.0000 0.0000 30.9610
#
#
#
# Elastic Compliance Matrix: (Units=1/GPa)
#
#
# Indices 1 2 3 4 5 6 
#
# 1 0.017878 -0.000228 0.001307 0.000000 0.000000 0.000000
# 2 -0.000228 0.008746 -0.006661 0.000000 0.000000 0.000000
# 3 0.001307 -0.006661 0.038203 0.000000 0.000000 0.000000
# 4 0.000000 0.000000 0.000000 0.043978 0.000000 0.000000
# 5 0.000000 0.000000 0.000000 0.000000 0.058949 0.000000
# 6 0.000000 0.000000 0.000000 0.000000 0.000000 0.032299
#
#
# Mechanical properties :
#
#
# Convention : Reuss Voigt Hill
#
# Bulk Modulus (GPa) = 18.63510 28.92470 23.77990
# Shear Modulus (GPa) = 21.82418 27.27310 24.54864
#
# Velocity S-wave (km/s) = 2.94124 3.28797 3.11942
# Velocity P-wave (km/s) = 4.34985 5.08722 4.73292
#
# Compressibility (1/GPa) = 0.05366218
#
# Stress axis : x y z
#
# Youngs Moduli (GPa) = 55.93508 114.34092 26.17622
#
# Poissons Ratio (x) = 0.02606 -0.03422
# Poissons Ratio (y) = 0.01275 0.17437
# Poissons Ratio (z) = -0.07312 0.76166
#
# Static dielectric constant tensor:
#      x y z
#    x 2.168090 0.000000 0.000000 
#    y 0.000000 1.896160 0.000000 
#    z 0.000000 0.000000 2.054060 
# 
# From -- ./inp_files/2586.got.cif
#   From: 2010.05.17/outbox.cif.g08.bks.cpg/sg29_2_cif.got.tgz:2586.got - 2010.06.04 01:19:37.
