data_PCOD9340592
_publ_section_title
;
Structure prediction by ZEFSAII (Michael W. Deem and Ramdas Pophale) SiO2 
 PCOD9340592
Probable space group: P C A 21
;
_chemical_formula_sum "Si O2"
_cell_formula_units_Z 32
_cell_length_a 14.255265
_cell_length_b 11.883318
_cell_length_c 8.950464
_cell_angle_alpha 90.000000
_cell_angle_beta 90.000000
_cell_angle_gamma 90.000000
_cell_volume 1516.207234
_symmetry_space_group_name_H-M "P C A 21"
_symmetry_group_IT_number 29
_symmetry_cell_setting 'orthorhombic'
loop_
_space_group_symop_operation_xyz
x,y,z
-x,-y,1/2+z
1/2-x,y,1/2+z
1/2+x,-y,z
loop_
_atom_site_type_symbol
_atom_site_label
_atom_site_fract_x
_atom_site_fract_y
_atom_site_fract_z
Si Si1 0.111271 0.298399 0.784030
Si Si2 0.529283 0.729788 0.480037
Si Si3 0.757523 0.001442 0.661967
Si Si4 0.862981 0.477617 0.137893
Si Si5 0.155941 0.853713 0.906720
Si Si6 0.949775 0.514877 0.515705
Si Si7 0.212389 0.162307 0.407075
Si Si8 0.774297 0.389978 0.433331
O O1 0.040250 0.247378 0.660373
O O2 0.160366 0.393490 0.678953
O O3 0.061727 0.377680 0.908000
O O4 0.187509 0.218053 0.862932
O O5 0.450511 0.810467 0.410611
O O6 0.497937 0.601344 0.460217
O O7 0.629453 0.748946 0.405625
O O8 0.811418 0.936249 0.791461
O O9 0.711342 0.900199 0.566562
O O10 0.823067 0.061496 0.541855
O O11 0.689604 0.087192 0.752614
O O12 0.809869 0.409936 0.266163
O O13 0.826307 0.436331 0.978599
O O14 0.974752 0.456540 0.142689
O O15 0.216170 0.742964 0.950500
O O16 0.844943 0.465500 0.536602
#
# Coordination Sequence:
#
# PCOD9340592 Si02
#       8
#     4   4   4   4   4   4   4   4
#     4  10  22  41  63  95 140 175 212 272 325 400
#     4  10  22  42  65  97 134 172 227 271 326 403
#     4  10  23  42  68  91 125 170 222 274 342 390
#     4  10  22  36  62  94 131 173 214 254 325 401
#     4  10  22  43  65  91 130 167 223 286 325 393
#     4   9  22  38  56  97 132 172 212 253 315 408
#     4  11  22  43  66  97 129 174 221 271 338 392
#     4  10  21  39  61  92 125 173 211 267 332 383
#
# _framework density 21.105295000000002
#
# number of rings (size 3 to 8) (size 9 to 14) (size 15 to 20)
#    0.000    2.000    1.250    0.750    7.000    6.000 
#   11.250    0.000    0.000    0.000    0.000    0.000 
#    0.000    0.000    0.000    0.000    0.000    0.000 
#
# Total GULP energy -178175.371640 kJ/mol
# GULP energy per Si atom -5567.980364 kJ/mol
# Density = 2.105726 g / cm^3
# Si number density = 21.105295 Si / 1000 Ang^3
#
#
#
# Elastic Constant Matrix: (Units=GPa)
#
#
# Indices 1 2 3 4 5 6 
#
# 1 63.1273 17.5841 31.9216 0.0000 0.0000 0.0000
# 2 17.5841 51.3378 21.0369 0.0000 0.0000 0.0000
# 3 31.9216 21.0369 88.2440 0.0000 0.0000 0.0000
# 4 0.0000 0.0000 0.0000 40.2782 0.0000 0.0000
# 5 0.0000 0.0000 0.0000 0.0000 20.7424 0.0000
# 6 0.0000 0.0000 0.0000 0.0000 0.0000 27.0847
#
#
#
# Elastic Compliance Matrix: (Units=1/GPa)
#
#
# Indices 1 2 3 4 5 6 
#
# 1 0.020230 -0.004356 -0.006280 0.000000 0.000000 0.000000
# 2 -0.004356 0.022526 -0.003794 0.000000 0.000000 0.000000
# 3 -0.006280 -0.003794 0.014508 0.000000 0.000000 0.000000
# 4 0.000000 0.000000 0.000000 0.024827 0.000000 0.000000
# 5 0.000000 0.000000 0.000000 0.000000 0.048210 0.000000
# 6 0.000000 0.000000 0.000000 0.000000 0.000000 0.036921
#
#
# Mechanical properties :
#
#
# Convention : Reuss Voigt Hill
#
# Bulk Modulus (GPa) = 35.20594 38.19936 36.70265
# Shear Modulus (GPa) = 24.32499 26.43216 25.37857
#
# Velocity S-wave (km/s) = 3.39861 3.54276 3.47143
# Velocity P-wave (km/s) = 5.66728 5.90538 5.78756
#
# Compressibility (1/GPa) = 0.02840430
#
# Stress axis : x y z
#
# Youngs Moduli (GPa) = 49.43228 44.39403 68.92599
#
# Poissons Ratio (x) = 0.19337 0.43282
# Poissons Ratio (y) = 0.21532 0.26152
# Poissons Ratio (z) = 0.31041 0.16844
#
# Static dielectric constant tensor:
#      x y z
#    x 1.810130 0.000000 0.000000 
#    y 0.000000 1.774380 0.000000 
#    z 0.000000 0.000000 1.840850 
# 
# From -- ./inp_files/1898.got.cif
#   From: 2010.05.17/outbox.cif.g08.bks.cpg/sg29_1_cif.got.tgz:1898.got - 2010.06.04 01:19:37.
