data_PCOD9340966
_publ_section_title
;
Structure prediction by ZEFSAII (Michael W. Deem and Ramdas Pophale) SiO2 
 PCOD9340966
Probable space group: P C A 21
;
_chemical_formula_sum "Si O2"
_cell_formula_units_Z 28
_cell_length_a 12.299341
_cell_length_b 5.359067
_cell_length_c 17.472897
_cell_angle_alpha 90.000000
_cell_angle_beta 90.000000
_cell_angle_gamma 90.000000
_cell_volume 1151.690928
_symmetry_space_group_name_H-M "P C A 21"
_symmetry_group_IT_number 29
_symmetry_cell_setting 'orthorhombic'
loop_
_space_group_symop_operation_xyz
x,y,z
-x,-y,1/2+z
1/2-x,y,1/2+z
1/2+x,-y,z
loop_
_atom_site_type_symbol
_atom_site_label
_atom_site_fract_x
_atom_site_fract_y
_atom_site_fract_z
Si Si1 0.688714 0.835364 0.341940
Si Si2 0.035153 0.564328 0.837593
Si Si3 0.069844 0.234197 0.601454
Si Si4 0.756499 0.005056 0.506789
Si Si5 0.911795 0.197838 0.725166
Si Si6 0.798868 0.469151 0.229435
Si Si7 0.611409 0.508160 0.008501
O O1 0.571924 0.717654 0.361502
O O2 0.734369 0.971878 0.416081
O O3 0.767144 0.634739 0.303479
O O4 0.660623 0.007692 0.270997
O O5 0.112793 0.704336 0.774857
O O6 0.987548 0.335865 0.787237
O O7 0.086708 0.490785 0.917948
O O8 0.145528 0.053944 0.552089
O O9 0.142748 0.389326 0.660956
O O10 0.982703 0.097238 0.656001
O O11 0.998771 0.425877 0.551138
O O12 0.838468 0.777809 0.528331
O O13 0.804207 0.278850 0.520704
O O14 0.817313 0.383703 0.697205
#
# Coordination Sequence:
#
# PCOD9340966 Si02
#       7
#     4   4   4   4   4   4   4
#     4  11  23  42  75 105 142 197 253 301 373 445
#     4  10  22  42  71 105 140 189 248 304 365 438
#     4  11  26  48  71 108 151 196 245 311 379 437
#     4  12  28  48  76 109 148 197 245 313 364 444
#     4  10  24  44  73 107 144 194 248 308 375 448
#     4  10  22  46  70 106 143 194 244 312 366 445
#     4  12  27  48  74 110 148 193 251 303 374 441
#
# _framework density 24.312079000000001
#
# number of rings (size 3 to 8) (size 9 to 14) (size 15 to 20)
#    0.000    1.143    2.857    1.714    6.000    3.429 
#   10.286    0.000    0.000    0.000    0.000    0.000 
#    0.000    0.000    0.000    0.000    0.000    0.000 
#
# Total GULP energy -156594.059380 kJ/mol
# GULP energy per Si atom -5592.644978 kJ/mol
# Density = 2.425674 g / cm^3
# Si number density = 24.312079 Si / 1000 Ang^3
#
#
#
# Elastic Constant Matrix: (Units=GPa)
#
#
# Indices 1 2 3 4 5 6 
#
# 1 106.2371 16.0261 53.0572 0.0000 0.0000 0.0000
# 2 16.0261 45.7297 11.0302 0.0000 0.0000 0.0000
# 3 53.0572 11.0302 119.7467 0.0000 0.0000 0.0000
# 4 0.0000 0.0000 0.0000 18.8379 0.0000 0.0000
# 5 0.0000 0.0000 0.0000 0.0000 41.3237 0.0000
# 6 0.0000 0.0000 0.0000 0.0000 0.0000 -42.7246
#
#
#
# Elastic Compliance Matrix: (Units=1/GPa)
#
#
# Indices 1 2 3 4 5 6 
#
# 1 0.012507 -0.003116 -0.005255 0.000000 0.000000 0.000000
# 2 -0.003116 0.023141 -0.000751 0.000000 0.000000 0.000000
# 3 -0.005255 -0.000751 0.010748 0.000000 0.000000 0.000000
# 4 0.000000 0.000000 0.000000 0.053085 0.000000 0.000000
# 5 0.000000 0.000000 0.000000 0.000000 0.024199 0.000000
# 6 0.000000 0.000000 0.000000 0.000000 0.000000 -0.023406
#
#
# Mechanical properties :
#
#
# Convention : Reuss Voigt Hill
#
# Bulk Modulus (GPa) = 35.51971 47.99341 41.75656
# Shear Modulus (GPa) = 39.09248 16.26072 27.67660
#
# Velocity S-wave (km/s) = 4.01427 2.58899 3.37766
# Velocity P-wave (km/s) = 6.01061 5.35916 5.69421
#
# Compressibility (1/GPa) = 0.02815338
#
# Stress axis : x y z
#
# Youngs Moduli (GPa) = 79.95367 43.21387 93.03723
#
# Poissons Ratio (x) = 0.13464 0.48888
# Poissons Ratio (y) = 0.24912 0.06988
# Poissons Ratio (z) = 0.42013 0.03246
#
# Static dielectric constant tensor:
#      x y z
#    x 2.075660 0.000000 0.000000 
#    y 0.000000 2.356370 0.000000 
#    z 0.000000 0.000000 1.922530 
# 
# From -- ./inp_files/5090.got.cif
#   From: 2010.05.17/outbox.cif.g08.bks.cpg/sg29_3_cif.got.tgz:5090.got - 2010.06.04 01:19:37.
