data_PCOD9340393
_publ_section_title
;
Structure prediction by ZEFSAII (Michael W. Deem and Ramdas Pophale) SiO2 
 PCOD9340393
Probable space group: P C A 21
;
_chemical_formula_sum "Si O2"
_cell_formula_units_Z 24
_cell_length_a 22.656351
_cell_length_b 6.115335
_cell_length_c 7.370695
_cell_angle_alpha 90.000000
_cell_angle_beta 90.000000
_cell_angle_gamma 90.000000
_cell_volume 1021.218462
_symmetry_space_group_name_H-M "P C A 21"
_symmetry_group_IT_number 29
_symmetry_cell_setting 'orthorhombic'
loop_
_space_group_symop_operation_xyz
x,y,z
-x,-y,1/2+z
1/2-x,y,1/2+z
1/2+x,-y,z
loop_
_atom_site_type_symbol
_atom_site_label
_atom_site_fract_x
_atom_site_fract_y
_atom_site_fract_z
Si Si1 0.935138 0.764613 0.780420
Si Si2 0.809122 0.950481 0.121845
Si Si3 0.013314 0.119853 0.923160
Si Si4 0.323105 0.986448 0.717846
Si Si5 0.086293 0.391108 0.645768
Si Si6 0.880688 0.219940 0.410801
O O1 0.979660 0.745849 0.610614
O O2 0.870950 0.817560 0.699902
O O3 0.934086 0.580291 0.935706
O O4 0.953274 0.991177 0.884283
O O5 0.739703 0.923940 0.151008
O O6 0.834995 0.091250 0.284477
O O7 0.851824 0.740091 0.121598
O O8 0.817426 0.066683 0.928951
O O9 0.036247 0.249854 0.748686
O O10 0.060875 0.923472 0.941623
O O11 0.347414 0.780598 0.603332
O O12 0.100536 0.575615 0.791976
#
# Coordination Sequence:
#
# PCOD9340393 Si02
#       6
#     4   4   4   4   4   4
#     4  10  20  38  65  88 120 168 208 252 319 377
#     4  10  20  40  61  84 123 162 202 256 313 374
#     4  10  20  40  63  85 125 163 205 261 314 377
#     4  10  20  38  64  86 122 166 202 253 318 373
#     4  10  22  40  62  90 120 159 213 260 309 380
#     4  10  22  40  59  91 122 158 206 262 319 369
#
# _framework density 23.501338000000001
#
# number of rings (size 3 to 8) (size 9 to 14) (size 15 to 20)
#    0.000    2.000    3.333    0.000    0.000    1.333 
#    9.000    0.000    0.000    0.000    0.000    0.000 
#    0.000    0.000    0.000    0.000    0.000    0.000 
#
# Total GULP energy -134063.257415 kJ/mol
# GULP energy per Si atom -5585.969059 kJ/mol
# Density = 2.344785 g / cm^3
# Si number density = 23.501338 Si / 1000 Ang^3
#
#
#
# Elastic Constant Matrix: (Units=GPa)
#
#
# Indices 1 2 3 4 5 6 
#
# 1 119.1005 20.9053 47.2392 0.0000 0.0000 0.0000
# 2 20.9053 46.6963 32.7146 0.0000 0.0000 0.0000
# 3 47.2392 32.7146 167.3564 0.0000 0.0000 0.0000
# 4 0.0000 0.0000 0.0000 37.2602 0.0000 0.0000
# 5 0.0000 0.0000 0.0000 0.0000 24.2774 0.0000
# 6 0.0000 0.0000 0.0000 0.0000 0.0000 -5.0681
#
#
#
# Elastic Compliance Matrix: (Units=1/GPa)
#
#
# Indices 1 2 3 4 5 6 
#
# 1 0.009767 -0.002828 -0.002204 0.000000 0.000000 0.000000
# 2 -0.002828 0.025632 -0.004212 0.000000 0.000000 0.000000
# 3 -0.002204 -0.004212 0.007421 0.000000 0.000000 0.000000
# 4 0.000000 0.000000 0.000000 0.026838 0.000000 0.000000
# 5 0.000000 0.000000 0.000000 0.000000 0.041191 0.000000
# 6 0.000000 0.000000 0.000000 0.000000 0.000000 -0.197314
#
#
# Mechanical properties :
#
#
# Convention : Reuss Voigt Hill
#
# Bulk Modulus (GPa) = 41.10036 59.43015 50.26525
# Shear Modulus (GPa) = -83.51970 26.78019 -28.36976
#
# Velocity S-wave (km/s) = -5.96787 3.37934 -3.47818
# Velocity P-wave (km/s) = 5.47364 6.36941 2.30312
#
# Compressibility (1/GPa) = 0.02433069
#
# Stress axis : x y z
#
# Youngs Moduli (GPa) = 102.38650 39.01344 134.75700
#
# Poissons Ratio (x) = 0.11035 0.29700
# Poissons Ratio (y) = 0.28960 0.56762
# Poissons Ratio (z) = 0.22566 0.16433
#
# Static dielectric constant tensor:
#      x y z
#    x 1.893220 0.000000 0.000000 
#    y 0.000000 1.933100 0.000000 
#    z 0.000000 0.000000 1.918750 
# 
# From -- ./inp_files/2504.got.cif
#   From: 2010.05.17/outbox.cif.g08.bks.cpg/sg29_2_cif.got.tgz:2504.got - 2010.06.04 01:19:37.
