data_PCOD9340957
_publ_section_title
;
Structure prediction by ZEFSAII (Michael W. Deem and Ramdas Pophale) SiO2 
 PCOD9340957
Probable space group: P C A 21
;
_chemical_formula_sum "Si O2"
_cell_formula_units_Z 16
_cell_length_a 14.584340
_cell_length_b 4.664977
_cell_length_c 8.266805
_cell_angle_alpha 90.000000
_cell_angle_beta 90.000000
_cell_angle_gamma 90.000000
_cell_volume 562.437126
_symmetry_space_group_name_H-M "P C A 21"
_symmetry_group_IT_number 29
_symmetry_cell_setting 'orthorhombic'
loop_
_space_group_symop_operation_xyz
x,y,z
-x,-y,1/2+z
1/2-x,y,1/2+z
1/2+x,-y,z
loop_
_atom_site_type_symbol
_atom_site_label
_atom_site_fract_x
_atom_site_fract_y
_atom_site_fract_z
Si Si1 0.974280 0.179303 0.100010
Si Si2 0.715832 0.981972 0.201018
Si Si3 0.387153 0.875072 0.421344
Si Si4 0.364543 0.324061 0.992597
O O1 0.894791 0.350492 0.005592
O O2 0.958590 0.252263 0.289235
O O3 0.945962 0.844208 0.086244
O O4 0.064948 0.172804 0.988021
O O5 0.795803 0.114793 0.311370
O O6 0.650745 0.799732 0.316158
O O7 0.772830 0.766095 0.086492
O O8 0.656787 0.205434 0.095079
#
# Coordination Sequence:
#
# PCOD9340957 Si02
#       4
#     4   4   4   4
#     4  11  24  42  67  98 133 178 230 283 340 408
#     4   9  21  42  66  96 136 178 226 283 346 408
#     4  10  22  42  68  99 136 181 230 284 343 411
#     4  10  23  42  65  97 133 177 226 282 343 409
#
# _framework density 28.447621000000002
#
# number of rings (size 3 to 8) (size 9 to 14) (size 15 to 20)
#    0.000    2.000    0.000    1.500    0.000   16.000 
#    0.000   15.000    0.000    0.000    0.000    0.000 
#    0.000    0.000    0.000    0.000    0.000    0.000 
#
# Total GULP energy -89289.074119 kJ/mol
# GULP energy per Si atom -5580.567132 kJ/mol
# Density = 2.838287 g / cm^3
# Si number density = 28.447621 Si / 1000 Ang^3
#
#
#
# Elastic Constant Matrix: (Units=GPa)
#
#
# Indices 1 2 3 4 5 6 
#
# 1 144.6869 3.0869 36.7832 0.0000 0.0000 0.0000
# 2 3.0869 56.3508 35.6928 0.0000 0.0000 0.0000
# 3 36.7832 35.6928 206.6009 0.0000 0.0000 0.0000
# 4 0.0000 0.0000 0.0000 34.6370 0.0000 0.0000
# 5 0.0000 0.0000 0.0000 0.0000 56.6990 0.0000
# 6 0.0000 0.0000 0.0000 0.0000 0.0000 34.4918
#
#
#
# Elastic Compliance Matrix: (Units=1/GPa)
#
#
# Indices 1 2 3 4 5 6 
#
# 1 0.007250 0.000472 -0.001372 0.000000 0.000000 0.000000
# 2 0.000472 0.019957 -0.003532 0.000000 0.000000 0.000000
# 3 -0.001372 -0.003532 0.005695 0.000000 0.000000 0.000000
# 4 0.000000 0.000000 0.000000 0.028871 0.000000 0.000000
# 5 0.000000 0.000000 0.000000 0.000000 0.017637 0.000000
# 6 0.000000 0.000000 0.000000 0.000000 0.000000 0.028992
#
#
# Mechanical properties :
#
#
# Convention : Reuss Voigt Hill
#
# Bulk Modulus (GPa) = 41.60092 62.08492 51.84292
# Shear Modulus (GPa) = 39.91072 47.30395 43.60733
#
# Velocity S-wave (km/s) = 3.74967 4.08222 3.91947
# Velocity P-wave (km/s) = 5.77946 6.64011 6.22468
#
# Compressibility (1/GPa) = 0.02403793
#
# Stress axis : x y z
#
# Youngs Moduli (GPa) = 137.92522 50.10709 175.59962
#
# Poissons Ratio (x) = -0.02366 0.24099
# Poissons Ratio (y) = -0.06512 0.62020
# Poissons Ratio (z) = 0.18929 0.17697
#
# Static dielectric constant tensor:
#      x y z
#    x 2.341400 0.000000 0.000000 
#    y 0.000000 2.139070 0.000000 
#    z 0.000000 0.000000 2.221540 
# 
# From -- ./inp_files/1620.got.cif
#   From: 2010.05.17/outbox.cif.g08.bks.cpg/sg29_1_cif.got.tgz:1620.got - 2010.06.04 01:19:37.
