data_PCOD9340909
_publ_section_title
;
Structure prediction by ZEFSAII (Michael W. Deem and Ramdas Pophale) SiO2 
 PCOD9340909
Probable space group: P C A 21
;
_chemical_formula_sum "Si O2"
_cell_formula_units_Z 20
_cell_length_a 17.027683
_cell_length_b 5.479751
_cell_length_c 8.600296
_cell_angle_alpha 90.000000
_cell_angle_beta 90.000000
_cell_angle_gamma 90.000000
_cell_volume 802.471800
_symmetry_space_group_name_H-M "P C A 21"
_symmetry_group_IT_number 29
_symmetry_cell_setting 'orthorhombic'
loop_
_space_group_symop_operation_xyz
x,y,z
-x,-y,1/2+z
1/2-x,y,1/2+z
1/2+x,-y,z
loop_
_atom_site_type_symbol
_atom_site_label
_atom_site_fract_x
_atom_site_fract_y
_atom_site_fract_z
Si Si1 0.668438 0.910386 0.853080
Si Si2 0.410119 0.110751 0.871306
Si Si3 0.697166 0.161054 0.162529
Si Si4 0.680440 0.535936 0.591977
Si Si5 0.542238 0.162684 0.660989
O O1 0.680568 0.661119 0.761473
O O2 0.730422 0.084181 0.768237
O O3 0.585219 0.011479 0.796671
O O4 0.680434 0.954967 0.033511
O O5 0.461927 0.248826 0.741269
O O6 0.375114 0.872686 0.781134
O O7 0.341158 0.271439 0.953808
O O8 0.461884 0.023074 0.017211
O O9 0.735508 0.397393 0.079265
O O10 0.603575 0.363966 0.601397
#
# Coordination Sequence:
#
# PCOD9340909 Si02
#       5
#     4   4   4   4   4
#     4  10  22  41  66  98 134 177 232 285 345 416
#     4  11  24  43  70 102 140 185 240 296 358 427
#     4  11  23  42  66  98 141 183 231 293 345 423
#     4  10  24  45  68 101 140 187 236 288 363 424
#     4  10  23  43  66  99 137 178 233 296 355 420
#
# _framework density 24.922996000000001
#
# number of rings (size 3 to 8) (size 9 to 14) (size 15 to 20)
#    0.000    1.600    0.000    4.800    0.000   14.400 
#    0.000    4.000    0.000    0.000    0.000    0.000 
#    0.000    0.000    0.000    0.000    0.000    0.000 
#
# Total GULP energy -111570.836433 kJ/mol
# GULP energy per Si atom -5578.541822 kJ/mol
# Density = 2.486627 g / cm^3
# Si number density = 24.922996 Si / 1000 Ang^3
#
#
#
# Elastic Constant Matrix: (Units=GPa)
#
#
# Indices 1 2 3 4 5 6 
#
# 1 67.4932 9.4404 63.7668 0.0000 0.0000 0.0000
# 2 9.4404 78.3906 34.0082 0.0000 0.0000 0.0000
# 3 63.7668 34.0082 145.3241 0.0000 0.0000 0.0000
# 4 0.0000 0.0000 0.0000 36.2062 0.0000 0.0000
# 5 0.0000 0.0000 0.0000 0.0000 57.9952 0.0000
# 6 0.0000 0.0000 0.0000 0.0000 0.0000 20.8771
#
#
#
# Elastic Compliance Matrix: (Units=1/GPa)
#
#
# Indices 1 2 3 4 5 6 
#
# 1 0.025584 0.001991 -0.011692 0.000000 0.000000 0.000000
# 2 0.001991 0.014353 -0.004233 0.000000 0.000000 0.000000
# 3 -0.011692 -0.004233 0.013002 0.000000 0.000000 0.000000
# 4 0.000000 0.000000 0.000000 0.027620 0.000000 0.000000
# 5 0.000000 0.000000 0.000000 0.000000 0.017243 0.000000
# 6 0.000000 0.000000 0.000000 0.000000 0.000000 0.047899
#
#
# Mechanical properties :
#
#
# Convention : Reuss Voigt Hill
#
# Bulk Modulus (GPa) = 39.88414 56.18207 48.03311
# Shear Modulus (GPa) = 27.48373 35.28188 31.38281
#
# Velocity S-wave (km/s) = 3.32436 3.76658 3.55236
# Velocity P-wave (km/s) = 5.54733 6.44262 6.01166
#
# Compressibility (1/GPa) = 0.02507263
#
# Stress axis : x y z
#
# Youngs Moduli (GPa) = 39.08622 69.67158 76.91061
#
# Poissons Ratio (x) = -0.13874 0.89926
# Poissons Ratio (y) = -0.07783 0.32553
# Poissons Ratio (z) = 0.45700 0.29489
#
# Static dielectric constant tensor:
#      x y z
#    x 2.007800 0.000000 0.000000 
#    y 0.000000 2.069090 0.000000 
#    z 0.000000 0.000000 1.933730 
# 
# From -- ./inp_files/1949.got.cif
#   From: 2010.05.17/outbox.cif.g08.bks.cpg/sg29_1_cif.got.tgz:1949.got - 2010.06.04 01:19:37.
