data_PCOD9340977
_publ_section_title
;
Structure prediction by ZEFSAII (Michael W. Deem and Ramdas Pophale) SiO2 
 PCOD9340977
Probable space group: P C A 21
;
_chemical_formula_sum "Si O2"
_cell_formula_units_Z 32
_cell_length_a 12.164700
_cell_length_b 5.065506
_cell_length_c 22.297472
_cell_angle_alpha 90.000000
_cell_angle_beta 90.000000
_cell_angle_gamma 90.000000
_cell_volume 1373.978270
_symmetry_space_group_name_H-M "P C A 21"
_symmetry_group_IT_number 29
_symmetry_cell_setting 'orthorhombic'
loop_
_space_group_symop_operation_xyz
x,y,z
-x,-y,1/2+z
1/2-x,y,1/2+z
1/2+x,-y,z
loop_
_atom_site_type_symbol
_atom_site_label
_atom_site_fract_x
_atom_site_fract_y
_atom_site_fract_z
Si Si1 0.495808 0.404853 0.178200
Si Si2 0.687912 0.015659 0.154935
Si Si3 0.673330 0.855955 0.760679
Si Si4 0.854708 0.458755 0.359919
Si Si5 0.194507 0.489036 0.596245
Si Si6 0.293879 0.420031 0.954982
Si Si7 0.833260 0.090232 0.881457
Si Si8 0.470174 0.231843 0.785115
O O1 0.567123 0.146009 0.162002
O O2 0.433976 0.492185 0.117501
O O3 0.561835 0.598219 0.225070
O O4 0.385428 0.352553 0.216223
O O5 0.731526 0.990094 0.222789
O O6 0.755309 0.238597 0.119596
O O7 0.724296 0.743384 0.122338
O O8 0.574529 0.060803 0.765822
O O9 0.704156 0.673055 0.817051
O O10 0.830526 0.542865 0.427929
O O11 0.138704 0.643043 0.418098
O O12 0.975569 0.432751 0.333640
O O13 0.785673 0.186439 0.355861
O O14 0.198720 0.461225 0.524864
O O15 0.328291 0.134527 0.931730
O O16 0.902248 0.973140 0.826488
#
# Coordination Sequence:
#
# PCOD9340977 Si02
#       8
#     4   4   4   4   4   4   4   4
#     4  10  25  44  68 111 143 187 245 305 379 445
#     4  11  25  45  74 104 137 201 239 301 379 439
#     4  10  22  43  67 103 148 180 236 308 363 451
#     4   9  23  41  70 104 140 190 238 297 379 439
#     4  11  24  50  74 100 151 191 255 309 357 443
#     4  10  23  47  70 102 144 192 243 305 356 439
#     4  10  24  43  68 106 138 189 237 296 375 439
#     4  11  22  43  69 104 149 180 235 311 370 457
#
# _framework density 23.290032
#
# number of rings (size 3 to 8) (size 9 to 14) (size 15 to 20)
#    0.750    1.000    1.250    1.500    5.250    3.000 
#    4.500    0.000    0.000    0.000    0.000    0.000 
#    0.000    0.000    0.000    0.000    0.000    0.000 
#
# Total GULP energy -178285.506685 kJ/mol
# GULP energy per Si atom -5571.422084 kJ/mol
# Density = 2.323702 g / cm^3
# Si number density = 23.290032 Si / 1000 Ang^3
#
#
#
# Elastic Constant Matrix: (Units=GPa)
#
#
# Indices 1 2 3 4 5 6 
#
# 1 55.6084 9.4535 44.6419 0.0000 0.0000 0.0000
# 2 9.4535 125.8860 44.5708 0.0000 0.0000 0.0000
# 3 44.6419 44.5708 169.9596 0.0000 0.0000 0.0000
# 4 0.0000 0.0000 0.0000 36.4692 0.0000 0.0000
# 5 0.0000 0.0000 0.0000 0.0000 27.0515 0.0000
# 6 0.0000 0.0000 0.0000 0.0000 0.0000 34.4585
#
#
#
# Elastic Compliance Matrix: (Units=1/GPa)
#
#
# Indices 1 2 3 4 5 6 
#
# 1 0.022811 0.000450 -0.006110 0.000000 0.000000 0.000000
# 2 0.000450 0.008766 -0.002417 0.000000 0.000000 0.000000
# 3 -0.006110 -0.002417 0.008122 0.000000 0.000000 0.000000
# 4 0.000000 0.000000 0.000000 0.027420 0.000000 0.000000
# 5 0.000000 0.000000 0.000000 0.000000 0.036967 0.000000
# 6 0.000000 0.000000 0.000000 0.000000 0.000000 0.029020
#
#
# Mechanical properties :
#
#
# Convention : Reuss Voigt Hill
#
# Bulk Modulus (GPa) = 42.46975 60.97628 51.72301
# Shear Modulus (GPa) = 31.82521 36.44837 34.13679
#
# Velocity S-wave (km/s) = 3.70059 3.96027 3.83263
# Velocity P-wave (km/s) = 6.04433 6.86657 6.46853
#
# Compressibility (1/GPa) = 0.02354617
#
# Stress axis : x y z
#
# Youngs Moduli (GPa) = 43.83825 114.08186 123.11699
#
# Poissons Ratio (x) = -0.05135 0.75220
# Poissons Ratio (y) = -0.01973 0.29757
# Poissons Ratio (z) = 0.26784 0.27573
#
# Static dielectric constant tensor:
#      x y z
#    x 1.992910 0.000000 0.000000 
#    y 0.000000 1.983910 0.000000 
#    z 0.000000 0.000000 1.917810 
# 
# From -- ./inp_files/5558.got.cif
#   From: 2010.05.17/outbox.cif.g08.bks.cpg/sg29_3_cif.got.tgz:5558.got - 2010.06.04 01:19:37.
