data_PCOD9340336
_publ_section_title
;
Structure prediction by ZEFSAII (Michael W. Deem and Ramdas Pophale) SiO2 
 PCOD9340336
Probable space group: P C A 21
;
_chemical_formula_sum "Si O2"
_cell_formula_units_Z 24
_cell_length_a 9.424645
_cell_length_b 14.432711
_cell_length_c 8.356291
_cell_angle_alpha 90.000000
_cell_angle_beta 90.000000
_cell_angle_gamma 90.000000
_cell_volume 1136.649254
_symmetry_space_group_name_H-M "P C A 21"
_symmetry_group_IT_number 29
_symmetry_cell_setting 'orthorhombic'
loop_
_space_group_symop_operation_xyz
x,y,z
-x,-y,1/2+z
1/2-x,y,1/2+z
1/2+x,-y,z
loop_
_atom_site_type_symbol
_atom_site_label
_atom_site_fract_x
_atom_site_fract_y
_atom_site_fract_z
Si Si1 0.955473 0.008966 0.109130
Si Si2 0.207805 0.981738 0.917734
Si Si3 0.711638 0.497728 0.776460
Si Si4 0.445576 0.424884 0.969721
Si Si5 0.370499 0.689985 0.682360
Si Si6 0.353810 0.805051 0.978432
O O1 0.887537 0.980691 0.276199
O O2 0.852725 0.968893 0.969159
O O3 0.946255 0.120176 0.077759
O O4 0.113765 0.978518 0.078672
O O5 0.248967 0.876036 0.885808
O O6 0.631851 0.520998 0.612856
O O7 0.806198 0.405981 0.750340
O O8 0.585259 0.476521 0.901607
O O9 0.823066 0.575973 0.834840
O O10 0.508473 0.332818 0.052277
O O11 0.424515 0.746327 0.837047
O O12 0.241105 0.740985 0.592025
#
# Coordination Sequence:
#
# PCOD9340336 Si02
#       6
#     4   4   4   4   4   4
#     4  10  20  36  62  89 120 161 204 254 302 380
#     4  10  20  36  62  90 123 158 208 253 306 379
#     4  12  23  40  63  94 124 170 221 265 321 391
#     4  12  23  40  65  92 128 168 220 266 321 393
#     4  12  21  38  66  91 123 166 211 268 317 374
#     4  10  21  38  60  94 122 161 208 256 321 383
#
# _framework density 21.114692000000002
#
# number of rings (size 3 to 8) (size 9 to 14) (size 15 to 20)
#    1.000    0.000    6.667    1.000    2.333    0.000 
#    0.000    0.000    3.667    0.000    0.000    0.000 
#    0.000    0.000    0.000    0.000    0.000    0.000 
#
# Total GULP energy -133729.450333 kJ/mol
# GULP energy per Si atom -5572.060431 kJ/mol
# Density = 2.106663 g / cm^3
# Si number density = 21.114692 Si / 1000 Ang^3
#
#
#
# Elastic Constant Matrix: (Units=GPa)
#
#
# Indices 1 2 3 4 5 6 
#
# 1 78.2986 -2.9163 13.3397 0.0000 0.0000 0.0000
# 2 -2.9163 30.9425 1.9209 0.0000 0.0000 0.0000
# 3 13.3397 1.9209 63.2726 0.0000 0.0000 0.0000
# 4 0.0000 0.0000 0.0000 36.6645 0.0000 0.0000
# 5 0.0000 0.0000 0.0000 0.0000 38.1118 0.0000
# 6 0.0000 0.0000 0.0000 0.0000 0.0000 15.0460
#
#
#
# Elastic Compliance Matrix: (Units=1/GPa)
#
#
# Indices 1 2 3 4 5 6 
#
# 1 0.013310 0.001431 -0.002850 0.000000 0.000000 0.000000
# 2 0.001431 0.032533 -0.001289 0.000000 0.000000 0.000000
# 3 -0.002850 -0.001289 0.016445 0.000000 0.000000 0.000000
# 4 0.000000 0.000000 0.000000 0.027274 0.000000 0.000000
# 5 0.000000 0.000000 0.000000 0.000000 0.026239 0.000000
# 6 0.000000 0.000000 0.000000 0.000000 0.000000 0.066463
#
#
# Mechanical properties :
#
#
# Convention : Reuss Voigt Hill
#
# Bulk Modulus (GPa) = 17.58318 21.91137 19.74728
# Shear Modulus (GPa) = 24.19707 28.64244 26.41975
#
# Velocity S-wave (km/s) = 3.38891 3.68709 3.54114
# Velocity P-wave (km/s) = 4.86400 5.34097 5.10806
#
# Compressibility (1/GPa) = 0.05687254
#
# Stress axis : x y z
#
# Youngs Moduli (GPa) = 75.12904 30.73801 60.81036
#
# Poissons Ratio (x) = -0.04400 0.17329
# Poissons Ratio (y) = -0.10754 0.07841
# Poissons Ratio (z) = 0.21409 0.03964
#
# Static dielectric constant tensor:
#      x y z
#    x 1.736300 0.000000 0.000000 
#    y 0.000000 1.749930 0.000000 
#    z 0.000000 0.000000 1.836940 
# 
# From -- ./inp_files/1199.got.cif
#   From: 2010.05.17/outbox.cif.g08.bks.cpg/sg29_1_cif.got.tgz:1199.got - 2010.06.04 01:19:37.
