data_PCOD9340931
_publ_section_title
;
Structure prediction by ZEFSAII (Michael W. Deem and Ramdas Pophale) SiO2 
 PCOD9340931
Probable space group: P C A 21
;
_chemical_formula_sum "Si O2"
_cell_formula_units_Z 28
_cell_length_a 10.790491
_cell_length_b 4.952918
_cell_length_c 19.192361
_cell_angle_alpha 90.000000
_cell_angle_beta 90.000000
_cell_angle_gamma 90.000000
_cell_volume 1025.724546
_symmetry_space_group_name_H-M "P C A 21"
_symmetry_group_IT_number 29
_symmetry_cell_setting 'orthorhombic'
loop_
_space_group_symop_operation_xyz
x,y,z
-x,-y,1/2+z
1/2-x,y,1/2+z
1/2+x,-y,z
loop_
_atom_site_type_symbol
_atom_site_label
_atom_site_fract_x
_atom_site_fract_y
_atom_site_fract_z
Si Si1 0.166141 0.602007 0.489850
Si Si2 0.353811 0.333764 0.123341
Si Si3 0.679847 0.450042 0.237211
Si Si4 0.342299 0.460426 0.372481
Si Si5 0.158931 0.965793 0.055165
Si Si6 0.471069 0.030293 0.700735
Si Si7 0.987165 0.002544 0.418336
O O1 0.081938 0.493067 0.556098
O O2 0.228882 0.426009 0.428383
O O3 0.114790 0.859676 0.444772
O O4 0.288572 0.679515 0.532995
O O5 0.267217 0.531537 0.168857
O O6 0.278665 0.130317 0.075627
O O7 0.403173 0.135595 0.186430
O O8 0.768878 0.485395 0.302185
O O9 0.618032 0.160183 0.244819
O O10 0.566766 0.667810 0.224501
O O11 0.423901 0.193573 0.362780
O O12 0.443002 0.694495 0.396099
O O13 0.074051 0.992983 0.121299
O O14 0.088372 0.059999 0.988149
#
# Coordination Sequence:
#
# PCOD9340931 Si02
#       7
#     4   4   4   4   4   4   4
#     4  11  24  41  71 106 140 185 242 302 364 425
#     4  11  24  41  71 106 140 185 242 302 364 425
#     4  11  26  49  69 102 146 191 238 295 362 438
#     4  11  26  49  69 102 146 191 238 295 362 438
#     4  10  22  42  64 106 138 176 226 302 358 420
#     4  11  25  41  74  99 138 185 236 293 359 432
#     4  11  25  41  74  99 138 185 236 293 359 432
#
# _framework density 27.297779999999999
#
# number of rings (size 3 to 8) (size 9 to 14) (size 15 to 20)
#    0.000    1.143    2.857    1.714   12.000    1.143 
#    0.000    2.857    0.000    0.000    0.000    0.000 
#    0.000    0.000    0.000    0.000    0.000    0.000 
#
# Total GULP energy -156022.576989 kJ/mol
# GULP energy per Si atom -5572.234892 kJ/mol
# Density = 2.723565 g / cm^3
# Si number density = 27.297780 Si / 1000 Ang^3
#
#
#
# Elastic Constant Matrix: (Units=GPa)
#
#
# Indices 1 2 3 4 5 6 
#
# 1 50.4106 -2.4824 10.5362 0.0000 0.0000 0.0000
# 2 -2.4824 81.1604 -7.5898 0.0000 0.0000 0.0000
# 3 10.5362 -7.5898 128.5018 0.0000 0.0000 0.0000
# 4 0.0000 0.0000 0.0000 25.4853 0.0000 0.0000
# 5 0.0000 0.0000 0.0000 0.0000 43.2007 0.0000
# 6 0.0000 0.0000 0.0000 0.0000 0.0000 26.6692
#
#
#
# Elastic Compliance Matrix: (Units=1/GPa)
#
#
# Indices 1 2 3 4 5 6 
#
# 1 0.020200 0.000466 -0.001629 0.000000 0.000000 0.000000
# 2 0.000466 0.012400 0.000694 0.000000 0.000000 0.000000
# 3 -0.001629 0.000694 0.007957 0.000000 0.000000 0.000000
# 4 0.000000 0.000000 0.000000 0.039238 0.000000 0.000000
# 5 0.000000 0.000000 0.000000 0.000000 0.023148 0.000000
# 6 0.000000 0.000000 0.000000 0.000000 0.000000 0.037496
#
#
# Mechanical properties :
#
#
# Convention : Reuss Voigt Hill
#
# Bulk Modulus (GPa) = 25.24015 29.00009 27.12012
# Shear Modulus (GPa) = 32.34478 36.37829 34.36153
#
# Velocity S-wave (km/s) = 3.44595 3.65450 3.55176
# Velocity P-wave (km/s) = 5.00990 5.33422 5.17460
#
# Compressibility (1/GPa) = 0.03961942
#
# Stress axis : x y z
#
# Youngs Moduli (GPa) = 49.50384 80.64225 125.68266
#
# Poissons Ratio (x) = -0.03754 0.20471
# Poissons Ratio (y) = -0.02305 -0.08726
# Poissons Ratio (z) = 0.08063 -0.05599
#
# Static dielectric constant tensor:
#      x y z
#    x 2.698830 0.000000 0.000000 
#    y 0.000000 2.872140 0.000000 
#    z 0.000000 0.000000 2.111800 
# 
# From -- ./inp_files/5119.got.cif
#   From: 2010.05.17/outbox.cif.g08.bks.cpg/sg29_3_cif.got.tgz:5119.got - 2010.06.04 01:19:37.
