data_PCOD9340268
_publ_section_title
;
Structure prediction by ZEFSAII (Michael W. Deem and Ramdas Pophale) SiO2 
 PCOD9340268
Probable space group: P C A 21
;
_chemical_formula_sum "Si O2"
_cell_formula_units_Z 24
_cell_length_a 20.402957
_cell_length_b 12.393159
_cell_length_c 5.053785
_cell_angle_alpha 90.000000
_cell_angle_beta 90.000000
_cell_angle_gamma 90.000000
_cell_volume 1277.885369
_symmetry_space_group_name_H-M "P C A 21"
_symmetry_group_IT_number 29
_symmetry_cell_setting 'orthorhombic'
loop_
_space_group_symop_operation_xyz
x,y,z
-x,-y,1/2+z
1/2-x,y,1/2+z
1/2+x,-y,z
loop_
_atom_site_type_symbol
_atom_site_label
_atom_site_fract_x
_atom_site_fract_y
_atom_site_fract_z
Si Si1 0.949302 0.621363 0.381850
Si Si2 0.787540 0.128292 0.544603
Si Si3 0.411543 0.502555 0.876671
Si Si4 0.712976 0.387851 0.112081
Si Si5 0.927924 0.086397 0.290251
Si Si6 0.495094 0.146109 0.285454
O O1 0.923384 0.593991 0.670790
O O2 0.952716 0.748052 0.333751
O O3 0.024124 0.578026 0.367093
O O4 0.909577 0.551453 0.165372
O O5 0.730462 0.091564 0.340413
O O6 0.789300 0.258227 0.581207
O O7 0.854883 0.095983 0.402602
O O8 0.351598 0.569781 0.756833
O O9 0.770807 0.423090 0.313863
O O10 0.946319 0.132253 0.001340
O O11 0.952067 0.962549 0.301551
O O12 0.972970 0.151265 0.497126
#
# Coordination Sequence:
#
# PCOD9340268 Si02
#       6
#     4   4   4   4   4   4
#     4  10  20  33  52  77 103 133 167 210 257 302
#     4  10  20  33  52  77 104 136 171 212 261 310
#     4  10  20  33  51  75 103 134 168 208 255 302
#     4  10  20  33  51  74 101 134 169 208 253 302
#     4  10  20  34  54  78 105 135 169 213 262 311
#     4  10  20  34  54  79 104 134 170 213 262 309
#
# _framework density 18.781027000000002
#
# number of rings (size 3 to 8) (size 9 to 14) (size 15 to 20)
#    0.000    2.000    0.000    4.000    0.000    5.333 
#    0.000    0.000    0.000    6.000    0.000    0.000 
#    0.000    0.000    0.000    0.000    0.000    0.000 
#
# Total GULP energy -133825.242303 kJ/mol
# GULP energy per Si atom -5576.051763 kJ/mol
# Density = 1.873828 g / cm^3
# Si number density = 18.781027 Si / 1000 Ang^3
#
#
#
# Elastic Constant Matrix: (Units=GPa)
#
#
# Indices 1 2 3 4 5 6 
#
# 1 59.8567 -7.7964 7.4903 0.0000 0.0000 0.0000
# 2 -7.7964 25.3906 14.1924 0.0000 0.0000 0.0000
# 3 7.4903 14.1924 56.6428 0.0000 0.0000 0.0000
# 4 0.0000 0.0000 0.0000 15.6717 0.0000 0.0000
# 5 0.0000 0.0000 0.0000 0.0000 23.0610 0.0000
# 6 0.0000 0.0000 0.0000 0.0000 0.0000 12.7706
#
#
#
# Elastic Compliance Matrix: (Units=1/GPa)
#
#
# Indices 1 2 3 4 5 6 
#
# 1 0.018321 0.008117 -0.004457 0.000000 0.000000 0.000000
# 2 0.008117 0.049395 -0.013450 0.000000 0.000000 0.000000
# 3 -0.004457 -0.013450 0.021614 0.000000 0.000000 0.000000
# 4 0.000000 0.000000 0.000000 0.063809 0.000000 0.000000
# 5 0.000000 0.000000 0.000000 0.000000 0.043363 0.000000
# 6 0.000000 0.000000 0.000000 0.000000 0.000000 0.078305
#
#
# Mechanical properties :
#
#
# Convention : Reuss Voigt Hill
#
# Bulk Modulus (GPa) = 14.33665 18.85139 16.59402
# Shear Modulus (GPa) = 15.74124 18.83424 17.28774
#
# Velocity S-wave (km/s) = 2.89822 3.17019 3.03725
# Velocity P-wave (km/s) = 4.34162 4.84349 4.59941
#
# Compressibility (1/GPa) = 0.06975131
#
# Stress axis : x y z
#
# Youngs Moduli (GPa) = 54.58074 20.24503 46.26680
#
# Poissons Ratio (x) = -0.16433 0.20619
# Poissons Ratio (y) = -0.44302 0.62227
# Poissons Ratio (z) = 0.24324 0.27229
#
# Static dielectric constant tensor:
#      x y z
#    x 1.672300 0.000000 0.000000 
#    y 0.000000 1.618300 0.000000 
#    z 0.000000 0.000000 1.658980 
# 
# From -- ./inp_files/203.got.cif
#   From: 2010.05.17/outbox.cif.g08.bks.cpg/sg29_1_cif.got.tgz:203.got - 2010.06.04 01:19:37.
