data_PCOD9340776
_publ_section_title
;
Structure prediction by ZEFSAII (Michael W. Deem and Ramdas Pophale) SiO2 
 PCOD9340776
Probable space group: P C A 21
;
_chemical_formula_sum "Si O2"
_cell_formula_units_Z 28
_cell_length_a 10.544201
_cell_length_b 12.455153
_cell_length_c 9.154856
_cell_angle_alpha 90.000000
_cell_angle_beta 90.000000
_cell_angle_gamma 90.000000
_cell_volume 1202.303913
_symmetry_space_group_name_H-M "P C A 21"
_symmetry_group_IT_number 29
_symmetry_cell_setting 'orthorhombic'
loop_
_space_group_symop_operation_xyz
x,y,z
-x,-y,1/2+z
1/2-x,y,1/2+z
1/2+x,-y,z
loop_
_atom_site_type_symbol
_atom_site_label
_atom_site_fract_x
_atom_site_fract_y
_atom_site_fract_z
Si Si1 0.668392 0.642182 0.069480
Si Si2 0.453446 0.270913 0.050496
Si Si3 0.619083 0.318742 0.595878
Si Si4 0.842312 0.804862 0.797402
Si Si5 0.562896 0.884709 0.793954
Si Si6 0.338823 0.586261 0.414813
Si Si7 0.962436 0.091927 0.104818
O O1 0.804741 0.698530 0.048253
O O2 0.657318 0.679925 0.241094
O O3 0.522951 0.671297 0.029454
O O4 0.683132 0.531263 0.982467
O O5 0.491300 0.214476 0.199489
O O6 0.450193 0.185193 0.919746
O O7 0.540714 0.367734 0.002831
O O8 0.639627 0.394055 0.740779
O O9 0.718867 0.346961 0.471780
O O10 0.626837 0.193914 0.640299
O O11 0.703735 0.845170 0.837950
O O12 0.897854 0.874329 0.664492
O O13 0.577565 0.984834 0.685629
O O14 0.477896 0.915505 0.931159
#
# Coordination Sequence:
#
# PCOD9340776 Si02
#       7
#     4   4   4   4   4   4   4
#     4  10  23  44  72 103 142 191 244 299 360 437
#     4  11  23  46  75 105 141 195 252 300 361 447
#     4  11  27  48  67 109 153 186 247 306 364 443
#     4  10  21  46  69 103 141 185 252 302 350 446
#     4  11  24  41  76 102 139 191 241 304 374 433
#     4  12  26  45  71 105 151 194 239 306 371 432
#     4  11  24  46  68 105 143 184 239 305 372 436
#
# _framework density 23.288620999999999
#
# number of rings (size 3 to 8) (size 9 to 14) (size 15 to 20)
#    0.000    1.143    2.857    4.286    4.000    2.286 
#    5.143    0.000    0.000    0.000    0.000    0.000 
#    0.000    0.000    0.000    0.000    0.000    0.000 
#
# Total GULP energy -156069.330182 kJ/mol
# GULP energy per Si atom -5573.904649 kJ/mol
# Density = 2.323562 g / cm^3
# Si number density = 23.288621 Si / 1000 Ang^3
#
#
#
# Elastic Constant Matrix: (Units=GPa)
#
#
# Indices 1 2 3 4 5 6 
#
# 1 90.2707 8.0597 10.4906 0.0000 0.0000 0.0000
# 2 8.0597 93.1451 30.4355 0.0000 0.0000 0.0000
# 3 10.4906 30.4355 106.5903 0.0000 0.0000 0.0000
# 4 0.0000 0.0000 0.0000 18.7576 0.0000 0.0000
# 5 0.0000 0.0000 0.0000 0.0000 35.1768 0.0000
# 6 0.0000 0.0000 0.0000 0.0000 0.0000 22.7479
#
#
#
# Elastic Compliance Matrix: (Units=1/GPa)
#
#
# Indices 1 2 3 4 5 6 
#
# 1 0.011244 -0.000674 -0.000914 0.000000 0.000000 0.000000
# 2 -0.000674 0.011881 -0.003326 0.000000 0.000000 0.000000
# 3 -0.000914 -0.003326 0.010421 0.000000 0.000000 0.000000
# 4 0.000000 0.000000 0.000000 0.053312 0.000000 0.000000
# 5 0.000000 0.000000 0.000000 0.000000 0.028428 0.000000
# 6 0.000000 0.000000 0.000000 0.000000 0.000000 0.043960
#
#
# Mechanical properties :
#
#
# Convention : Reuss Voigt Hill
#
# Bulk Modulus (GPa) = 42.16256 43.10861 42.63559
# Shear Modulus (GPa) = 28.25155 31.40447 29.82801
#
# Velocity S-wave (km/s) = 3.48674 3.67616 3.58271
# Velocity P-wave (km/s) = 5.86119 6.04729 5.95496
#
# Compressibility (1/GPa) = 0.02371773
#
# Stress axis : x y z
#
# Youngs Moduli (GPa) = 88.93452 84.16725 95.95620
#
# Poissons Ratio (x) = 0.05675 0.08772
# Poissons Ratio (y) = 0.05996 0.31916
# Poissons Ratio (z) = 0.08130 0.27995
#
# Static dielectric constant tensor:
#      x y z
#    x 1.846290 0.000000 0.000000 
#    y 0.000000 1.942380 0.000000 
#    z 0.000000 0.000000 2.008580 
# 
# From -- ./inp_files/2883.got.cif
#   From: 2010.05.17/outbox.cif.g08.bks.cpg/sg29_2_cif.got.tgz:2883.got - 2010.06.04 01:19:37.
