data_PCOD9340135
_publ_section_title
;
Structure prediction by ZEFSAII (Michael W. Deem and Ramdas Pophale) SiO2 
 PCOD9340135
Probable space group: P C A 21
;
_chemical_formula_sum "Si O2"
_cell_formula_units_Z 28
_cell_length_a 9.271874
_cell_length_b 7.556734
_cell_length_c 18.438497
_cell_angle_alpha 90.000000
_cell_angle_beta 90.000000
_cell_angle_gamma 90.000000
_cell_volume 1291.894869
_symmetry_space_group_name_H-M "P C A 21"
_symmetry_group_IT_number 29
_symmetry_cell_setting 'orthorhombic'
loop_
_space_group_symop_operation_xyz
x,y,z
-x,-y,1/2+z
1/2-x,y,1/2+z
1/2+x,-y,z
loop_
_atom_site_type_symbol
_atom_site_label
_atom_site_fract_x
_atom_site_fract_y
_atom_site_fract_z
Si Si1 0.281934 0.672766 0.368210
Si Si2 0.909346 0.519504 0.070377
Si Si3 0.869106 0.047782 0.784344
Si Si4 0.349924 0.207561 0.319815
Si Si5 0.661782 0.351248 0.163035
Si Si6 0.538350 0.539253 0.286622
Si Si7 0.847295 0.611779 0.474205
O O1 0.201032 0.855231 0.355089
O O2 0.424368 0.675066 0.318252
O O3 0.159918 0.528039 0.343283
O O4 0.334342 0.590083 0.442946
O O5 0.811640 0.399620 0.124276
O O6 0.026591 0.648166 0.108150
O O7 0.792458 0.630575 0.024374
O O8 0.005372 0.390932 0.019388
O O9 0.832361 0.178436 0.715989
O O10 0.037960 0.055077 0.798222
O O11 0.800927 0.853917 0.786464
O O12 0.425515 0.373350 0.281812
O O13 0.348818 0.258132 0.404887
O O14 0.619746 0.524119 0.211167
#
# Coordination Sequence:
#
# PCOD9340135 Si02
#       7
#     4   4   4   4   4   4   4
#     4   9  17  30  52  80 106 132 175 231 273 308
#     4  10  19  32  57  82 116 145 174 223 260 341
#     4  10  20  35  56  79 109 142 182 236 272 314
#     4   9  20  35  53  78 108 139 180 228 272 314
#     4   9  18  33  52  83 109 141 182 218 280 320
#     4   9  17  31  52  78 105 132 176 234 271 310
#     4  10  19  34  54  84 109 141 181 218 278 323
#
# _framework density 21.673590999999998
#
# number of rings (size 3 to 8) (size 9 to 14) (size 15 to 20)
#    0.000    2.857    0.000    4.286    0.000    3.429 
#    0.000    5.714    0.000   24.000    0.000    0.000 
#    0.000    0.000    0.000    0.000    0.000    0.000 
#
# Total GULP energy -155878.394451 kJ/mol
# GULP energy per Si atom -5567.085516 kJ/mol
# Density = 2.162426 g / cm^3
# Si number density = 21.673591 Si / 1000 Ang^3
#
#
#
# Elastic Constant Matrix: (Units=GPa)
#
#
# Indices 1 2 3 4 5 6 
#
# 1 138.5088 1.9871 32.3974 0.0000 0.0000 0.0000
# 2 1.9871 36.3977 14.7256 0.0000 0.0000 0.0000
# 3 32.3974 14.7256 87.3828 0.0000 0.0000 0.0000
# 4 0.0000 0.0000 0.0000 15.2568 0.0000 0.0000
# 5 0.0000 0.0000 0.0000 0.0000 45.2233 0.0000
# 6 0.0000 0.0000 0.0000 0.0000 0.0000 30.9110
#
#
#
# Elastic Compliance Matrix: (Units=1/GPa)
#
#
# Indices 1 2 3 4 5 6 
#
# 1 0.007928 0.000812 -0.003076 0.000000 0.000000 0.000000
# 2 0.000812 0.029568 -0.005284 0.000000 0.000000 0.000000
# 3 -0.003076 -0.005284 0.013475 0.000000 0.000000 0.000000
# 4 0.000000 0.000000 0.000000 0.065545 0.000000 0.000000
# 5 0.000000 0.000000 0.000000 0.000000 0.022112 0.000000
# 6 0.000000 0.000000 0.000000 0.000000 0.000000 0.032351
#
#
# Mechanical properties :
#
#
# Convention : Reuss Voigt Hill
#
# Bulk Modulus (GPa) = 27.87530 40.05661 33.96595
# Shear Modulus (GPa) = 25.24850 32.49017 28.86934
#
# Velocity S-wave (km/s) = 3.41683 3.87598 3.65362
# Velocity P-wave (km/s) = 5.33438 6.20909 5.78828
#
# Compressibility (1/GPa) = 0.03587405
#
# Stress axis : x y z
#
# Youngs Moduli (GPa) = 126.14183 33.82088 74.21317
#
# Poissons Ratio (x) = -0.02745 0.22828
# Poissons Ratio (y) = -0.10238 0.39211
# Poissons Ratio (z) = 0.38801 0.17870
#
# Static dielectric constant tensor:
#      x y z
#    x 1.861110 0.000000 0.000000 
#    y 0.000000 1.925490 0.000000 
#    z 0.000000 0.000000 1.873090 
# 
# From -- ./inp_files/5390.got.cif
#   From: 2010.05.17/outbox.cif.g08.bks.cpg/sg29_3_cif.got.tgz:5390.got - 2010.06.04 01:19:37.
