data_PCOD9340982
_publ_section_title
;
Structure prediction by ZEFSAII (Michael W. Deem and Ramdas Pophale) SiO2 
 PCOD9340982
Probable space group: P C A 21
;
_chemical_formula_sum "Si O2"
_cell_formula_units_Z 20
_cell_length_a 9.568107
_cell_length_b 10.613507
_cell_length_c 8.921500
_cell_angle_alpha 90.000000
_cell_angle_beta 90.000000
_cell_angle_gamma 90.000000
_cell_volume 905.988769
_symmetry_space_group_name_H-M "P C A 21"
_symmetry_group_IT_number 29
_symmetry_cell_setting 'orthorhombic'
loop_
_space_group_symop_operation_xyz
x,y,z
-x,-y,1/2+z
1/2-x,y,1/2+z
1/2+x,-y,z
loop_
_atom_site_type_symbol
_atom_site_label
_atom_site_fract_x
_atom_site_fract_y
_atom_site_fract_z
Si Si1 0.044357 0.843147 0.337110
Si Si2 0.349830 0.224804 0.584638
Si Si3 0.242442 0.073146 0.338330
Si Si4 0.822374 0.525650 0.991728
Si Si5 0.600058 0.415209 0.173805
O O1 0.067374 0.722187 0.235961
O O2 0.998142 0.791104 0.501703
O O3 0.903750 0.916995 0.288156
O O4 0.170005 0.939853 0.327576
O O5 0.257273 0.113203 0.510955
O O6 0.343336 0.185829 0.756622
O O7 0.274913 0.352658 0.530745
O O8 0.858235 0.501151 0.818039
O O9 0.726554 0.414335 0.056537
O O10 0.962926 0.535848 0.088331
#
# Coordination Sequence:
#
# PCOD9340982 Si02
#       5
#     4   4   4   4   4
#     4  10  24  42  64 102 131 176 228 274 347 399
#     4  10  22  43  68  94 132 179 214 282 335 404
#     4  10  23  41  68  92 135 173 224 277 334 406
#     4  12  24  47  72 101 143 178 236 284 360 407
#     4  12  25  45  70 105 135 186 226 295 342 428
#
# _framework density 22.075329
#
# number of rings (size 3 to 8) (size 9 to 14) (size 15 to 20)
#    1.200    0.000    2.000    4.800    2.800    1.600 
#   10.800    0.000    0.000    0.000    0.000    0.000 
#    0.000    0.000    0.000    0.000    0.000    0.000 
#
# Total GULP energy -111583.615823 kJ/mol
# GULP energy per Si atom -5579.180791 kJ/mol
# Density = 2.202508 g / cm^3
# Si number density = 22.075329 Si / 1000 Ang^3
#
#
#
# Elastic Constant Matrix: (Units=GPa)
#
#
# Indices 1 2 3 4 5 6 
#
# 1 73.9911 54.9788 -11.5489 0.0000 0.0000 0.0000
# 2 54.9788 64.9961 9.4434 0.0000 0.0000 0.0000
# 3 -11.5489 9.4434 24.5380 0.0000 0.0000 0.0000
# 4 0.0000 0.0000 0.0000 27.4921 0.0000 0.0000
# 5 0.0000 0.0000 0.0000 0.0000 27.6210 0.0000
# 6 0.0000 0.0000 0.0000 0.0000 0.0000 36.2355
#
#
#
# Elastic Compliance Matrix: (Units=1/GPa)
#
#
# Indices 1 2 3 4 5 6 
#
# 1 0.090833 -0.087964 0.076604 0.000000 0.000000 0.000000
# 2 -0.087964 0.101482 -0.080456 0.000000 0.000000 0.000000
# 3 0.076604 -0.080456 0.107771 0.000000 0.000000 0.000000
# 4 0.000000 0.000000 0.000000 0.036374 0.000000 0.000000
# 5 0.000000 0.000000 0.000000 0.000000 0.036204 0.000000
# 6 0.000000 0.000000 0.000000 0.000000 0.000000 0.027597
#
#
# Mechanical properties :
#
#
# Convention : Reuss Voigt Hill
#
# Bulk Modulus (GPa) = 8.58705 29.91909 19.25307
# Shear Modulus (GPa) = 8.02939 25.64650 16.83795
#
# Velocity S-wave (km/s) = 1.90923 3.41218 2.76479
# Velocity P-wave (km/s) = 2.95948 5.39505 4.35115
#
# Compressibility (1/GPa) = 0.11645445
#
# Stress axis : x y z
#
# Youngs Moduli (GPa) = 11.00917 9.85395 9.27893
#
# Poissons Ratio (x) = 0.86679 -0.71081
# Poissons Ratio (y) = 0.96841 0.74655
# Poissons Ratio (z) = -0.84335 0.79281
#
# Static dielectric constant tensor:
#      x y z
#    x 1.809250 0.000000 0.000000 
#    y 0.000000 1.811290 0.000000 
#    z 0.000000 0.000000 1.807150 
# 
# From -- ./inp_files/1086.got.cif
#   From: 2010.05.17/outbox.cif.g08.bks.cpg/sg29_1_cif.got.tgz:1086.got - 2010.06.04 01:19:37.
