data_PCOD9340270
_publ_section_title
;
Structure prediction by ZEFSAII (Michael W. Deem and Ramdas Pophale) SiO2 
 PCOD9340270
Probable space group: P C A 21
;
_chemical_formula_sum "Si O2"
_cell_formula_units_Z 32
_cell_length_a 16.642978
_cell_length_b 11.486238
_cell_length_c 8.486404
_cell_angle_alpha 90.000000
_cell_angle_beta 90.000000
_cell_angle_gamma 90.000000
_cell_volume 1622.305172
_symmetry_space_group_name_H-M "P C A 21"
_symmetry_group_IT_number 29
_symmetry_cell_setting 'orthorhombic'
loop_
_space_group_symop_operation_xyz
x,y,z
-x,-y,1/2+z
1/2-x,y,1/2+z
1/2+x,-y,z
loop_
_atom_site_type_symbol
_atom_site_label
_atom_site_fract_x
_atom_site_fract_y
_atom_site_fract_z
Si Si1 0.331453 0.641383 0.010480
Si Si2 0.882952 0.059653 0.708004
Si Si3 0.026482 0.618174 0.100201
Si Si4 0.606370 0.560881 0.337857
Si Si5 0.925252 0.169680 0.407412
Si Si6 0.488580 0.766034 0.902649
Si Si7 0.912951 0.804911 0.704573
Si Si8 0.765008 0.217646 0.263855
O O1 0.295145 0.663637 0.180109
O O2 0.327735 0.516655 0.928212
O O3 0.423612 0.684764 0.994718
O O4 0.281641 0.736460 0.914547
O O5 0.930897 0.074254 0.543937
O O6 0.938568 0.121549 0.840561
O O7 0.801066 0.133230 0.687143
O O8 0.866413 0.924575 0.734257
O O9 0.072894 0.515713 0.191136
O O10 0.989222 0.695144 0.243411
O O11 0.082886 0.708115 0.004316
O O12 0.962617 0.576404 0.971608
O O13 0.626971 0.687947 0.272155
O O14 0.846511 0.150732 0.303797
O O15 0.003513 0.179052 0.300880
O O16 0.560314 0.790059 0.022661
#
# Coordination Sequence:
#
# PCOD9340270 Si02
#       8
#     4   4   4   4   4   4   4   4
#     4  10  20  34  56  81 110 146 196 239 283 339
#     4  10  21  35  55  87 118 149 201 247 284 348
#     4   9  19  32  54  87 117 140 189 235 292 346
#     4  10  20  33  54  85 121 149 178 237 298 355
#     4  10  20  35  58  86 109 152 196 243 292 336
#     4   9  18  34  54  85 114 148 192 243 285 338
#     4  11  20  35  58  85 123 153 186 240 310 348
#     4  11  20  36  59  82 108 149 202 244 278 336
#
# _framework density 19.725017000000001
#
# number of rings (size 3 to 8) (size 9 to 14) (size 15 to 20)
#    0.000    2.000    2.500    3.000    1.750    0.000 
#    0.000    0.000    2.750    0.000    0.000    0.000 
#    0.000    0.000    0.000    0.000    0.000    0.000 
#
# Total GULP energy -178281.546027 kJ/mol
# GULP energy per Si atom -5571.298313 kJ/mol
# Density = 1.968012 g / cm^3
# Si number density = 19.725017 Si / 1000 Ang^3
#
#
#
# Elastic Constant Matrix: (Units=GPa)
#
#
# Indices 1 2 3 4 5 6 
#
# 1 33.6553 6.1335 5.6180 0.0000 0.0000 0.0000
# 2 6.1335 118.9466 15.9716 0.0000 0.0000 0.0000
# 3 5.6180 15.9716 56.0294 0.0000 0.0000 0.0000
# 4 0.0000 0.0000 0.0000 19.8964 0.0000 0.0000
# 5 0.0000 0.0000 0.0000 0.0000 11.2856 0.0000
# 6 0.0000 0.0000 0.0000 0.0000 0.0000 12.9254
#
#
#
# Elastic Compliance Matrix: (Units=1/GPa)
#
#
# Indices 1 2 3 4 5 6 
#
# 1 0.030384 -0.001204 -0.002703 0.000000 0.000000 0.000000
# 2 -0.001204 0.008789 -0.002385 0.000000 0.000000 0.000000
# 3 -0.002703 -0.002385 0.018799 0.000000 0.000000 0.000000
# 4 0.000000 0.000000 0.000000 0.050260 0.000000 0.000000
# 5 0.000000 0.000000 0.000000 0.000000 0.088609 0.000000
# 6 0.000000 0.000000 0.000000 0.000000 0.000000 0.077367
#
#
# Mechanical properties :
#
#
# Convention : Reuss Voigt Hill
#
# Bulk Modulus (GPa) = 22.03232 29.34193 25.68713
# Shear Modulus (GPa) = 16.56065 20.88204 18.72134
#
# Velocity S-wave (km/s) = 2.90069 3.25723 3.08412
# Velocity P-wave (km/s) = 4.73420 5.39016 5.07279
#
# Compressibility (1/GPa) = 0.04538786
#
# Stress axis : x y z
#
# Youngs Moduli (GPa) = 32.91250 113.77307 53.19534
#
# Poissons Ratio (x) = 0.13695 0.14381
# Poissons Ratio (y) = 0.03962 0.12686
# Poissons Ratio (z) = 0.08897 0.27133
#
# Static dielectric constant tensor:
#      x y z
#    x 1.683080 0.000000 0.000000 
#    y 0.000000 1.733230 0.000000 
#    z 0.000000 0.000000 1.726420 
# 
# From -- ./inp_files/2196.got.cif
#   From: 2010.05.17/outbox.cif.g08.bks.cpg/sg29_2_cif.got.tgz:2196.got - 2010.06.04 01:19:37.
