data_PCOD9340062
_publ_section_title
;
Structure prediction by ZEFSAII (Michael W. Deem and Ramdas Pophale) SiO2 
 PCOD9340062
Probable space group: P C A 21
;
_chemical_formula_sum "Si O2"
_cell_formula_units_Z 32
_cell_length_a 12.338513
_cell_length_b 20.297380
_cell_length_c 5.213382
_cell_angle_alpha 90.000000
_cell_angle_beta 90.000000
_cell_angle_gamma 90.000000
_cell_volume 1305.636714
_symmetry_space_group_name_H-M "P C A 21"
_symmetry_group_IT_number 29
_symmetry_cell_setting 'orthorhombic'
loop_
_space_group_symop_operation_xyz
x,y,z
-x,-y,1/2+z
1/2-x,y,1/2+z
1/2+x,-y,z
loop_
_atom_site_type_symbol
_atom_site_label
_atom_site_fract_x
_atom_site_fract_y
_atom_site_fract_z
Si Si1 0.389541 0.259474 0.515150
Si Si2 0.592315 0.936851 0.546779
Si Si3 0.442297 0.515127 0.308775
Si Si4 0.145713 0.202621 0.521396
Si Si5 0.321319 0.642467 0.112698
Si Si6 0.818221 0.210532 0.179000
Si Si7 0.056315 0.921849 0.548892
Si Si8 0.683794 0.603687 0.025221
O O1 0.258212 0.243084 0.516184
O O2 0.426309 0.223610 0.261342
O O3 0.401149 0.337275 0.487341
O O4 0.421074 0.223600 0.773561
O O5 0.672227 0.874499 0.544151
O O6 0.528496 0.930806 0.279952
O O7 0.631460 0.012192 0.562837
O O8 0.509250 0.924530 0.782002
O O9 0.526306 0.523550 0.545412
O O10 0.399813 0.584046 0.201504
O O11 0.357943 0.468719 0.459793
O O12 0.223651 0.635956 0.323004
O O13 0.367477 0.716422 0.135139
O O14 0.781989 0.209264 0.475628
O O15 0.882169 0.145539 0.099177
O O16 0.775961 0.613277 0.812661
#
# Coordination Sequence:
#
# PCOD9340062 Si02
#       8
#     4   4   4   4   4   4   4   4
#     4  10  19  35  55  83 124 143 205 232 282 357
#     4  10  21  37  60  81 129 162 196 240 304 374
#     4  12  26  43  61  97 132 154 204 264 308 366
#     4  10  18  35  53  84 117 154 193 245 276 341
#     4  10  21  43  69  89 118 167 208 250 316 378
#     4  10  21  40  65  88 115 148 209 267 296 345
#     4  10  21  40  57  88 117 165 205 239 304 372
#     4  12  21  41  66  86 118 175 202 243 302 377
#
# _framework density 24.509112999999999
#
# number of rings (size 3 to 8) (size 9 to 14) (size 15 to 20)
#    0.000    1.500    2.500    3.750    0.000    0.000 
#   11.250    0.000    0.000    0.000    0.000    0.000 
#    0.000    0.000    0.000    0.000    0.000    0.000 
#
# Total GULP energy -178792.461201 kJ/mol
# GULP energy per Si atom -5587.264413 kJ/mol
# Density = 2.445333 g / cm^3
# Si number density = 24.509113 Si / 1000 Ang^3
#
#
#
# Elastic Constant Matrix: (Units=GPa)
#
#
# Indices 1 2 3 4 5 6 
#
# 1 21.5586 33.5182 4.8991 0.0000 0.0000 0.0000
# 2 33.5182 199.9623 9.5381 0.0000 0.0000 0.0000
# 3 4.8991 9.5381 143.0524 0.0000 0.0000 0.0000
# 4 0.0000 0.0000 0.0000 488.3955 0.0000 0.0000
# 5 0.0000 0.0000 0.0000 0.0000 25.9702 0.0000
# 6 0.0000 0.0000 0.0000 0.0000 0.0000 113.4436
#
#
#
# Elastic Compliance Matrix: (Units=1/GPa)
#
#
# Indices 1 2 3 4 5 6 
#
# 1 0.063036 -0.010497 -0.001459 0.000000 0.000000 0.000000
# 2 -0.010497 0.006765 -0.000092 0.000000 0.000000 0.000000
# 3 -0.001459 -0.000092 0.007047 0.000000 0.000000 0.000000
# 4 0.000000 0.000000 0.000000 0.002048 0.000000 0.000000
# 5 0.000000 0.000000 0.000000 0.000000 0.038506 0.000000
# 6 0.000000 0.000000 0.000000 0.000000 0.000000 0.008815
#
#
# Mechanical properties :
#
#
# Convention : Reuss Voigt Hill
#
# Bulk Modulus (GPa) = 18.95617 51.16492 35.06055
# Shear Modulus (GPa) = 29.78055 146.66971 88.22513
#
# Velocity S-wave (km/s) = 3.48958 7.74421 6.00625
# Velocity P-wave (km/s) = 4.89769 10.04415 7.90166
#
# Compressibility (1/GPa) = 0.05275327
#
# Stress axis : x y z
#
# Youngs Moduli (GPa) = 15.86384 147.82400 141.91409
#
# Poissons Ratio (x) = 1.55167 0.20704
# Poissons Ratio (y) = 0.16652 0.01299
# Poissons Ratio (z) = 0.02314 0.01354
#
# Static dielectric constant tensor:
#      x y z
#    x 1.719010 0.000000 0.000000 
#    y 0.000000 -0.489310 0.000000 
#    z 0.000000 0.000000 1.936120 
# 
# From -- ./inp_files/273.got.cif
#   From: 2010.05.17/outbox.cif.g08.bks.cpg/sg29_1_cif.got.tgz:273.got - 2010.06.04 01:19:37.
