data_PCOD9340439
_publ_section_title
;
Structure prediction by ZEFSAII (Michael W. Deem and Ramdas Pophale) SiO2 
 PCOD9340439
Probable space group: P C A 21
;
_chemical_formula_sum "Si O2"
_cell_formula_units_Z 32
_cell_length_a 10.356827
_cell_length_b 9.288012
_cell_length_c 17.485741
_cell_angle_alpha 90.000000
_cell_angle_beta 90.000000
_cell_angle_gamma 90.000000
_cell_volume 1682.029201
_symmetry_space_group_name_H-M "P C A 21"
_symmetry_group_IT_number 29
_symmetry_cell_setting 'orthorhombic'
loop_
_space_group_symop_operation_xyz
x,y,z
-x,-y,1/2+z
1/2-x,y,1/2+z
1/2+x,-y,z
loop_
_atom_site_type_symbol
_atom_site_label
_atom_site_fract_x
_atom_site_fract_y
_atom_site_fract_z
Si Si1 0.242284 0.391749 0.483660
Si Si2 0.206818 0.169613 0.775374
Si Si3 0.261198 0.131769 0.097492
Si Si4 0.369382 0.930463 0.392453
Si Si5 0.319954 0.712452 0.973059
Si Si6 0.445567 0.317662 0.848242
Si Si7 0.991031 0.060577 0.032540
Si Si8 0.530444 0.627803 0.858032
O O1 0.248620 0.287457 0.556205
O O2 0.235800 0.561307 0.502167
O O3 0.117604 0.345505 0.432464
O O4 0.363572 0.370441 0.426510
O O5 0.213192 0.131059 0.687283
O O6 0.326818 0.272894 0.795292
O O7 0.079198 0.260301 0.795674
O O8 0.205946 0.034550 0.834190
O O9 0.381401 0.050613 0.058084
O O10 0.121813 0.059808 0.081305
O O11 0.280611 0.835515 0.448911
O O12 0.456395 0.814313 0.349278
O O13 0.461485 0.026290 0.446400
O O14 0.395548 0.671950 0.895410
O O15 0.421244 0.784707 0.030712
O O16 0.515796 0.465916 0.827581
#
# Coordination Sequence:
#
# PCOD9340439 Si02
#       8
#     4   4   4   4   4   4   4   4
#     4  10  20  40  63  94 121 164 216 277 322 386
#     4  11  26  41  62  93 135 178 206 270 345 402
#     4  12  26  43  63  96 142 174 215 271 346 403
#     4  12  21  39  68  97 124 165 226 273 324 388
#     4  11  21  36  70  96 117 164 227 277 321 377
#     4  10  21  40  64  91 122 162 218 275 315 385
#     4  12  23  42  65  95 127 172 220 273 320 395
#     4  10  20  41  65  90 122 163 226 268 323 386
#
# _framework density 19.024640999999999
#
# number of rings (size 3 to 8) (size 9 to 14) (size 15 to 20)
#    0.000    1.000    6.250    1.500    1.750    0.000 
#    2.250    0.000    0.000    0.000    0.000    0.000 
#    0.000    0.000    0.000    0.000    0.000    0.000 
#
# Total GULP energy -178651.982259 kJ/mol
# GULP energy per Si atom -5582.874446 kJ/mol
# Density = 1.898134 g / cm^3
# Si number density = 19.024641 Si / 1000 Ang^3
#
#
#
# Elastic Constant Matrix: (Units=GPa)
#
#
# Indices 1 2 3 4 5 6 
#
# 1 63.4720 24.4562 13.4126 0.0000 0.0000 0.0000
# 2 24.4562 109.5947 29.2312 0.0000 0.0000 0.0000
# 3 13.4126 29.2312 74.5150 0.0000 0.0000 0.0000
# 4 0.0000 0.0000 0.0000 15.8565 0.0000 0.0000
# 5 0.0000 0.0000 0.0000 0.0000 13.8661 0.0000
# 6 0.0000 0.0000 0.0000 0.0000 0.0000 40.1472
#
#
#
# Elastic Compliance Matrix: (Units=1/GPa)
#
#
# Indices 1 2 3 4 5 6 
#
# 1 0.017451 -0.003414 -0.001802 0.000000 0.000000 0.000000
# 2 -0.003414 0.010859 -0.003645 0.000000 0.000000 0.000000
# 3 -0.001802 -0.003645 0.015174 0.000000 0.000000 0.000000
# 4 0.000000 0.000000 0.000000 0.063066 0.000000 0.000000
# 5 0.000000 0.000000 0.000000 0.000000 0.072119 0.000000
# 6 0.000000 0.000000 0.000000 0.000000 0.000000 0.024908
#
#
# Mechanical properties :
#
#
# Convention : Reuss Voigt Hill
#
# Bulk Modulus (GPa) = 38.81638 42.42019 40.61828
# Shear Modulus (GPa) = 21.74993 26.00605 23.87799
#
# Velocity S-wave (km/s) = 3.38487 3.70126 3.54659
# Velocity P-wave (km/s) = 5.97695 6.37273 6.17801
#
# Compressibility (1/GPa) = 0.02576232
#
# Stress axis : x y z
#
# Youngs Moduli (GPa) = 57.30315 92.09350 65.90026
#
# Poissons Ratio (x) = 0.31437 0.11876
# Poissons Ratio (y) = 0.19561 0.24022
# Poissons Ratio (z) = 0.10326 0.33570
#
# Static dielectric constant tensor:
#      x y z
#    x 1.693950 0.000000 0.000000 
#    y 0.000000 1.693250 0.000000 
#    z 0.000000 0.000000 1.624840 
# 
# From -- ./inp_files/5142.got.cif
#   From: 2010.05.17/outbox.cif.g08.bks.cpg/sg29_3_cif.got.tgz:5142.got - 2010.06.04 01:19:37.
