data_PCOD9340342
_publ_section_title
;
Structure prediction by ZEFSAII (Michael W. Deem and Ramdas Pophale) SiO2 
 PCOD9340342
Probable space group: P C A 21
;
_chemical_formula_sum "Si O2"
_cell_formula_units_Z 28
_cell_length_a 23.466739
_cell_length_b 8.774786
_cell_length_c 6.684481
_cell_angle_alpha 90.000000
_cell_angle_beta 90.000000
_cell_angle_gamma 90.000000
_cell_volume 1376.439002
_symmetry_space_group_name_H-M "P C A 21"
_symmetry_group_IT_number 29
_symmetry_cell_setting 'orthorhombic'
loop_
_space_group_symop_operation_xyz
x,y,z
-x,-y,1/2+z
1/2-x,y,1/2+z
1/2+x,-y,z
loop_
_atom_site_type_symbol
_atom_site_label
_atom_site_fract_x
_atom_site_fract_y
_atom_site_fract_z
Si Si1 0.645430 0.727322 0.842440
Si Si2 0.161731 0.625780 0.849511
Si Si3 0.622285 0.900659 0.477417
Si Si4 0.746961 0.206163 0.107950
Si Si5 0.245523 0.041589 0.357379
Si Si6 0.051396 0.104574 0.089758
Si Si7 0.430143 0.854295 0.251531
O O1 0.662620 0.553987 0.871906
O O2 0.618183 0.756609 0.623053
O O3 0.700302 0.840242 0.855290
O O4 0.595813 0.777427 0.993348
O O5 0.201485 0.678025 0.662715
O O6 0.099943 0.698235 0.811158
O O7 0.188286 0.709543 0.044760
O O8 0.682667 0.887995 0.369362
O O9 0.575058 0.923490 0.311077
O O10 0.616238 0.045036 0.627650
O O11 0.748271 0.006917 0.108190
O O12 0.762239 0.159830 0.859054
O O13 0.986782 0.159034 0.119017
O O14 0.055479 0.956289 0.947217
#
# Coordination Sequence:
#
# PCOD9340342 Si02
#       7
#     4   4   4   4   4   4   4
#     4  11  26  41  62 102 138 169 213 269 351 403
#     4  11  24  42  60 100 141 163 214 276 344 405
#     4  11  21  40  70  95 124 170 222 273 322 392
#     4  10  20  36  65  90 124 168 213 266 318 382
#     4  11  18  39  63  94 124 166 216 268 312 401
#     4  11  23  43  70  94 123 178 229 276 319 394
#     4  11  22  45  68  97 126 172 237 278 318 391
#
# _framework density 20.342348000000001
#
# number of rings (size 3 to 8) (size 9 to 14) (size 15 to 20)
#    0.000    1.143    4.286    4.286    2.000    0.000 
#    5.143    0.000    0.000    0.000    0.000    0.000 
#    0.000    0.000    0.000    0.000    0.000    0.000 
#
# Total GULP energy -156040.108218 kJ/mol
# GULP energy per Si atom -5572.861008 kJ/mol
# Density = 2.029605 g / cm^3
# Si number density = 20.342348 Si / 1000 Ang^3
#
#
#
# Elastic Constant Matrix: (Units=GPa)
#
#
# Indices 1 2 3 4 5 6 
#
# 1 128.1191 61.0194 38.6227 0.0000 0.0000 0.0000
# 2 61.0194 135.2873 52.9845 0.0000 0.0000 0.0000
# 3 38.6227 52.9845 138.8124 0.0000 0.0000 0.0000
# 4 0.0000 0.0000 0.0000 11.8168 0.0000 0.0000
# 5 0.0000 0.0000 0.0000 0.0000 49.5006 0.0000
# 6 0.0000 0.0000 0.0000 0.0000 0.0000 11.5477
#
#
#
# Elastic Compliance Matrix: (Units=1/GPa)
#
#
# Indices 1 2 3 4 5 6 
#
# 1 0.010125 -0.004072 -0.001263 0.000000 0.000000 0.000000
# 2 -0.004072 0.010329 -0.002809 0.000000 0.000000 0.000000
# 3 -0.001263 -0.002809 0.008628 0.000000 0.000000 0.000000
# 4 0.000000 0.000000 0.000000 0.084626 0.000000 0.000000
# 5 0.000000 0.000000 0.000000 0.000000 0.020202 0.000000
# 6 0.000000 0.000000 0.000000 0.000000 0.000000 0.086597
#
#
# Mechanical properties :
#
#
# Convention : Reuss Voigt Hill
#
# Bulk Modulus (GPa) = 78.16969 78.60798 78.38884
# Shear Modulus (GPa) = 20.74174 31.21250 25.97712
#
# Velocity S-wave (km/s) = 3.19663 3.92134 3.57739
# Velocity P-wave (km/s) = 7.22047 7.69604 7.46204
#
# Compressibility (1/GPa) = 0.01279268
#
# Stress axis : x y z
#
# Youngs Moduli (GPa) = 98.76068 96.81722 115.90599
#
# Poissons Ratio (x) = 0.39427 0.14637
# Poissons Ratio (y) = 0.40219 0.32562
# Poissons Ratio (z) = 0.12472 0.27200
#
# Static dielectric constant tensor:
#      x y z
#    x 1.675660 0.000000 0.000000 
#    y 0.000000 1.706980 0.000000 
#    z 0.000000 0.000000 1.827130 
# 
# From -- ./inp_files/2249.got.cif
#   From: 2010.05.17/outbox.cif.g08.bks.cpg/sg29_2_cif.got.tgz:2249.got - 2010.06.04 01:19:37.
