data_PCOD9340332
_publ_section_title
;
Structure prediction by ZEFSAII (Michael W. Deem and Ramdas Pophale) SiO2 
 PCOD9340332
Probable space group: P C A 21
;
_chemical_formula_sum "Si O2"
_cell_formula_units_Z 28
_cell_length_a 9.491255
_cell_length_b 7.094599
_cell_length_c 19.123795
_cell_angle_alpha 90.000000
_cell_angle_beta 90.000000
_cell_angle_gamma 90.000000
_cell_volume 1287.732257
_symmetry_space_group_name_H-M "P C A 21"
_symmetry_group_IT_number 29
_symmetry_cell_setting 'orthorhombic'
loop_
_space_group_symop_operation_xyz
x,y,z
-x,-y,1/2+z
1/2-x,y,1/2+z
1/2+x,-y,z
loop_
_atom_site_type_symbol
_atom_site_label
_atom_site_fract_x
_atom_site_fract_y
_atom_site_fract_z
Si Si1 0.370519 0.018868 0.473160
Si Si2 0.097580 0.451021 0.162528
Si Si3 0.020578 0.684676 0.033342
Si Si4 0.672701 0.150193 0.224266
Si Si5 0.225857 0.135701 0.610159
Si Si6 0.115572 0.188519 0.409390
Si Si7 0.034026 0.827058 0.767398
O O1 0.331618 0.127815 0.544045
O O2 0.273435 0.117566 0.415728
O O3 0.349045 0.800024 0.499458
O O4 0.524252 0.989170 0.440210
O O5 0.053592 0.517351 0.085041
O O6 0.127375 0.641472 0.204172
O O7 0.235034 0.319885 0.154728
O O8 0.988877 0.320315 0.204332
O O9 0.930287 0.835342 0.080099
O O10 0.919986 0.649875 0.966667
O O11 0.799964 0.153366 0.279888
O O12 0.744593 0.044180 0.157922
O O13 0.540681 0.023133 0.246442
O O14 0.052987 0.239292 0.334979
#
# Coordination Sequence:
#
# PCOD9340332 Si02
#       7
#     4   4   4   4   4   4   4
#     4   9  18  35  66  81 119 157 205 257 304 361
#     4  11  22  37  59  98 126 162 208 266 311 371
#     4   9  19  38  61  88 121 154 212 257 305 365
#     4  11  22  39  60  90 127 164 211 259 316 374
#     4  10  20  36  60  92 118 160 209 265 313 356
#     4   9  19  38  60  91 116 166 207 248 310 376
#     4  11  24  39  66  88 129 173 206 258 317 377
#
# _framework density 21.743649999999999
#
# number of rings (size 3 to 8) (size 9 to 14) (size 15 to 20)
#    0.857    1.143    1.429    2.571    2.000    1.143 
#    2.571    4.286    0.000    0.000    0.000    0.000 
#    0.000    0.000    0.000    0.000    0.000    0.000 
#
# Total GULP energy -155949.278822 kJ/mol
# GULP energy per Si atom -5569.617101 kJ/mol
# Density = 2.169416 g / cm^3
# Si number density = 21.743650 Si / 1000 Ang^3
#
#
#
# Elastic Constant Matrix: (Units=GPa)
#
#
# Indices 1 2 3 4 5 6 
#
# 1 44.0985 17.3513 -22.5483 0.0000 0.0000 0.0000
# 2 17.3513 99.8834 12.5698 0.0000 0.0000 0.0000
# 3 -22.5483 12.5698 46.6498 0.0000 0.0000 0.0000
# 4 0.0000 0.0000 0.0000 28.2890 0.0000 0.0000
# 5 0.0000 0.0000 0.0000 0.0000 25.4446 0.0000
# 6 0.0000 0.0000 0.0000 0.0000 0.0000 14.4863
#
#
#
# Elastic Compliance Matrix: (Units=1/GPa)
#
#
# Indices 1 2 3 4 5 6 
#
# 1 0.036347 -0.008824 0.019946 0.000000 0.000000 0.000000
# 2 -0.008824 0.012505 -0.007635 0.000000 0.000000 0.000000
# 3 0.019946 -0.007635 0.033135 0.000000 0.000000 0.000000
# 4 0.000000 0.000000 0.000000 0.035349 0.000000 0.000000
# 5 0.000000 0.000000 0.000000 0.000000 0.039301 0.000000
# 6 0.000000 0.000000 0.000000 0.000000 0.000000 0.069031
#
#
# Mechanical properties :
#
#
# Convention : Reuss Voigt Hill
#
# Bulk Modulus (GPa) = 11.24078 22.81970 17.03024
# Shear Modulus (GPa) = 20.13304 25.86124 22.99714
#
# Velocity S-wave (km/s) = 3.04621 3.45247 3.25568
# Velocity P-wave (km/s) = 4.18968 5.13910 4.68848
#
# Compressibility (1/GPa) = 0.08896182
#
# Stress axis : x y z
#
# Youngs Moduli (GPa) = 27.51232 79.96564 30.17995
#
# Poissons Ratio (x) = 0.70563 -0.60198
# Poissons Ratio (y) = 0.24277 0.23042
# Poissons Ratio (z) = -0.54877 0.61052
#
# Static dielectric constant tensor:
#      x y z
#    x 1.849530 0.000000 0.000000 
#    y 0.000000 1.759260 0.000000 
#    z 0.000000 0.000000 1.865330 
# 
# From -- ./inp_files/5496.got.cif
#   From: 2010.05.17/outbox.cif.g08.bks.cpg/sg29_3_cif.got.tgz:5496.got - 2010.06.04 01:19:37.
