data_PCOD9340059
_publ_section_title
;
Structure prediction by ZEFSAII (Michael W. Deem and Ramdas Pophale) SiO2 
 PCOD9340059
Probable space group: P C A 21
;
_chemical_formula_sum "Si O2"
_cell_formula_units_Z 32
_cell_length_a 15.854543
_cell_length_b 12.064453
_cell_length_c 8.375343
_cell_angle_alpha 90.000000
_cell_angle_beta 90.000000
_cell_angle_gamma 90.000000
_cell_volume 1602.005365
_symmetry_space_group_name_H-M "P C A 21"
_symmetry_group_IT_number 29
_symmetry_cell_setting 'orthorhombic'
loop_
_space_group_symop_operation_xyz
x,y,z
-x,-y,1/2+z
1/2-x,y,1/2+z
1/2+x,-y,z
loop_
_atom_site_type_symbol
_atom_site_label
_atom_site_fract_x
_atom_site_fract_y
_atom_site_fract_z
Si Si1 0.708545 0.051821 0.708330
Si Si2 0.277071 0.493724 0.644790
Si Si3 0.079446 0.590029 0.971913
Si Si4 0.316558 0.798327 0.479436
Si Si5 0.004934 0.615380 0.620331
Si Si6 0.663908 0.370294 0.444848
Si Si7 0.289868 0.113694 0.961953
Si Si8 0.831779 0.741121 0.680297
O O1 0.782476 0.117515 0.613412
O O2 0.663005 0.968556 0.585232
O O3 0.657891 0.139445 0.815960
O O4 0.749685 0.970560 0.836332
O O5 0.335130 0.515575 0.487107
O O6 0.191946 0.553370 0.595095
O O7 0.271496 0.366563 0.689097
O O8 0.325786 0.557258 0.786102
O O9 0.112480 0.710438 0.031461
O O10 0.015566 0.511599 0.068300
O O11 0.042855 0.610455 0.797462
O O12 0.232018 0.727678 0.437922
O O13 0.070165 0.663677 0.490601
O O14 0.920621 0.689850 0.625988
O O15 0.215194 0.176303 0.058214
O O16 0.339371 0.201475 0.853454
#
# Coordination Sequence:
#
# PCOD9340059 Si02
#       8
#     4   4   4   4   4   4   4   4
#     4   9  18  33  60  84 100 131 193 250 276 315
#     4  10  20  34  55  85 116 157 197 228 269 338
#     4  10  21  35  52  81 119 155 188 223 275 342
#     4  10  18  34  59  84 108 144 188 227 277 331
#     4  11  22  36  54  84 126 158 183 227 285 350
#     4  11  20  34  57  87 122 153 189 230 274 342
#     4   9  19  36  57  79 103 137 189 244 285 333
#     4  10  20  36  56  80 112 149 187 231 291 343
#
# _framework density 19.974964
#
# number of rings (size 3 to 8) (size 9 to 14) (size 15 to 20)
#    0.000    2.000    0.000    6.000    0.000    1.000 
#    0.000    5.000    0.000   24.000    0.000    0.000 
#    0.000    0.000    0.000    0.000    0.000    0.000 
#
# Total GULP energy -178254.853194 kJ/mol
# GULP energy per Si atom -5570.464162 kJ/mol
# Density = 1.992950 g / cm^3
# Si number density = 19.974964 Si / 1000 Ang^3
#
#
#
# Elastic Constant Matrix: (Units=GPa)
#
#
# Indices 1 2 3 4 5 6 
#
# 1 53.7248 18.8092 17.2563 0.0000 0.0000 0.0000
# 2 18.8092 116.5755 52.7777 0.0000 0.0000 0.0000
# 3 17.2563 52.7777 94.8473 0.0000 0.0000 0.0000
# 4 0.0000 0.0000 0.0000 51.7707 0.0000 0.0000
# 5 0.0000 0.0000 0.0000 0.0000 24.3546 0.0000
# 6 0.0000 0.0000 0.0000 0.0000 0.0000 8.8534
#
#
#
# Elastic Compliance Matrix: (Units=1/GPa)
#
#
# Indices 1 2 3 4 5 6 
#
# 1 0.020156 -0.002128 -0.002483 0.000000 0.000000 0.000000
# 2 -0.002128 0.011692 -0.006119 0.000000 0.000000 0.000000
# 3 -0.002483 -0.006119 0.014400 0.000000 0.000000 0.000000
# 4 0.000000 0.000000 0.000000 0.019316 0.000000 0.000000
# 5 0.000000 0.000000 0.000000 0.000000 0.041060 0.000000
# 6 0.000000 0.000000 0.000000 0.000000 0.000000 0.112951
#
#
# Mechanical properties :
#
#
# Convention : Reuss Voigt Hill
#
# Bulk Modulus (GPa) = 40.34206 49.20379 44.77292
# Shear Modulus (GPa) = 20.05652 28.74939 24.40295
#
# Velocity S-wave (km/s) = 3.17216 3.79789 3.49904
# Velocity P-wave (km/s) = 5.80146 6.62708 6.22797
#
# Compressibility (1/GPa) = 0.02478802
#
# Stress axis : x y z
#
# Youngs Moduli (GPa) = 49.61319 85.53160 69.44583
#
# Poissons Ratio (x) = 0.18201 0.17243
# Poissons Ratio (y) = 0.10558 0.42491
# Poissons Ratio (z) = 0.12319 0.52333
#
# Static dielectric constant tensor:
#      x y z
#    x 1.776580 0.000000 0.000000 
#    y 0.000000 1.749960 0.000000 
#    z 0.000000 0.000000 1.768810 
# 
# From -- ./inp_files/2175.got.cif
#   From: 2010.05.17/outbox.cif.g08.bks.cpg/sg29_2_cif.got.tgz:2175.got - 2010.06.04 01:19:37.
