data_PCOD9340500
_publ_section_title
;
Structure prediction by ZEFSAII (Michael W. Deem and Ramdas Pophale) SiO2 
 PCOD9340500
Probable space group: P C A 21
;
_chemical_formula_sum "Si O2"
_cell_formula_units_Z 20
_cell_length_a 19.063492
_cell_length_b 6.864993
_cell_length_c 5.983029
_cell_angle_alpha 90.000000
_cell_angle_beta 90.000000
_cell_angle_gamma 90.000000
_cell_volume 783.003427
_symmetry_space_group_name_H-M "P C A 21"
_symmetry_group_IT_number 29
_symmetry_cell_setting 'orthorhombic'
loop_
_space_group_symop_operation_xyz
x,y,z
-x,-y,1/2+z
1/2-x,y,1/2+z
1/2+x,-y,z
loop_
_atom_site_type_symbol
_atom_site_label
_atom_site_fract_x
_atom_site_fract_y
_atom_site_fract_z
Si Si1 0.413008 0.629459 0.854090
Si Si2 0.524427 0.919300 0.883634
Si Si3 0.690741 0.410481 0.959124
Si Si4 0.163513 0.928855 0.690181
Si Si5 0.171165 0.340923 0.572861
O O1 0.492567 0.701063 0.859587
O O2 0.367362 0.656366 0.633209
O O3 0.393294 0.407490 0.918474
O O4 0.376776 0.778124 0.029915
O O5 0.605503 0.970305 0.849085
O O6 0.493900 0.010371 0.641293
O O7 0.760062 0.528697 0.024794
O O8 0.651421 0.571288 0.810977
O O9 0.713214 0.213053 0.830568
O O10 0.191730 0.117109 0.561959
#
# Coordination Sequence:
#
# PCOD9340500 Si02
#       5
#     4   4   4   4   4
#     4  10  22  44  66  93 137 178 229 295 351 419
#     4  10  20  43  74 102 137 185 240 293 360 430
#     4  11  22  44  63  93 142 175 228 297 344 427
#     4  10  24  43  69  99 133 190 231 285 367 424
#     4  11  24  42  62 103 135 180 236 288 356 434
#
# _framework density 25.542670999999999
#
# number of rings (size 3 to 8) (size 9 to 14) (size 15 to 20)
#    0.000    1.600    4.000    0.000    0.000    4.800 
#    3.600    0.000    0.000    0.000    0.000    0.000 
#    0.000    0.000    0.000    0.000    0.000    0.000 
#
# Total GULP energy -111437.140299 kJ/mol
# GULP energy per Si atom -5571.857015 kJ/mol
# Density = 2.548454 g / cm^3
# Si number density = 25.542671 Si / 1000 Ang^3
#
#
#
# Elastic Constant Matrix: (Units=GPa)
#
#
# Indices 1 2 3 4 5 6 
#
# 1 69.2064 27.3424 -0.6081 0.0000 0.0000 0.0000
# 2 27.3424 167.8312 29.8262 0.0000 0.0000 0.0000
# 3 -0.6081 29.8262 66.4599 0.0000 0.0000 0.0000
# 4 0.0000 0.0000 0.0000 8.0726 0.0000 0.0000
# 5 0.0000 0.0000 0.0000 0.0000 27.5302 0.0000
# 6 0.0000 0.0000 0.0000 0.0000 0.0000 36.3435
#
#
#
# Elastic Compliance Matrix: (Units=1/GPa)
#
#
# Indices 1 2 3 4 5 6 
#
# 1 0.015561 -0.002782 0.001391 0.000000 0.000000 0.000000
# 2 -0.002782 0.006972 -0.003155 0.000000 0.000000 0.000000
# 3 0.001391 -0.003155 0.016475 0.000000 0.000000 0.000000
# 4 0.000000 0.000000 0.000000 0.123876 0.000000 0.000000
# 5 0.000000 0.000000 0.000000 0.000000 0.036324 0.000000
# 6 0.000000 0.000000 0.000000 0.000000 0.000000 0.027515
#
#
# Mechanical properties :
#
#
# Convention : Reuss Voigt Hill
#
# Bulk Modulus (GPa) = 33.42605 46.29095 39.85850
# Shear Modulus (GPa) = 20.34277 30.85171 25.59724
#
# Velocity S-wave (km/s) = 2.82516 3.47918 3.16909
# Velocity P-wave (km/s) = 4.87409 5.85679 5.38789
#
# Compressibility (1/GPa) = 0.02991678
#
# Stress axis : x y z
#
# Youngs Moduli (GPa) = 64.26318 143.42541 60.69765
#
# Poissons Ratio (x) = 0.39906 -0.08443
# Poissons Ratio (y) = 0.17880 0.19147
# Poissons Ratio (z) = -0.08939 0.45244
#
# Static dielectric constant tensor:
#      x y z
#    x 2.040660 0.000000 0.000000 
#    y 0.000000 2.048040 0.000000 
#    z 0.000000 0.000000 2.297750 
# 
# From -- ./inp_files/610.got.cif
#   From: 2010.05.17/outbox.cif.g08.bks.cpg/sg29_1_cif.got.tgz:610.got - 2010.06.04 01:19:37.
