data_PCOD9340082
_publ_section_title
;
Structure prediction by ZEFSAII (Michael W. Deem and Ramdas Pophale) SiO2 
 PCOD9340082
Probable space group: P C A 21
;
_chemical_formula_sum "Si O2"
_cell_formula_units_Z 32
_cell_length_a 8.843767
_cell_length_b 10.868007
_cell_length_c 15.916612
_cell_angle_alpha 90.000000
_cell_angle_beta 90.000000
_cell_angle_gamma 90.000000
_cell_volume 1529.811182
_symmetry_space_group_name_H-M "P C A 21"
_symmetry_group_IT_number 29
_symmetry_cell_setting 'orthorhombic'
loop_
_space_group_symop_operation_xyz
x,y,z
-x,-y,1/2+z
1/2-x,y,1/2+z
1/2+x,-y,z
loop_
_atom_site_type_symbol
_atom_site_label
_atom_site_fract_x
_atom_site_fract_y
_atom_site_fract_z
Si Si1 0.273200 0.280366 0.421000
Si Si2 0.956521 0.233624 0.392213
Si Si3 0.256509 0.917042 0.282104
Si Si4 0.102734 0.334858 0.093609
Si Si5 0.063683 0.146492 0.230122
Si Si6 0.004319 0.710555 0.285458
Si Si7 0.743299 0.446440 0.359844
Si Si8 0.862226 0.511849 0.173348
O O1 0.111230 0.217139 0.443504
O O2 0.384673 0.286457 0.499631
O O3 0.363627 0.234867 0.338051
O O4 0.233202 0.421856 0.401058
O O5 0.030422 0.251751 0.299343
O O6 0.844115 0.118967 0.369886
O O7 0.853895 0.352094 0.408224
O O8 0.395942 0.909661 0.216978
O O9 0.132889 0.810519 0.268059
O O10 0.166565 0.042040 0.270927
O O11 0.127900 0.215129 0.151078
O O12 0.233073 0.433278 0.114392
O O13 0.953111 0.405968 0.124904
O O14 0.079894 0.614138 0.350141
O O15 0.958459 0.630860 0.204688
O O16 0.797883 0.462671 0.262724
#
# Coordination Sequence:
#
# PCOD9340082 Si02
#       8
#     4   4   4   4   4   4   4   4
#     4  11  23  33  61  89 140 163 193 246 330 380
#     4   9  20  37  58  90 115 155 217 250 297 369
#     4   9  22  37  72  86 110 148 226 267 301 346
#     4  12  25  37  58  96 133 169 196 256 322 383
#     4  10  21  42  65  89 117 153 217 268 304 354
#     4  10  20  37  63  90 114 166 208 257 298 367
#     4  10  18  37  57  89 122 169 201 253 296 375
#     4  11  21  36  58  87 129 157 214 245 306 366
#
# _framework density 20.917612999999999
#
# number of rings (size 3 to 8) (size 9 to 14) (size 15 to 20)
#    0.750    1.000    2.500    3.000    7.000    0.000 
#    0.000    0.000    5.500    0.000    0.000    0.000 
#    0.000    0.000    0.000    0.000    0.000    0.000 
#
# Total GULP energy -178264.360245 kJ/mol
# GULP energy per Si atom -5570.761258 kJ/mol
# Density = 2.087000 g / cm^3
# Si number density = 20.917613 Si / 1000 Ang^3
#
#
#
# Elastic Constant Matrix: (Units=GPa)
#
#
# Indices 1 2 3 4 5 6 
#
# 1 93.7584 31.4454 -10.8620 0.0000 0.0000 0.0000
# 2 31.4454 79.1795 6.8749 0.0000 0.0000 0.0000
# 3 -10.8620 6.8749 18.5417 0.0000 0.0000 0.0000
# 4 0.0000 0.0000 0.0000 8.1296 0.0000 0.0000
# 5 0.0000 0.0000 0.0000 0.0000 15.9278 0.0000
# 6 0.0000 0.0000 0.0000 0.0000 0.0000 38.2932
#
#
#
# Elastic Compliance Matrix: (Units=1/GPa)
#
#
# Indices 1 2 3 4 5 6 
#
# 1 0.014090 -0.006522 0.010672 0.000000 0.000000 0.000000
# 2 -0.006522 0.016069 -0.009779 0.000000 0.000000 0.000000
# 3 0.010672 -0.009779 0.063810 0.000000 0.000000 0.000000
# 4 0.000000 0.000000 0.000000 0.123007 0.000000 0.000000
# 5 0.000000 0.000000 0.000000 0.000000 0.062783 0.000000
# 6 0.000000 0.000000 0.000000 0.000000 0.000000 0.026114
#
#
# Mechanical properties :
#
#
# Convention : Reuss Voigt Hill
#
# Bulk Modulus (GPa) = 12.09032 27.37737 19.73385
# Shear Modulus (GPa) = 14.50531 23.40487 18.95509
#
# Velocity S-wave (km/s) = 2.63620 3.34864 3.01355
# Velocity P-wave (km/s) = 3.88054 5.29790 4.64362
#
# Compressibility (1/GPa) = 0.08271077
#
# Stress axis : x y z
#
# Youngs Moduli (GPa) = 70.97465 62.23237 15.67153
#
# Poissons Ratio (x) = 0.40589 -0.16725
# Poissons Ratio (y) = 0.46291 0.15325
# Poissons Ratio (z) = -0.75745 0.60855
#
# Static dielectric constant tensor:
#      x y z
#    x 1.852800 0.000000 0.000000 
#    y 0.000000 1.762620 0.000000 
#    z 0.000000 0.000000 1.761750 
# 
# From -- ./inp_files/5024.got.cif
#   From: 2010.05.17/outbox.cif.g08.bks.cpg/sg29_3_cif.got.tgz:5024.got - 2010.06.04 01:19:37.
