data_PCOD9340049
_publ_section_title
;
Structure prediction by ZEFSAII (Michael W. Deem and Ramdas Pophale) SiO2 
 PCOD9340049
Probable space group: P C A 21
;
_chemical_formula_sum "Si O2"
_cell_formula_units_Z 28
_cell_length_a 5.436087
_cell_length_b 15.527908
_cell_length_c 14.098250
_cell_angle_alpha 90.000000
_cell_angle_beta 90.000000
_cell_angle_gamma 90.000000
_cell_volume 1190.048210
_symmetry_space_group_name_H-M "P C A 21"
_symmetry_group_IT_number 29
_symmetry_cell_setting 'orthorhombic'
loop_
_space_group_symop_operation_xyz
x,y,z
-x,-y,1/2+z
1/2-x,y,1/2+z
1/2+x,-y,z
loop_
_atom_site_type_symbol
_atom_site_label
_atom_site_fract_x
_atom_site_fract_y
_atom_site_fract_z
Si Si1 0.893057 0.802793 0.434480
Si Si2 0.154045 0.693120 0.573909
Si Si3 0.748208 0.246562 0.268099
Si Si4 0.341627 0.007559 0.496589
Si Si5 0.028079 0.345343 0.420592
Si Si6 0.369286 0.947711 0.290186
Si Si7 0.693916 0.550225 0.055056
O O1 0.838255 0.901502 0.443474
O O2 0.654634 0.744681 0.448234
O O3 0.075432 0.778771 0.519547
O O4 0.018923 0.773269 0.336708
O O5 0.309047 0.716003 0.665375
O O6 0.302505 0.640573 0.493380
O O7 0.905412 0.640372 0.597952
O O8 0.874944 0.152098 0.257465
O O9 0.912414 0.320477 0.319892
O O10 0.592398 0.001431 0.553153
O O11 0.349144 0.943545 0.406510
O O12 0.231951 0.418487 0.445853
O O13 0.616265 0.001230 0.265249
O O14 0.454498 0.492390 0.081810
#
# Coordination Sequence:
#
# PCOD9340049 Si02
#       7
#     4   4   4   4   4   4   4
#     4  10  21  37  64  93 131 181 230 283 344 410
#     4  10  24  42  66 105 135 183 225 284 357 413
#     4  11  22  40  67  97 141 181 242 295 335 426
#     4  10  18  32  58  86 119 173 228 275 341 391
#     4  10  22  42  69 100 132 180 231 274 355 412
#     4  10  19  35  58  88 126 181 228 285 353 385
#     4  11  22  46  76  97 136 177 210 274 341 415
#
# _framework density 23.528459999999999
#
# number of rings (size 3 to 8) (size 9 to 14) (size 15 to 20)
#    0.000    1.714    4.286    1.714    2.000    2.286 
#    0.000    2.857    0.000    0.000    0.000    0.000 
#    0.000    0.000    0.000    0.000    0.000    0.000 
#
# Total GULP energy -155935.676904 kJ/mol
# GULP energy per Si atom -5569.131318 kJ/mol
# Density = 2.347491 g / cm^3
# Si number density = 23.528460 Si / 1000 Ang^3
#
#
#
# Elastic Constant Matrix: (Units=GPa)
#
#
# Indices 1 2 3 4 5 6 
#
# 1 162.5316 9.6640 20.2299 0.0000 0.0000 0.0000
# 2 9.6640 29.8029 7.5187 0.0000 0.0000 0.0000
# 3 20.2299 7.5187 76.4026 0.0000 0.0000 0.0000
# 4 0.0000 0.0000 0.0000 9.9128 0.0000 0.0000
# 5 0.0000 0.0000 0.0000 0.0000 15.0477 0.0000
# 6 0.0000 0.0000 0.0000 0.0000 0.0000 40.2984
#
#
#
# Elastic Compliance Matrix: (Units=1/GPa)
#
#
# Indices 1 2 3 4 5 6 
#
# 1 0.006445 -0.001702 -0.001539 0.000000 0.000000 0.000000
# 2 -0.001702 0.034857 -0.002980 0.000000 0.000000 0.000000
# 3 -0.001539 -0.002980 0.013789 0.000000 0.000000 0.000000
# 4 0.000000 0.000000 0.000000 0.100880 0.000000 0.000000
# 5 0.000000 0.000000 0.000000 0.000000 0.066455 0.000000
# 6 0.000000 0.000000 0.000000 0.000000 0.000000 0.024815
#
#
# Mechanical properties :
#
#
# Convention : Reuss Voigt Hill
#
# Bulk Modulus (GPa) = 23.44615 38.17360 30.80987
# Shear Modulus (GPa) = 18.25479 28.47340 23.36410
#
# Velocity S-wave (km/s) = 2.78845 3.48252 3.15463
# Velocity P-wave (km/s) = 4.51153 5.69476 5.13732
#
# Compressibility (1/GPa) = 0.04265093
#
# Stress axis : x y z
#
# Youngs Moduli (GPa) = 155.14926 28.68836 72.51990
#
# Poissons Ratio (x) = 0.04882 0.11162
# Poissons Ratio (y) = 0.26402 0.21609
# Poissons Ratio (z) = 0.23880 0.08548
#
# Static dielectric constant tensor:
#      x y z
#    x 2.014320 0.000000 0.000000 
#    y 0.000000 2.039990 0.000000 
#    z 0.000000 0.000000 1.894280 
# 
# From -- ./inp_files/4094.got.cif
#   From: 2010.05.17/outbox.cif.g08.bks.cpg/sg29_3_cif.got.tgz:4094.got - 2010.06.04 01:19:37.
