data_PCOD9340702
_publ_section_title
;
Structure prediction by ZEFSAII (Michael W. Deem and Ramdas Pophale) SiO2 
 PCOD9340702
Probable space group: P C A 21
;
_chemical_formula_sum "Si O2"
_cell_formula_units_Z 24
_cell_length_a 5.141075
_cell_length_b 14.546711
_cell_length_c 13.287813
_cell_angle_alpha 90.000000
_cell_angle_beta 90.000000
_cell_angle_gamma 90.000000
_cell_volume 993.738825
_symmetry_space_group_name_H-M "P C A 21"
_symmetry_group_IT_number 29
_symmetry_cell_setting 'orthorhombic'
loop_
_space_group_symop_operation_xyz
x,y,z
-x,-y,1/2+z
1/2-x,y,1/2+z
1/2+x,-y,z
loop_
_atom_site_type_symbol
_atom_site_label
_atom_site_fract_x
_atom_site_fract_y
_atom_site_fract_z
Si Si1 0.139741 0.198003 0.363830
Si Si2 0.515536 0.565050 0.108010
Si Si3 0.084913 0.128889 0.041224
Si Si4 0.367452 0.946466 0.231008
Si Si5 0.724203 0.300552 0.005488
Si Si6 0.655076 0.727789 0.680604
O O1 0.241936 0.120002 0.441584
O O2 0.945086 0.147173 0.286935
O O3 0.365596 0.243064 0.295722
O O4 0.997468 0.280067 0.424111
O O5 0.608768 0.654623 0.171733
O O6 0.429061 0.615717 0.002748
O O7 0.766613 0.500303 0.121698
O O8 0.883829 0.207112 0.008379
O O9 0.916132 0.060877 0.109858
O O10 0.275816 0.178480 0.120977
O O11 0.082749 0.978198 0.259613
O O12 0.578377 0.311180 0.113599
#
# Coordination Sequence:
#
# PCOD9340702 Si02
#       6
#     4   4   4   4   4   4
#     4  10  23  42  67  98 131 179 235 277 331 413
#     4  11  21  40  68  95 133 175 214 271 338 385
#     4   9  22  39  67  91 128 175 227 275 334 410
#     4  11  27  44  65  97 137 174 218 286 350 401
#     4  10  21  41  68  96 132 185 226 276 332 410
#     4   9  20  40  65  95 129 178 224 273 329 407
#
# _framework density 24.151218
#
# number of rings (size 3 to 8) (size 9 to 14) (size 15 to 20)
#    0.000    2.000    1.667    0.000    9.333    4.000 
#    0.000    1.667    0.000    0.000    0.000    0.000 
#    0.000    0.000    0.000    0.000    0.000    0.000 
#
# Total GULP energy -133727.616148 kJ/mol
# GULP energy per Si atom -5571.984006 kJ/mol
# Density = 2.409625 g / cm^3
# Si number density = 24.151218 Si / 1000 Ang^3
#
#
#
# Elastic Constant Matrix: (Units=GPa)
#
#
# Indices 1 2 3 4 5 6 
#
# 1 99.5326 13.1418 21.3905 0.0000 0.0000 0.0000
# 2 13.1418 53.7879 17.0570 0.0000 0.0000 0.0000
# 3 21.3905 17.0570 108.1946 0.0000 0.0000 0.0000
# 4 0.0000 0.0000 0.0000 15.3321 0.0000 0.0000
# 5 0.0000 0.0000 0.0000 0.0000 10.0773 0.0000
# 6 0.0000 0.0000 0.0000 0.0000 0.0000 46.8493
#
#
#
# Elastic Compliance Matrix: (Units=1/GPa)
#
#
# Indices 1 2 3 4 5 6 
#
# 1 0.010703 -0.002046 -0.001793 0.000000 0.000000 0.000000
# 2 -0.002046 0.019961 -0.002742 0.000000 0.000000 0.000000
# 3 -0.001793 -0.002742 0.010029 0.000000 0.000000 0.000000
# 4 0.000000 0.000000 0.000000 0.065223 0.000000 0.000000
# 5 0.000000 0.000000 0.000000 0.000000 0.099233 0.000000
# 6 0.000000 0.000000 0.000000 0.000000 0.000000 0.021345
#
#
# Mechanical properties :
#
#
# Convention : Reuss Voigt Hill
#
# Bulk Modulus (GPa) = 36.32488 40.52154 38.42321
# Shear Modulus (GPa) = 20.09369 28.44680 24.27024
#
# Velocity S-wave (km/s) = 2.88756 3.43572 3.17350
# Velocity P-wave (km/s) = 5.11768 5.70558 5.41960
#
# Compressibility (1/GPa) = 0.02752934
#
# Stress axis : x y z
#
# Youngs Moduli (GPa) = 93.43581 50.09733 99.70596
#
# Poissons Ratio (x) = 0.10251 0.17881
# Poissons Ratio (y) = 0.19119 0.27343
# Poissons Ratio (z) = 0.16756 0.13738
#
# Static dielectric constant tensor:
#      x y z
#    x 2.066430 0.000000 0.000000 
#    y 0.000000 1.957240 0.000000 
#    z 0.000000 0.000000 2.004810 
# 
# From -- ./inp_files/2669.got.cif
#   From: 2010.05.17/outbox.cif.g08.bks.cpg/sg29_2_cif.got.tgz:2669.got - 2010.06.04 01:19:37.
