data_PCOD9340335
_publ_section_title
;
Structure prediction by ZEFSAII (Michael W. Deem and Ramdas Pophale) SiO2 
 PCOD9340335
Probable space group: P C A 21
;
_chemical_formula_sum "Si O2"
_cell_formula_units_Z 28
_cell_length_a 18.366324
_cell_length_b 11.950423
_cell_length_c 5.214828
_cell_angle_alpha 90.000000
_cell_angle_beta 90.000000
_cell_angle_gamma 90.000000
_cell_volume 1144.578301
_symmetry_space_group_name_H-M "P C A 21"
_symmetry_group_IT_number 29
_symmetry_cell_setting 'orthorhombic'
loop_
_space_group_symop_operation_xyz
x,y,z
-x,-y,1/2+z
1/2-x,y,1/2+z
1/2+x,-y,z
loop_
_atom_site_type_symbol
_atom_site_label
_atom_site_fract_x
_atom_site_fract_y
_atom_site_fract_z
Si Si1 0.696345 0.436113 0.620180
Si Si2 0.930833 0.926146 0.333697
Si Si3 0.411121 0.456817 0.764699
Si Si4 0.206227 0.296689 0.034146
Si Si5 0.433689 0.652889 0.381703
Si Si6 0.211335 0.026264 0.052791
Si Si7 0.475591 0.137429 0.836855
O O1 0.750295 0.435671 0.371644
O O2 0.633474 0.526161 0.529829
O O3 0.636877 0.340248 0.697496
O O4 0.866418 0.003357 0.438247
O O5 0.915072 0.868738 0.060099
O O6 0.950629 0.835994 0.549680
O O7 0.997180 0.010860 0.293904
O O8 0.364272 0.368013 0.603088
O O9 0.410860 0.576869 0.623368
O O10 0.493428 0.412072 0.783478
O O11 0.263095 0.326763 0.257551
O O12 0.204130 0.161941 0.046460
O O13 0.464778 0.776013 0.433663
O O14 0.230106 0.991275 0.339089
#
# Coordination Sequence:
#
# PCOD9340335 Si02
#       7
#     4   4   4   4   4   4   4
#     4  12  26  46  67  92 137 187 229 278 338 404
#     4  10  21  44  68  99 128 172 213 288 344 407
#     4  12  25  42  67  99 139 179 232 285 338 392
#     4  10  23  38  60  92 129 176 217 265 337 404
#     4  12  27  44  70 105 135 184 235 293 330 413
#     4  10  20  36  61  93 129 164 212 269 330 400
#     4  10  24  42  71  96 131 168 226 278 349 394
#
# _framework density 24.463158
#
# number of rings (size 3 to 8) (size 9 to 14) (size 15 to 20)
#    0.000    1.143    2.857    2.571    4.000    3.429 
#    0.000    1.429    0.000    0.000    0.000    0.000 
#    0.000    0.000    0.000    0.000    0.000    0.000 
#
# Total GULP energy -156143.601823 kJ/mol
# GULP energy per Si atom -5576.557208 kJ/mol
# Density = 2.440748 g / cm^3
# Si number density = 24.463158 Si / 1000 Ang^3
#
#
#
# Elastic Constant Matrix: (Units=GPa)
#
#
# Indices 1 2 3 4 5 6 
#
# 1 127.6525 -4.8416 40.6784 0.0000 0.0000 0.0000
# 2 -4.8416 40.6571 16.2094 0.0000 0.0000 0.0000
# 3 40.6784 16.2094 126.5466 0.0000 0.0000 0.0000
# 4 0.0000 0.0000 0.0000 8.1187 0.0000 0.0000
# 5 0.0000 0.0000 0.0000 0.0000 42.7022 0.0000
# 6 0.0000 0.0000 0.0000 0.0000 0.0000 26.5482
#
#
#
# Elastic Compliance Matrix: (Units=1/GPa)
#
#
# Indices 1 2 3 4 5 6 
#
# 1 0.008932 0.002327 -0.003169 0.000000 0.000000 0.000000
# 2 0.002327 0.026526 -0.004146 0.000000 0.000000 0.000000
# 3 -0.003169 -0.004146 0.009452 0.000000 0.000000 0.000000
# 4 0.000000 0.000000 0.000000 0.123173 0.000000 0.000000
# 5 0.000000 0.000000 0.000000 0.000000 0.023418 0.000000
# 6 0.000000 0.000000 0.000000 0.000000 0.000000 0.037667
#
#
# Mechanical properties :
#
#
# Convention : Reuss Voigt Hill
#
# Bulk Modulus (GPa) = 28.62527 44.32763 36.47645
# Shear Modulus (GPa) = 19.93711 31.66114 25.79913
#
# Velocity S-wave (km/s) = 2.85789 3.60145 3.25100
# Velocity P-wave (km/s) = 4.75572 5.95428 5.38843
#
# Compressibility (1/GPa) = 0.03493417
#
# Stress axis : x y z
#
# Youngs Moduli (GPa) = 111.95738 37.69898 105.79739
#
# Poissons Ratio (x) = -0.08773 0.33530
# Poissons Ratio (y) = -0.26055 0.43861
# Poissons Ratio (z) = 0.35482 0.15629
#
# Static dielectric constant tensor:
#      x y z
#    x 2.006060 0.000000 0.000000 
#    y 0.000000 1.974650 0.000000 
#    z 0.000000 0.000000 2.057490 
# 
# From -- ./inp_files/405.got.cif
#   From: 2010.05.17/outbox.cif.g08.bks.cpg/sg29_1_cif.got.tgz:405.got - 2010.06.04 01:19:37.
