data_PCOD9340970
_publ_section_title
;
Structure prediction by ZEFSAII (Michael W. Deem and Ramdas Pophale) SiO2 
 PCOD9340970
Probable space group: P C A 21
;
_chemical_formula_sum "Si O2"
_cell_formula_units_Z 28
_cell_length_a 11.493961
_cell_length_b 11.970168
_cell_length_c 8.845365
_cell_angle_alpha 90.000000
_cell_angle_beta 90.000000
_cell_angle_gamma 90.000000
_cell_volume 1216.986396
_symmetry_space_group_name_H-M "P C A 21"
_symmetry_group_IT_number 29
_symmetry_cell_setting 'orthorhombic'
loop_
_space_group_symop_operation_xyz
x,y,z
-x,-y,1/2+z
1/2-x,y,1/2+z
1/2+x,-y,z
loop_
_atom_site_type_symbol
_atom_site_label
_atom_site_fract_x
_atom_site_fract_y
_atom_site_fract_z
Si Si1 0.820511 0.971091 0.810530
Si Si2 0.587000 0.524706 0.303744
Si Si3 0.415191 0.318003 0.298964
Si Si4 0.915419 0.155756 0.634309
Si Si5 0.977402 0.780302 0.813817
Si Si6 0.260885 0.400810 0.547394
Si Si7 0.161307 0.898698 0.625329
O O1 0.907780 0.027375 0.687509
O O2 0.694006 0.005307 0.749075
O O3 0.841727 0.037267 0.966264
O O4 0.852967 0.842473 0.815397
O O5 0.492416 0.429705 0.315286
O O6 0.532531 0.648233 0.312583
O O7 0.683568 0.525312 0.434709
O O8 0.654785 0.521562 0.145533
O O9 0.505608 0.222452 0.252684
O O10 0.339278 0.314838 0.451087
O O11 0.325905 0.337559 0.160717
O O12 0.963097 0.178303 0.468595
O O13 0.776780 0.180530 0.633103
O O14 0.053813 0.825002 0.675346
#
# Coordination Sequence:
#
# PCOD9340970 Si02
#       7
#     4   4   4   4   4   4   4
#     4  10  23  42  65  98 132 171 225 280 334 402
#     4  11  25  43  67  99 133 176 222 280 336 402
#     4  11  23  47  67  97 138 172 226 281 331 411
#     4  10  22  45  66  96 134 172 225 278 327 408
#     4  12  23  44  67  97 137 174 226 278 341 411
#     4  10  24  44  64 100 130 176 223 267 351 385
#     4  10  22  43  64 103 126 183 227 270 342 393
#
# _framework density 23.007652
#
# number of rings (size 3 to 8) (size 9 to 14) (size 15 to 20)
#    0.857    0.571    2.857    1.714    2.000    3.429 
#    7.714    0.000    0.000    0.000    0.000    0.000 
#    0.000    0.000    0.000    0.000    0.000    0.000 
#
# Total GULP energy -156515.697551 kJ/mol
# GULP energy per Si atom -5589.846341 kJ/mol
# Density = 2.295529 g / cm^3
# Si number density = 23.007652 Si / 1000 Ang^3
#
#
#
# Elastic Constant Matrix: (Units=GPa)
#
#
# Indices 1 2 3 4 5 6 
#
# 1 91.2772 27.0131 21.9667 0.0000 0.0000 0.0000
# 2 27.0131 67.0668 -11.1511 0.0000 0.0000 0.0000
# 3 21.9667 -11.1511 90.2160 0.0000 0.0000 0.0000
# 4 0.0000 0.0000 0.0000 2.6793 0.0000 0.0000
# 5 0.0000 0.0000 0.0000 0.0000 36.7023 0.0000
# 6 0.0000 0.0000 0.0000 0.0000 0.0000 32.9441
#
#
#
# Elastic Compliance Matrix: (Units=1/GPa)
#
#
# Indices 1 2 3 4 5 6 
#
# 1 0.013798 -0.006244 -0.004132 0.000000 0.000000 0.000000
# 2 -0.006244 0.018049 0.003751 0.000000 0.000000 0.000000
# 3 -0.004132 0.003751 0.012554 0.000000 0.000000 0.000000
# 4 0.000000 0.000000 0.000000 0.373232 0.000000 0.000000
# 5 0.000000 0.000000 0.000000 0.000000 0.027246 0.000000
# 6 0.000000 0.000000 0.000000 0.000000 0.000000 0.030354
#
#
# Mechanical properties :
#
#
# Convention : Reuss Voigt Hill
#
# Bulk Modulus (GPa) = 32.10018 36.02417 34.06217
# Shear Modulus (GPa) = 10.02271 28.51389 19.26830
#
# Velocity S-wave (km/s) = 2.08943 3.52422 2.89705
# Velocity P-wave (km/s) = 4.45008 5.67905 5.10171
#
# Compressibility (1/GPa) = 0.03115248
#
# Stress axis : x y z
#
# Youngs Moduli (GPa) = 72.47453 55.40353 79.65472
#
# Poissons Ratio (x) = 0.34597 0.32909
# Poissons Ratio (y) = 0.45257 -0.29882
# Poissons Ratio (z) = 0.29943 -0.20784
#
# Static dielectric constant tensor:
#      x y z
#    x 1.899890 0.000000 0.000000 
#    y 0.000000 1.825750 0.000000 
#    z 0.000000 0.000000 1.872500 
# 
# From -- ./inp_files/1474.got.cif
#   From: 2010.05.17/outbox.cif.g08.bks.cpg/sg29_1_cif.got.tgz:1474.got - 2010.06.04 01:19:37.
