data_PCOD9340266
_publ_section_title
;
Structure prediction by ZEFSAII (Michael W. Deem and Ramdas Pophale) SiO2 
 PCOD9340266
Probable space group: P C A 21
;
_chemical_formula_sum "Si O2"
_cell_formula_units_Z 28
_cell_length_a 17.571405
_cell_length_b 9.019370
_cell_length_c 8.533048
_cell_angle_alpha 90.000000
_cell_angle_beta 90.000000
_cell_angle_gamma 90.000000
_cell_volume 1352.343073
_symmetry_space_group_name_H-M "P C A 21"
_symmetry_group_IT_number 29
_symmetry_cell_setting 'orthorhombic'
loop_
_space_group_symop_operation_xyz
x,y,z
-x,-y,1/2+z
1/2-x,y,1/2+z
1/2+x,-y,z
loop_
_atom_site_type_symbol
_atom_site_label
_atom_site_fract_x
_atom_site_fract_y
_atom_site_fract_z
Si Si1 0.666875 0.255414 0.193790
Si Si2 0.855374 0.595366 0.176170
Si Si3 0.719527 0.729499 0.386047
Si Si4 0.675675 0.913518 0.103909
Si Si5 0.933455 0.048826 0.376259
Si Si6 0.823899 0.308158 0.340674
Si Si7 0.500807 0.196219 0.170213
O O1 0.734722 0.310092 0.300814
O O2 0.579207 0.256607 0.245612
O O3 0.685566 0.082270 0.159818
O O4 0.668776 0.337925 0.026042
O O5 0.790841 0.658189 0.295013
O O6 0.865130 0.427658 0.232001
O O7 0.931509 0.691768 0.187635
O O8 0.823352 0.617047 0.000619
O O9 0.668821 0.806032 0.252290
O O10 0.753675 0.855942 0.500811
O O11 0.603666 0.924509 0.989648
O O12 0.979661 0.960651 0.248059
O O13 0.863528 0.148322 0.313063
O O14 0.980898 0.158240 0.488669
#
# Coordination Sequence:
#
# PCOD9340266 Si02
#       7
#     4   4   4   4   4   4   4
#     4  10  22  39  66  88 125 162 218 262 319 379
#     4  11  22  39  63  91 133 167 214 258 325 391
#     4  10  20  32  61  92 124 164 213 260 309 387
#     4   9  17  34  56  92 116 159 208 268 306 361
#     4  10  22  41  61  91 128 162 219 271 324 381
#     4  10  22  41  62  89 125 170 211 258 314 404
#     4  10  23  40  63  95 125 166 211 281 327 373
#
# _framework density 20.704806000000001
#
# number of rings (size 3 to 8) (size 9 to 14) (size 15 to 20)
#    0.000    2.286    1.429    2.571    6.000    1.143 
#    0.000    8.571    0.000    0.000    0.000    0.000 
#    0.000    0.000    0.000    0.000    0.000    0.000 
#
# Total GULP energy -156280.043338 kJ/mol
# GULP energy per Si atom -5581.430119 kJ/mol
# Density = 2.065768 g / cm^3
# Si number density = 20.704806 Si / 1000 Ang^3
#
#
#
# Elastic Constant Matrix: (Units=GPa)
#
#
# Indices 1 2 3 4 5 6 
#
# 1 125.8774 47.3106 43.5281 0.0000 0.0000 0.0000
# 2 47.3106 50.2797 42.8960 0.0000 0.0000 0.0000
# 3 43.5281 42.8960 75.5871 0.0000 0.0000 0.0000
# 4 0.0000 0.0000 0.0000 31.4392 0.0000 0.0000
# 5 0.0000 0.0000 0.0000 0.0000 28.4931 0.0000
# 6 0.0000 0.0000 0.0000 0.0000 0.0000 13.6769
#
#
#
# Elastic Compliance Matrix: (Units=1/GPa)
#
#
# Indices 1 2 3 4 5 6 
#
# 1 0.012330 -0.010748 -0.001001 0.000000 0.000000 0.000000
# 2 -0.010748 0.047925 -0.021009 0.000000 0.000000 0.000000
# 3 -0.001001 -0.021009 0.025729 0.000000 0.000000 0.000000
# 4 0.000000 0.000000 0.000000 0.031807 0.000000 0.000000
# 5 0.000000 0.000000 0.000000 0.000000 0.035096 0.000000
# 6 0.000000 0.000000 0.000000 0.000000 0.000000 0.073116
#
#
# Mechanical properties :
#
#
# Convention : Reuss Voigt Hill
#
# Bulk Modulus (GPa) = 48.85382 57.69041 53.27212
# Shear Modulus (GPa) = 16.75933 22.58912 19.67422
#
# Velocity S-wave (km/s) = 2.84815 3.30663 3.08592
# Velocity P-wave (km/s) = 5.87049 6.51937 6.20342
#
# Compressibility (1/GPa) = 0.02046923
#
# Stress axis : x y z
#
# Youngs Moduli (GPa) = 81.10361 20.86579 38.86727
#
# Poissons Ratio (x) = 0.22426 0.03890
# Poissons Ratio (y) = 0.87169 0.81654
# Poissons Ratio (z) = 0.08118 0.43836
#
# Static dielectric constant tensor:
#      x y z
#    x 1.750870 0.000000 0.000000 
#    y 0.000000 1.751410 0.000000 
#    z 0.000000 0.000000 1.768970 
# 
# From -- ./inp_files/2114.got.cif
#   From: 2010.05.17/outbox.cif.g08.bks.cpg/sg29_2_cif.got.tgz:2114.got - 2010.06.04 01:19:37.
