data_PCOD9340815
_publ_section_title
;
Structure prediction by ZEFSAII (Michael W. Deem and Ramdas Pophale) SiO2 
 PCOD9340815
Probable space group: P C A 21
;
_chemical_formula_sum "Si O2"
_cell_formula_units_Z 28
_cell_length_a 12.940768
_cell_length_b 12.162282
_cell_length_c 8.732951
_cell_angle_alpha 90.000000
_cell_angle_beta 90.000000
_cell_angle_gamma 90.000000
_cell_volume 1374.472780
_symmetry_space_group_name_H-M "P C A 21"
_symmetry_group_IT_number 29
_symmetry_cell_setting 'orthorhombic'
loop_
_space_group_symop_operation_xyz
x,y,z
-x,-y,1/2+z
1/2-x,y,1/2+z
1/2+x,-y,z
loop_
_atom_site_type_symbol
_atom_site_label
_atom_site_fract_x
_atom_site_fract_y
_atom_site_fract_z
Si Si1 0.880207 0.876005 0.185770
Si Si2 0.323077 0.354861 0.310128
Si Si3 0.617662 0.397849 0.729496
Si Si4 0.245928 0.000000 0.440887
Si Si5 0.617663 0.602154 0.152301
Si Si6 0.323075 0.645135 0.571669
Si Si7 0.880209 0.123994 0.696004
O O1 0.868192 0.746983 0.217729
O O2 0.817557 0.938081 0.319209
O O3 0.999999 0.907052 0.190879
O O4 0.826395 0.913558 0.029235
O O5 0.368861 0.470616 0.250620
O O6 0.349202 0.346706 0.489357
O O7 0.200191 0.360836 0.279263
O O8 0.500000 0.371040 0.690900
O O9 0.700189 0.360840 0.602534
O O10 0.650799 0.346709 0.892440
O O11 0.173595 0.913568 0.352541
O O12 0.317553 0.938074 0.562564
O O13 0.631141 0.470619 0.131178
O O14 0.368192 0.746981 0.664063
#
# Coordination Sequence:
#
# PCOD9340815 Si02
#       7
#     4   4   4   4   4   4   4
#     4  11  22  41  63  86 118 156 195 249 304 350
#     4  10  22  38  61  89 119 160 207 243 297 368
#     4  10  22  39  59  89 127 160 198 249 296 355
#     4  10  24  40  60  90 116 148 204 250 296 364
#     4  10  22  39  59  89 127 160 198 249 296 355
#     4  10  22  38  61  89 119 160 207 243 297 368
#     4  11  22  41  63  86 118 156 195 249 304 350
#
# _framework density 20.371448999999998
#
# number of rings (size 3 to 8) (size 9 to 14) (size 15 to 20)
#    0.000    1.714    0.000    3.429    0.000   13.714 
#    0.000    7.143    0.000    0.000    0.000    0.000 
#    0.000    0.000    0.000    0.000    0.000    0.000 
#
# Total GULP energy -156628.551226 kJ/mol
# GULP energy per Si atom -5593.876829 kJ/mol
# Density = 2.032508 g / cm^3
# Si number density = 20.371449 Si / 1000 Ang^3
#
#
#
# Elastic Constant Matrix: (Units=GPa)
#
#
# Indices 1 2 3 4 5 6 
#
# 1 210.5505 21.4600 91.2349 0.0000 0.0000 0.0000
# 2 21.4600 71.7361 42.7777 0.0000 0.0000 0.0000
# 3 91.2349 42.7777 126.7946 0.0000 0.0000 0.0000
# 4 0.0000 0.0000 0.0000 53.4121 0.0000 0.0000
# 5 0.0000 0.0000 0.0000 0.0000 18.8421 0.0000
# 6 0.0000 0.0000 0.0000 0.0000 0.0000 7.9511
#
#
#
# Elastic Compliance Matrix: (Units=1/GPa)
#
#
# Indices 1 2 3 4 5 6 
#
# 1 0.006974 0.001134 -0.005401 0.000000 0.000000 0.000000
# 2 0.001134 0.017635 -0.006766 0.000000 0.000000 0.000000
# 3 -0.005401 -0.006766 0.014056 0.000000 0.000000 0.000000
# 4 0.000000 0.000000 0.000000 0.018722 0.000000 0.000000
# 5 0.000000 0.000000 0.000000 0.000000 0.053073 0.000000
# 6 0.000000 0.000000 0.000000 0.000000 0.000000 0.125769
#
#
# Mechanical properties :
#
#
# Convention : Reuss Voigt Hill
#
# Bulk Modulus (GPa) = 60.24089 80.00296 70.12192
# Shear Modulus (GPa) = 18.95176 32.94829 25.95003
#
# Velocity S-wave (km/s) = 3.05341 4.02602 3.57297
# Velocity P-wave (km/s) = 6.48587 7.80828 7.17759
#
# Compressibility (1/GPa) = 0.01660002
#
# Stress axis : x y z
#
# Youngs Moduli (GPa) = 143.38646 56.70432 71.14534
#
# Poissons Ratio (x) = -0.06432 0.38425
# Poissons Ratio (y) = -0.16265 0.48137
# Poissons Ratio (z) = 0.77442 0.38366
#
# Static dielectric constant tensor:
#      x y z
#    x 1.689140 0.000000 0.000000 
#    y 0.000000 1.715670 0.000000 
#    z 0.000000 0.000000 1.712400 
# 
# From -- ./inp_files/1457.got.cif
#   From: 2010.05.17/outbox.cif.g08.bks.cpg/sg29_1_cif.got.tgz:1457.got - 2010.06.04 01:19:37.
