data_PCOD9340980
_publ_section_title
;
Structure prediction by ZEFSAII (Michael W. Deem and Ramdas Pophale) SiO2 
 PCOD9340980
Probable space group: P C A 21
;
_chemical_formula_sum "Si O2"
_cell_formula_units_Z 28
_cell_length_a 9.719464
_cell_length_b 14.464744
_cell_length_c 8.689332
_cell_angle_alpha 90.000000
_cell_angle_beta 90.000000
_cell_angle_gamma 90.000000
_cell_volume 1221.629350
_symmetry_space_group_name_H-M "P C A 21"
_symmetry_group_IT_number 29
_symmetry_cell_setting 'orthorhombic'
loop_
_space_group_symop_operation_xyz
x,y,z
-x,-y,1/2+z
1/2-x,y,1/2+z
1/2+x,-y,z
loop_
_atom_site_type_symbol
_atom_site_label
_atom_site_fract_x
_atom_site_fract_y
_atom_site_fract_z
Si Si1 0.591918 0.972561 0.627080
Si Si2 0.325815 0.612382 0.264870
Si Si3 0.696537 0.262860 0.051793
Si Si4 0.820057 0.058469 0.438367
Si Si5 0.396119 0.467683 0.715878
Si Si6 0.413165 0.236566 0.213370
Si Si7 0.236051 0.348246 0.963417
O O1 0.438404 0.970491 0.559841
O O2 0.620840 0.871326 0.696294
O O3 0.688837 0.997503 0.483175
O O4 0.625119 0.042426 0.766204
O O5 0.346420 0.660128 0.427815
O O6 0.440157 0.536047 0.226397
O O7 0.178043 0.563349 0.252159
O O8 0.326487 0.694599 0.140141
O O9 0.716862 0.165434 0.967889
O O10 0.573385 0.247688 0.172977
O O11 0.337397 0.395902 0.841368
O O12 0.345970 0.428408 0.552656
O O13 0.367195 0.280686 0.373628
O O14 0.326678 0.291054 0.083871
#
# Coordination Sequence:
#
# PCOD9340980 Si02
#       7
#     4   4   4   4   4   4   4
#     4  11  23  43  70 102 142 182 235 281 346 415
#     4  12  27  46  69  99 138 179 233 286 342 414
#     4  11  26  45  68  98 141 181 231 280 347 412
#     4  11  24  45  69 104 140 187 230 287 346 416
#     4  11  26  43  72  98 135 181 226 282 350 404
#     4  10  22  43  68 102 136 180 225 283 343 408
#     4  10  22  43  68 101 138 170 232 283 340 411
#
# _framework density 22.920209
#
# number of rings (size 3 to 8) (size 9 to 14) (size 15 to 20)
#    0.000    1.143    1.429    3.429    6.000    4.571 
#    7.714    0.000    0.000    0.000    0.000    0.000 
#    0.000    0.000    0.000    0.000    0.000    0.000 
#
# Total GULP energy -156835.028078 kJ/mol
# GULP energy per Si atom -5601.251003 kJ/mol
# Density = 2.286804 g / cm^3
# Si number density = 22.920209 Si / 1000 Ang^3
#
#
#
# Elastic Constant Matrix: (Units=GPa)
#
#
# Indices 1 2 3 4 5 6 
#
# 1 62.2014 32.5234 19.3729 0.0000 0.0000 0.0000
# 2 32.5234 65.7406 -16.5681 0.0000 0.0000 0.0000
# 3 19.3729 -16.5681 60.9927 0.0000 0.0000 0.0000
# 4 0.0000 0.0000 0.0000 40.2586 0.0000 0.0000
# 5 0.0000 0.0000 0.0000 0.0000 12.7781 0.0000
# 6 0.0000 0.0000 0.0000 0.0000 0.0000 31.0786
#
#
#
# Elastic Compliance Matrix: (Units=1/GPa)
#
#
# Indices 1 2 3 4 5 6 
#
# 1 0.030550 -0.018850 -0.014824 0.000000 0.000000 0.000000
# 2 -0.018850 0.027960 0.013582 0.000000 0.000000 0.000000
# 3 -0.014824 0.013582 0.024793 0.000000 0.000000 0.000000
# 4 0.000000 0.000000 0.000000 0.024839 0.000000 0.000000
# 5 0.000000 0.000000 0.000000 0.000000 0.078259 0.000000
# 6 0.000000 0.000000 0.000000 0.000000 0.000000 0.032176
#
#
# Mechanical properties :
#
#
# Convention : Reuss Voigt Hill
#
# Bulk Modulus (GPa) = 23.19098 28.84347 26.01723
# Shear Modulus (GPa) = 18.30612 27.06349 22.68481
#
# Velocity S-wave (km/s) = 2.82917 3.43996 3.14941
# Velocity P-wave (km/s) = 4.56206 5.32817 4.95993
#
# Compressibility (1/GPa) = 0.04312021
#
# Stress axis : x y z
#
# Youngs Moduli (GPa) = 32.73365 35.76590 40.33357
#
# Poissons Ratio (x) = 0.67417 0.59789
# Poissons Ratio (y) = 0.61701 -0.54781
# Poissons Ratio (z) = 0.48523 -0.48577
#
# Static dielectric constant tensor:
#      x y z
#    x 1.842990 0.000000 0.000000 
#    y 0.000000 1.829330 0.000000 
#    z 0.000000 0.000000 1.858930 
# 
# From -- ./inp_files/1190.got.cif
#   From: 2010.05.17/outbox.cif.g08.bks.cpg/sg29_1_cif.got.tgz:1190.got - 2010.06.04 01:19:37.
