data_PCOD9340441
_publ_section_title
;
Structure prediction by ZEFSAII (Michael W. Deem and Ramdas Pophale) SiO2 
 PCOD9340441
Probable space group: P C A 21
;
_chemical_formula_sum "Si O2"
_cell_formula_units_Z 32
_cell_length_a 13.876649
_cell_length_b 11.908619
_cell_length_c 9.152234
_cell_angle_alpha 90.000000
_cell_angle_beta 90.000000
_cell_angle_gamma 90.000000
_cell_volume 1512.422465
_symmetry_space_group_name_H-M "P C A 21"
_symmetry_group_IT_number 29
_symmetry_cell_setting 'orthorhombic'
loop_
_space_group_symop_operation_xyz
x,y,z
-x,-y,1/2+z
1/2-x,y,1/2+z
1/2+x,-y,z
loop_
_atom_site_type_symbol
_atom_site_label
_atom_site_fract_x
_atom_site_fract_y
_atom_site_fract_z
Si Si1 0.378817 0.964339 0.903210
Si Si2 0.968277 0.603289 0.955021
Si Si3 0.475336 0.738641 0.009858
Si Si4 0.716869 0.101839 0.683189
Si Si5 0.786205 0.490917 0.791153
Si Si6 0.732529 0.338571 0.547650
Si Si7 0.416575 0.421617 0.292162
Si Si8 0.512841 0.167322 0.813409
O O1 0.428343 0.843115 0.925198
O O2 0.298799 0.953313 0.779088
O O3 0.456592 0.057387 0.864065
O O4 0.325964 0.979925 0.059095
O O5 0.874241 0.553412 0.869524
O O6 0.051419 0.534206 0.874706
O O7 0.990652 0.733012 0.924903
O O8 0.958092 0.584709 0.128247
O O9 0.541542 0.673319 0.898079
O O10 0.385058 0.661992 0.066017
O O11 0.523857 0.787191 0.155356
O O12 0.757341 0.213204 0.599295
O O13 0.625453 0.140188 0.782305
O O14 0.791709 0.434584 0.632255
O O15 0.698028 0.576454 0.784220
O O16 0.759742 0.377474 0.881476
#
# Coordination Sequence:
#
# PCOD9340441 Si02
#       8
#     4   4   4   4   4   4   4   4
#     4  10  23  45  70  99 130 172 227 284 332 403
#     4  12  27  43  64 101 136 182 220 274 346 401
#     4  10  23  44  69  99 132 177 230 279 338 400
#     4  10  23  43  71 102 126 177 231 277 339 392
#     4  12  23  40  61  97 135 175 214 268 337 402
#     4  10  20  40  64  93 132 165 221 272 320 398
#     4  12  25  42  67  98 137 177 226 275 337 406
#     4  10  24  47  66  95 142 175 223 285 337 410
#
# _framework density 21.158110000000001
#
# number of rings (size 3 to 8) (size 9 to 14) (size 15 to 20)
#    0.000    1.500    2.500    3.750    3.500    5.000 
#    6.750    0.000    0.000    0.000    0.000    0.000 
#    0.000    0.000    0.000    0.000    0.000    0.000 
#
# Total GULP energy -178711.473134 kJ/mol
# GULP energy per Si atom -5584.733535 kJ/mol
# Density = 2.110995 g / cm^3
# Si number density = 21.158110 Si / 1000 Ang^3
#
#
#
# Elastic Constant Matrix: (Units=GPa)
#
#
# Indices 1 2 3 4 5 6 
#
# 1 43.0473 15.5278 6.7198 0.0000 0.0000 0.0000
# 2 15.5278 65.2003 1.6025 0.0000 0.0000 0.0000
# 3 6.7198 1.6025 54.1636 0.0000 0.0000 0.0000
# 4 0.0000 0.0000 0.0000 38.9055 0.0000 0.0000
# 5 0.0000 0.0000 0.0000 0.0000 28.0117 0.0000
# 6 0.0000 0.0000 0.0000 0.0000 0.0000 14.8579
#
#
#
# Elastic Compliance Matrix: (Units=1/GPa)
#
#
# Indices 1 2 3 4 5 6 
#
# 1 0.025902 -0.006094 -0.003033 0.000000 0.000000 0.000000
# 2 -0.006094 0.016782 0.000260 0.000000 0.000000 0.000000
# 3 -0.003033 0.000260 0.018831 0.000000 0.000000 0.000000
# 4 0.000000 0.000000 0.000000 0.025703 0.000000 0.000000
# 5 0.000000 0.000000 0.000000 0.000000 0.035699 0.000000
# 6 0.000000 0.000000 0.000000 0.000000 0.000000 0.067304
#
#
# Mechanical properties :
#
#
# Convention : Reuss Voigt Hill
#
# Bulk Modulus (GPa) = 22.84153 23.34570 23.09362
# Shear Modulus (GPa) = 22.46672 25.59244 24.02958
#
# Velocity S-wave (km/s) = 3.26214 3.48168 3.37369
# Velocity P-wave (km/s) = 5.00078 5.21734 5.11021
#
# Compressibility (1/GPa) = 0.04377990
#
# Stress axis : x y z
#
# Youngs Moduli (GPa) = 38.60707 59.58647 53.10330
#
# Poissons Ratio (x) = 0.36313 0.16107
# Poissons Ratio (y) = 0.23528 -0.01378
# Poissons Ratio (z) = 0.11710 -0.01547
#
# Static dielectric constant tensor:
#      x y z
#    x 1.170380 0.000000 0.000000 
#    y 0.000000 1.790380 0.000000 
#    z 0.000000 0.000000 1.774440 
# 
# From -- ./inp_files/1860.got.cif
#   From: 2010.05.17/outbox.cif.g08.bks.cpg/sg29_1_cif.got.tgz:1860.got - 2010.06.04 01:19:37.
