data_PCOD9340202
_publ_section_title
;
Structure prediction by ZEFSAII (Michael W. Deem and Ramdas Pophale) SiO2 
 PCOD9340202
Probable space group: P C A 21
;
_chemical_formula_sum "Si O2"
_cell_formula_units_Z 32
_cell_length_a 12.284538
_cell_length_b 8.314587
_cell_length_c 14.888240
_cell_angle_alpha 90.000000
_cell_angle_beta 90.000000
_cell_angle_gamma 90.000000
_cell_volume 1520.697637
_symmetry_space_group_name_H-M "P C A 21"
_symmetry_group_IT_number 29
_symmetry_cell_setting 'orthorhombic'
loop_
_space_group_symop_operation_xyz
x,y,z
-x,-y,1/2+z
1/2-x,y,1/2+z
1/2+x,-y,z
loop_
_atom_site_type_symbol
_atom_site_label
_atom_site_fract_x
_atom_site_fract_y
_atom_site_fract_z
Si Si1 0.188364 0.022718 0.519600
Si Si2 0.492764 0.645992 0.285923
Si Si3 0.311636 0.477282 0.393623
Si Si4 0.669036 0.072091 0.173646
Si Si5 0.330963 0.572091 0.739577
Si Si6 0.285584 0.157011 0.829530
Si Si7 0.714416 0.657011 0.083693
Si Si8 0.507236 0.145992 0.627301
O O1 0.203612 0.038361 0.413869
O O2 0.196708 0.207362 0.557483
O O3 0.286879 0.939858 0.572770
O O4 0.084635 0.919991 0.550221
O O5 0.415365 0.580008 0.363003
O O6 0.545939 0.490312 0.239553
O O7 0.597702 0.750079 0.318605
O O8 0.437486 0.750000 0.206612
O O9 0.213121 0.560142 0.340453
O O10 0.303292 0.292637 0.355740
O O11 0.296388 0.461638 0.499355
O O12 0.679047 0.250000 0.206611
O O13 0.731422 0.945443 0.239119
O O14 0.545939 0.009689 0.173670
O O15 0.268577 0.445443 0.674104
O O16 0.597702 0.749921 0.094619
#
# Coordination Sequence:
#
# PCOD9340202 Si02
#       8
#     4   4   4   4   4   4   4   4
#     4  10  19  37  60  78 109 153 183 222 283 328
#     4   9  19  37  57  81 112 145 186 231 275 325
#     4  10  19  37  60  78 109 153 183 222 283 328
#     4  10  21  36  55  84 116 144 184 231 271 326
#     4  10  21  36  55  84 116 144 184 231 271 326
#     4   9  21  38  56  83 114 142 185 234 270 326
#     4   9  21  38  56  83 114 142 185 234 270 326
#     4   9  19  37  57  81 112 145 186 231 275 325
#
# _framework density 21.042973
#
# number of rings (size 3 to 8) (size 9 to 14) (size 15 to 20)
#    0.000    2.500    0.000    3.000    0.000    5.000 
#    0.000   20.000    0.000    0.000    0.000    0.000 
#    0.000    0.000    0.000    0.000    0.000    0.000 
#
# Total GULP energy -178373.150391 kJ/mol
# GULP energy per Si atom -5574.160950 kJ/mol
# Density = 2.099508 g / cm^3
# Si number density = 21.042973 Si / 1000 Ang^3
#
#
#
# Elastic Constant Matrix: (Units=GPa)
#
#
# Indices 1 2 3 4 5 6 
#
# 1 41.9893 22.3300 13.2866 0.0000 0.0000 0.0000
# 2 22.3300 68.7332 12.6651 0.0000 0.0000 0.0000
# 3 13.2866 12.6651 107.5590 0.0000 0.0000 0.0000
# 4 0.0000 0.0000 0.0000 41.9186 0.0000 0.0000
# 5 0.0000 0.0000 0.0000 0.0000 18.9310 0.0000
# 6 0.0000 0.0000 0.0000 0.0000 0.0000 19.9155
#
#
#
# Elastic Compliance Matrix: (Units=1/GPa)
#
#
# Indices 1 2 3 4 5 6 
#
# 1 0.029468 -0.009100 -0.002569 0.000000 0.000000 0.000000
# 2 -0.009100 0.017682 -0.000958 0.000000 0.000000 0.000000
# 3 -0.002569 -0.000958 0.009727 0.000000 0.000000 0.000000
# 4 0.000000 0.000000 0.000000 0.023856 0.000000 0.000000
# 5 0.000000 0.000000 0.000000 0.000000 0.052823 0.000000
# 6 0.000000 0.000000 0.000000 0.000000 0.000000 0.050212
#
#
# Mechanical properties :
#
#
# Convention : Reuss Voigt Hill
#
# Bulk Modulus (GPa) = 31.62177 34.98276 33.30227
# Shear Modulus (GPa) = 22.77250 27.48634 25.12942
#
# Velocity S-wave (km/s) = 3.29323 3.61806 3.45946
# Velocity P-wave (km/s) = 5.43327 5.84075 5.64069
#
# Compressibility (1/GPa) = 0.03162378
#
# Stress axis : x y z
#
# Youngs Moduli (GPa) = 33.93530 56.55473 102.80337
#
# Poissons Ratio (x) = 0.51466 0.26406
# Poissons Ratio (y) = 0.30882 0.09848
# Poissons Ratio (z) = 0.08716 0.05418
#
# Static dielectric constant tensor:
#      x y z
#    x 1.782990 0.000000 0.000000 
#    y 0.000000 1.798450 0.000000 
#    z 0.000000 0.000000 1.748070 
# 
# From -- ./inp_files/4695.got.cif
#   From: 2010.05.17/outbox.cif.g08.bks.cpg/sg29_3_cif.got.tgz:4695.got - 2010.06.04 01:19:37.
