data_PCOD9340298
_publ_section_title
;
Structure prediction by ZEFSAII (Michael W. Deem and Ramdas Pophale) SiO2 
 PCOD9340298
Probable space group: P C A 21
;
_chemical_formula_sum "Si O2"
_cell_formula_units_Z 20
_cell_length_a 17.595644
_cell_length_b 10.575961
_cell_length_c 4.937651
_cell_angle_alpha 90.000000
_cell_angle_beta 90.000000
_cell_angle_gamma 90.000000
_cell_volume 918.851645
_symmetry_space_group_name_H-M "P C A 21"
_symmetry_group_IT_number 29
_symmetry_cell_setting 'orthorhombic'
loop_
_space_group_symop_operation_xyz
x,y,z
-x,-y,1/2+z
1/2-x,y,1/2+z
1/2+x,-y,z
loop_
_atom_site_type_symbol
_atom_site_label
_atom_site_fract_x
_atom_site_fract_y
_atom_site_fract_z
Si Si1 0.401337 0.977203 0.112380
Si Si2 0.460691 0.558063 0.557020
Si Si3 0.794046 0.825927 0.396493
Si Si4 0.949859 0.154194 0.607985
Si Si5 0.197067 0.463627 0.827201
O O1 0.418770 0.859275 0.306316
O O2 0.338657 0.059835 0.262608
O O3 0.473302 0.071850 0.112907
O O4 0.393871 0.916775 0.817063
O O5 0.519623 0.531970 0.311446
O O6 0.465495 0.700646 0.667259
O O7 0.377424 0.535299 0.428822
O O8 0.783763 0.830928 0.718872
O O9 0.824455 0.685697 0.335669
O O10 0.232692 0.487698 0.533160
#
# Coordination Sequence:
#
# PCOD9340298 Si02
#       5
#     4   4   4   4   4
#     4  10  20  38  57  82 117 147 187 243 292 344
#     4  12  24  40  64  92 120 159 212 255 299 368
#     4  10  20  35  58  84 111 150 196 236 285 349
#     4  10  22  37  59  85 114 151 190 239 299 345
#     4  10  22  40  60  87 124 161 199 253 313 362
#
# _framework density 21.766300000000001
#
# number of rings (size 3 to 8) (size 9 to 14) (size 15 to 20)
#    0.000    1.600    0.000    4.800    0.000    6.400 
#    0.000    6.000    0.000    0.000    0.000    0.000 
#    0.000    0.000    0.000    0.000    0.000    0.000 
#
# Total GULP energy -111623.840225 kJ/mol
# GULP energy per Si atom -5581.192011 kJ/mol
# Density = 2.171676 g / cm^3
# Si number density = 21.766300 Si / 1000 Ang^3
#
#
#
# Elastic Constant Matrix: (Units=GPa)
#
#
# Indices 1 2 3 4 5 6 
#
# 1 28.7661 12.6511 0.1117 0.0000 0.0000 0.0000
# 2 12.6511 94.4564 24.4511 0.0000 0.0000 0.0000
# 3 0.1117 24.4511 82.9541 0.0000 0.0000 0.0000
# 4 0.0000 0.0000 0.0000 30.8243 0.0000 0.0000
# 5 0.0000 0.0000 0.0000 0.0000 18.2264 0.0000
# 6 0.0000 0.0000 0.0000 0.0000 0.0000 16.1749
#
#
#
# Elastic Compliance Matrix: (Units=1/GPa)
#
#
# Indices 1 2 3 4 5 6 
#
# 1 0.037118 -0.005368 0.001532 0.000000 0.000000 0.000000
# 2 -0.005368 0.012238 -0.003600 0.000000 0.000000 0.000000
# 3 0.001532 -0.003600 0.013114 0.000000 0.000000 0.000000
# 4 0.000000 0.000000 0.000000 0.032442 0.000000 0.000000
# 5 0.000000 0.000000 0.000000 0.000000 0.054866 0.000000
# 6 0.000000 0.000000 0.000000 0.000000 0.000000 0.061824
#
#
# Mechanical properties :
#
#
# Convention : Reuss Voigt Hill
#
# Bulk Modulus (GPa) = 21.00919 31.17828 26.09374
# Shear Modulus (GPa) = 20.63228 24.30931 22.47079
#
# Velocity S-wave (km/s) = 3.08214 3.34553 3.21653
# Velocity P-wave (km/s) = 4.72644 5.41097 5.08025
#
# Compressibility (1/GPa) = 0.04759822
#
# Stress axis : x y z
#
# Youngs Moduli (GPa) = 26.94111 81.71433 76.25509
#
# Poissons Ratio (x) = 0.43865 -0.11685
# Poissons Ratio (y) = 0.14462 0.27451
# Poissons Ratio (z) = -0.04128 0.29416
#
# Static dielectric constant tensor:
#      x y z
#    x 1.836060 0.000000 0.000000 
#    y 0.000000 1.755790 0.000000 
#    z 0.000000 0.000000 1.775480 
# 
# From -- ./inp_files/326.got.cif
#   From: 2010.05.17/outbox.cif.g08.bks.cpg/sg29_1_cif.got.tgz:326.got - 2010.06.04 01:19:37.
