data_PCOD9340365
_publ_section_title
;
Structure prediction by ZEFSAII (Michael W. Deem and Ramdas Pophale) SiO2 
 PCOD9340365
Probable space group: P C A 21
;
_chemical_formula_sum "Si O2"
_cell_formula_units_Z 32
_cell_length_a 10.175613
_cell_length_b 10.202237
_cell_length_c 13.713959
_cell_angle_alpha 90.000000
_cell_angle_beta 90.000000
_cell_angle_gamma 90.000000
_cell_volume 1423.701151
_symmetry_space_group_name_H-M "P C A 21"
_symmetry_group_IT_number 29
_symmetry_cell_setting 'orthorhombic'
loop_
_space_group_symop_operation_xyz
x,y,z
-x,-y,1/2+z
1/2-x,y,1/2+z
1/2+x,-y,z
loop_
_atom_site_type_symbol
_atom_site_label
_atom_site_fract_x
_atom_site_fract_y
_atom_site_fract_z
Si Si1 0.896295 0.110640 0.370270
Si Si2 0.534845 0.179524 0.652994
Si Si3 0.768907 0.850822 0.600995
Si Si4 0.337284 0.360337 0.235353
Si Si5 0.002061 0.606641 0.941087
Si Si6 0.561790 0.536785 0.218155
Si Si7 0.876888 0.052824 0.968687
Si Si8 0.203323 0.386876 0.965827
O O1 0.899785 0.131375 0.253510
O O2 0.947398 0.245372 0.422697
O O3 0.747272 0.083029 0.401061
O O4 0.995815 0.997063 0.409007
O O5 0.402985 0.089511 0.642425
O O6 0.496175 0.330222 0.673069
O O7 0.604221 0.166908 0.548763
O O8 0.698179 0.778095 0.689300
O O9 0.825570 0.741758 0.527061
O O10 0.670901 0.937062 0.540182
O O11 0.476250 0.409866 0.195459
O O12 0.321990 0.354860 0.351976
O O13 0.218411 0.459494 0.204564
O O14 0.970076 0.553651 0.832722
O O15 0.112271 0.512348 0.987139
O O16 0.858044 0.594505 0.987693
#
# Coordination Sequence:
#
# PCOD9340365 Si02
#       8
#     4   4   4   4   4   4   4   4
#     4  11  25  45  71  91 137 172 221 285 333 386
#     4  10  24  45  66  94 132 169 223 281 324 395
#     4  11  23  38  64  93 125 170 217 265 320 398
#     4   9  19  36  58  88 124 165 203 260 325 384
#     4   9  19  38  61  93 124 170 209 264 326 391
#     4   8  17  37  60  86 125 163 206 260 322 387
#     4  12  25  44  65  98 124 175 228 268 332 400
#     4  10  20  37  63  89 129 164 211 263 328 391
#
# _framework density 22.476628999999999
#
# number of rings (size 3 to 8) (size 9 to 14) (size 15 to 20)
#    0.000    2.000    2.500    0.750    1.750    4.000 
#    2.250    1.250    0.000    0.000    0.000    0.000 
#    0.000    0.000    0.000    0.000    0.000    0.000 
#
# Total GULP energy -178617.631456 kJ/mol
# GULP energy per Si atom -5581.800983 kJ/mol
# Density = 2.242547 g / cm^3
# Si number density = 22.476629 Si / 1000 Ang^3
#
#
#
# Elastic Constant Matrix: (Units=GPa)
#
#
# Indices 1 2 3 4 5 6 
#
# 1 71.4638 9.4696 15.6643 0.0000 0.0000 0.0000
# 2 9.4696 19.1017 0.1535 0.0000 0.0000 0.0000
# 3 15.6643 0.1535 71.3412 0.0000 0.0000 0.0000
# 4 0.0000 0.0000 0.0000 28.3597 0.0000 0.0000
# 5 0.0000 0.0000 0.0000 0.0000 38.2925 0.0000
# 6 0.0000 0.0000 0.0000 0.0000 0.0000 32.9149
#
#
#
# Elastic Compliance Matrix: (Units=1/GPa)
#
#
# Indices 1 2 3 4 5 6 
#
# 1 0.015782 -0.007796 -0.003448 0.000000 0.000000 0.000000
# 2 -0.007796 0.056204 0.001591 0.000000 0.000000 0.000000
# 3 -0.003448 0.001591 0.014771 0.000000 0.000000 0.000000
# 4 0.000000 0.000000 0.000000 0.035261 0.000000 0.000000
# 5 0.000000 0.000000 0.000000 0.000000 0.026115 0.000000
# 6 0.000000 0.000000 0.000000 0.000000 0.000000 0.030381
#
#
# Mechanical properties :
#
#
# Convention : Reuss Voigt Hill
#
# Bulk Modulus (GPa) = 14.82603 23.60904 19.21753
# Shear Modulus (GPa) = 22.69586 29.02139 25.85863
#
# Velocity S-wave (km/s) = 3.18111 3.59720 3.39553
# Velocity P-wave (km/s) = 4.48365 5.27065 4.89300
#
# Compressibility (1/GPa) = 0.06744896
#
# Stress axis : x y z
#
# Youngs Moduli (GPa) = 63.36314 17.79245 67.70069
#
# Poissons Ratio (x) = 0.13871 0.23346
# Poissons Ratio (y) = 0.49399 -0.10770
# Poissons Ratio (z) = 0.21851 -0.02831
#
# Static dielectric constant tensor:
#      x y z
#    x 1.924280 0.000000 0.000000 
#    y 0.000000 1.855020 0.000000 
#    z 0.000000 0.000000 1.867820 
# 
# From -- ./inp_files/4325.got.cif
#   From: 2010.05.17/outbox.cif.g08.bks.cpg/sg29_3_cif.got.tgz:4325.got - 2010.06.04 01:19:37.
