data_PCOD9340874
_publ_section_title
;
Structure prediction by ZEFSAII (Michael W. Deem and Ramdas Pophale) SiO2 
 PCOD9340874
Probable space group: P C A 21
;
_chemical_formula_sum "Si O2"
_cell_formula_units_Z 32
_cell_length_a 4.865111
_cell_length_b 24.473497
_cell_length_c 10.365221
_cell_angle_alpha 90.000000
_cell_angle_beta 90.000000
_cell_angle_gamma 90.000000
_cell_volume 1234.148300
_symmetry_space_group_name_H-M "P C A 21"
_symmetry_group_IT_number 29
_symmetry_cell_setting 'orthorhombic'
loop_
_space_group_symop_operation_xyz
x,y,z
-x,-y,1/2+z
1/2-x,y,1/2+z
1/2+x,-y,z
loop_
_atom_site_type_symbol
_atom_site_label
_atom_site_fract_x
_atom_site_fract_y
_atom_site_fract_z
Si Si1 0.045751 0.119265 0.647440
Si Si2 0.617824 0.672628 0.386834
Si Si3 0.230820 0.228569 0.561547
Si Si4 0.070639 0.536307 0.687760
Si Si5 0.078250 0.034385 0.461882
Si Si6 0.658231 0.397912 0.425009
Si Si7 0.775785 0.250476 0.228079
Si Si8 0.050034 0.859393 0.812952
O O1 0.130648 0.166409 0.543147
O O2 0.732191 0.123051 0.687733
O O3 0.105952 0.057500 0.607632
O O4 0.234180 0.139757 0.766082
O O5 0.386902 0.644722 0.476492
O O6 0.722932 0.728614 0.447528
O O7 0.422493 0.693432 0.270069
O O8 0.879523 0.632548 0.378735
O O9 0.031332 0.252414 0.674881
O O10 0.539101 0.229382 0.610737
O O11 0.254835 0.481538 0.699436
O O12 0.184227 0.573125 0.805244
O O13 0.102379 0.562307 0.545632
O O14 0.932447 0.087441 0.401767
O O15 0.384007 0.016240 0.430590
O O16 0.822649 0.201549 0.331937
#
# Coordination Sequence:
#
# PCOD9340874 Si02
#       8
#     4   4   4   4   4   4   4   4
#     4  10  22  41  62  87 120 166 220 265 328 412
#     4  12  25  41  66 104 146 173 222 284 352 409
#     4  10  22  40  65  91 130 179 218 268 337 422
#     4  12  26  52  76 104 144 192 250 286 346 408
#     4  12  25  38  59  88 119 159 210 280 344 398
#     4  12  28  43  77 110 143 192 230 306 344 411
#     4  10  22  40  65  91 130 179 218 268 337 422
#     4  10  22  41  62  87 120 166 220 265 328 412
#
# _framework density 25.928813999999999
#
# number of rings (size 3 to 8) (size 9 to 14) (size 15 to 20)
#    0.000    1.000    0.000    6.000    5.250    3.000 
#    0.000   10.000    0.000    0.000    0.000    0.000 
#    0.000    0.000    0.000    0.000    0.000    0.000 
#
# Total GULP energy -178789.842397 kJ/mol
# GULP energy per Si atom -5587.182575 kJ/mol
# Density = 2.586980 g / cm^3
# Si number density = 25.928814 Si / 1000 Ang^3
#
#
#
# Elastic Constant Matrix: (Units=GPa)
#
#
# Indices 1 2 3 4 5 6 
#
# 1 111.0259 14.7749 11.7754 0.0000 0.0000 0.0000
# 2 14.7749 93.2581 32.1634 0.0000 0.0000 0.0000
# 3 11.7754 32.1634 66.1330 0.0000 0.0000 0.0000
# 4 0.0000 0.0000 0.0000 28.1317 0.0000 0.0000
# 5 0.0000 0.0000 0.0000 0.0000 19.7006 0.0000
# 6 0.0000 0.0000 0.0000 0.0000 0.0000 51.4582
#
#
#
# Elastic Compliance Matrix: (Units=1/GPa)
#
#
# Indices 1 2 3 4 5 6 
#
# 1 0.009270 -0.001081 -0.001125 0.000000 0.000000 0.000000
# 2 -0.001081 0.013010 -0.006135 0.000000 0.000000 0.000000
# 3 -0.001125 -0.006135 0.018305 0.000000 0.000000 0.000000
# 4 0.000000 0.000000 0.000000 0.035547 0.000000 0.000000
# 5 0.000000 0.000000 0.000000 0.000000 0.050760 0.000000
# 6 0.000000 0.000000 0.000000 0.000000 0.000000 0.019433
#
#
# Mechanical properties :
#
#
# Convention : Reuss Voigt Hill
#
# Bulk Modulus (GPa) = 41.83421 43.09384 42.46403
# Shear Modulus (GPa) = 29.24415 33.97166 31.60790
#
# Velocity S-wave (km/s) = 3.36201 3.62358 3.49524
# Velocity P-wave (km/s) = 5.58928 5.84493 5.71854
#
# Compressibility (1/GPa) = 0.02390388
#
# Stress axis : x y z
#
# Youngs Moduli (GPa) = 107.87448 76.86406 54.62971
#
# Poissons Ratio (x) = 0.08306 0.06146
# Poissons Ratio (y) = 0.11657 0.33515
# Poissons Ratio (z) = 0.12136 0.47155
#
# Static dielectric constant tensor:
#      x y z
#    x 1.922920 0.000000 0.000000 
#    y 0.000000 2.106230 0.000000 
#    z 0.000000 0.000000 2.291260 
# 
# From -- ./inp_files/2717.got.cif
#   From: 2010.05.17/outbox.cif.g08.bks.cpg/sg29_2_cif.got.tgz:2717.got - 2010.06.04 01:19:37.
