data_PCOD9340333
_publ_section_title
;
Structure prediction by ZEFSAII (Michael W. Deem and Ramdas Pophale) SiO2 
 PCOD9340333
Probable space group: P C A 21
;
_chemical_formula_sum "Si O2"
_cell_formula_units_Z 24
_cell_length_a 8.232777
_cell_length_b 8.934919
_cell_length_c 13.658939
_cell_angle_alpha 90.000000
_cell_angle_beta 90.000000
_cell_angle_gamma 90.000000
_cell_volume 1004.740566
_symmetry_space_group_name_H-M "P C A 21"
_symmetry_group_IT_number 29
_symmetry_cell_setting 'orthorhombic'
loop_
_space_group_symop_operation_xyz
x,y,z
-x,-y,1/2+z
1/2-x,y,1/2+z
1/2+x,-y,z
loop_
_atom_site_type_symbol
_atom_site_label
_atom_site_fract_x
_atom_site_fract_y
_atom_site_fract_z
Si Si1 0.006420 0.540743 0.769390
Si Si2 0.413847 0.491637 0.546529
Si Si3 0.804884 0.175623 0.234030
Si Si4 0.781352 0.681621 0.388517
Si Si5 0.993784 0.071497 0.843581
Si Si6 0.810780 0.247528 0.013927
O O1 0.933938 0.503024 0.663161
O O2 0.876053 0.629521 0.832552
O O3 0.158686 0.651978 0.757442
O O4 0.073649 0.402918 0.830144
O O5 0.281374 0.376132 0.499778
O O6 0.360990 0.658438 0.508628
O O7 0.568778 0.390621 0.516099
O O8 0.621022 0.130397 0.256567
O O9 0.827778 0.164541 0.117642
O O10 0.934815 0.083079 0.299454
O O11 0.835316 0.850293 0.373651
O O12 0.876128 0.129423 0.933495
#
# Coordination Sequence:
#
# PCOD9340333 Si02
#       6
#     4   4   4   4   4   4
#     4  11  21  37  62  91 123 162 210 268 321 376
#     4  10  20  36  60  94 122 156 210 266 318 370
#     4  11  24  42  61  89 129 173 216 261 320 388
#     4  11  21  37  62  91 123 162 210 268 321 376
#     4  11  24  42  61  89 129 173 216 261 320 388
#     4  10  22  40  66  96 130 168 216 272 328 386
#
# _framework density 23.886763999999999
#
# number of rings (size 3 to 8) (size 9 to 14) (size 15 to 20)
#    0.000    1.333    0.000    8.000    0.000    1.333 
#    0.000    6.667    0.000    0.000    0.000    0.000 
#    0.000    0.000    0.000    0.000    0.000    0.000 
#
# Total GULP energy -133670.959153 kJ/mol
# GULP energy per Si atom -5569.623298 kJ/mol
# Density = 2.383240 g / cm^3
# Si number density = 23.886764 Si / 1000 Ang^3
#
#
#
# Elastic Constant Matrix: (Units=GPa)
#
#
# Indices 1 2 3 4 5 6 
#
# 1 84.5457 31.1245 15.9985 0.0000 0.0000 0.0000
# 2 31.1245 109.1761 51.6019 0.0000 0.0000 0.0000
# 3 15.9985 51.6019 101.3656 0.0000 0.0000 0.0000
# 4 0.0000 0.0000 0.0000 36.1875 0.0000 0.0000
# 5 0.0000 0.0000 0.0000 0.0000 19.7203 0.0000
# 6 0.0000 0.0000 0.0000 0.0000 0.0000 35.9893
#
#
#
# Elastic Compliance Matrix: (Units=1/GPa)
#
#
# Indices 1 2 3 4 5 6 
#
# 1 0.013219 -0.003664 -0.000221 0.000000 0.000000 0.000000
# 2 -0.003664 0.013077 -0.006079 0.000000 0.000000 0.000000
# 3 -0.000221 -0.006079 0.012995 0.000000 0.000000 0.000000
# 4 0.000000 0.000000 0.000000 0.027634 0.000000 0.000000
# 5 0.000000 0.000000 0.000000 0.000000 0.050709 0.000000
# 6 0.000000 0.000000 0.000000 0.000000 0.000000 0.027786
#
#
# Mechanical properties :
#
#
# Convention : Reuss Voigt Hill
#
# Bulk Modulus (GPa) = 51.64569 54.72634 53.18601
# Shear Modulus (GPa) = 29.10330 31.47024 30.28677
#
# Velocity S-wave (km/s) = 3.49433 3.63364 3.56467
# Velocity P-wave (km/s) = 6.16023 6.36906 6.26552
#
# Compressibility (1/GPa) = 0.01936270
#
# Stress axis : x y z
#
# Youngs Moduli (GPa) = 75.65107 76.46879 76.95415
#
# Poissons Ratio (x) = 0.28018 0.01701
# Poissons Ratio (y) = 0.27718 0.46780
# Poissons Ratio (z) = 0.01673 0.46485
#
# Static dielectric constant tensor:
#      x y z
#    x 2.084750 0.000000 0.000000 
#    y 0.000000 1.956710 0.000000 
#    z 0.000000 0.000000 1.931620 
# 
# From -- ./inp_files/4212.got.cif
#   From: 2010.05.17/outbox.cif.g08.bks.cpg/sg29_3_cif.got.tgz:4212.got - 2010.06.04 01:19:37.
