data_PCOD9340102
_publ_section_title
;
Structure prediction by ZEFSAII (Michael W. Deem and Ramdas Pophale) SiO2 
 PCOD9340102
Probable space group: P C A 21
;
_chemical_formula_sum "Si O2"
_cell_formula_units_Z 24
_cell_length_a 18.121893
_cell_length_b 12.996522
_cell_length_c 5.314778
_cell_angle_alpha 90.000000
_cell_angle_beta 90.000000
_cell_angle_gamma 90.000000
_cell_volume 1251.744918
_symmetry_space_group_name_H-M "P C A 21"
_symmetry_group_IT_number 29
_symmetry_cell_setting 'orthorhombic'
loop_
_space_group_symop_operation_xyz
x,y,z
-x,-y,1/2+z
1/2-x,y,1/2+z
1/2+x,-y,z
loop_
_atom_site_type_symbol
_atom_site_label
_atom_site_fract_x
_atom_site_fract_y
_atom_site_fract_z
Si Si1 0.332207 0.331362 0.495610
Si Si2 0.578322 0.928857 0.355348
Si Si3 0.491593 0.862928 0.856073
Si Si4 0.596733 0.476703 0.867722
Si Si5 0.952482 0.375040 0.867902
Si Si6 0.332967 0.246282 0.993153
O O1 0.333389 0.449443 0.414210
O O2 0.367341 0.268862 0.264720
O O3 0.250747 0.283879 0.526480
O O4 0.368175 0.314585 0.769079
O O5 0.527236 0.884079 0.581377
O O6 0.655159 0.870220 0.406002
O O7 0.573761 0.051524 0.374152
O O8 0.546195 0.894304 0.085536
O O9 0.466166 0.746205 0.888052
O O10 0.593530 0.418192 0.604626
O O11 0.528807 0.559171 0.873633
O O12 0.584950 0.402061 0.102618
#
# Coordination Sequence:
#
# PCOD9340102 Si02
#       6
#     4   4   4   4   4   4
#     4  10  20  32  49  75  99 127 166 213 253 290
#     4  10  19  32  51  74 103 134 166 208 254 309
#     4  10  20  32  49  75 105 135 165 201 257 313
#     4  10  19  30  46  69  99 132 165 200 243 299
#     4  10  19  30  46  69 100 135 162 195 250 305
#     4  10  19  32  51  74  98 127 164 211 257 290
#
# _framework density 19.173235999999999
#
# number of rings (size 3 to 8) (size 9 to 14) (size 15 to 20)
#    0.000    2.000    0.000    5.000    0.000    2.667 
#    0.000    0.000    0.000    0.000    0.000   28.000 
#    0.000    0.000    0.000    0.000    0.000    0.000 
#
# Total GULP energy -133771.166278 kJ/mol
# GULP energy per Si atom -5573.798595 kJ/mol
# Density = 1.912960 g / cm^3
# Si number density = 19.173236 Si / 1000 Ang^3
#
#
#
# Elastic Constant Matrix: (Units=GPa)
#
#
# Indices 1 2 3 4 5 6 
#
# 1 35.4039 19.9111 -3.1303 0.0000 0.0000 0.0000
# 2 19.9111 129.7415 13.3316 0.0000 0.0000 0.0000
# 3 -3.1303 13.3316 132.2891 0.0000 0.0000 0.0000
# 4 0.0000 0.0000 0.0000 31.8017 0.0000 0.0000
# 5 0.0000 0.0000 0.0000 0.0000 13.6464 0.0000
# 6 0.0000 0.0000 0.0000 0.0000 0.0000 28.1829
#
#
#
# Elastic Compliance Matrix: (Units=1/GPa)
#
#
# Indices 1 2 3 4 5 6 
#
# 1 0.031110 -0.004901 0.001230 0.000000 0.000000 0.000000
# 2 -0.004901 0.008560 -0.000979 0.000000 0.000000 0.000000
# 3 0.001230 -0.000979 0.007687 0.000000 0.000000 0.000000
# 4 0.000000 0.000000 0.000000 0.031445 0.000000 0.000000
# 5 0.000000 0.000000 0.000000 0.000000 0.073280 0.000000
# 6 0.000000 0.000000 0.000000 0.000000 0.000000 0.035483
#
#
# Mechanical properties :
#
#
# Convention : Reuss Voigt Hill
#
# Bulk Modulus (GPa) = 26.27510 39.73991 33.00751
# Shear Modulus (GPa) = 23.86067 32.54766 28.20416
#
# Velocity S-wave (km/s) = 3.53154 4.12461 3.83955
# Velocity P-wave (km/s) = 5.51025 6.59204 6.07527
#
# Compressibility (1/GPa) = 0.03805884
#
# Stress axis : x y z
#
# Youngs Moduli (GPa) = 32.14351 116.81816 130.09096
#
# Poissons Ratio (x) = 0.57251 -0.16002
# Poissons Ratio (y) = 0.15753 0.12731
# Poissons Ratio (z) = -0.03954 0.11432
#
# Static dielectric constant tensor:
#      x y z
#    x 1.830010 0.000000 0.000000 
#    y 0.000000 1.684260 0.000000 
#    z 0.000000 0.000000 1.747240 
# 
# From -- ./inp_files/505.got.cif
#   From: 2010.05.17/outbox.cif.g08.bks.cpg/sg29_1_cif.got.tgz:505.got - 2010.06.04 01:19:37.
