data_PCOD9340872
_publ_section_title
;
Structure prediction by ZEFSAII (Michael W. Deem and Ramdas Pophale) SiO2 
 PCOD9340872
Probable space group: P C A 21
;
_chemical_formula_sum "Si O2"
_cell_formula_units_Z 28
_cell_length_a 19.549647
_cell_length_b 5.345291
_cell_length_c 10.714575
_cell_angle_alpha 90.000000
_cell_angle_beta 90.000000
_cell_angle_gamma 90.000000
_cell_volume 1119.657575
_symmetry_space_group_name_H-M "P C A 21"
_symmetry_group_IT_number 29
_symmetry_cell_setting 'orthorhombic'
loop_
_space_group_symop_operation_xyz
x,y,z
-x,-y,1/2+z
1/2-x,y,1/2+z
1/2+x,-y,z
loop_
_atom_site_type_symbol
_atom_site_label
_atom_site_fract_x
_atom_site_fract_y
_atom_site_fract_z
Si Si1 0.084249 0.207415 0.635940
Si Si2 0.719768 0.553563 0.636773
Si Si3 0.529602 0.524654 0.244535
Si Si4 0.943822 0.023576 0.891847
Si Si5 0.151846 0.656535 0.074404
Si Si6 0.296124 0.039604 0.786942
Si Si7 0.846064 0.152951 0.319775
O O1 0.158151 0.286532 0.582738
O O2 0.044376 0.037490 0.536572
O O3 0.037452 0.443266 0.668978
O O4 0.107246 0.059776 0.759439
O O5 0.777605 0.482541 0.538591
O O6 0.768257 0.696673 0.736210
O O7 0.677811 0.340624 0.710372
O O8 0.527452 0.796123 0.306732
O O9 0.595490 0.493837 0.153948
O O10 0.536502 0.300105 0.346538
O O11 0.862862 0.994288 0.868109
O O12 0.181457 0.876888 0.163918
O O13 0.120139 0.739099 0.943531
O O14 0.228680 0.947570 0.858163
#
# Coordination Sequence:
#
# PCOD9340872 Si02
#       7
#     4   4   4   4   4   4   4
#     4  11  28  43  71 106 141 193 242 306 363 436
#     4  10  22  40  65 105 138 179 246 286 372 415
#     4  11  27  48  72 104 141 200 240 291 375 428
#     4  11  26  48  75  98 149 186 245 291 364 444
#     4  10  22  42  69  98 144 186 240 303 358 438
#     4   9  21  41  62 100 132 189 229 292 367 420
#     4  10  24  40  66 105 139 181 242 305 357 429
#
# _framework density 25.007646999999999
#
# number of rings (size 3 to 8) (size 9 to 14) (size 15 to 20)
#    0.000    1.714    1.429    0.000   14.000    1.143 
#    2.571    0.000    0.000    0.000    0.000    0.000 
#    0.000    0.000    0.000    0.000    0.000    0.000 
#
# Total GULP energy -156479.797029 kJ/mol
# GULP energy per Si atom -5588.564180 kJ/mol
# Density = 2.495073 g / cm^3
# Si number density = 25.007647 Si / 1000 Ang^3
#
#
#
# Elastic Constant Matrix: (Units=GPa)
#
#
# Indices 1 2 3 4 5 6 
#
# 1 135.1717 19.6778 9.2713 0.0000 0.0000 0.0000
# 2 19.6778 45.1482 -12.3601 0.0000 0.0000 0.0000
# 3 9.2713 -12.3601 52.8006 0.0000 0.0000 0.0000
# 4 0.0000 0.0000 0.0000 24.8716 0.0000 0.0000
# 5 0.0000 0.0000 0.0000 0.0000 -122.4517 0.0000
# 6 0.0000 0.0000 0.0000 0.0000 0.0000 46.7601
#
#
#
# Elastic Compliance Matrix: (Units=1/GPa)
#
#
# Indices 1 2 3 4 5 6 
#
# 1 0.008180 -0.004230 -0.002426 0.000000 0.000000 0.000000
# 2 -0.004230 0.025853 0.006795 0.000000 0.000000 0.000000
# 3 -0.002426 0.006795 0.020956 0.000000 0.000000 0.000000
# 4 0.000000 0.000000 0.000000 0.040206 0.000000 0.000000
# 5 0.000000 0.000000 0.000000 0.000000 -0.008166 0.000000
# 6 0.000000 0.000000 0.000000 0.000000 0.000000 0.021386
#
#
# Mechanical properties :
#
#
# Convention : Reuss Voigt Hill
#
# Bulk Modulus (GPa) = 18.09437 29.58874 23.84155
# Shear Modulus (GPa) = 39.50710 4.27142 21.88926
#
# Velocity S-wave (km/s) = 3.97898 1.30834 2.96176
# Velocity P-wave (km/s) = 5.32550 3.76031 4.60982
#
# Compressibility (1/GPa) = 0.05526580
#
# Stress axis : x y z
#
# Youngs Moduli (GPa) = 122.24698 38.68042 47.71952
#
# Poissons Ratio (x) = 0.16360 0.11579
# Poissons Ratio (y) = 0.51706 -0.32423
# Poissons Ratio (z) = 0.29663 -0.26282
#
# Static dielectric constant tensor:
#      x y z
#    x 2.222890 0.000000 0.000000 
#    y 0.000000 2.088980 0.000000 
#    z 0.000000 0.000000 1.955600 
# 
# From -- ./inp_files/3736.got.cif
#   From: 2010.05.17/outbox.cif.g08.bks.cpg/sg29_2_cif.got.tgz:3736.got - 2010.06.04 01:19:37.
