data_PCOD9340425
_publ_section_title
;
Structure prediction by ZEFSAII (Michael W. Deem and Ramdas Pophale) SiO2 
 PCOD9340425
Probable space group: P C A 21
;
_chemical_formula_sum "Si O2"
_cell_formula_units_Z 16
_cell_length_a 12.309425
_cell_length_b 8.962766
_cell_length_c 5.139083
_cell_angle_alpha 90.000000
_cell_angle_beta 90.000000
_cell_angle_gamma 90.000000
_cell_volume 566.977019
_symmetry_space_group_name_H-M "P C A 21"
_symmetry_group_IT_number 29
_symmetry_cell_setting 'orthorhombic'
loop_
_space_group_symop_operation_xyz
x,y,z
-x,-y,1/2+z
1/2-x,y,1/2+z
1/2+x,-y,z
loop_
_atom_site_type_symbol
_atom_site_label
_atom_site_fract_x
_atom_site_fract_y
_atom_site_fract_z
Si Si1 0.815665 0.580244 0.800460
Si Si2 0.378692 0.138162 0.529181
Si Si3 0.605252 0.135717 0.741672
Si Si4 0.943466 0.309698 0.755774
O O1 0.738583 0.534288 0.566074
O O2 0.825341 0.757043 0.747520
O O3 0.925147 0.485591 0.778045
O O4 0.435051 0.258300 0.332267
O O5 0.329534 0.004006 0.360224
O O6 0.484149 0.070374 0.677427
O O7 0.589944 0.252236 0.974195
O O8 0.629851 0.222799 0.474398
#
# Coordination Sequence:
#
# PCOD9340425 Si02
#       4
#     4   4   4   4
#     4  12  29  43  61 100 148 183 221 282 360 414
#     4  10  23  41  75  98 131 170 246 282 340 395
#     4  10  20  39  74 100 119 165 242 294 321 395
#     4  10  22  41  68  94 132 176 233 276 335 410
#
# _framework density 28.219836999999998
#
# number of rings (size 3 to 8) (size 9 to 14) (size 15 to 20)
#    1.500    0.000    2.500    1.500    7.000    0.000 
#    0.000    7.500    0.000    0.000    0.000    0.000 
#    0.000    0.000    0.000    0.000    0.000    0.000 
#
# Total GULP energy -89545.451971 kJ/mol
# GULP energy per Si atom -5596.590748 kJ/mol
# Density = 2.815561 g / cm^3
# Si number density = 28.219837 Si / 1000 Ang^3
#
#
#
# Elastic Constant Matrix: (Units=GPa)
#
#
# Indices 1 2 3 4 5 6 
#
# 1 39.0905 26.5770 22.1527 0.0000 0.0000 0.0000
# 2 26.5770 130.9127 33.7074 0.0000 0.0000 0.0000
# 3 22.1527 33.7074 164.7306 0.0000 0.0000 0.0000
# 4 0.0000 0.0000 0.0000 7.1303 0.0000 0.0000
# 5 0.0000 0.0000 0.0000 0.0000 33.5891 0.0000
# 6 0.0000 0.0000 0.0000 0.0000 0.0000 57.3815
#
#
#
# Elastic Compliance Matrix: (Units=1/GPa)
#
#
# Indices 1 2 3 4 5 6 
#
# 1 0.031063 -0.005521 -0.003047 0.000000 0.000000 0.000000
# 2 -0.005521 0.009045 -0.001108 0.000000 0.000000 0.000000
# 3 -0.003047 -0.001108 0.006707 0.000000 0.000000 0.000000
# 4 0.000000 0.000000 0.000000 0.140247 0.000000 0.000000
# 5 0.000000 0.000000 0.000000 0.000000 0.029772 0.000000
# 6 0.000000 0.000000 0.000000 0.000000 0.000000 0.017427
#
#
# Mechanical properties :
#
#
# Convention : Reuss Voigt Hill
#
# Bulk Modulus (GPa) = 36.41616 55.51201 45.96408
# Shear Modulus (GPa) = 19.02820 36.43997 27.73408
#
# Velocity S-wave (km/s) = 2.59952 3.59735 3.13834
# Velocity P-wave (km/s) = 4.68428 6.08018 5.42729
#
# Compressibility (1/GPa) = 0.02746034
#
# Stress axis : x y z
#
# Youngs Moduli (GPa) = 32.19303 110.55874 149.09556
#
# Poissons Ratio (x) = 0.61045 0.45436
# Poissons Ratio (y) = 0.17775 0.16524
# Poissons Ratio (z) = 0.09811 0.12253
#
# Static dielectric constant tensor:
#      x y z
#    x 2.304280 0.000000 0.000000 
#    y 0.000000 2.163730 0.000000 
#    z 0.000000 0.000000 2.195700 
# 
# From -- ./inp_files/144.got.cif
#   From: 2010.05.17/outbox.cif.g08.bks.cpg/sg29_1_cif.got.tgz:144.got - 2010.06.04 01:19:37.
