data_PCOD9340549
_publ_section_title
;
Structure prediction by ZEFSAII (Michael W. Deem and Ramdas Pophale) SiO2 
 PCOD9340549
Probable space group: P C A 21
;
_chemical_formula_sum "Si O2"
_cell_formula_units_Z 28
_cell_length_a 26.743338
_cell_length_b 7.960403
_cell_length_c 5.323576
_cell_angle_alpha 90.000000
_cell_angle_beta 90.000000
_cell_angle_gamma 90.000000
_cell_volume 1133.324106
_symmetry_space_group_name_H-M "P C A 21"
_symmetry_group_IT_number 29
_symmetry_cell_setting 'orthorhombic'
loop_
_space_group_symop_operation_xyz
x,y,z
-x,-y,1/2+z
1/2-x,y,1/2+z
1/2+x,-y,z
loop_
_atom_site_type_symbol
_atom_site_label
_atom_site_fract_x
_atom_site_fract_y
_atom_site_fract_z
Si Si1 0.448285 0.894540 0.611050
Si Si2 0.937926 0.988878 0.110923
Si Si3 0.775080 0.323027 0.913065
Si Si4 0.266089 0.057775 0.404532
Si Si5 0.642002 0.763671 0.789359
Si Si6 0.528623 0.461954 0.348604
Si Si7 0.141140 0.436485 0.302134
O O1 0.427044 0.875610 0.330145
O O2 0.460077 0.721876 0.745092
O O3 0.502608 0.979636 0.570411
O O4 0.417142 0.991567 0.827700
O O5 0.914577 0.825357 0.242877
O O6 0.739804 0.387495 0.687761
O O7 0.762246 0.122557 0.925506
O O8 0.829876 0.386005 0.835058
O O9 0.259234 0.145589 0.669374
O O10 0.324591 0.070104 0.342695
O O11 0.659701 0.679918 0.530653
O O12 0.647011 0.640344 0.024932
O O13 0.505157 0.459037 0.626319
O O14 0.582212 0.549010 0.350765
#
# Coordination Sequence:
#
# PCOD9340549 Si02
#       7
#     4   4   4   4   4   4   4
#     4  10  21  37  61  88 124 170 209 263 323 376
#     4  10  21  38  60  91 124 160 216 266 314 385
#     4  10  23  43  67  96 136 175 221 285 342 407
#     4  10  23  43  67  93 125 167 216 270 334 399
#     4  12  25  42  67  96 131 173 221 278 337 401
#     4  12  25  43  67  97 139 182 226 280 344 413
#     4  12  26  42  67 101 137 181 229 278 344 415
#
# _framework density 24.706081999999999
#
# number of rings (size 3 to 8) (size 9 to 14) (size 15 to 20)
#    0.000    1.143    0.000    6.000    0.000   10.286 
#    0.000    0.000    0.000    0.000    0.000    0.000 
#    0.000    0.000    0.000    0.000    0.000    0.000 
#
# Total GULP energy -156285.637916 kJ/mol
# GULP energy per Si atom -5581.629926 kJ/mol
# Density = 2.464985 g / cm^3
# Si number density = 24.706082 Si / 1000 Ang^3
#
#
#
# Elastic Constant Matrix: (Units=GPa)
#
#
# Indices 1 2 3 4 5 6 
#
# 1 92.0512 16.3567 29.3189 0.0000 0.0000 0.0000
# 2 16.3567 55.8361 3.1504 0.0000 0.0000 0.0000
# 3 29.3189 3.1504 146.3993 0.0000 0.0000 0.0000
# 4 0.0000 0.0000 0.0000 16.6257 0.0000 0.0000
# 5 0.0000 0.0000 0.0000 0.0000 15.9176 0.0000
# 6 0.0000 0.0000 0.0000 0.0000 0.0000 38.4549
#
#
#
# Elastic Compliance Matrix: (Units=1/GPa)
#
#
# Indices 1 2 3 4 5 6 
#
# 1 0.012233 -0.003450 -0.002376 0.000000 0.000000 0.000000
# 2 -0.003450 0.018904 0.000284 0.000000 0.000000 0.000000
# 3 -0.002376 0.000284 0.007300 0.000000 0.000000 0.000000
# 4 0.000000 0.000000 0.000000 0.060148 0.000000 0.000000
# 5 0.000000 0.000000 0.000000 0.000000 0.062823 0.000000
# 6 0.000000 0.000000 0.000000 0.000000 0.000000 0.026005
#
#
# Mechanical properties :
#
#
# Convention : Reuss Voigt Hill
#
# Bulk Modulus (GPa) = 36.55625 43.54875 40.05250
# Shear Modulus (GPa) = 24.08315 30.56367 27.32341
#
# Velocity S-wave (km/s) = 3.12554 3.52105 3.32917
# Velocity P-wave (km/s) = 5.27768 5.84768 5.56998
#
# Compressibility (1/GPa) = 0.02735510
#
# Stress axis : x y z
#
# Youngs Moduli (GPa) = 81.74520 52.89873 136.98091
#
# Poissons Ratio (x) = 0.18248 0.32542
# Poissons Ratio (y) = 0.28198 -0.03891
# Poissons Ratio (z) = 0.19420 -0.01502
#
# Static dielectric constant tensor:
#      x y z
#    x 1.981970 0.000000 0.000000 
#    y 0.000000 2.043070 0.000000 
#    z 0.000000 0.000000 2.054200 
# 
# From -- ./inp_files/810.got.cif
#   From: 2010.05.17/outbox.cif.g08.bks.cpg/sg29_1_cif.got.tgz:810.got - 2010.06.04 01:19:37.
