data_PCOD9340664
_publ_section_title
;
Structure prediction by ZEFSAII (Michael W. Deem and Ramdas Pophale) SiO2 
 PCOD9340664
Probable space group: P C A 21
;
_chemical_formula_sum "Si O2"
_cell_formula_units_Z 32
_cell_length_a 9.231273
_cell_length_b 16.914136
_cell_length_c 8.302613
_cell_angle_alpha 90.000000
_cell_angle_beta 90.000000
_cell_angle_gamma 90.000000
_cell_volume 1296.361749
_symmetry_space_group_name_H-M "P C A 21"
_symmetry_group_IT_number 29
_symmetry_cell_setting 'orthorhombic'
loop_
_space_group_symop_operation_xyz
x,y,z
-x,-y,1/2+z
1/2-x,y,1/2+z
1/2+x,-y,z
loop_
_atom_site_type_symbol
_atom_site_label
_atom_site_fract_x
_atom_site_fract_y
_atom_site_fract_z
Si Si1 0.658076 0.635282 0.579080
Si Si2 0.066638 0.049973 0.028108
Si Si3 0.856702 0.461423 0.996421
Si Si4 0.439422 0.580595 0.333420
Si Si5 0.711751 0.868168 0.331008
Si Si6 0.404914 0.280193 0.397666
Si Si7 0.940358 0.136464 0.536498
Si Si8 0.351851 0.828560 0.890262
O O1 0.699706 0.542504 0.582667
O O2 0.541340 0.640970 0.432741
O O3 0.588287 0.660635 0.747077
O O4 0.800114 0.684040 0.532513
O O5 0.126545 0.101464 0.176457
O O6 0.053484 0.958182 0.062613
O O7 0.186123 0.060403 0.888946
O O8 0.920897 0.092607 0.969883
O O9 0.721464 0.421929 0.908277
O O10 0.924874 0.411873 0.142225
O O11 0.977156 0.497916 0.876597
O O12 0.819855 0.795185 0.323043
O O13 0.596092 0.844548 0.466118
O O14 0.557925 0.245995 0.458177
O O15 0.817935 0.164850 0.413188
O O16 0.891689 0.173124 0.703435
#
# Coordination Sequence:
#
# PCOD9340664 Si02
#       8
#     4   4   4   4   4   4   4   4
#     4  10  24  39  71  91 127 175 211 261 301 391
#     4  11  21  38  60  95 121 167 212 271 341 403
#     4  10  21  40  67 105 134 169 204 265 320 362
#     4  10  22  38  68 101 140 164 209 256 327 354
#     4  11  23  38  66  87 127 168 214 274 315 393
#     4  11  22  46  61  88 123 175 231 240 318 393
#     4  12  22  39  60  94 127 159 218 279 347 371
#     4  11  25  38  63  87 127 171 209 278 319 393
#
# _framework density 24.684470000000001
#
# number of rings (size 3 to 8) (size 9 to 14) (size 15 to 20)
#    0.750    0.500    0.000    8.250    1.750    0.000 
#    0.000    2.500    0.000    0.000    0.000    0.000 
#    0.000    0.000    0.000    0.000    0.000    0.000 
#
# Total GULP energy -179172.364178 kJ/mol
# GULP energy per Si atom -5599.136381 kJ/mol
# Density = 2.462829 g / cm^3
# Si number density = 24.684470 Si / 1000 Ang^3
#
#
#
# Elastic Constant Matrix: (Units=GPa)
#
#
# Indices 1 2 3 4 5 6 
#
# 1 104.5172 16.6214 8.9175 0.0000 0.0000 0.0000
# 2 16.6214 62.3686 0.4711 0.0000 0.0000 0.0000
# 3 8.9175 0.4711 34.3532 0.0000 0.0000 0.0000
# 4 0.0000 0.0000 0.0000 25.0518 0.0000 0.0000
# 5 0.0000 0.0000 0.0000 0.0000 40.5701 0.0000
# 6 0.0000 0.0000 0.0000 0.0000 0.0000 32.6592
#
#
#
# Elastic Compliance Matrix: (Units=1/GPa)
#
#
# Indices 1 2 3 4 5 6 
#
# 1 0.010221 -0.002704 -0.002616 0.000000 0.000000 0.000000
# 2 -0.002704 0.016751 0.000472 0.000000 0.000000 0.000000
# 3 -0.002616 0.000472 0.029782 0.000000 0.000000 0.000000
# 4 0.000000 0.000000 0.000000 0.039917 0.000000 0.000000
# 5 0.000000 0.000000 0.000000 0.000000 0.024649 0.000000
# 6 0.000000 0.000000 0.000000 0.000000 0.000000 0.030619
#
#
# Mechanical properties :
#
#
# Convention : Reuss Voigt Hill
#
# Bulk Modulus (GPa) = 21.25048 28.13988 24.69518
# Shear Modulus (GPa) = 28.19740 31.33813 29.76777
#
# Velocity S-wave (km/s) = 3.38348 3.56694 3.47642
# Velocity P-wave (km/s) = 4.88789 5.32810 5.11273
#
# Compressibility (1/GPa) = 0.04705776
#
# Stress axis : x y z
#
# Youngs Moduli (GPa) = 97.83720 59.69857 33.57729
#
# Poissons Ratio (x) = 0.16144 0.08784
# Poissons Ratio (y) = 0.26457 -0.01586
# Poissons Ratio (z) = 0.25596 -0.02819
#
# Static dielectric constant tensor:
#      x y z
#    x 1.909500 0.000000 0.000000 
#    y 0.000000 2.004190 0.000000 
#    z 0.000000 0.000000 1.955050 
# 
# From -- ./inp_files/1265.got.cif
#   From: 2010.05.17/outbox.cif.g08.bks.cpg/sg29_1_cif.got.tgz:1265.got - 2010.06.04 01:19:37.
