data_PCOD9340122
_publ_section_title
;
Structure prediction by ZEFSAII (Michael W. Deem and Ramdas Pophale) SiO2 
 PCOD9340122
Probable space group: P C A 21
;
_chemical_formula_sum "Si O2"
_cell_formula_units_Z 28
_cell_length_a 17.839356
_cell_length_b 14.425186
_cell_length_c 5.124429
_cell_angle_alpha 90.000000
_cell_angle_beta 90.000000
_cell_angle_gamma 90.000000
_cell_volume 1318.700207
_symmetry_space_group_name_H-M "P C A 21"
_symmetry_group_IT_number 29
_symmetry_cell_setting 'orthorhombic'
loop_
_space_group_symop_operation_xyz
x,y,z
-x,-y,1/2+z
1/2-x,y,1/2+z
1/2+x,-y,z
loop_
_atom_site_type_symbol
_atom_site_label
_atom_site_fract_x
_atom_site_fract_y
_atom_site_fract_z
Si Si1 0.980765 0.772055 0.873980
Si Si2 0.786119 0.636737 0.227900
Si Si3 0.456450 0.959558 0.472249
Si Si4 0.297234 0.053127 0.511728
Si Si5 0.391216 0.222764 0.368115
Si Si6 0.705913 0.417204 0.762944
Si Si7 0.471996 0.559527 0.373788
O O1 0.956835 0.785868 0.575655
O O2 0.043142 0.848200 0.940972
O O3 0.994914 0.663116 0.914281
O O4 0.915982 0.802501 0.077056
O O5 0.723309 0.670078 0.432918
O O6 0.862510 0.672330 0.351580
O O7 0.781317 0.527326 0.231184
O O8 0.494765 0.994878 0.739294
O O9 0.372302 0.995943 0.459898
O O10 0.266235 0.035160 0.798183
O O11 0.324144 0.158612 0.465655
O O12 0.741188 0.379134 0.494511
O O13 0.616607 0.417167 0.821299
O O14 0.491255 0.495442 0.626651
#
# Coordination Sequence:
#
# PCOD9340122 Si02
#       7
#     4   4   4   4   4   4   4
#     4  12  24  41  67  95 123 180 226 266 341 403
#     4  10  19  32  51  81 119 161 202 251 325 397
#     4  12  23  46  68  95 131 181 225 270 331 411
#     4  12  24  40  65  99 137 173 220 284 342 392
#     4  12  22  38  61  93 133 165 215 274 339 414
#     4  10  21  38  59  84 123 173 215 268 335 383
#     4  12  25  43  67 101 136 173 233 295 329 394
#
# _framework density 21.233028999999998
#
# number of rings (size 3 to 8) (size 9 to 14) (size 15 to 20)
#    0.000    0.571    2.857    6.857    0.000    2.286 
#    0.000    1.429    0.000    0.000    0.000    0.000 
#    0.000    0.000    0.000    0.000    0.000    0.000 
#
# Total GULP energy -156283.587717 kJ/mol
# GULP energy per Si atom -5581.556704 kJ/mol
# Density = 2.118470 g / cm^3
# Si number density = 21.233029 Si / 1000 Ang^3
#
#
#
# Elastic Constant Matrix: (Units=GPa)
#
#
# Indices 1 2 3 4 5 6 
#
# 1 60.2888 -1.0090 0.7693 0.0000 0.0000 0.0000
# 2 -1.0090 71.6196 2.8450 0.0000 0.0000 0.0000
# 3 0.7693 2.8450 85.1335 0.0000 0.0000 0.0000
# 4 0.0000 0.0000 0.0000 16.9472 0.0000 0.0000
# 5 0.0000 0.0000 0.0000 0.0000 33.7299 0.0000
# 6 0.0000 0.0000 0.0000 0.0000 0.0000 36.6251
#
#
#
# Elastic Compliance Matrix: (Units=1/GPa)
#
#
# Indices 1 2 3 4 5 6 
#
# 1 0.016593 0.000240 -0.000158 0.000000 0.000000 0.000000
# 2 0.000240 0.013985 -0.000470 0.000000 0.000000 0.000000
# 3 -0.000158 -0.000470 0.011763 0.000000 0.000000 0.000000
# 4 0.000000 0.000000 0.000000 0.059007 0.000000 0.000000
# 5 0.000000 0.000000 0.000000 0.000000 0.029647 0.000000
# 6 0.000000 0.000000 0.000000 0.000000 0.000000 0.027304
#
#
# Mechanical properties :
#
#
# Convention : Reuss Voigt Hill
#
# Bulk Modulus (GPa) = 24.05809 24.69472 24.37641
# Shear Modulus (GPa) = 28.91358 31.75619 30.33489
#
# Velocity S-wave (km/s) = 3.69416 3.87150 3.78387
# Velocity P-wave (km/s) = 5.43607 5.62497 5.53133
#
# Compressibility (1/GPa) = 0.04156606
#
# Stress axis : x y z
#
# Youngs Moduli (GPa) = 60.26684 71.50676 85.00960
#
# Poissons Ratio (x) = -0.01716 0.01343
# Poissons Ratio (y) = -0.01447 0.03991
# Poissons Ratio (z) = 0.00952 0.03357
#
# Static dielectric constant tensor:
#      x y z
#    x 1.796370 0.000000 0.000000 
#    y 0.000000 1.781310 0.000000 
#    z 0.000000 0.000000 1.817540 
# 
# From -- ./inp_files/253.got.cif
#   From: 2010.05.17/outbox.cif.g08.bks.cpg/sg29_1_cif.got.tgz:253.got - 2010.06.04 01:19:37.
