data_PCOD9340353
_publ_section_title
;
Structure prediction by ZEFSAII (Michael W. Deem and Ramdas Pophale) SiO2 
 PCOD9340353
Probable space group: P C A 21
;
_chemical_formula_sum "Si O2"
_cell_formula_units_Z 32
_cell_length_a 19.406252
_cell_length_b 12.072298
_cell_length_c 5.536189
_cell_angle_alpha 90.000000
_cell_angle_beta 90.000000
_cell_angle_gamma 90.000000
_cell_volume 1297.007603
_symmetry_space_group_name_H-M "P C A 21"
_symmetry_group_IT_number 29
_symmetry_cell_setting 'orthorhombic'
loop_
_space_group_symop_operation_xyz
x,y,z
-x,-y,1/2+z
1/2-x,y,1/2+z
1/2+x,-y,z
loop_
_atom_site_type_symbol
_atom_site_label
_atom_site_fract_x
_atom_site_fract_y
_atom_site_fract_z
Si Si1 0.412261 0.524358 0.554400
Si Si2 0.580417 0.066668 0.039280
Si Si3 0.737994 0.104681 0.138031
Si Si4 0.784519 0.859514 0.160092
Si Si5 0.512914 0.645767 0.304304
Si Si6 0.734723 0.475314 0.167619
Si Si7 0.641703 0.648162 0.658144
Si Si8 0.515575 0.142056 0.535327
O O1 0.440526 0.637992 0.445419
O O2 0.477563 0.475149 0.691781
O O3 0.346471 0.525789 0.728184
O O4 0.388151 0.432976 0.360552
O O5 0.660347 0.064299 0.101163
O O6 0.546559 0.131316 0.267271
O O7 0.546563 0.945406 0.050346
O O8 0.563829 0.110863 0.768690
O O9 0.742129 0.165163 0.392533
O O10 0.785683 0.993346 0.155960
O O11 0.731723 0.832844 0.379356
O O12 0.844858 0.775617 0.230511
O O13 0.582604 0.661138 0.456374
O O14 0.508449 0.735571 0.096438
O O15 0.767244 0.421459 0.402860
O O16 0.781844 0.587644 0.115833
#
# Coordination Sequence:
#
# PCOD9340353 Si02
#       8
#     4   4   4   4   4   4   4   4
#     4  11  24  42  61  95 143 180 227 276 345 404
#     4  10  22  47  63  99 133 174 230 282 347 410
#     4  10  21  36  65  96 129 163 207 280 353 408
#     4  10  22  35  54  98 132 166 203 262 345 415
#     4  12  25  41  65 100 135 191 227 285 334 425
#     4  10  20  37  60  85 122 175 206 273 328 393
#     4  11  23  37  61  91 140 168 226 273 343 403
#     4  10  25  41  71  90 134 189 226 279 333 414
#
# _framework density 24.672173000000001
#
# number of rings (size 3 to 8) (size 9 to 14) (size 15 to 20)
#    0.000    1.500    2.500    2.250    7.000    1.000 
#    2.250    0.000    0.000    9.000    0.000    0.000 
#    0.000    0.000    0.000    0.000    0.000    0.000 
#
# Total GULP energy -178376.794318 kJ/mol
# GULP energy per Si atom -5574.274822 kJ/mol
# Density = 2.461602 g / cm^3
# Si number density = 24.672173 Si / 1000 Ang^3
#
#
#
# Elastic Constant Matrix: (Units=GPa)
#
#
# Indices 1 2 3 4 5 6 
#
# 1 91.9697 16.4249 15.5004 0.0000 0.0000 0.0000
# 2 16.4249 52.3990 -7.3615 0.0000 0.0000 0.0000
# 3 15.5004 -7.3615 120.2826 0.0000 0.0000 0.0000
# 4 0.0000 0.0000 0.0000 20.3980 0.0000 0.0000
# 5 0.0000 0.0000 0.0000 0.0000 23.8800 0.0000
# 6 0.0000 0.0000 0.0000 0.0000 0.0000 17.9765
#
#
#
# Elastic Compliance Matrix: (Units=1/GPa)
#
#
# Indices 1 2 3 4 5 6 
#
# 1 0.011882 -0.003974 -0.001774 0.000000 0.000000 0.000000
# 2 -0.003974 0.020579 0.001772 0.000000 0.000000 0.000000
# 3 -0.001774 0.001772 0.008651 0.000000 0.000000 0.000000
# 4 0.000000 0.000000 0.000000 0.049024 0.000000 0.000000
# 5 0.000000 0.000000 0.000000 0.000000 0.041876 0.000000
# 6 0.000000 0.000000 0.000000 0.000000 0.000000 0.055628
#
#
# Mechanical properties :
#
#
# Convention : Reuss Voigt Hill
#
# Bulk Modulus (GPa) = 30.15834 34.86434 32.51134
# Shear Modulus (GPa) = 24.19599 28.45676 26.32637
#
# Velocity S-wave (km/s) = 3.13501 3.39985 3.27011
# Velocity P-wave (km/s) = 5.03533 5.43817 5.24062
#
# Compressibility (1/GPa) = 0.03315833
#
# Stress axis : x y z
#
# Youngs Moduli (GPa) = 84.16185 48.59368 115.59581
#
# Poissons Ratio (x) = 0.19310 0.20511
# Poissons Ratio (y) = 0.33444 -0.20478
# Poissons Ratio (z) = 0.14933 -0.08609
#
# Static dielectric constant tensor:
#      x y z
#    x 1.984420 0.000000 0.000000 
#    y 0.000000 1.931660 0.000000 
#    z 0.000000 0.000000 2.064520 
# 
# From -- ./inp_files/570.got.cif
#   From: 2010.05.17/outbox.cif.g08.bks.cpg/sg29_1_cif.got.tgz:570.got - 2010.06.04 01:19:37.
