data_PCOD9340890
_publ_section_title
;
Structure prediction by ZEFSAII (Michael W. Deem and Ramdas Pophale) SiO2 
 PCOD9340890
Probable space group: P C A 21
;
_chemical_formula_sum "Si O2"
_cell_formula_units_Z 28
_cell_length_a 17.383015
_cell_length_b 13.553941
_cell_length_c 5.311013
_cell_angle_alpha 90.000000
_cell_angle_beta 90.000000
_cell_angle_gamma 90.000000
_cell_volume 1251.319061
_symmetry_space_group_name_H-M "P C A 21"
_symmetry_group_IT_number 29
_symmetry_cell_setting 'orthorhombic'
loop_
_space_group_symop_operation_xyz
x,y,z
-x,-y,1/2+z
1/2-x,y,1/2+z
1/2+x,-y,z
loop_
_atom_site_type_symbol
_atom_site_label
_atom_site_fract_x
_atom_site_fract_y
_atom_site_fract_z
Si Si1 0.897029 0.488527 0.997060
Si Si2 0.009652 0.345580 0.229208
Si Si3 0.948298 0.008005 0.376847
Si Si4 0.929482 0.214694 0.582625
Si Si5 0.798589 0.313555 0.855501
Si Si6 0.199787 0.381492 0.805683
Si Si7 0.089398 0.202091 0.873070
O O1 0.929174 0.585579 0.865648
O O2 0.832908 0.424226 0.857496
O O3 0.860803 0.530024 0.256355
O O4 0.969148 0.415020 0.024445
O O5 0.938757 0.307243 0.396961
O O6 0.054273 0.251047 0.124512
O O7 0.892257 0.913367 0.390742
O O8 0.911292 0.113276 0.440601
O O9 0.989945 0.011411 0.104179
O O10 0.869113 0.240002 0.798441
O O11 0.015566 0.205587 0.690604
O O12 0.740455 0.299000 0.624765
O O13 0.257933 0.387284 0.571243
O O14 0.155476 0.276809 0.791115
#
# Coordination Sequence:
#
# PCOD9340890 Si02
#       7
#     4   4   4   4   4   4   4
#     4  12  24  42  66 100 136 190 232 280 334 404
#     4  12  22  42  68 104 132 174 234 294 332 388
#     4  10  22  40  74 104 130 166 226 290 346 398
#     4  11  23  45  70 101 131 177 228 288 340 404
#     4  12  27  45  66  98 143 186 226 277 339 407
#     4  12  27  45  66  98 143 186 226 277 339 407
#     4  11  23  45  70 101 131 177 228 288 340 404
#
# _framework density 22.376386
#
# number of rings (size 3 to 8) (size 9 to 14) (size 15 to 20)
#    0.000    0.571    4.286    4.286    0.000    2.286 
#    0.000    1.429    0.000    0.000    0.000    0.000 
#    0.000    0.000    0.000    0.000    0.000    0.000 
#
# Total GULP energy -156667.713124 kJ/mol
# GULP energy per Si atom -5595.275469 kJ/mol
# Density = 2.232546 g / cm^3
# Si number density = 22.376386 Si / 1000 Ang^3
#
#
#
# Elastic Constant Matrix: (Units=GPa)
#
#
# Indices 1 2 3 4 5 6 
#
# 1 65.8795 11.3902 17.3581 0.0000 0.0000 0.0000
# 2 11.3902 87.7414 -12.5861 0.0000 0.0000 0.0000
# 3 17.3581 -12.5861 72.2384 0.0000 0.0000 0.0000
# 4 0.0000 0.0000 0.0000 36.2070 0.0000 0.0000
# 5 0.0000 0.0000 0.0000 0.0000 40.7560 0.0000
# 6 0.0000 0.0000 0.0000 0.0000 0.0000 6.7039
#
#
#
# Elastic Compliance Matrix: (Units=1/GPa)
#
#
# Indices 1 2 3 4 5 6 
#
# 1 0.016869 -0.002842 -0.004549 0.000000 0.000000 0.000000
# 2 -0.002842 0.012168 0.002803 0.000000 0.000000 0.000000
# 3 -0.004549 0.002803 0.015424 0.000000 0.000000 0.000000
# 4 0.000000 0.000000 0.000000 0.027619 0.000000 0.000000
# 5 0.000000 0.000000 0.000000 0.000000 0.024536 0.000000
# 6 0.000000 0.000000 0.000000 0.000000 0.000000 0.149166
#
#
# Mechanical properties :
#
#
# Convention : Reuss Voigt Hill
#
# Bulk Modulus (GPa) = 28.34005 28.68708 28.51357
# Shear Modulus (GPa) = 18.74618 30.71319 24.72969
#
# Velocity S-wave (km/s) = 2.89756 3.70884 3.32801
# Velocity P-wave (km/s) = 4.88745 5.58469 5.24766
#
# Compressibility (1/GPa) = 0.03528575
#
# Stress axis : x y z
#
# Youngs Moduli (GPa) = 59.27975 82.18144 64.83223
#
# Poissons Ratio (x) = 0.23359 0.29490
# Poissons Ratio (y) = 0.16849 -0.18173
# Poissons Ratio (z) = 0.26965 -0.23036
#
# Static dielectric constant tensor:
#      x y z
#    x 1.841750 0.000000 0.000000 
#    y 0.000000 1.845330 0.000000 
#    z 0.000000 0.000000 1.883600 
# 
# From -- ./inp_files/402.got.cif
#   From: 2010.05.17/outbox.cif.g08.bks.cpg/sg29_1_cif.got.tgz:402.got - 2010.06.04 01:19:37.
