data_PCOD9340308
_publ_section_title
;
Structure prediction by ZEFSAII (Michael W. Deem and Ramdas Pophale) SiO2 
 PCOD9340308
Probable space group: P C A 21
;
_chemical_formula_sum "Si O2"
_cell_formula_units_Z 28
_cell_length_a 18.811862
_cell_length_b 7.167449
_cell_length_c 7.725931
_cell_angle_alpha 90.000000
_cell_angle_beta 90.000000
_cell_angle_gamma 90.000000
_cell_volume 1041.710930
_symmetry_space_group_name_H-M "P C A 21"
_symmetry_group_IT_number 29
_symmetry_cell_setting 'orthorhombic'
loop_
_space_group_symop_operation_xyz
x,y,z
-x,-y,1/2+z
1/2-x,y,1/2+z
1/2+x,-y,z
loop_
_atom_site_type_symbol
_atom_site_label
_atom_site_fract_x
_atom_site_fract_y
_atom_site_fract_z
Si Si1 0.727140 0.856922 0.398350
Si Si2 0.473594 0.992813 0.323701
Si Si3 0.136092 0.056878 0.076287
Si Si4 0.406926 0.481989 0.556145
Si Si5 0.062047 0.405097 0.680739
Si Si6 0.667112 0.466782 0.388163
Si Si7 0.114880 0.916831 0.517682
O O1 0.804578 0.934701 0.427038
O O2 0.687083 0.958331 0.240939
O O3 0.726834 0.630329 0.386675
O O4 0.672569 0.921384 0.548628
O O5 0.429502 0.941497 0.498088
O O6 0.450303 0.196486 0.254037
O O7 0.556482 0.011878 0.373116
O O8 0.440141 0.868235 0.172049
O O9 0.105801 0.264718 0.095434
O O10 0.404378 0.506012 0.349883
O O11 0.483938 0.528489 0.629464
O O12 0.351208 0.575812 0.687242
O O13 0.106055 0.431875 0.504157
O O14 0.662956 0.264160 0.475616
#
# Coordination Sequence:
#
# PCOD9340308 Si02
#       7
#     4   4   4   4   4   4   4
#     4  11  24  45  72  92 142 186 235 293 351 428
#     4  11  23  41  67 104 139 181 239 287 364 422
#     4  10  23  44  70  97 135 193 232 285 364 422
#     4  10  20  35  66 100 129 170 231 273 344 421
#     4  11  19  38  66  95 139 174 223 286 350 413
#     4  11  23  42  66 100 131 185 228 288 346 419
#     4  12  24  43  69 104 143 179 238 294 353 423
#
# _framework density 26.878858999999999
#
# number of rings (size 3 to 8) (size 9 to 14) (size 15 to 20)
#    0.000    1.143    4.286    2.571    2.000    2.286 
#    2.571    5.714    0.000    0.000    0.000    0.000 
#    0.000    0.000    0.000    0.000    0.000    0.000 
#
# Total GULP energy -156370.811172 kJ/mol
# GULP energy per Si atom -5584.671828 kJ/mol
# Density = 2.681768 g / cm^3
# Si number density = 26.878859 Si / 1000 Ang^3
#
#
#
# Elastic Constant Matrix: (Units=GPa)
#
#
# Indices 1 2 3 4 5 6 
#
# 1 88.6838 7.4865 -0.3013 0.0000 0.0000 0.0000
# 2 7.4865 89.2859 -8.5150 0.0000 0.0000 0.0000
# 3 -0.3013 -8.5150 126.3986 0.0000 0.0000 0.0000
# 4 0.0000 0.0000 0.0000 34.2020 0.0000 0.0000
# 5 0.0000 0.0000 0.0000 0.0000 31.7111 0.0000
# 6 0.0000 0.0000 0.0000 0.0000 0.0000 -4.6377
#
#
#
# Elastic Compliance Matrix: (Units=1/GPa)
#
#
# Indices 1 2 3 4 5 6 
#
# 1 0.011357 -0.000956 -0.000037 0.000000 0.000000 0.000000
# 2 -0.000956 0.011353 0.000763 0.000000 0.000000 0.000000
# 3 -0.000037 0.000763 0.007963 0.000000 0.000000 0.000000
# 4 0.000000 0.000000 0.000000 0.029238 0.000000 0.000000
# 5 0.000000 0.000000 0.000000 0.000000 0.031535 0.000000
# 6 0.000000 0.000000 0.000000 0.000000 0.000000 -0.215624
#
#
# Mechanical properties :
#
#
# Convention : Reuss Voigt Hill
#
# Bulk Modulus (GPa) = 33.10052 33.52318 33.31185
# Shear Modulus (GPa) = -43.99572 32.63494 -5.68039
#
# Velocity S-wave (km/s) = -4.05015 3.48824 -1.45531
# Velocity P-wave (km/s) = 3.08709 5.35937 3.09780
#
# Compressibility (1/GPa) = 0.03021101
#
# Stress axis : x y z
#
# Youngs Moduli (GPa) = 88.05472 88.08365 125.58463
#
# Poissons Ratio (x) = 0.08419 0.00469
# Poissons Ratio (y) = 0.08416 -0.09576
# Poissons Ratio (z) = 0.00329 -0.06717
#
# Static dielectric constant tensor:
#      x y z
#    x 2.051000 0.000000 0.000000 
#    y 0.000000 2.144890 0.000000 
#    z 0.000000 0.000000 2.386560 
# 
# From -- ./inp_files/2078.got.cif
#   From: 2010.05.17/outbox.cif.g08.bks.cpg/sg29_2_cif.got.tgz:2078.got - 2010.06.04 01:19:37.
