data_PCOD9340395
_publ_section_title
;
Structure prediction by ZEFSAII (Michael W. Deem and Ramdas Pophale) SiO2 
 PCOD9340395
Probable space group: P C A 21
;
_chemical_formula_sum "Si O2"
_cell_formula_units_Z 28
_cell_length_a 14.492018
_cell_length_b 5.236140
_cell_length_c 14.721316
_cell_angle_alpha 90.000000
_cell_angle_beta 90.000000
_cell_angle_gamma 90.000000
_cell_volume 1117.086362
_symmetry_space_group_name_H-M "P C A 21"
_symmetry_group_IT_number 29
_symmetry_cell_setting 'orthorhombic'
loop_
_space_group_symop_operation_xyz
x,y,z
-x,-y,1/2+z
1/2-x,y,1/2+z
1/2+x,-y,z
loop_
_atom_site_type_symbol
_atom_site_label
_atom_site_fract_x
_atom_site_fract_y
_atom_site_fract_z
Si Si1 0.780482 0.812195 0.384490
Si Si2 0.967207 0.557836 0.844401
Si Si3 0.681371 0.210619 0.293195
Si Si4 0.478486 0.049911 0.451826
Si Si5 0.261341 0.483600 0.561623
Si Si6 0.622916 0.011704 0.115723
Si Si7 0.855246 0.475959 0.224579
O O1 0.755455 0.588565 0.455858
O O2 0.815195 0.702185 0.288377
O O3 0.702103 0.024931 0.376248
O O4 0.870268 0.948741 0.425718
O O5 0.977850 0.809323 0.903063
O O6 0.042422 0.566288 0.762862
O O7 0.867251 0.481369 0.807880
O O8 0.987791 0.317066 0.911183
O O9 0.614717 0.068583 0.222129
O O10 0.782818 0.253098 0.251100
O O11 0.472188 0.019918 0.560405
O O12 0.319400 0.741528 0.579094
O O13 0.165628 0.487297 0.618077
O O14 0.319505 0.247643 0.603399
#
# Coordination Sequence:
#
# PCOD9340395 Si02
#       7
#     4   4   4   4   4   4   4
#     4  10  20  38  65  90 121 168 206 267 310 380
#     4  11  24  39  64  92 124 169 206 262 316 378
#     4  11  23  39  66  93 129 164 221 256 326 374
#     4  10  21  41  63  87 127 163 209 253 321 372
#     4  10  21  34  66  91 119 163 218 247 325 373
#     4  10  20  39  63  92 120 170 204 261 311 389
#     4  10  21  42  61  91 130 167 208 262 317 380
#
# _framework density 25.065207000000001
#
# number of rings (size 3 to 8) (size 9 to 14) (size 15 to 20)
#    0.000    1.714    2.857    2.571    4.000    0.000 
#    2.571    0.000    3.143    0.000    0.000    0.000 
#    0.000    0.000    0.000    0.000    0.000    0.000 
#
# Total GULP energy -156604.346359 kJ/mol
# GULP energy per Si atom -5593.012370 kJ/mol
# Density = 2.500816 g / cm^3
# Si number density = 25.065207 Si / 1000 Ang^3
#
#
#
# Elastic Constant Matrix: (Units=GPa)
#
#
# Indices 1 2 3 4 5 6 
#
# 1 76.3804 15.6677 9.5125 0.0000 0.0000 0.0000
# 2 15.6677 136.6239 16.2574 0.0000 0.0000 0.0000
# 3 9.5125 16.2574 49.4449 0.0000 0.0000 0.0000
# 4 0.0000 0.0000 0.0000 34.7885 0.0000 0.0000
# 5 0.0000 0.0000 0.0000 0.0000 14.9782 0.0000
# 6 0.0000 0.0000 0.0000 0.0000 0.0000 36.6458
#
#
#
# Elastic Compliance Matrix: (Units=1/GPa)
#
#
# Indices 1 2 3 4 5 6 
#
# 1 0.013633 -0.001302 -0.002195 0.000000 0.000000 0.000000
# 2 -0.001302 0.007742 -0.002295 0.000000 0.000000 0.000000
# 3 -0.002195 -0.002295 0.021401 0.000000 0.000000 0.000000
# 4 0.000000 0.000000 0.000000 0.028745 0.000000 0.000000
# 5 0.000000 0.000000 0.000000 0.000000 0.066764 0.000000
# 6 0.000000 0.000000 0.000000 0.000000 0.000000 0.027288
#
#
# Mechanical properties :
#
#
# Convention : Reuss Voigt Hill
#
# Bulk Modulus (GPa) = 32.05913 38.36936 35.21424
# Shear Modulus (GPa) = 26.65899 32.01661 29.33780
#
# Velocity S-wave (km/s) = 3.26480 3.57786 3.42491
# Velocity P-wave (km/s) = 5.19904 5.69290 5.45156
#
# Compressibility (1/GPa) = 0.03119237
#
# Stress axis : x y z
#
# Youngs Moduli (GPa) = 73.35252 129.16916 46.72614
#
# Poissons Ratio (x) = 0.16821 0.10254
# Poissons Ratio (y) = 0.09552 0.10723
# Poissons Ratio (z) = 0.16098 0.29644
#
# Static dielectric constant tensor:
#      x y z
#    x 2.000820 0.000000 0.000000 
#    y 0.000000 1.959450 0.000000 
#    z 0.000000 0.000000 2.090310 
# 
# From -- ./inp_files/4754.got.cif
#   From: 2010.05.17/outbox.cif.g08.bks.cpg/sg29_3_cif.got.tgz:4754.got - 2010.06.04 01:19:37.
