data_PCOD9340650
_publ_section_title
;
Structure prediction by ZEFSAII (Michael W. Deem and Ramdas Pophale) SiO2 
 PCOD9340650
Probable space group: P C A 21
;
_chemical_formula_sum "Si O2"
_cell_formula_units_Z 24
_cell_length_a 14.135972
_cell_length_b 8.457443
_cell_length_c 8.427971
_cell_angle_alpha 90.000000
_cell_angle_beta 90.000000
_cell_angle_gamma 90.000000
_cell_volume 1007.599140
_symmetry_space_group_name_H-M "P C A 21"
_symmetry_group_IT_number 29
_symmetry_cell_setting 'orthorhombic'
loop_
_space_group_symop_operation_xyz
x,y,z
-x,-y,1/2+z
1/2-x,y,1/2+z
1/2+x,-y,z
loop_
_atom_site_type_symbol
_atom_site_label
_atom_site_fract_x
_atom_site_fract_y
_atom_site_fract_z
Si Si1 0.819315 0.287315 0.924390
Si Si2 0.846698 0.879077 0.498820
Si Si3 0.790728 0.576917 0.303607
Si Si4 0.713370 0.069572 0.711482
Si Si5 0.447433 0.466039 0.032373
Si Si6 0.923009 0.681620 0.732607
O O1 0.732255 0.410488 0.892244
O O2 0.803406 0.150310 0.797870
O O3 0.823735 0.205044 0.095520
O O4 0.911822 0.392836 0.916825
O O5 0.832824 0.709698 0.417151
O O6 0.926397 0.843602 0.631091
O O7 0.753876 0.934358 0.596515
O O8 0.852158 0.002436 0.352422
O O9 0.860403 0.562422 0.153513
O O10 0.687642 0.641999 0.256285
O O11 0.530220 0.542125 0.131435
O O12 0.466099 0.323558 0.910522
#
# Coordination Sequence:
#
# PCOD9340650 Si02
#       6
#     4   4   4   4   4   4
#     4  10  21  40  64  93 129 175 226 271 330 399
#     4  11  22  38  66  96 129 174 228 274 333 395
#     4  11  22  41  72  97 129 178 227 280 341 400
#     4  10  22  38  64  98 131 172 226 268 336 403
#     4  11  24  41  66 101 136 169 229 287 336 399
#     4  11  23  40  62 101 134 170 226 286 336 396
#
# _framework density 23.818998000000001
#
# number of rings (size 3 to 8) (size 9 to 14) (size 15 to 20)
#    0.000    1.333    3.333    3.000    2.333    0.000 
#    0.000    1.667    0.000    0.000    0.000    0.000 
#    0.000    0.000    0.000    0.000    0.000    0.000 
#
# Total GULP energy -133915.578719 kJ/mol
# GULP energy per Si atom -5579.815780 kJ/mol
# Density = 2.376478 g / cm^3
# Si number density = 23.818998 Si / 1000 Ang^3
#
#
#
# Elastic Constant Matrix: (Units=GPa)
#
#
# Indices 1 2 3 4 5 6 
#
# 1 25.4218 -2.2976 9.8878 0.0000 0.0000 0.0000
# 2 -2.2976 91.2334 52.3264 0.0000 0.0000 0.0000
# 3 9.8878 52.3264 126.4356 0.0000 0.0000 0.0000
# 4 0.0000 0.0000 0.0000 50.8847 0.0000 0.0000
# 5 0.0000 0.0000 0.0000 0.0000 40.7668 0.0000
# 6 0.0000 0.0000 0.0000 0.0000 0.0000 14.1243
#
#
#
# Elastic Compliance Matrix: (Units=1/GPa)
#
#
# Indices 1 2 3 4 5 6 
#
# 1 0.041560 0.003817 -0.004830 0.000000 0.000000 0.000000
# 2 0.003817 0.014723 -0.006392 0.000000 0.000000 0.000000
# 3 -0.004830 -0.006392 0.010932 0.000000 0.000000 0.000000
# 4 0.000000 0.000000 0.000000 0.019652 0.000000 0.000000
# 5 0.000000 0.000000 0.000000 0.000000 0.024530 0.000000
# 6 0.000000 0.000000 0.000000 0.000000 0.000000 0.070800
#
#
# Mechanical properties :
#
#
# Convention : Reuss Voigt Hill
#
# Bulk Modulus (GPa) = 19.08201 40.32489 29.70345
# Shear Modulus (GPa) = 23.31279 33.36678 28.33979
#
# Velocity S-wave (km/s) = 3.13189 3.74685 3.45309
# Velocity P-wave (km/s) = 4.59423 5.97369 5.32879
#
# Compressibility (1/GPa) = 0.05240537
#
# Stress axis : x y z
#
# Youngs Moduli (GPa) = 24.06172 67.92130 91.47361
#
# Poissons Ratio (x) = -0.25923 0.44179
# Poissons Ratio (y) = -0.09184 0.58467
# Poissons Ratio (z) = 0.11621 0.43413
#
# Static dielectric constant tensor:
#      x y z
#    x 1.875270 0.000000 0.000000 
#    y 0.000000 1.952910 0.000000 
#    z 0.000000 0.000000 2.034740 
# 
# From -- ./inp_files/1706.got.cif
#   From: 2010.05.17/outbox.cif.g08.bks.cpg/sg29_1_cif.got.tgz:1706.got - 2010.06.04 01:19:37.
