data_PCOD9340564
_publ_section_title
;
Structure prediction by ZEFSAII (Michael W. Deem and Ramdas Pophale) SiO2 
 PCOD9340564
Probable space group: P C A 21
;
_chemical_formula_sum "Si O2"
_cell_formula_units_Z 28
_cell_length_a 15.966687
_cell_length_b 13.046058
_cell_length_c 5.388699
_cell_angle_alpha 90.000000
_cell_angle_beta 90.000000
_cell_angle_gamma 90.000000
_cell_volume 1122.478529
_symmetry_space_group_name_H-M "P C A 21"
_symmetry_group_IT_number 29
_symmetry_cell_setting 'orthorhombic'
loop_
_space_group_symop_operation_xyz
x,y,z
-x,-y,1/2+z
1/2-x,y,1/2+z
1/2+x,-y,z
loop_
_atom_site_type_symbol
_atom_site_label
_atom_site_fract_x
_atom_site_fract_y
_atom_site_fract_z
Si Si1 0.202029 0.342601 0.229830
Si Si2 0.461838 0.888387 0.221074
Si Si3 0.970567 0.872031 0.217543
Si Si4 0.948773 0.511756 0.659684
Si Si5 0.274118 0.117605 0.254848
Si Si6 0.286953 0.860934 0.463151
Si Si7 0.794781 0.384721 0.471622
O O1 0.247171 0.375677 0.483875
O O2 0.109186 0.387418 0.206471
O O3 0.215201 0.218962 0.239776
O O4 0.507073 0.830578 0.447226
O O5 0.367758 0.900502 0.314557
O O6 0.492558 0.006263 0.192468
O O7 0.479222 0.835373 0.958360
O O8 0.871854 0.856980 0.260304
O O9 0.883036 0.427901 0.560116
O O10 0.011337 0.521662 0.423819
O O11 0.248323 0.060857 0.503035
O O12 0.285309 0.881792 0.757558
O O13 0.296292 0.737588 0.460898
O O14 0.731546 0.416377 0.693941
#
# Coordination Sequence:
#
# PCOD9340564 Si02
#       7
#     4   4   4   4   4   4   4
#     4  10  21  41  62  84 123 167 200 253 309 369
#     4  10  21  38  59  89 124 163 201 257 306 362
#     4  10  21  38  59  86 127 165 201 246 317 366
#     4  12  24  40  62  95 123 157 210 254 310 368
#     4  10  21  38  59  87 119 164 209 246 301 374
#     4  10  21  38  61  88 114 155 205 252 301 355
#     4  10  21  41  64  83 118 161 200 246 308 364
#
# _framework density 24.944799
#
# number of rings (size 3 to 8) (size 9 to 14) (size 15 to 20)
#    0.000    1.714    0.000    4.286    0.000    1.143 
#   15.429    0.000    0.000    0.000    0.000    0.000 
#    0.000    0.000    0.000    0.000    0.000    0.000 
#
# Total GULP energy -156502.804639 kJ/mol
# GULP energy per Si atom -5589.385880 kJ/mol
# Density = 2.488802 g / cm^3
# Si number density = 24.944799 Si / 1000 Ang^3
#
#
#
# Elastic Constant Matrix: (Units=GPa)
#
#
# Indices 1 2 3 4 5 6 
#
# 1 101.0055 -12.6083 49.6036 0.0000 0.0000 0.0000
# 2 -12.6083 64.4715 41.2119 0.0000 0.0000 0.0000
# 3 49.6036 41.2119 160.7302 0.0000 0.0000 0.0000
# 4 0.0000 0.0000 0.0000 33.7577 0.0000 0.0000
# 5 0.0000 0.0000 0.0000 0.0000 114.9080 0.0000
# 6 0.0000 0.0000 0.0000 0.0000 0.0000 25.8117
#
#
#
# Elastic Compliance Matrix: (Units=1/GPa)
#
#
# Indices 1 2 3 4 5 6 
#
# 1 0.013551 0.006367 -0.005814 0.000000 0.000000 0.000000
# 2 0.006367 0.021543 -0.007488 0.000000 0.000000 0.000000
# 3 -0.005814 -0.007488 0.009936 0.000000 0.000000 0.000000
# 4 0.000000 0.000000 0.000000 0.029623 0.000000 0.000000
# 5 0.000000 0.000000 0.000000 0.000000 0.008703 0.000000
# 6 0.000000 0.000000 0.000000 0.000000 0.000000 0.038742
#
#
# Mechanical properties :
#
#
# Convention : Reuss Voigt Hill
#
# Bulk Modulus (GPa) = 32.09543 53.62461 42.86002
# Shear Modulus (GPa) = 34.16352 51.42882 42.79617
#
# Velocity S-wave (km/s) = 3.70478 4.54553 4.14652
# Velocity P-wave (km/s) = 5.58525 7.00664 6.33593
#
# Compressibility (1/GPa) = 0.03115708
#
# Stress axis : x y z
#
# Youngs Moduli (GPa) = 73.79743 46.41951 100.64335
#
# Poissons Ratio (x) = -0.29554 0.58518
# Poissons Ratio (y) = -0.46985 0.75367
# Poissons Ratio (z) = 0.42908 0.34761
#
# Static dielectric constant tensor:
#      x y z
#    x 1.945740 0.000000 0.000000 
#    y 0.000000 2.084470 0.000000 
#    z 0.000000 0.000000 2.046240 
# 
# From -- ./inp_files/255.got.cif
#   From: 2010.05.17/outbox.cif.g08.bks.cpg/sg29_1_cif.got.tgz:255.got - 2010.06.04 01:19:37.
