data_PCOD9340866
_publ_section_title
;
Structure prediction by ZEFSAII (Michael W. Deem and Ramdas Pophale) SiO2 
 PCOD9340866
Probable space group: P C A 21
;
_chemical_formula_sum "Si O2"
_cell_formula_units_Z 32
_cell_length_a 13.684065
_cell_length_b 8.110531
_cell_length_c 13.417210
_cell_angle_alpha 90.000000
_cell_angle_beta 90.000000
_cell_angle_gamma 90.000000
_cell_volume 1489.109500
_symmetry_space_group_name_H-M "P C A 21"
_symmetry_group_IT_number 29
_symmetry_cell_setting 'orthorhombic'
loop_
_space_group_symop_operation_xyz
x,y,z
-x,-y,1/2+z
1/2-x,y,1/2+z
1/2+x,-y,z
loop_
_atom_site_type_symbol
_atom_site_label
_atom_site_fract_x
_atom_site_fract_y
_atom_site_fract_z
Si Si1 0.172178 0.494705 0.337720
Si Si2 0.602074 0.939931 0.795087
Si Si3 0.883103 0.029241 0.744488
Si Si4 0.106284 0.325928 0.148032
Si Si5 0.235760 0.138452 0.418867
Si Si6 0.584105 0.421966 0.541452
Si Si7 0.178225 0.259818 0.611234
Si Si8 0.790624 0.252656 0.211511
O O1 0.100029 0.434990 0.248978
O O2 0.215122 0.327251 0.386123
O O3 0.116619 0.587791 0.426787
O O4 0.257294 0.603798 0.287842
O O5 0.650777 0.902754 0.901618
O O6 0.656348 0.819133 0.717005
O O7 0.488376 0.910810 0.779890
O O8 0.634240 0.124139 0.762803
O O9 0.899214 0.865431 0.679317
O O10 0.823297 0.974072 0.842175
O O11 0.811668 0.157983 0.690853
O O12 0.217277 0.351046 0.112150
O O13 0.024998 0.368836 0.068200
O O14 0.193622 0.119186 0.528789
O O15 0.597202 0.612218 0.576129
O O16 0.656805 0.321371 0.613795
#
# Coordination Sequence:
#
# PCOD9340866 Si02
#       8
#     4   4   4   4   4   4   4   4
#     4  10  22  43  64  94 127 159 223 270 311 396
#     4  11  21  40  64  90 131 173 199 266 325 371
#     4  10  22  40  63  91 131 168 207 263 320 383
#     4  11  21  45  64  91 132 169 213 272 317 386
#     4   9  21  43  61  90 125 168 217 263 315 381
#     4  11  24  41  68  95 124 173 217 271 323 382
#     4  11  22  42  67  89 128 175 211 260 324 389
#     4  11  21  40  63  92 130 163 207 271 321 380
#
# _framework density 21.489353999999999
#
# number of rings (size 3 to 8) (size 9 to 14) (size 15 to 20)
#    0.000    1.500    6.250    0.000    1.750    3.000 
#    6.750    0.000    2.750    0.000    0.000    0.000 
#    0.000    0.000    0.000    0.000    0.000    0.000 
#
# Total GULP energy -178784.536439 kJ/mol
# GULP energy per Si atom -5587.016764 kJ/mol
# Density = 2.144044 g / cm^3
# Si number density = 21.489354 Si / 1000 Ang^3
#
#
#
# Elastic Constant Matrix: (Units=GPa)
#
#
# Indices 1 2 3 4 5 6 
#
# 1 100.7474 9.6544 6.1928 0.0000 0.0000 0.0000
# 2 9.6544 43.9346 5.2173 0.0000 0.0000 0.0000
# 3 6.1928 5.2173 61.2562 0.0000 0.0000 0.0000
# 4 0.0000 0.0000 0.0000 22.3868 0.0000 0.0000
# 5 0.0000 0.0000 0.0000 0.0000 23.2788 0.0000
# 6 0.0000 0.0000 0.0000 0.0000 0.0000 20.7444
#
#
#
# Elastic Compliance Matrix: (Units=1/GPa)
#
#
# Indices 1 2 3 4 5 6 
#
# 1 0.010183 -0.002137 -0.000847 0.000000 0.000000 0.000000
# 2 -0.002137 0.023442 -0.001781 0.000000 0.000000 0.000000
# 3 -0.000847 -0.001781 0.016562 0.000000 0.000000 0.000000
# 4 0.000000 0.000000 0.000000 0.044669 0.000000 0.000000
# 5 0.000000 0.000000 0.000000 0.000000 0.042958 0.000000
# 6 0.000000 0.000000 0.000000 0.000000 0.000000 0.048206
#
#
# Mechanical properties :
#
#
# Convention : Reuss Voigt Hill
#
# Bulk Modulus (GPa) = 24.59591 27.56300 26.07946
# Shear Modulus (GPa) = 23.91179 25.60691 24.75935
#
# Velocity S-wave (km/s) = 3.33938 3.45571 3.39804
# Velocity P-wave (km/s) = 5.13216 5.36440 5.24956
#
# Compressibility (1/GPa) = 0.04065716
#
# Stress axis : x y z
#
# Youngs Moduli (GPa) = 98.20596 42.65820 60.37841
#
# Poissons Ratio (x) = 0.09116 0.05117
# Poissons Ratio (y) = 0.20986 0.10751
# Poissons Ratio (z) = 0.08322 0.07596
#
# Static dielectric constant tensor:
#      x y z
#    x 1.776170 0.000000 0.000000 
#    y 0.000000 1.822200 0.000000 
#    z 0.000000 0.000000 1.795830 
# 
# From -- ./inp_files/4738.got.cif
#   From: 2010.05.17/outbox.cif.g08.bks.cpg/sg29_3_cif.got.tgz:4738.got - 2010.06.04 01:19:37.
