data_PCOD9340319
_publ_section_title
;
Structure prediction by ZEFSAII (Michael W. Deem and Ramdas Pophale) SiO2 
 PCOD9340319
Probable space group: P C A 21
;
_chemical_formula_sum "Si O2"
_cell_formula_units_Z 28
_cell_length_a 12.438001
_cell_length_b 11.464103
_cell_length_c 8.228844
_cell_angle_alpha 90.000000
_cell_angle_beta 90.000000
_cell_angle_gamma 90.000000
_cell_volume 1173.355183
_symmetry_space_group_name_H-M "P C A 21"
_symmetry_group_IT_number 29
_symmetry_cell_setting 'orthorhombic'
loop_
_space_group_symop_operation_xyz
x,y,z
-x,-y,1/2+z
1/2-x,y,1/2+z
1/2+x,-y,z
loop_
_atom_site_type_symbol
_atom_site_label
_atom_site_fract_x
_atom_site_fract_y
_atom_site_fract_z
Si Si1 0.796933 0.678095 0.068710
Si Si2 0.437948 0.883749 0.761561
Si Si3 0.915464 0.698130 0.411239
Si Si4 0.437944 0.116246 0.926205
Si Si5 0.084540 0.698140 0.776518
Si Si6 0.296931 0.678094 0.619042
Si Si7 0.084904 0.499995 0.343869
O O1 0.843418 0.677585 0.249459
O O2 0.849634 0.788517 0.976357
O O3 0.669737 0.692992 0.055621
O O4 0.841324 0.563765 0.976968
O O5 0.522289 0.818878 0.881055
O O6 0.500008 0.911736 0.593889
O O7 0.349640 0.788515 0.711389
O O8 0.394534 0.999997 0.843881
O O9 0.003750 0.597338 0.411869
O O10 0.522296 0.181113 0.806722
O O11 0.156589 0.677582 0.938289
O O12 0.169737 0.693003 0.632133
O O13 0.996251 0.597350 0.775876
O O14 0.341321 0.563761 0.710778
#
# Coordination Sequence:
#
# PCOD9340319 Si02
#       7
#     4   4   4   4   4   4   4
#     4  10  22  38  57  83 114 147 185 230 279 332
#     4   9  20  39  58  80 111 146 185 229 277 329
#     4  10  22  38  57  83 114 147 185 230 279 332
#     4   9  20  39  58  80 111 146 185 229 277 329
#     4  10  22  38  57  83 114 147 185 230 279 332
#     4  10  22  38  57  83 114 147 185 230 279 332
#     4  10  20  36  58  80 110 146 184 226 272 328
#
# _framework density 23.863191
#
# number of rings (size 3 to 8) (size 9 to 14) (size 15 to 20)
#    0.000    2.286    0.000    3.429    0.000   10.286 
#    0.000   14.286    0.000    0.000    0.000    0.000 
#    0.000    0.000    0.000    0.000    0.000    0.000 
#
# Total GULP energy -157001.033402 kJ/mol
# GULP energy per Si atom -5607.179764 kJ/mol
# Density = 2.380888 g / cm^3
# Si number density = 23.863191 Si / 1000 Ang^3
#
#
#
# Elastic Constant Matrix: (Units=GPa)
#
#
# Indices 1 2 3 4 5 6 
#
# 1 114.5451 20.7618 47.9157 0.0000 0.0000 0.0000
# 2 20.7618 117.9560 45.4613 0.0000 0.0000 0.0000
# 3 47.9157 45.4613 87.2549 0.0000 0.0000 0.0000
# 4 0.0000 0.0000 0.0000 14.5513 0.0000 0.0000
# 5 0.0000 0.0000 0.0000 0.0000 53.1682 0.0000
# 6 0.0000 0.0000 0.0000 0.0000 0.0000 5.5947
#
#
#
# Elastic Compliance Matrix: (Units=1/GPa)
#
#
# Indices 1 2 3 4 5 6 
#
# 1 0.011358 0.000506 -0.006501 0.000000 0.000000 0.000000
# 2 0.000506 0.010630 -0.005817 0.000000 0.000000 0.000000
# 3 -0.006501 -0.005817 0.018061 0.000000 0.000000 0.000000
# 4 0.000000 0.000000 0.000000 0.068722 0.000000 0.000000
# 5 0.000000 0.000000 0.000000 0.000000 0.018808 0.000000
# 6 0.000000 0.000000 0.000000 0.000000 0.000000 0.178742
#
#
# Mechanical properties :
#
#
# Convention : Reuss Voigt Hill
#
# Bulk Modulus (GPa) = 60.87552 60.89262 60.88407
# Shear Modulus (GPa) = 14.90668 28.37065 21.63866
#
# Velocity S-wave (km/s) = 2.50206 3.45177 3.01455
# Velocity P-wave (km/s) = 5.82346 6.43887 6.13888
#
# Compressibility (1/GPa) = 0.01642696
#
# Stress axis : x y z
#
# Youngs Moduli (GPa) = 88.04504 94.06968 55.36717
#
# Poissons Ratio (x) = -0.04764 0.35994
# Poissons Ratio (y) = -0.04459 0.32206
# Poissons Ratio (z) = 0.57238 0.54718
#
# Static dielectric constant tensor:
#      x y z
#    x 1.850980 0.000000 0.000000 
#    y 0.000000 1.857910 0.000000 
#    z 0.000000 0.000000 1.937560 
# 
# From -- ./inp_files/1810.got.cif
#   From: 2010.05.17/outbox.cif.g08.bks.cpg/sg29_1_cif.got.tgz:1810.got - 2010.06.04 01:19:37.
