data_PCOD9340493
_publ_section_title
;
Structure prediction by ZEFSAII (Michael W. Deem and Ramdas Pophale) SiO2 
 PCOD9340493
Probable space group: P C A 21
;
_chemical_formula_sum "Si O2"
_cell_formula_units_Z 20
_cell_length_a 9.062182
_cell_length_b 6.812536
_cell_length_c 14.801733
_cell_angle_alpha 90.000000
_cell_angle_beta 90.000000
_cell_angle_gamma 90.000000
_cell_volume 913.806318
_symmetry_space_group_name_H-M "P C A 21"
_symmetry_group_IT_number 29
_symmetry_cell_setting 'orthorhombic'
loop_
_space_group_symop_operation_xyz
x,y,z
-x,-y,1/2+z
1/2-x,y,1/2+z
1/2+x,-y,z
loop_
_atom_site_type_symbol
_atom_site_label
_atom_site_fract_x
_atom_site_fract_y
_atom_site_fract_z
Si Si1 0.414449 0.565225 0.194520
Si Si2 0.529327 0.857361 0.756292
Si Si3 0.189537 0.839532 0.542194
Si Si4 0.103721 0.153461 0.107683
Si Si5 0.782640 0.184187 0.346757
O O1 0.409330 0.334653 0.206861
O O2 0.308057 0.678533 0.122687
O O3 0.378264 0.658531 0.291610
O O4 0.574343 0.638330 0.156149
O O5 0.465924 0.006149 0.681605
O O6 0.651163 0.974736 0.814238
O O7 0.248244 0.050199 0.576472
O O8 0.613358 0.199618 0.314889
O O9 0.280919 0.787070 0.453881
O O10 0.986103 0.149590 0.025324
#
# Coordination Sequence:
#
# PCOD9340493 Si02
#       5
#     4   4   4   4   4
#     4   9  23  40  64  92 132 173 216 269 340 402
#     4  11  21  44  65  95 132 180 214 284 331 406
#     4  10  20  43  62  98 125 173 218 279 330 403
#     4   9  19  40  64  86 130 166 214 267 339 391
#     4  11  23  41  67  97 131 168 228 277 344 390
#
# _framework density 21.886476999999999
#
# number of rings (size 3 to 8) (size 9 to 14) (size 15 to 20)
#    1.200    0.800    2.000    1.200    0.000    4.800 
#    7.200    0.000    0.000    0.000    0.000    0.000 
#    0.000    0.000    0.000    0.000    0.000    0.000 
#
# Total GULP energy -111425.142289 kJ/mol
# GULP energy per Si atom -5571.257114 kJ/mol
# Density = 2.183666 g / cm^3
# Si number density = 21.886477 Si / 1000 Ang^3
#
#
#
# Elastic Constant Matrix: (Units=GPa)
#
#
# Indices 1 2 3 4 5 6 
#
# 1 64.6238 -1.0730 -9.0276 0.0000 0.0000 0.0000
# 2 -1.0730 96.7525 10.2435 0.0000 0.0000 0.0000
# 3 -9.0276 10.2435 59.7111 0.0000 0.0000 0.0000
# 4 0.0000 0.0000 0.0000 5.5900 0.0000 0.0000
# 5 0.0000 0.0000 0.0000 0.0000 25.7596 0.0000
# 6 0.0000 0.0000 0.0000 0.0000 0.0000 25.0689
#
#
#
# Elastic Compliance Matrix: (Units=1/GPa)
#
#
# Indices 1 2 3 4 5 6 
#
# 1 0.015809 -0.000079 0.002404 0.000000 0.000000 0.000000
# 2 -0.000079 0.010527 -0.001818 0.000000 0.000000 0.000000
# 3 0.002404 -0.001818 0.017423 0.000000 0.000000 0.000000
# 4 0.000000 0.000000 0.000000 0.178891 0.000000 0.000000
# 5 0.000000 0.000000 0.000000 0.000000 0.038821 0.000000
# 6 0.000000 0.000000 0.000000 0.000000 0.000000 0.039890
#
#
# Mechanical properties :
#
#
# Convention : Reuss Voigt Hill
#
# Bulk Modulus (GPa) = 22.33558 24.59701 23.46630
# Shear Modulus (GPa) = 15.85939 26.01333 20.93636
#
# Velocity S-wave (km/s) = 2.69480 3.45129 3.09623
# Velocity P-wave (km/s) = 4.46206 5.21006 4.85050
#
# Compressibility (1/GPa) = 0.04477161
#
# Stress axis : x y z
#
# Youngs Moduli (GPa) = 63.25651 94.99165 57.39680
#
# Poissons Ratio (x) = 0.00752 -0.13796
# Poissons Ratio (y) = 0.00501 0.10434
# Poissons Ratio (z) = -0.15205 0.17269
#
# Static dielectric constant tensor:
#      x y z
#    x 1.895470 0.000000 0.000000 
#    y 0.000000 1.799030 0.000000 
#    z 0.000000 0.000000 1.805030 
# 
# From -- ./inp_files/4440.got.cif
#   From: 2010.05.17/outbox.cif.g08.bks.cpg/sg29_3_cif.got.tgz:4440.got - 2010.06.04 01:19:37.
