data_PCOD9340802
_publ_section_title
;
Structure prediction by ZEFSAII (Michael W. Deem and Ramdas Pophale) SiO2 
 PCOD9340802
Probable space group: P C A 21
;
_chemical_formula_sum "Si O2"
_cell_formula_units_Z 28
_cell_length_a 10.992217
_cell_length_b 12.237390
_cell_length_c 8.854740
_cell_angle_alpha 90.000000
_cell_angle_beta 90.000000
_cell_angle_gamma 90.000000
_cell_volume 1191.104617
_symmetry_space_group_name_H-M "P C A 21"
_symmetry_group_IT_number 29
_symmetry_cell_setting 'orthorhombic'
loop_
_space_group_symop_operation_xyz
x,y,z
-x,-y,1/2+z
1/2-x,y,1/2+z
1/2+x,-y,z
loop_
_atom_site_type_symbol
_atom_site_label
_atom_site_fract_x
_atom_site_fract_y
_atom_site_fract_z
Si Si1 0.284537 0.951132 0.527120
Si Si2 0.369613 0.442588 0.508394
Si Si3 0.484344 0.852698 0.347278
Si Si4 0.884339 0.515007 0.164401
Si Si5 0.352316 0.197021 0.586773
Si Si6 0.582584 0.084583 0.324028
Si Si7 0.593597 0.769790 0.657928
O O1 0.353950 0.860184 0.426196
O O2 0.312587 0.923259 0.698695
O O3 0.145422 0.933328 0.483764
O O4 0.336263 0.076382 0.510029
O O5 0.252346 0.494656 0.594964
O O6 0.500670 0.454088 0.590010
O O7 0.377753 0.498779 0.344740
O O8 0.343906 0.311404 0.496243
O O9 0.532163 0.791548 0.199226
O O10 0.565776 0.821146 0.493081
O O11 0.505178 0.976972 0.297666
O O12 0.917918 0.641709 0.141037
O O13 0.232041 0.198624 0.692759
O O14 0.500582 0.186406 0.281866
#
# Coordination Sequence:
#
# PCOD9340802 Si02
#       7
#     4   4   4   4   4   4   4
#     4  10  22  38  59  92 131 179 222 275 331 404
#     4  11  26  47  78 108 142 187 248 316 381 450
#     4  10  22  37  62  93 137 177 225 282 331 420
#     4  11  26  48  77 107 143 185 247 314 382 449
#     4  10  23  40  71  97 134 186 238 284 354 430
#     4  10  22  38  59  91 133 176 223 275 328 408
#     4  10  23  40  68  98 134 180 233 282 353 423
#
# _framework density 23.50759
#
# number of rings (size 3 to 8) (size 9 to 14) (size 15 to 20)
#    0.000    1.714    1.429    0.857   16.000    1.143 
#    2.571    1.429    0.000    0.000    0.000    0.000 
#    0.000    0.000    0.000    0.000    0.000    0.000 
#
# Total GULP energy -156205.446449 kJ/mol
# GULP energy per Si atom -5578.765945 kJ/mol
# Density = 2.345409 g / cm^3
# Si number density = 23.507590 Si / 1000 Ang^3
#
#
#
# Elastic Constant Matrix: (Units=GPa)
#
#
# Indices 1 2 3 4 5 6 
#
# 1 90.7152 29.5856 61.8287 0.0000 0.0000 0.0000
# 2 29.5856 50.3645 10.9204 0.0000 0.0000 0.0000
# 3 61.8287 10.9204 105.5363 0.0000 0.0000 0.0000
# 4 0.0000 0.0000 0.0000 30.2556 0.0000 0.0000
# 5 0.0000 0.0000 0.0000 0.0000 41.7287 0.0000
# 6 0.0000 0.0000 0.0000 0.0000 0.0000 36.8114
#
#
#
# Elastic Compliance Matrix: (Units=1/GPa)
#
#
# Indices 1 2 3 4 5 6 
#
# 1 0.022951 -0.010809 -0.012327 0.000000 0.000000 0.000000
# 2 -0.010809 0.025402 0.003704 0.000000 0.000000 0.000000
# 3 -0.012327 0.003704 0.016314 0.000000 0.000000 0.000000
# 4 0.000000 0.000000 0.000000 0.033052 0.000000 0.000000
# 5 0.000000 0.000000 0.000000 0.000000 0.023964 0.000000
# 6 0.000000 0.000000 0.000000 0.000000 0.000000 0.027165
#
#
# Mechanical properties :
#
#
# Convention : Reuss Voigt Hill
#
# Bulk Modulus (GPa) = 38.75671 50.14282 44.44976
# Shear Modulus (GPa) = 25.46959 31.37790 28.42374
#
# Velocity S-wave (km/s) = 3.29517 3.65745 3.48103
# Velocity P-wave (km/s) = 5.56778 6.26201 5.92507
#
# Compressibility (1/GPa) = 0.02580198
#
# Stress axis : x y z
#
# Youngs Moduli (GPa) = 43.57199 39.36753 61.29695
#
# Poissons Ratio (x) = 0.42552 0.75562
# Poissons Ratio (y) = 0.47097 -0.22704
# Poissons Ratio (z) = 0.53712 -0.14582
#
# Static dielectric constant tensor:
#      x y z
#    x 1.969110 0.000000 0.000000 
#    y 0.000000 1.852030 0.000000 
#    z 0.000000 0.000000 1.955760 
# 
# From -- ./inp_files/1448.got.cif
#   From: 2010.05.17/outbox.cif.g08.bks.cpg/sg29_1_cif.got.tgz:1448.got - 2010.06.04 01:19:37.
