data_PCOD9340143
_publ_section_title
;
Structure prediction by ZEFSAII (Michael W. Deem and Ramdas Pophale) SiO2 
 PCOD9340143
Probable space group: P C A 21
;
_chemical_formula_sum "Si O2"
_cell_formula_units_Z 28
_cell_length_a 18.584597
_cell_length_b 8.701109
_cell_length_c 8.656600
_cell_angle_alpha 90.000000
_cell_angle_beta 90.000000
_cell_angle_gamma 90.000000
_cell_volume 1399.829390
_symmetry_space_group_name_H-M "P C A 21"
_symmetry_group_IT_number 29
_symmetry_cell_setting 'orthorhombic'
loop_
_space_group_symop_operation_xyz
x,y,z
-x,-y,1/2+z
1/2-x,y,1/2+z
1/2+x,-y,z
loop_
_atom_site_type_symbol
_atom_site_label
_atom_site_fract_x
_atom_site_fract_y
_atom_site_fract_z
Si Si1 0.852877 0.203417 0.403340
Si Si2 0.505914 0.226961 0.526060
Si Si3 0.227550 0.742378 0.195657
Si Si4 0.562784 0.514534 0.860701
Si Si5 0.507464 0.933492 0.348668
Si Si6 0.065427 0.336088 0.519598
Si Si7 0.156195 0.595681 0.484945
O O1 0.822874 0.175243 0.573584
O O2 0.788268 0.163234 0.287392
O O3 0.874477 0.386402 0.380374
O O4 0.924308 0.107719 0.379252
O O5 0.444154 0.350230 0.486242
O O6 0.482595 0.129437 0.675449
O O7 0.583101 0.316029 0.544366
O O8 0.517702 0.111876 0.382894
O O9 0.177604 0.661169 0.320059
O O10 0.276693 0.628322 0.094551
O O11 0.555256 0.602647 0.695941
O O12 0.492364 0.414432 0.903014
O O13 0.555134 0.840548 0.475688
O O14 0.139827 0.415977 0.476324
#
# Coordination Sequence:
#
# PCOD9340143 Si02
#       7
#     4   4   4   4   4   4   4
#     4  10  20  36  58  86 110 140 191 224 284 325
#     4  11  23  37  57  84 113 147 187 236 284 332
#     4  10  20  34  58  82 112 148 180 234 262 344
#     4  10  19  33  55  83 111 137 178 231 273 321
#     4  11  23  37  57  84 113 147 187 236 284 332
#     4  10  19  33  55  83 111 137 178 231 273 321
#     4  10  20  36  58  86 110 140 191 224 284 325
#
# _framework density 20.002437
#
# number of rings (size 3 to 8) (size 9 to 14) (size 15 to 20)
#    0.000    1.714    2.857    3.429   12.000    0.000 
#    0.000    0.000    0.000   10.286    0.000    0.000 
#    0.000    0.000    0.000    0.000    0.000    0.000 
#
# Total GULP energy -155967.271422 kJ/mol
# GULP energy per Si atom -5570.259694 kJ/mol
# Density = 1.995691 g / cm^3
# Si number density = 20.002437 Si / 1000 Ang^3
#
#
#
# Elastic Constant Matrix: (Units=GPa)
#
#
# Indices 1 2 3 4 5 6 
#
# 1 28.3425 1.6466 18.8567 0.0000 0.0000 0.0000
# 2 1.6466 62.7337 -2.8238 0.0000 0.0000 0.0000
# 3 18.8567 -2.8238 87.1742 0.0000 0.0000 0.0000
# 4 0.0000 0.0000 0.0000 26.8710 0.0000 0.0000
# 5 0.0000 0.0000 0.0000 0.0000 21.0371 0.0000
# 6 0.0000 0.0000 0.0000 0.0000 0.0000 -8.5343
#
#
#
# Elastic Compliance Matrix: (Units=1/GPa)
#
#
# Indices 1 2 3 4 5 6 
#
# 1 0.041353 -0.001490 -0.008993 0.000000 0.000000 0.000000
# 2 -0.001490 0.016017 0.000841 0.000000 0.000000 0.000000
# 3 -0.008993 0.000841 0.013444 0.000000 0.000000 0.000000
# 4 0.000000 0.000000 0.000000 0.037215 0.000000 0.000000
# 5 0.000000 0.000000 0.000000 0.000000 0.047535 0.000000
# 6 0.000000 0.000000 0.000000 0.000000 0.000000 -0.117174
#
#
# Mechanical properties :
#
#
# Convention : Reuss Voigt Hill
#
# Bulk Modulus (GPa) = 19.40646 23.73440 21.57043
# Shear Modulus (GPa) = 66.79981 18.57948 42.68965
#
# Velocity S-wave (km/s) = 5.78518 3.05103 4.62478
# Velocity P-wave (km/s) = 7.37208 4.92983 6.27100
#
# Compressibility (1/GPa) = 0.05152925
#
# Stress axis : x y z
#
# Youngs Moduli (GPa) = 24.18223 62.43223 74.38326
#
# Poissons Ratio (x) = 0.09304 0.66895
# Poissons Ratio (y) = 0.03604 -0.06257
# Poissons Ratio (z) = 0.21748 -0.05252
#
# Static dielectric constant tensor:
#      x y z
#    x 1.733700 0.000000 0.000000 
#    y 0.000000 1.755270 0.000000 
#    z 0.000000 0.000000 1.791110 
# 
# From -- ./inp_files/2065.got.cif
#   From: 2010.05.17/outbox.cif.g08.bks.cpg/sg29_2_cif.got.tgz:2065.got - 2010.06.04 01:19:37.
