data_PCOD9340757
_publ_section_title
;
Structure prediction by ZEFSAII (Michael W. Deem and Ramdas Pophale) SiO2 
 PCOD9340757
Probable space group: P C A 21
;
_chemical_formula_sum "Si O2"
_cell_formula_units_Z 24
_cell_length_a 9.852794
_cell_length_b 9.287058
_cell_length_c 13.950219
_cell_angle_alpha 90.000000
_cell_angle_beta 90.000000
_cell_angle_gamma 90.000000
_cell_volume 1276.493437
_symmetry_space_group_name_H-M "P C A 21"
_symmetry_group_IT_number 29
_symmetry_cell_setting 'orthorhombic'
loop_
_space_group_symop_operation_xyz
x,y,z
-x,-y,1/2+z
1/2-x,y,1/2+z
1/2+x,-y,z
loop_
_atom_site_type_symbol
_atom_site_label
_atom_site_fract_x
_atom_site_fract_y
_atom_site_fract_z
Si Si1 0.870362 0.140888 0.368150
Si Si2 0.952682 0.627524 0.543409
Si Si3 0.870360 0.140885 0.718664
Si Si4 0.721574 0.337220 0.043407
Si Si5 0.611958 0.811014 0.232076
Si Si6 0.388047 0.188983 0.354742
O O1 0.750005 0.126542 0.293404
O O2 0.817121 0.238582 0.453148
O O3 0.994888 0.210141 0.310965
O O4 0.905004 0.975414 0.393734
O O5 0.876233 0.475207 0.543407
O O6 0.905227 0.709438 0.640299
O O7 0.905230 0.709441 0.446518
O O8 0.118007 0.622754 0.543409
O O9 0.817127 0.238579 0.633663
O O10 0.994882 0.210137 0.775853
O O11 0.905002 0.975410 0.693083
O O12 0.750003 0.794862 0.293408
#
# Coordination Sequence:
#
# PCOD9340757 Si02
#       6
#     4   4   4   4   4   4
#     4  10  21  44  68  94 121 167 211 270 315 367
#     4  12  27  44  60  96 132 174 209 260 318 384
#     4  10  21  44  68  94 121 167 211 270 315 367
#     4  12  27  42  64  92 136 172 213 256 318 380
#     4  10  23  42  71  95 124 161 219 265 320 374
#     4  10  23  42  71  95 124 161 219 265 320 374
#
# _framework density 18.801507000000001
#
# number of rings (size 3 to 8) (size 9 to 14) (size 15 to 20)
#    0.000    1.333    3.333    1.000    4.667    2.667 
#    0.000    0.000    0.000    0.000    0.000    0.000 
#    0.000    0.000    0.000    0.000    0.000    0.000 
#
# Total GULP energy -133967.213380 kJ/mol
# GULP energy per Si atom -5581.967224 kJ/mol
# Density = 1.875871 g / cm^3
# Si number density = 18.801507 Si / 1000 Ang^3
#
#
#
# Elastic Constant Matrix: (Units=GPa)
#
#
# Indices 1 2 3 4 5 6 
#
# 1 112.0441 14.5377 41.4060 0.0000 0.0000 0.0000
# 2 14.5377 98.7400 78.7107 0.0000 0.0000 0.0000
# 3 41.4060 78.7107 105.7720 0.0000 0.0000 0.0000
# 4 0.0000 0.0000 0.0000 -142.2037 0.0000 0.0000
# 5 0.0000 0.0000 0.0000 0.0000 26.2017 0.0000
# 6 0.0000 0.0000 0.0000 0.0000 0.0000 36.1763
#
#
#
# Elastic Compliance Matrix: (Units=1/GPa)
#
#
# Indices 1 2 3 4 5 6 
#
# 1 0.011206 0.004540 -0.007765 0.000000 0.000000 0.000000
# 2 0.004540 0.026736 -0.021673 0.000000 0.000000 0.000000
# 3 -0.007765 -0.021673 0.028622 0.000000 0.000000 0.000000
# 4 0.000000 0.000000 0.000000 -0.007032 0.000000 0.000000
# 5 0.000000 0.000000 0.000000 0.000000 0.038166 0.000000
# 6 0.000000 0.000000 0.000000 0.000000 0.000000 0.027642
#
#
# Mechanical properties :
#
#
# Convention : Reuss Voigt Hill
#
# Bulk Modulus (GPa) = 59.63849 65.09611 62.36730
# Shear Modulus (GPa) = 27.66652 -3.83837 11.91408
#
# Velocity S-wave (km/s) = 3.84018 -1.43037 2.52002
# Velocity P-wave (km/s) = 7.17298 5.65421 6.45839
#
# Compressibility (1/GPa) = 0.01676769
#
# Stress axis : x y z
#
# Youngs Moduli (GPa) = 89.24093 37.40330 34.93813
#
# Poissons Ratio (x) = -0.16982 0.27130
# Poissons Ratio (y) = -0.40518 0.75721
# Poissons Ratio (z) = 0.69298 0.81063
#
# Static dielectric constant tensor:
#      x y z
#    x 1.546850 0.000000 0.000000 
#    y 0.000000 1.666010 0.000000 
#    z 0.000000 0.000000 1.611020 
# 
# From -- ./inp_files/2809.got.cif
#   From: 2010.05.17/outbox.cif.g08.bks.cpg/sg29_2_cif.got.tgz:2809.got - 2010.06.04 01:19:37.
