data_PCOD9340914
_publ_section_title
;
Structure prediction by ZEFSAII (Michael W. Deem and Ramdas Pophale) SiO2 
 PCOD9340914
Probable space group: P C A 21
;
_chemical_formula_sum "Si O2"
_cell_formula_units_Z 32
_cell_length_a 8.448340
_cell_length_b 11.723435
_cell_length_c 14.076270
_cell_angle_alpha 90.000000
_cell_angle_beta 90.000000
_cell_angle_gamma 90.000000
_cell_volume 1394.163961
_symmetry_space_group_name_H-M "P C A 21"
_symmetry_group_IT_number 29
_symmetry_cell_setting 'orthorhombic'
loop_
_space_group_symop_operation_xyz
x,y,z
-x,-y,1/2+z
1/2-x,y,1/2+z
1/2+x,-y,z
loop_
_atom_site_type_symbol
_atom_site_label
_atom_site_fract_x
_atom_site_fract_y
_atom_site_fract_z
Si Si1 0.801082 0.084007 0.626130
Si Si2 0.802986 0.829466 0.683882
Si Si3 0.862690 0.259828 0.259813
Si Si4 0.466239 0.004286 0.990148
Si Si5 0.846562 0.621011 0.104132
Si Si6 0.781972 0.851175 0.384225
Si Si7 0.922677 0.635783 0.897624
Si Si8 0.132867 0.533554 0.220042
O O1 0.751769 0.161644 0.715659
O O2 0.944692 0.102497 0.552109
O O3 0.844014 0.956443 0.656583
O O4 0.650946 0.066060 0.557749
O O5 0.715487 0.750652 0.608738
O O6 0.685751 0.848654 0.772532
O O7 0.965340 0.767248 0.714310
O O8 0.771603 0.374310 0.232083
O O9 0.922728 0.289166 0.367066
O O10 0.368415 0.068325 0.908222
O O11 0.582028 0.911381 0.943712
O O12 0.695305 0.547443 0.135815
O O13 0.975535 0.597809 0.186143
O O14 0.924017 0.588940 0.003986
O O15 0.727275 0.721712 0.400650
O O16 0.896250 0.540529 0.815769
#
# Coordination Sequence:
#
# PCOD9340914 Si02
#       8
#     4   4   4   4   4   4   4   4
#     4  11  23  42  72 103 150 186 240 294 375 441
#     4  11  24  47  72 101 148 196 229 307 369 437
#     4  11  25  47  68 105 145 188 241 302 356 441
#     4  10  22  41  68 107 143 191 243 290 374 455
#     4  12  25  48  80 103 144 195 243 308 379 428
#     4  10  23  42  66 100 149 182 241 298 362 436
#     4  11  26  46  73  99 152 190 252 303 365 432
#     4  12  26  49  73 108 143 188 253 306 368 432
#
# _framework density 22.952822999999999
#
# number of rings (size 3 to 8) (size 9 to 14) (size 15 to 20)
#    0.000    1.000    5.000    1.500    8.750    0.000 
#    0.000    0.000    0.000    0.000    0.000    0.000 
#    0.000    0.000    0.000    0.000    0.000    0.000 
#
# Total GULP energy -178528.673424 kJ/mol
# GULP energy per Si atom -5579.021044 kJ/mol
# Density = 2.290058 g / cm^3
# Si number density = 22.952823 Si / 1000 Ang^3
#
#
#
# Elastic Constant Matrix: (Units=GPa)
#
#
# Indices 1 2 3 4 5 6 
#
# 1 51.4923 25.4864 -6.6235 0.0000 0.0000 0.0000
# 2 25.4864 107.1187 30.8850 0.0000 0.0000 0.0000
# 3 -6.6235 30.8850 103.0486 0.0000 0.0000 0.0000
# 4 0.0000 0.0000 0.0000 33.5724 0.0000 0.0000
# 5 0.0000 0.0000 0.0000 0.0000 19.7073 0.0000
# 6 0.0000 0.0000 0.0000 0.0000 0.0000 21.0194
#
#
#
# Elastic Compliance Matrix: (Units=1/GPa)
#
#
# Indices 1 2 3 4 5 6 
#
# 1 0.023065 -0.006475 0.003423 0.000000 0.000000 0.000000
# 2 -0.006475 0.012036 -0.004024 0.000000 0.000000 0.000000
# 3 0.003423 -0.004024 0.011130 0.000000 0.000000 0.000000
# 4 0.000000 0.000000 0.000000 0.029786 0.000000 0.000000
# 5 0.000000 0.000000 0.000000 0.000000 0.050743 0.000000
# 6 0.000000 0.000000 0.000000 0.000000 0.000000 0.047575
#
#
# Mechanical properties :
#
#
# Convention : Reuss Voigt Hill
#
# Bulk Modulus (GPa) = 31.17101 40.12839 35.64970
# Shear Modulus (GPa) = 25.10295 28.98728 27.04511
#
# Velocity S-wave (km/s) = 3.31066 3.55760 3.43635
# Velocity P-wave (km/s) = 5.31262 5.86483 5.59554
#
# Compressibility (1/GPa) = 0.03208109
#
# Stress axis : x y z
#
# Youngs Moduli (GPa) = 43.35487 83.08361 89.84654
#
# Poissons Ratio (x) = 0.53796 -0.30756
# Poissons Ratio (y) = 0.28072 0.36150
# Poissons Ratio (z) = -0.14841 0.33429
#
# Static dielectric constant tensor:
#      x y z
#    x 1.909860 0.000000 0.000000 
#    y 0.000000 1.901530 0.000000 
#    z 0.000000 0.000000 1.958330 
# 
# From -- ./inp_files/4297.got.cif
#   From: 2010.05.17/outbox.cif.g08.bks.cpg/sg29_3_cif.got.tgz:4297.got - 2010.06.04 01:19:37.
