data_PCOD9340197
_publ_section_title
;
Structure prediction by ZEFSAII (Michael W. Deem and Ramdas Pophale) SiO2 
 PCOD9340197
Probable space group: P C A 21
;
_chemical_formula_sum "Si O2"
_cell_formula_units_Z 16
_cell_length_a 16.645877
_cell_length_b 7.935487
_cell_length_c 5.261987
_cell_angle_alpha 90.000000
_cell_angle_beta 90.000000
_cell_angle_gamma 90.000000
_cell_volume 695.072388
_symmetry_space_group_name_H-M "P C A 21"
_symmetry_group_IT_number 29
_symmetry_cell_setting 'orthorhombic'
loop_
_space_group_symop_operation_xyz
x,y,z
-x,-y,1/2+z
1/2-x,y,1/2+z
1/2+x,-y,z
loop_
_atom_site_type_symbol
_atom_site_label
_atom_site_fract_x
_atom_site_fract_y
_atom_site_fract_z
Si Si1 0.965022 0.567895 0.358420
Si Si2 0.532058 0.924033 0.116808
Si Si3 0.223701 0.502732 0.830979
Si Si4 0.789910 0.876710 0.820562
O O1 0.985315 0.745029 0.487705
O O2 0.869425 0.543377 0.336944
O O3 0.999307 0.442979 0.575130
O O4 0.519003 0.044827 0.873056
O O5 0.623087 0.920517 0.217598
O O6 0.248943 0.598433 0.580024
O O7 0.276415 0.327993 0.830175
O O8 0.727396 0.936022 0.605234
#
# Coordination Sequence:
#
# PCOD9340197 Si02
#       4
#     4   4   4   4
#     4  12  25  41  67 103 138 172 221 286 340 392
#     4  12  25  41  67 103 138 172 221 286 340 392
#     4  10  19  36  67  93 117 171 243 257 295 399
#     4  10  19  36  67  93 117 171 243 257 295 399
#
# _framework density 23.019183999999999
#
# number of rings (size 3 to 8) (size 9 to 14) (size 15 to 20)
#    0.000    1.000    5.000    4.500    7.000    0.000 
#    0.000    0.000    0.000   30.000    0.000    0.000 
#    0.000    0.000    0.000    0.000    0.000    0.000 
#
# Total GULP energy -89395.459737 kJ/mol
# GULP energy per Si atom -5587.216234 kJ/mol
# Density = 2.296679 g / cm^3
# Si number density = 23.019184 Si / 1000 Ang^3
#
#
#
# Elastic Constant Matrix: (Units=GPa)
#
#
# Indices 1 2 3 4 5 6 
#
# 1 75.8505 -0.9450 9.6654 0.0000 0.0000 0.0000
# 2 -0.9450 27.8967 -3.4656 0.0000 0.0000 0.0000
# 3 9.6654 -3.4656 157.7179 0.0000 0.0000 0.0000
# 4 0.0000 0.0000 0.0000 30.6440 0.0000 0.0000
# 5 0.0000 0.0000 0.0000 0.0000 66.7483 0.0000
# 6 0.0000 0.0000 0.0000 0.0000 0.0000 0.5608
#
#
#
# Elastic Compliance Matrix: (Units=1/GPa)
#
#
# Indices 1 2 3 4 5 6 
#
# 1 0.013291 0.000350 -0.000807 0.000000 0.000000 0.000000
# 2 0.000350 0.035954 0.000769 0.000000 0.000000 0.000000
# 3 -0.000807 0.000769 0.006407 0.000000 0.000000 0.000000
# 4 0.000000 0.000000 0.000000 0.032633 0.000000 0.000000
# 5 0.000000 0.000000 0.000000 0.000000 0.014982 0.000000
# 6 0.000000 0.000000 0.000000 0.000000 0.000000 1.783106
#
#
# Mechanical properties :
#
#
# Convention : Reuss Voigt Hill
#
# Bulk Modulus (GPa) = 17.76984 30.21943 23.99464
# Shear Modulus (GPa) = 2.62535 36.67131 19.64833
#
# Velocity S-wave (km/s) = 1.06910 3.99567 2.92475
# Velocity P-wave (km/s) = 3.04308 5.86886 4.67461
#
# Compressibility (1/GPa) = 0.05627511
#
# Stress axis : x y z
#
# Youngs Moduli (GPa) = 75.23885 27.81342 156.08491
#
# Poissons Ratio (x) = -0.00973 0.12593
# Poissons Ratio (y) = -0.02633 -0.11996
# Poissons Ratio (z) = 0.06070 -0.02138
#
# Static dielectric constant tensor:
#      x y z
#    x 1.818700 0.000000 0.000000 
#    y 0.000000 1.940040 0.000000 
#    z 0.000000 0.000000 2.006410 
# 
# From -- ./inp_files/137.got.cif
#   From: 2010.05.17/outbox.cif.g08.bks.cpg/sg29_1_cif.got.tgz:137.got - 2010.06.04 01:19:37.
