data_PCOD9340648
_publ_section_title
;
Structure prediction by ZEFSAII (Michael W. Deem and Ramdas Pophale) SiO2 
 PCOD9340648
Probable space group: P C A 21
;
_chemical_formula_sum "Si O2"
_cell_formula_units_Z 24
_cell_length_a 16.361846
_cell_length_b 4.893902
_cell_length_c 10.602596
_cell_angle_alpha 90.000000
_cell_angle_beta 90.000000
_cell_angle_gamma 90.000000
_cell_volume 848.984541
_symmetry_space_group_name_H-M "P C A 21"
_symmetry_group_IT_number 29
_symmetry_cell_setting 'orthorhombic'
loop_
_space_group_symop_operation_xyz
x,y,z
-x,-y,1/2+z
1/2-x,y,1/2+z
1/2+x,-y,z
loop_
_atom_site_type_symbol
_atom_site_label
_atom_site_fract_x
_atom_site_fract_y
_atom_site_fract_z
Si Si1 0.876939 0.510107 0.342010
Si Si2 0.698864 0.016255 0.949530
Si Si3 0.036896 0.439655 0.177811
Si Si4 0.189827 0.322512 0.600582
Si Si5 0.971806 0.939797 0.045943
Si Si6 0.860117 0.263640 0.872684
O O1 0.842376 0.309321 0.448086
O O2 0.963496 0.443846 0.281150
O O3 0.812640 0.497856 0.225243
O O4 0.866844 0.816628 0.388728
O O5 0.782828 0.059885 0.869741
O O6 0.731507 0.857409 0.071072
O O7 0.032529 0.139331 0.120120
O O8 0.113381 0.566217 0.250631
O O9 0.008266 0.638706 0.063864
O O10 0.165019 0.518855 0.483066
O O11 0.115694 0.104959 0.615056
O O12 0.938447 0.082004 0.918894
#
# Coordination Sequence:
#
# PCOD9340648 Si02
#       6
#     4   4   4   4   4   4
#     4  11  22  42  66  94 127 176 214 273 323 394
#     4  11  24  40  66  97 128 173 219 265 329 390
#     4  11  24  39  70  95 129 169 226 266 322 389
#     4  10  22  43  69  91 132 180 220 257 344 401
#     4  10  21  40  63  97 123 175 210 265 320 395
#     4  11  23  44  70  96 129 177 219 266 330 399
#
# _framework density 28.269067
#
# number of rings (size 3 to 8) (size 9 to 14) (size 15 to 20)
#    0.000    1.333    5.000    2.000    7.000    0.000 
#    0.000    5.000    0.000    0.000    0.000    0.000 
#    0.000    0.000    0.000    0.000    0.000    0.000 
#
# Total GULP energy -134451.662213 kJ/mol
# GULP energy per Si atom -5602.152592 kJ/mol
# Density = 2.820473 g / cm^3
# Si number density = 28.269067 Si / 1000 Ang^3
#
#
#
# Elastic Constant Matrix: (Units=GPa)
#
#
# Indices 1 2 3 4 5 6 
#
# 1 122.6023 8.3951 28.4301 0.0000 0.0000 0.0000
# 2 8.3951 141.1503 17.8293 0.0000 0.0000 0.0000
# 3 28.4301 17.8293 105.4848 0.0000 0.0000 0.0000
# 4 0.0000 0.0000 0.0000 34.1441 0.0000 0.0000
# 5 0.0000 0.0000 0.0000 0.0000 22.5203 0.0000
# 6 0.0000 0.0000 0.0000 0.0000 0.0000 27.8084
#
#
#
# Elastic Compliance Matrix: (Units=1/GPa)
#
#
# Indices 1 2 3 4 5 6 
#
# 1 0.008707 -0.000226 -0.002309 0.000000 0.000000 0.000000
# 2 -0.000226 0.007245 -0.001164 0.000000 0.000000 0.000000
# 3 -0.002309 -0.001164 0.010299 0.000000 0.000000 0.000000
# 4 0.000000 0.000000 0.000000 0.029288 0.000000 0.000000
# 5 0.000000 0.000000 0.000000 0.000000 0.044404 0.000000
# 6 0.000000 0.000000 0.000000 0.000000 0.000000 0.035960
#
#
# Mechanical properties :
#
#
# Convention : Reuss Voigt Hill
#
# Bulk Modulus (GPa) = 53.03785 53.17183 53.10484
# Shear Modulus (GPa) = 33.42575 37.86675 35.64625
#
# Velocity S-wave (km/s) = 3.44236 3.66390 3.55486
# Velocity P-wave (km/s) = 5.88237 6.06209 5.97291
#
# Compressibility (1/GPa) = 0.01885446
#
# Stress axis : x y z
#
# Youngs Moduli (GPa) = 114.84660 138.02462 97.09775
#
# Poissons Ratio (x) = 0.03123 0.22415
# Poissons Ratio (y) = 0.02599 0.11298
# Poissons Ratio (z) = 0.26513 0.16061
#
# Static dielectric constant tensor:
#      x y z
#    x 2.248390 0.000000 0.000000 
#    y 0.000000 2.135390 0.000000 
#    z 0.000000 0.000000 2.270940 
# 
# From -- ./inp_files/3574.got.cif
#   From: 2010.05.17/outbox.cif.g08.bks.cpg/sg29_2_cif.got.tgz:3574.got - 2010.06.04 01:19:37.
