data_PCOD9340180
_publ_section_title
;
Structure prediction by ZEFSAII (Michael W. Deem and Ramdas Pophale) SiO2 
 PCOD9340180
Probable space group: P C A 21
;
_chemical_formula_sum "Si O2"
_cell_formula_units_Z 32
_cell_length_a 17.099489
_cell_length_b 5.265177
_cell_length_c 13.741562
_cell_angle_alpha 90.000000
_cell_angle_beta 90.000000
_cell_angle_gamma 90.000000
_cell_volume 1237.178059
_symmetry_space_group_name_H-M "P C A 21"
_symmetry_group_IT_number 29
_symmetry_cell_setting 'orthorhombic'
loop_
_space_group_symop_operation_xyz
x,y,z
-x,-y,1/2+z
1/2-x,y,1/2+z
1/2+x,-y,z
loop_
_atom_site_type_symbol
_atom_site_label
_atom_site_fract_x
_atom_site_fract_y
_atom_site_fract_z
Si Si1 0.284360 0.919808 0.158900
Si Si2 0.350680 0.608460 0.758836
Si Si3 0.691385 0.672920 0.033684
Si Si4 0.022544 0.372301 0.086455
Si Si5 0.069789 0.115695 0.264499
Si Si6 0.333657 0.996359 0.368181
Si Si7 0.988337 0.147911 0.466364
Si Si8 0.313364 0.730249 0.968005
O O1 0.231349 0.698257 0.210115
O O2 0.329865 0.025806 0.252605
O O3 0.222507 0.094287 0.099406
O O4 0.342658 0.852776 0.068937
O O5 0.355664 0.302391 0.760568
O O6 0.362745 0.648926 0.876264
O O7 0.411577 0.833900 0.725425
O O8 0.615835 0.552622 0.085026
O O9 0.764899 0.500437 0.013303
O O10 0.659210 0.743086 0.926754
O O11 0.009954 0.280224 0.197292
O O12 0.986132 0.613952 0.033146
O O13 0.016075 0.112257 0.026600
O O14 0.043935 0.110355 0.374913
O O15 0.403123 0.826536 0.413507
O O16 0.251445 0.898406 0.411204
#
# Coordination Sequence:
#
# PCOD9340180 Si02
#       8
#     4   4   4   4   4   4   4   4
#     4  10  21  37  61  94 128 167 207 260 332 386
#     4  11  25  40  67  97 130 172 214 273 317 400
#     4  10  19  35  64  89 126 164 211 259 312 398
#     4  11  22  42  70  93 121 172 224 258 323 387
#     4  12  25  45  68  95 130 173 225 268 329 378
#     4   9  21  37  58  90 124 162 209 262 319 382
#     4  11  24  45  66  93 128 169 221 277 308 387
#     4  10  21  37  62  91 131 161 207 263 332 380
#
# _framework density 25.865314999999999
#
# number of rings (size 3 to 8) (size 9 to 14) (size 15 to 20)
#    0.000    1.500    2.500    2.250    7.000    1.000 
#    4.500    0.000    0.000    0.000    0.000    0.000 
#    0.000    0.000    0.000    0.000    0.000    0.000 
#
# Total GULP energy -178418.486937 kJ/mol
# GULP energy per Si atom -5575.577717 kJ/mol
# Density = 2.580644 g / cm^3
# Si number density = 25.865315 Si / 1000 Ang^3
#
#
#
# Elastic Constant Matrix: (Units=GPa)
#
#
# Indices 1 2 3 4 5 6 
#
# 1 14.5012 -0.5814 -15.8390 0.0000 0.0000 0.0000
# 2 -0.5814 112.3014 31.5524 0.0000 0.0000 0.0000
# 3 -15.8390 31.5524 146.2001 0.0000 0.0000 0.0000
# 4 0.0000 0.0000 0.0000 18.0445 0.0000 0.0000
# 5 0.0000 0.0000 0.0000 0.0000 38.4958 0.0000
# 6 0.0000 0.0000 0.0000 0.0000 0.0000 13.8943
#
#
#
# Elastic Compliance Matrix: (Units=1/GPa)
#
#
# Indices 1 2 3 4 5 6 
#
# 1 0.078684 -0.002116 0.008981 0.000000 0.000000 0.000000
# 2 -0.002116 0.009536 -0.002287 0.000000 0.000000 0.000000
# 3 0.008981 -0.002287 0.008307 0.000000 0.000000 0.000000
# 4 0.000000 0.000000 0.000000 0.055419 0.000000 0.000000
# 5 0.000000 0.000000 0.000000 0.000000 0.025977 0.000000
# 6 0.000000 0.000000 0.000000 0.000000 0.000000 0.071972
#
#
# Mechanical properties :
#
#
# Convention : Reuss Voigt Hill
#
# Bulk Modulus (GPa) = 9.46226 33.69630 21.57928
# Shear Modulus (GPa) = 18.11814 31.27831 24.69822
#
# Velocity S-wave (km/s) = 2.64953 3.48124 3.09346
# Velocity P-wave (km/s) = 3.60919 5.40505 4.59569
#
# Compressibility (1/GPa) = 0.10568299
#
# Stress axis : x y z
#
# Youngs Moduli (GPa) = 12.70900 104.86237 120.38642
#
# Poissons Ratio (x) = 0.22189 -1.08121
# Poissons Ratio (y) = 0.02689 0.27536
# Poissons Ratio (z) = -0.11414 0.23986
#
# Static dielectric constant tensor:
#      x y z
#    x 2.258040 0.000000 0.000000 
#    y 0.000000 2.124500 0.000000 
#    z 0.000000 0.000000 2.190300 
# 
# From -- ./inp_files/3860.got.cif
#   From: 2010.05.17/outbox.cif.g08.bks.cpg/sg29_2_cif.got.tgz:3860.got - 2010.06.04 01:19:37.
