data_PCOD9340258
_publ_section_title
;
Structure prediction by ZEFSAII (Michael W. Deem and Ramdas Pophale) SiO2 
 PCOD9340258
Probable space group: P C A 21
;
_chemical_formula_sum "Si O2"
_cell_formula_units_Z 28
_cell_length_a 8.447755
_cell_length_b 9.657619
_cell_length_c 13.905831
_cell_angle_alpha 90.000000
_cell_angle_beta 90.000000
_cell_angle_gamma 90.000000
_cell_volume 1134.509992
_symmetry_space_group_name_H-M "P C A 21"
_symmetry_group_IT_number 29
_symmetry_cell_setting 'orthorhombic'
loop_
_space_group_symop_operation_xyz
x,y,z
-x,-y,1/2+z
1/2-x,y,1/2+z
1/2+x,-y,z
loop_
_atom_site_type_symbol
_atom_site_label
_atom_site_fract_x
_atom_site_fract_y
_atom_site_fract_z
Si Si1 0.467349 0.010807 0.417180
Si Si2 0.969015 0.432780 0.698540
Si Si3 0.696509 0.798155 0.500469
Si Si4 0.879681 0.860644 0.670750
Si Si5 0.720705 0.109925 0.285030
Si Si6 0.237258 0.346589 0.314591
Si Si7 0.176541 0.685861 0.648622
O O1 0.339200 0.094914 0.475793
O O2 0.607557 0.105263 0.376704
O O3 0.538540 0.882325 0.475508
O O4 0.376993 0.966226 0.320764
O O5 0.857643 0.528611 0.766107
O O6 0.858052 0.351905 0.620820
O O7 0.085452 0.352393 0.771827
O O8 0.076789 0.546064 0.643289
O O9 0.738240 0.784296 0.611517
O O10 0.723082 0.669379 0.429405
O O11 0.852149 0.789996 0.774982
O O12 0.048675 0.808827 0.626560
O O13 0.848718 0.022248 0.694176
O O14 0.772507 0.261621 0.255093
#
# Coordination Sequence:
#
# PCOD9340258 Si02
#       7
#     4   4   4   4   4   4   4
#     4  10  20  36  57  86 130 157 200 247 303 401
#     4   9  20  37  66  87 116 169 221 250 306 361
#     4  11  23  38  58  92 126 162 205 253 319 381
#     4  11  23  37  61  92 129 161 206 260 326 384
#     4  11  19  37  61  90 123 165 200 253 328 371
#     4  10  19  43  61  90 125 164 208 268 305 372
#     4  10  20  36  60  89 119 160 210 255 301 372
#
# _framework density 24.680259
#
# number of rings (size 3 to 8) (size 9 to 14) (size 15 to 20)
#    0.000    1.714    4.286    1.714    2.000    0.000 
#    0.000    5.714    0.000    0.000    0.000    0.000 
#    0.000    0.000    0.000    0.000    0.000    0.000 
#
# Total GULP energy -156004.917046 kJ/mol
# GULP energy per Si atom -5571.604180 kJ/mol
# Density = 2.462409 g / cm^3
# Si number density = 24.680259 Si / 1000 Ang^3
#
#
#
# Elastic Constant Matrix: (Units=GPa)
#
#
# Indices 1 2 3 4 5 6 
#
# 1 111.7747 24.5654 -0.7405 0.0000 0.0000 0.0000
# 2 24.5654 59.2054 1.8812 0.0000 0.0000 0.0000
# 3 -0.7405 1.8812 55.7246 0.0000 0.0000 0.0000
# 4 0.0000 0.0000 0.0000 18.9292 0.0000 0.0000
# 5 0.0000 0.0000 0.0000 0.0000 26.8334 0.0000
# 6 0.0000 0.0000 0.0000 0.0000 0.0000 58.7708
#
#
#
# Elastic Compliance Matrix: (Units=1/GPa)
#
#
# Indices 1 2 3 4 5 6 
#
# 1 0.009848 -0.004095 0.000269 0.000000 0.000000 0.000000
# 2 -0.004095 0.018611 -0.000683 0.000000 0.000000 0.000000
# 3 0.000269 -0.000683 0.017972 0.000000 0.000000 0.000000
# 4 0.000000 0.000000 0.000000 0.052828 0.000000 0.000000
# 5 0.000000 0.000000 0.000000 0.000000 0.037267 0.000000
# 6 0.000000 0.000000 0.000000 0.000000 0.000000 0.017015
#
#
# Mechanical properties :
#
#
# Convention : Reuss Voigt Hill
#
# Bulk Modulus (GPa) = 26.72756 30.90188 28.81472
# Shear Modulus (GPa) = 28.56648 34.30658 31.43653
#
# Velocity S-wave (km/s) = 3.40584 3.73237 3.57284
# Velocity P-wave (km/s) = 5.13024 5.57873 5.35918
#
# Compressibility (1/GPa) = 0.03741457
#
# Stress axis : x y z
#
# Youngs Moduli (GPa) = 101.54047 53.73153 55.64209
#
# Poissons Ratio (x) = 0.22002 -0.01497
# Poissons Ratio (y) = 0.41579 0.03799
# Poissons Ratio (z) = -0.02733 0.03668
#
# Static dielectric constant tensor:
#      x y z
#    x 2.129810 0.000000 0.000000 
#    y 0.000000 2.038140 0.000000 
#    z 0.000000 0.000000 2.083850 
# 
# From -- ./inp_files/4225.got.cif
#   From: 2010.05.17/outbox.cif.g08.bks.cpg/sg29_3_cif.got.tgz:4225.got - 2010.06.04 01:19:37.
