data_PCOD9340397
_publ_section_title
;
Structure prediction by ZEFSAII (Michael W. Deem and Ramdas Pophale) SiO2 
 PCOD9340397
Probable space group: P C A 21
;
_chemical_formula_sum "Si O2"
_cell_formula_units_Z 32
_cell_length_a 13.912445
_cell_length_b 7.818006
_cell_length_c 12.206402
_cell_angle_alpha 90.000000
_cell_angle_beta 90.000000
_cell_angle_gamma 90.000000
_cell_volume 1327.660788
_symmetry_space_group_name_H-M "P C A 21"
_symmetry_group_IT_number 29
_symmetry_cell_setting 'orthorhombic'
loop_
_space_group_symop_operation_xyz
x,y,z
-x,-y,1/2+z
1/2-x,y,1/2+z
1/2+x,-y,z
loop_
_atom_site_type_symbol
_atom_site_label
_atom_site_fract_x
_atom_site_fract_y
_atom_site_fract_z
Si Si1 0.885221 0.345106 0.844840
Si Si2 0.277359 0.839759 0.661651
Si Si3 0.906584 0.273549 0.464346
Si Si4 0.885791 0.914541 0.164865
Si Si5 0.446831 0.116595 0.403765
Si Si6 0.045644 0.583875 0.747644
Si Si7 0.889841 0.587835 0.040321
Si Si8 0.573975 0.880238 0.141973
O O1 0.805105 0.277714 0.763205
O O2 0.943741 0.184061 0.895616
O O3 0.970630 0.433925 0.775831
O O4 0.853529 0.483051 0.935700
O O5 0.321822 0.757831 0.551248
O O6 0.170172 0.907492 0.653827
O O7 0.332180 0.022151 0.681493
O O8 0.890709 0.379606 0.353942
O O9 0.998065 0.369150 0.516482
O O10 0.937875 0.086412 0.420887
O O11 0.889186 0.850233 0.291078
O O12 0.849090 0.769667 0.081266
O O13 0.995472 0.966241 0.138393
O O14 0.409661 0.191158 0.519306
O O15 0.109948 0.534244 0.644957
O O16 0.973805 0.739160 0.717809
#
# Coordination Sequence:
#
# PCOD9340397 Si02
#       8
#     4   4   4   4   4   4   4   4
#     4  11  21  39  71 107 141 183 244 314 383 430
#     4  11  23  44  70 103 150 191 249 308 368 462
#     4  10  20  38  66 105 139 186 243 295 369 455
#     4  12  23  44  70 104 146 198 257 301 373 463
#     4  11  19  39  68 100 136 190 245 296 363 457
#     4  11  19  36  73  99 140 186 233 309 381 445
#     4  11  21  38  71 109 140 184 250 307 375 443
#     4  11  22  42  67 103 138 196 251 296 378 453
#
# _framework density 24.102540999999999
#
# number of rings (size 3 to 8) (size 9 to 14) (size 15 to 20)
#    0.000    1.000    8.750    0.000    0.000    0.000 
#    4.500    1.250    8.250    0.000    0.000    0.000 
#    0.000    0.000    0.000    0.000    0.000    0.000 
#
# Total GULP energy -178911.594369 kJ/mol
# GULP energy per Si atom -5590.987324 kJ/mol
# Density = 2.404768 g / cm^3
# Si number density = 24.102541 Si / 1000 Ang^3
#
#
#
# Elastic Constant Matrix: (Units=GPa)
#
#
# Indices 1 2 3 4 5 6 
#
# 1 49.3229 19.7112 20.7328 0.0000 0.0000 0.0000
# 2 19.7112 77.9954 45.9100 0.0000 0.0000 0.0000
# 3 20.7328 45.9100 158.7457 0.0000 0.0000 0.0000
# 4 0.0000 0.0000 0.0000 51.3501 0.0000 0.0000
# 5 0.0000 0.0000 0.0000 0.0000 15.8947 0.0000
# 6 0.0000 0.0000 0.0000 0.0000 0.0000 35.7736
#
#
#
# Elastic Compliance Matrix: (Units=1/GPa)
#
#
# Indices 1 2 3 4 5 6 
#
# 1 0.022879 -0.004849 -0.001586 0.000000 0.000000 0.000000
# 2 -0.004849 0.016479 -0.004133 0.000000 0.000000 0.000000
# 3 -0.001586 -0.004133 0.007702 0.000000 0.000000 0.000000
# 4 0.000000 0.000000 0.000000 0.019474 0.000000 0.000000
# 5 0.000000 0.000000 0.000000 0.000000 0.062914 0.000000
# 6 0.000000 0.000000 0.000000 0.000000 0.000000 0.027954
#
#
# Mechanical properties :
#
#
# Convention : Reuss Voigt Hill
#
# Bulk Modulus (GPa) = 38.57177 50.97465 44.77321
# Shear Modulus (GPa) = 26.71264 33.91768 30.31516
#
# Velocity S-wave (km/s) = 3.33271 3.75537 3.55034
# Velocity P-wave (km/s) = 5.55403 6.32445 5.95172
#
# Compressibility (1/GPa) = 0.02592569
#
# Stress axis : x y z
#
# Youngs Moduli (GPa) = 43.70854 60.68270 129.84192
#
# Poissons Ratio (x) = 0.29422 0.20591
# Poissons Ratio (y) = 0.21192 0.53659
# Poissons Ratio (z) = 0.06932 0.25078
#
# Static dielectric constant tensor:
#      x y z
#    x 1.885800 0.000000 0.000000 
#    y 0.000000 1.958210 0.000000 
#    z 0.000000 0.000000 1.976110 
# 
# From -- ./inp_files/3454.got.cif
#   From: 2010.05.17/outbox.cif.g08.bks.cpg/sg29_2_cif.got.tgz:3454.got - 2010.06.04 01:19:37.
