data_PCOD9340680
_publ_section_title
;
Structure prediction by ZEFSAII (Michael W. Deem and Ramdas Pophale) SiO2 
 PCOD9340680
Probable space group: P C A 21
;
_chemical_formula_sum "Si O2"
_cell_formula_units_Z 32
_cell_length_a 15.263550
_cell_length_b 8.647829
_cell_length_c 11.959860
_cell_angle_alpha 90.000000
_cell_angle_beta 90.000000
_cell_angle_gamma 90.000000
_cell_volume 1578.660502
_symmetry_space_group_name_H-M "P C A 21"
_symmetry_group_IT_number 29
_symmetry_cell_setting 'orthorhombic'
loop_
_space_group_symop_operation_xyz
x,y,z
-x,-y,1/2+z
1/2-x,y,1/2+z
1/2+x,-y,z
loop_
_atom_site_type_symbol
_atom_site_label
_atom_site_fract_x
_atom_site_fract_y
_atom_site_fract_z
Si Si1 0.162333 0.276732 0.818140
Si Si2 0.585253 0.613260 0.425820
Si Si3 0.330737 0.147845 0.752074
Si Si4 0.537325 0.291158 0.312278
Si Si5 0.414508 0.714980 0.561216
Si Si6 0.170975 0.030474 0.018670
Si Si7 0.822784 0.126345 0.918907
Si Si8 0.737811 0.454155 0.951320
O O1 0.237176 0.228520 0.732820
O O2 0.188259 0.446880 0.858296
O O3 0.063245 0.266483 0.783678
O O4 0.169852 0.158766 0.922841
O O5 0.612888 0.746638 0.336988
O O6 0.551835 0.464718 0.356247
O O7 0.507667 0.662665 0.509361
O O8 0.676262 0.555080 0.483716
O O9 0.365271 0.109088 0.630506
O O10 0.311597 0.988085 0.815357
O O11 0.575536 0.176947 0.408668
O O12 0.584029 0.263994 0.194198
O O13 0.386357 0.875772 0.502028
O O14 0.337552 0.590193 0.538577
O O15 0.271759 0.962391 0.019016
O O16 0.774938 0.291107 0.907296
#
# Coordination Sequence:
#
# PCOD9340680 Si02
#       8
#     4   4   4   4   4   4   4   4
#     4  10  22  39  62  89 130 156 217 264 312 384
#     4  10  23  39  64  94 127 168 219 272 314 393
#     4  10  21  41  62  94 121 173 209 260 329 381
#     4  11  22  40  62  92 127 167 211 273 320 386
#     4  11  22  40  64  91 128 171 213 263 338 384
#     4  10  22  39  65  90 127 175 204 268 319 392
#     4   9  20  40  62  87 126 161 211 256 315 380
#     4   9  20  42  61  87 124 169 204 268 313 378
#
# _framework density 20.270351000000002
#
# number of rings (size 3 to 8) (size 9 to 14) (size 15 to 20)
#    0.000    2.000    2.500    0.000    3.500    3.000 
#    4.500    0.000    0.000    0.000    0.000    0.000 
#    0.000    0.000    0.000    0.000    0.000    0.000 
#
# Total GULP energy -178192.124412 kJ/mol
# GULP energy per Si atom -5568.503888 kJ/mol
# Density = 2.022421 g / cm^3
# Si number density = 20.270351 Si / 1000 Ang^3
#
#
#
# Elastic Constant Matrix: (Units=GPa)
#
#
# Indices 1 2 3 4 5 6 
#
# 1 96.2041 2.5774 12.2168 0.0000 0.0000 0.0000
# 2 2.5774 55.6645 19.2767 0.0000 0.0000 0.0000
# 3 12.2168 19.2767 39.9419 0.0000 0.0000 0.0000
# 4 0.0000 0.0000 0.0000 23.9854 0.0000 0.0000
# 5 0.0000 0.0000 0.0000 0.0000 19.3823 0.0000
# 6 0.0000 0.0000 0.0000 0.0000 0.0000 13.5728
#
#
#
# Elastic Compliance Matrix: (Units=1/GPa)
#
#
# Indices 1 2 3 4 5 6 
#
# 1 0.010842 0.000776 -0.003691 0.000000 0.000000 0.000000
# 2 0.000776 0.021625 -0.010674 0.000000 0.000000 0.000000
# 3 -0.003691 -0.010674 0.031317 0.000000 0.000000 0.000000
# 4 0.000000 0.000000 0.000000 0.041692 0.000000 0.000000
# 5 0.000000 0.000000 0.000000 0.000000 0.051593 0.000000
# 6 0.000000 0.000000 0.000000 0.000000 0.000000 0.073677
#
#
# Mechanical properties :
#
#
# Convention : Reuss Voigt Hill
#
# Bulk Modulus (GPa) = 27.31737 28.88359 28.10048
# Shear Modulus (GPa) = 18.50980 21.90407 20.20693
#
# Velocity S-wave (km/s) = 3.02511 3.29081 3.16075
# Velocity P-wave (km/s) = 5.07026 5.35904 5.21665
#
# Compressibility (1/GPa) = 0.03660674
#
# Stress axis : x y z
#
# Youngs Moduli (GPa) = 92.22990 46.24207 31.93174
#
# Poissons Ratio (x) = -0.03589 0.11786
# Poissons Ratio (y) = -0.07158 0.34084
# Poissons Ratio (z) = 0.34041 0.49360
#
# Static dielectric constant tensor:
#      x y z
#    x 1.783700 0.000000 0.000000 
#    y 0.000000 1.738390 0.000000 
#    z 0.000000 0.000000 1.681890 
# 
# From -- ./inp_files/3467.got.cif
#   From: 2010.05.17/outbox.cif.g08.bks.cpg/sg29_2_cif.got.tgz:3467.got - 2010.06.04 01:19:37.
