data_PCOD9340087
_publ_section_title
;
Structure prediction by ZEFSAII (Michael W. Deem and Ramdas Pophale) SiO2 
 PCOD9340087
Probable space group: P C A 21
;
_chemical_formula_sum "Si O2"
_cell_formula_units_Z 32
_cell_length_a 16.873390
_cell_length_b 8.305155
_cell_length_c 9.915581
_cell_angle_alpha 90.000000
_cell_angle_beta 90.000000
_cell_angle_gamma 90.000000
_cell_volume 1389.531042
_symmetry_space_group_name_H-M "P C A 21"
_symmetry_group_IT_number 29
_symmetry_cell_setting 'orthorhombic'
loop_
_space_group_symop_operation_xyz
x,y,z
-x,-y,1/2+z
1/2-x,y,1/2+z
1/2+x,-y,z
loop_
_atom_site_type_symbol
_atom_site_label
_atom_site_fract_x
_atom_site_fract_y
_atom_site_fract_z
Si Si1 0.565771 0.546191 0.808500
Si Si2 0.366020 0.896729 0.656973
Si Si3 0.806268 0.367762 0.463964
Si Si4 0.727353 0.686825 0.531917
Si Si5 0.069405 0.461955 0.496643
Si Si6 0.621981 0.871422 0.934362
Si Si7 0.360245 0.802981 0.944140
Si Si8 0.186872 0.022713 0.681716
O O1 0.646186 0.444794 0.838804
O O2 0.497772 0.448040 0.885570
O O3 0.548412 0.576170 0.651718
O O4 0.574786 0.715756 0.886982
O O5 0.405147 0.038725 0.569516
O O6 0.274747 0.949900 0.686249
O O7 0.359733 0.741268 0.561178
O O8 0.398483 0.857480 0.803649
O O9 0.773819 0.520308 0.550032
O O10 0.729711 0.264094 0.421699
O O11 0.647100 0.639930 0.455576
O O12 0.788287 0.808050 0.462287
O O13 0.698492 0.785316 0.661713
O O14 0.094988 0.648600 0.500627
O O15 0.634045 0.998254 0.813816
O O16 0.354403 0.945427 0.051743
#
# Coordination Sequence:
#
# PCOD9340087 Si02
#       8
#     4   4   4   4   4   4   4   4
#     4  11  25  46  62  92 127 175 221 270 320 384
#     4  10  20  35  63 101 129 154 207 264 323 395
#     4   9  21  36  67  96 126 165 210 270 325 372
#     4   9  19  37  64  97 124 163 207 267 320 379
#     4  11  25  45  64  88 132 173 221 271 321 383
#     4  10  21  40  67  95 129 164 212 262 329 386
#     4  10  23  38  65 100 128 163 212 264 331 386
#     4  10  18  37  62  97 129 165 202 268 323 381
#
# _framework density 23.029350000000001
#
# number of rings (size 3 to 8) (size 9 to 14) (size 15 to 20)
#    0.000    2.000    1.250    2.250    8.750    1.000 
#    6.750    2.500    0.000    0.000    0.000    0.000 
#    0.000    0.000    0.000    0.000    0.000    0.000 
#
# Total GULP energy -178790.472275 kJ/mol
# GULP energy per Si atom -5587.202259 kJ/mol
# Density = 2.297693 g / cm^3
# Si number density = 23.029350 Si / 1000 Ang^3
#
#
#
# Elastic Constant Matrix: (Units=GPa)
#
#
# Indices 1 2 3 4 5 6 
#
# 1 51.2523 -0.7883 0.1089 0.0000 0.0000 0.0000
# 2 -0.7883 79.4405 30.8639 0.0000 0.0000 0.0000
# 3 0.1089 30.8639 82.7377 0.0000 0.0000 0.0000
# 4 0.0000 0.0000 0.0000 35.6431 0.0000 0.0000
# 5 0.0000 0.0000 0.0000 0.0000 20.1752 0.0000
# 6 0.0000 0.0000 0.0000 0.0000 0.0000 10.8761
#
#
#
# Elastic Compliance Matrix: (Units=1/GPa)
#
#
# Indices 1 2 3 4 5 6 
#
# 1 0.019515 0.000238 -0.000115 0.000000 0.000000 0.000000
# 2 0.000238 0.014725 -0.005493 0.000000 0.000000 0.000000
# 3 -0.000115 -0.005493 0.014136 0.000000 0.000000 0.000000
# 4 0.000000 0.000000 0.000000 0.028056 0.000000 0.000000
# 5 0.000000 0.000000 0.000000 0.000000 0.049566 0.000000
# 6 0.000000 0.000000 0.000000 0.000000 0.000000 0.091944
#
#
# Mechanical properties :
#
#
# Convention : Reuss Voigt Hill
#
# Bulk Modulus (GPa) = 26.56992 30.42216 28.49604
# Shear Modulus (GPa) = 20.72745 25.55527 23.14136
#
# Velocity S-wave (km/s) = 3.00333 3.33480 3.17340
# Velocity P-wave (km/s) = 4.85686 5.29781 5.08212
#
# Compressibility (1/GPa) = 0.03763655
#
# Stress axis : x y z
#
# Youngs Moduli (GPa) = 51.24201 67.91386 70.74320
#
# Poissons Ratio (x) = -0.01617 0.00810
# Poissons Ratio (y) = -0.01220 0.38860
# Poissons Ratio (z) = 0.00587 0.37305
#
# Static dielectric constant tensor:
#      x y z
#    x 1.878840 0.000000 0.000000 
#    y 0.000000 1.867920 0.000000 
#    z 0.000000 0.000000 1.855410 
# 
# From -- ./inp_files/2274.got.cif
#   From: 2010.05.17/outbox.cif.g08.bks.cpg/sg29_2_cif.got.tgz:2274.got - 2010.06.04 01:19:37.
