data_PCOD9340279
_publ_section_title
;
Structure prediction by ZEFSAII (Michael W. Deem and Ramdas Pophale) SiO2 
 PCOD9340279
Probable space group: P C A 21
;
_chemical_formula_sum "Si O2"
_cell_formula_units_Z 32
_cell_length_a 15.356408
_cell_length_b 7.657775
_cell_length_c 13.803630
_cell_angle_alpha 90.000000
_cell_angle_beta 90.000000
_cell_angle_gamma 90.000000
_cell_volume 1623.250532
_symmetry_space_group_name_H-M "P C A 21"
_symmetry_group_IT_number 29
_symmetry_cell_setting 'orthorhombic'
loop_
_space_group_symop_operation_xyz
x,y,z
-x,-y,1/2+z
1/2-x,y,1/2+z
1/2+x,-y,z
loop_
_atom_site_type_symbol
_atom_site_label
_atom_site_fract_x
_atom_site_fract_y
_atom_site_fract_z
Si Si1 0.427535 0.342320 0.779970
Si Si2 0.572465 0.657682 0.047241
Si Si3 0.116175 0.753714 0.549004
Si Si4 0.189829 0.670407 0.279621
Si Si5 0.350011 0.017769 0.434843
Si Si6 0.649990 0.982230 0.392368
Si Si7 0.116175 0.753715 0.778207
Si Si8 0.189829 0.670404 0.047589
O O1 0.414709 0.312409 0.663606
O O2 0.369184 0.507319 0.809022
O O3 0.530976 0.362410 0.795765
O O4 0.398476 0.175627 0.841713
O O5 0.469024 0.637590 0.031446
O O6 0.630817 0.492685 0.018188
O O7 0.601523 0.824376 0.985499
O O8 0.110295 0.935217 0.490200
O O9 0.120200 0.789736 0.663605
O O10 0.207721 0.664348 0.519969
O O11 0.153804 0.850617 0.321689
O O12 0.292279 0.664350 0.307241
O O13 0.186689 0.676856 0.163605
O O14 0.250000 0.069358 0.413606
O O15 0.389706 0.935218 0.337009
O O16 0.346197 0.850615 0.505520
#
# Coordination Sequence:
#
# PCOD9340279 Si02
#       8
#     4   4   4   4   4   4   4   4
#     4  10  20  36  59  83 109 143 183 223 269 328
#     4  10  20  36  59  83 109 143 183 223 269 328
#     4   9  19  36  56  81 113 146 181 226 273 317
#     4   9  19  36  55  79 112 143 177 225 272 317
#     4  10  20  34  56  80 109 145 180 221 271 325
#     4  10  20  34  56  80 109 145 180 221 271 325
#     4   9  19  36  56  81 113 146 181 226 273 317
#     4   9  19  36  55  79 112 143 177 225 272 317
#
# _framework density 19.713529999999999
#
# number of rings (size 3 to 8) (size 9 to 14) (size 15 to 20)
#    0.000    2.500    0.000    1.500    0.000    5.000 
#    0.000    5.000    0.000   16.500    0.000    0.000 
#    0.000    0.000    0.000    0.000    0.000    0.000 
#
# Total GULP energy -178610.709251 kJ/mol
# GULP energy per Si atom -5581.584664 kJ/mol
# Density = 1.966866 g / cm^3
# Si number density = 19.713530 Si / 1000 Ang^3
#
#
#
# Elastic Constant Matrix: (Units=GPa)
#
#
# Indices 1 2 3 4 5 6 
#
# 1 94.3691 73.7142 41.9018 0.0000 0.0000 0.0000
# 2 73.7142 93.3629 32.7352 0.0000 0.0000 0.0000
# 3 41.9018 32.7352 61.3455 0.0000 0.0000 0.0000
# 4 0.0000 0.0000 0.0000 26.2392 0.0000 0.0000
# 5 0.0000 0.0000 0.0000 0.0000 22.9007 0.0000
# 6 0.0000 0.0000 0.0000 0.0000 0.0000 13.0152
#
#
#
# Elastic Compliance Matrix: (Units=1/GPa)
#
#
# Indices 1 2 3 4 5 6 
#
# 1 0.032259 -0.021828 -0.010386 0.000000 0.000000 0.000000
# 2 -0.021828 0.027946 -0.000003 0.000000 0.000000 0.000000
# 3 -0.010386 -0.000003 0.023397 0.000000 0.000000 0.000000
# 4 0.000000 0.000000 0.000000 0.038111 0.000000 0.000000
# 5 0.000000 0.000000 0.000000 0.000000 0.043667 0.000000
# 6 0.000000 0.000000 0.000000 0.000000 0.000000 0.076833
#
#
# Mechanical properties :
#
#
# Convention : Reuss Voigt Hill
#
# Bulk Modulus (GPa) = 52.17269 60.64221 56.40745
# Shear Modulus (GPa) = 15.97250 19.14612 17.55931
#
# Velocity S-wave (km/s) = 2.84954 3.11982 2.98774
# Velocity P-wave (km/s) = 6.11142 6.61862 6.37007
#
# Compressibility (1/GPa) = 0.01916711
#
# Stress axis : x y z
#
# Youngs Moduli (GPa) = 30.99897 35.78282 42.74030
#
# Poissons Ratio (x) = 0.78108 0.44392
# Poissons Ratio (y) = 0.67665 0.00013
# Poissons Ratio (z) = 0.32197 0.00011
#
# Static dielectric constant tensor:
#      x y z
#    x 1.725630 0.000000 0.000000 
#    y 0.000000 1.625480 0.000000 
#    z 0.000000 0.000000 1.728900 
# 
# From -- ./inp_files/4729.got.cif
#   From: 2010.05.17/outbox.cif.g08.bks.cpg/sg29_3_cif.got.tgz:4729.got - 2010.06.04 01:19:37.
