data_PCOD9340330
_publ_section_title
;
Structure prediction by ZEFSAII (Michael W. Deem and Ramdas Pophale) SiO2 
 PCOD9340330
Probable space group: P C A 21
;
_chemical_formula_sum "Si O2"
_cell_formula_units_Z 32
_cell_length_a 14.984044
_cell_length_b 12.143871
_cell_length_c 7.855216
_cell_angle_alpha 90.000000
_cell_angle_beta 90.000000
_cell_angle_gamma 90.000000
_cell_volume 1429.368860
_symmetry_space_group_name_H-M "P C A 21"
_symmetry_group_IT_number 29
_symmetry_cell_setting 'orthorhombic'
loop_
_space_group_symop_operation_xyz
x,y,z
-x,-y,1/2+z
1/2-x,y,1/2+z
1/2+x,-y,z
loop_
_atom_site_type_symbol
_atom_site_label
_atom_site_fract_x
_atom_site_fract_y
_atom_site_fract_z
Si Si1 0.121729 0.788869 0.412210
Si Si2 0.555277 0.985482 0.506618
Si Si3 0.886140 0.743761 0.998972
Si Si4 0.806884 0.237429 0.297003
Si Si5 0.540624 0.642906 0.994194
Si Si6 0.201687 0.231547 0.869736
Si Si7 0.136153 0.998420 0.886774
Si Si8 0.460830 0.602072 0.368872
O O1 0.099526 0.918048 0.394398
O O2 0.157047 0.775048 0.605665
O O3 0.201296 0.743946 0.297053
O O4 0.031322 0.719730 0.397658
O O5 0.449673 0.007879 0.507207
O O6 0.571806 0.861339 0.445588
O O7 0.595718 0.993180 0.695723
O O8 0.800468 0.721209 0.881949
O O9 0.963754 0.654468 0.990151
O O10 0.842999 0.754458 0.185510
O O11 0.868311 0.330993 0.380108
O O12 0.820543 0.121470 0.395178
O O13 0.633499 0.707469 0.994813
O O14 0.552009 0.525595 0.905476
O O15 0.501253 0.622148 0.181192
O O16 0.201831 0.101030 0.913321
#
# Coordination Sequence:
#
# PCOD9340330 Si02
#       8
#     4   4   4   4   4   4   4   4
#     4  10  22  39  61  90 122 157 196 244 300 359
#     4  10  20  36  60  91 124 158 196 242 302 364
#     4  11  23  39  63  93 124 161 202 248 304 365
#     4  10  22  39  61  90 122 157 196 244 300 359
#     4  11  24  43  64  87 121 160 207 258 305 360
#     4  11  23  39  63  93 124 161 202 248 304 365
#     4  10  20  36  60  91 124 158 196 242 302 364
#     4  11  24  43  64  87 121 160 207 258 305 360
#
# _framework density 22.387504
#
# number of rings (size 3 to 8) (size 9 to 14) (size 15 to 20)
#    0.000    1.500    2.500    2.250    0.000    5.000 
#    0.000    2.500    0.000    0.000    0.000    0.000 
#    0.000    0.000    0.000    0.000    0.000    0.000 
#
# Total GULP energy -179082.430262 kJ/mol
# GULP energy per Si atom -5596.325946 kJ/mol
# Density = 2.233655 g / cm^3
# Si number density = 22.387504 Si / 1000 Ang^3
#
#
#
# Elastic Constant Matrix: (Units=GPa)
#
#
# Indices 1 2 3 4 5 6 
#
# 1 62.5321 10.0183 11.4019 0.0000 0.0000 0.0000
# 2 10.0183 106.6435 14.8492 0.0000 0.0000 0.0000
# 3 11.4019 14.8492 43.2196 0.0000 0.0000 0.0000
# 4 0.0000 0.0000 0.0000 22.6903 0.0000 0.0000
# 5 0.0000 0.0000 0.0000 0.0000 33.4390 0.0000
# 6 0.0000 0.0000 0.0000 0.0000 0.0000 2.9967
#
#
#
# Elastic Compliance Matrix: (Units=1/GPa)
#
#
# Indices 1 2 3 4 5 6 
#
# 1 0.016904 -0.001016 -0.004111 0.000000 0.000000 0.000000
# 2 -0.001016 0.009909 -0.003137 0.000000 0.000000 0.000000
# 3 -0.004111 -0.003137 0.025300 0.000000 0.000000 0.000000
# 4 0.000000 0.000000 0.000000 0.044072 0.000000 0.000000
# 5 0.000000 0.000000 0.000000 0.000000 0.029905 0.000000
# 6 0.000000 0.000000 0.000000 0.000000 0.000000 0.333697
#
#
# Mechanical properties :
#
#
# Convention : Reuss Voigt Hill
#
# Bulk Modulus (GPa) = 28.09986 31.65931 29.87958
# Shear Modulus (GPa) = 10.24223 23.56693 16.90458
#
# Velocity S-wave (km/s) = 2.14124 3.24803 2.75087
# Velocity P-wave (km/s) = 4.32343 5.31399 4.84409
#
# Compressibility (1/GPa) = 0.03558736
#
# Stress axis : x y z
#
# Youngs Moduli (GPa) = 59.15755 100.91634 39.52608
#
# Poissons Ratio (x) = 0.10249 0.16247
# Poissons Ratio (y) = 0.06008 0.12398
# Poissons Ratio (z) = 0.24317 0.31654
#
# Static dielectric constant tensor:
#      x y z
#    x 1.802310 0.000000 0.000000 
#    y 0.000000 1.788290 0.000000 
#    z 0.000000 0.000000 1.875230 
# 
# From -- ./inp_files/1842.got.cif
#   From: 2010.05.17/outbox.cif.g08.bks.cpg/sg29_1_cif.got.tgz:1842.got - 2010.06.04 01:19:37.
