data_PCOD9340370
_publ_section_title
;
Structure prediction by ZEFSAII (Michael W. Deem and Ramdas Pophale) SiO2 
 PCOD9340370
Probable space group: P C A 21
;
_chemical_formula_sum "Si O2"
_cell_formula_units_Z 32
_cell_length_a 19.937677
_cell_length_b 8.489747
_cell_length_c 8.306169
_cell_angle_alpha 90.000000
_cell_angle_beta 90.000000
_cell_angle_gamma 90.000000
_cell_volume 1405.950619
_symmetry_space_group_name_H-M "P C A 21"
_symmetry_group_IT_number 29
_symmetry_cell_setting 'orthorhombic'
loop_
_space_group_symop_operation_xyz
x,y,z
-x,-y,1/2+z
1/2-x,y,1/2+z
1/2+x,-y,z
loop_
_atom_site_type_symbol
_atom_site_label
_atom_site_fract_x
_atom_site_fract_y
_atom_site_fract_z
Si Si1 0.918052 0.785556 0.659860
Si Si2 0.791181 0.903595 0.241681
Si Si3 0.436410 0.767829 0.154555
Si Si4 0.190930 0.591193 0.533112
Si Si5 0.206135 0.385722 0.237693
Si Si6 0.794215 0.134316 0.523782
Si Si7 0.065909 0.863894 0.028811
Si Si8 0.419354 0.115629 0.034385
O O1 0.852401 0.683801 0.624851
O O2 0.911570 0.830530 0.849964
O O3 0.988908 0.702245 0.623980
O O4 0.923672 0.951126 0.567365
O O5 0.748143 0.760395 0.310658
O O6 0.813960 0.033899 0.368013
O O7 0.739420 0.004778 0.136049
O O8 0.854738 0.842559 0.140612
O O9 0.439396 0.822879 0.340339
O O10 0.375320 0.651767 0.121602
O O11 0.424026 0.924989 0.047710
O O12 0.173803 0.488734 0.377918
O O13 0.239420 0.489301 0.645626
O O14 0.237593 0.739105 0.484070
O O15 0.863548 0.208593 0.589591
O O16 0.992014 0.823793 0.097521
#
# Coordination Sequence:
#
# PCOD9340370 Si02
#       8
#     4   4   4   4   4   4   4   4
#     4  10  22  40  67  98 134 172 223 281 337 402
#     4  12  23  40  68  98 129 177 225 279 329 392
#     4  10  21  42  66  93 133 174 226 276 336 398
#     4  12  26  44  67  98 140 182 219 278 336 405
#     4  12  26  43  64  99 141 174 222 272 344 405
#     4  12  22  40  67  94 127 173 231 272 327 392
#     4  10  20  37  67  99 128 165 224 289 326 390
#     4  10  20  38  66  97 130 167 220 287 335 380
#
# _framework density 22.760401000000002
#
# number of rings (size 3 to 8) (size 9 to 14) (size 15 to 20)
#    0.000    1.000    3.750    3.750    0.000    1.000 
#    0.000    5.000    0.000    0.000    0.000    0.000 
#    0.000    0.000    0.000    0.000    0.000    0.000 
#
# Total GULP energy -178847.826760 kJ/mol
# GULP energy per Si atom -5588.994586 kJ/mol
# Density = 2.270860 g / cm^3
# Si number density = 22.760401 Si / 1000 Ang^3
#
#
#
# Elastic Constant Matrix: (Units=GPa)
#
#
# Indices 1 2 3 4 5 6 
#
# 1 214.1538 12.9341 20.4392 0.0000 0.0000 0.0000
# 2 12.9341 76.1454 15.8773 0.0000 0.0000 0.0000
# 3 20.4392 15.8773 39.0075 0.0000 0.0000 0.0000
# 4 0.0000 0.0000 0.0000 28.2268 0.0000 0.0000
# 5 0.0000 0.0000 0.0000 0.0000 20.7819 0.0000
# 6 0.0000 0.0000 0.0000 0.0000 0.0000 22.9045
#
#
#
# Elastic Compliance Matrix: (Units=1/GPa)
#
#
# Indices 1 2 3 4 5 6 
#
# 1 0.004923 -0.000326 -0.002447 0.000000 0.000000 0.000000
# 2 -0.000326 0.014372 -0.005679 0.000000 0.000000 0.000000
# 3 -0.002447 -0.005679 0.029230 0.000000 0.000000 0.000000
# 4 0.000000 0.000000 0.000000 0.035427 0.000000 0.000000
# 5 0.000000 0.000000 0.000000 0.000000 0.048119 0.000000
# 6 0.000000 0.000000 0.000000 0.000000 0.000000 0.043660
#
#
# Mechanical properties :
#
#
# Convention : Reuss Voigt Hill
#
# Bulk Modulus (GPa) = 31.62453 47.53420 39.57936
# Shear Modulus (GPa) = 24.60936 33.05304 28.83120
#
# Velocity S-wave (km/s) = 3.29178 3.81493 3.56297
# Velocity P-wave (km/s) = 5.32658 6.35097 5.86120
#
# Compressibility (1/GPa) = 0.03162102
#
# Stress axis : x y z
#
# Youngs Moduli (GPa) = 203.13840 69.57818 34.21168
#
# Poissons Ratio (x) = 0.02268 0.08371
# Poissons Ratio (y) = 0.06622 0.19429
# Poissons Ratio (z) = 0.49703 0.39515
#
# Static dielectric constant tensor:
#      x y z
#    x 1.946360 0.000000 0.000000 
#    y 0.000000 1.831540 0.000000 
#    z 0.000000 0.000000 1.821130 
# 
# From -- ./inp_files/2256.got.cif
#   From: 2010.05.17/outbox.cif.g08.bks.cpg/sg29_2_cif.got.tgz:2256.got - 2010.06.04 01:19:37.
