data_PCOD9340181
_publ_section_title
;
Structure prediction by ZEFSAII (Michael W. Deem and Ramdas Pophale) SiO2 
 PCOD9340181
Probable space group: P C A 21
;
_chemical_formula_sum "Si O2"
_cell_formula_units_Z 32
_cell_length_a 19.607997
_cell_length_b 16.411145
_cell_length_c 5.279791
_cell_angle_alpha 90.000000
_cell_angle_beta 90.000000
_cell_angle_gamma 90.000000
_cell_volume 1698.982267
_symmetry_space_group_name_H-M "P C A 21"
_symmetry_group_IT_number 29
_symmetry_cell_setting 'orthorhombic'
loop_
_space_group_symop_operation_xyz
x,y,z
-x,-y,1/2+z
1/2-x,y,1/2+z
1/2+x,-y,z
loop_
_atom_site_type_symbol
_atom_site_label
_atom_site_fract_x
_atom_site_fract_y
_atom_site_fract_z
Si Si1 0.459150 0.022431 0.188550
Si Si2 0.423175 0.485689 0.372487
Si Si3 0.348230 0.585145 0.989493
Si Si4 0.272353 0.461484 0.493708
Si Si5 0.973556 0.368451 0.679141
Si Si6 0.517105 0.182380 0.084242
Si Si7 0.707896 0.264204 0.757192
Si Si8 0.598437 0.136744 0.588205
O O1 0.456021 0.119241 0.145544
O O2 0.484776 0.005773 0.475301
O O3 0.397924 0.960986 0.122817
O O4 0.393462 0.512217 0.101296
O O5 0.352524 0.476881 0.528224
O O6 0.469837 0.406505 0.365960
O O7 0.467072 0.562261 0.465711
O O8 0.275163 0.542460 0.933412
O O9 0.334602 0.654022 0.200108
O O10 0.396966 0.630919 0.793210
O O11 0.261049 0.416889 0.228625
O O12 0.994295 0.278390 0.602594
O O13 0.572706 0.159767 0.305846
O O14 0.543317 0.163987 0.801055
O O15 0.768019 0.265444 0.546616
O O16 0.664266 0.186276 0.674763
#
# Coordination Sequence:
#
# PCOD9340181 Si02
#       8
#     4   4   4   4   4   4   4   4
#     4   8  16  31  53  77 102 134 169 203 261 326
#     4  11  23  36  50  76 107 149 188 230 287 330
#     4  11  22  36  51  72 105 148 183 230 272 338
#     4  10  20  35  53  68  94 136 185 215 264 326
#     4  12  22  35  52  78 112 145 184 240 285 333
#     4  10  20  33  55  80 106 144 177 219 279 327
#     4  12  24  34  51  80 108 145 185 222 271 338
#     4  10  19  36  53  77 112 141 173 223 267 336
#
# _framework density 18.834804999999999
#
# number of rings (size 3 to 8) (size 9 to 14) (size 15 to 20)
#    0.000    1.500    3.750    3.000    1.750    0.000 
#    0.000    0.000    0.000    0.000    0.000    3.500 
#    0.000    0.000    0.000    0.000    0.000    0.000 
#
# Total GULP energy -178195.216949 kJ/mol
# GULP energy per Si atom -5568.600530 kJ/mol
# Density = 1.879194 g / cm^3
# Si number density = 18.834805 Si / 1000 Ang^3
#
#
#
# Elastic Constant Matrix: (Units=GPa)
#
#
# Indices 1 2 3 4 5 6 
#
# 1 69.5547 25.9135 6.5836 0.0000 0.0000 0.0000
# 2 25.9135 78.0921 -0.9056 0.0000 0.0000 0.0000
# 3 6.5836 -0.9056 67.5611 0.0000 0.0000 0.0000
# 4 0.0000 0.0000 0.0000 18.7825 0.0000 0.0000
# 5 0.0000 0.0000 0.0000 0.0000 24.4098 0.0000
# 6 0.0000 0.0000 0.0000 0.0000 0.0000 29.1733
#
#
#
# Elastic Compliance Matrix: (Units=1/GPa)
#
#
# Indices 1 2 3 4 5 6 
#
# 1 0.016596 -0.005527 -0.001691 0.000000 0.000000 0.000000
# 2 -0.005527 0.014648 0.000735 0.000000 0.000000 0.000000
# 3 -0.001691 0.000735 0.014976 0.000000 0.000000 0.000000
# 4 0.000000 0.000000 0.000000 0.053241 0.000000 0.000000
# 5 0.000000 0.000000 0.000000 0.000000 0.040967 0.000000
# 6 0.000000 0.000000 0.000000 0.000000 0.000000 0.034278
#
#
# Mechanical properties :
#
#
# Convention : Reuss Voigt Hill
#
# Bulk Modulus (GPa) = 30.07173 30.93232 30.50202
# Shear Modulus (GPa) = 25.15627 26.71420 25.93524
#
# Velocity S-wave (km/s) = 3.65859 3.77017 3.71480
# Velocity P-wave (km/s) = 5.81788 5.95071 5.88467
#
# Compressibility (1/GPa) = 0.03325383
#
# Stress axis : x y z
#
# Youngs Moduli (GPa) = 60.25424 68.26918 66.77310
#
# Poissons Ratio (x) = 0.37731 0.11294
# Poissons Ratio (y) = 0.33301 -0.04907
# Poissons Ratio (z) = 0.10191 -0.05017
#
# Static dielectric constant tensor:
#      x y z
#    x 1.710580 0.000000 0.000000 
#    y 0.000000 1.666920 0.000000 
#    z 0.000000 0.000000 1.787890 
# 
# From -- ./inp_files/439.got.cif
#   From: 2010.05.17/outbox.cif.g08.bks.cpg/sg29_1_cif.got.tgz:439.got - 2010.06.04 01:19:37.
