data_PCOD9340556
_publ_section_title
;
Structure prediction by ZEFSAII (Michael W. Deem and Ramdas Pophale) SiO2 
 PCOD9340556
Probable space group: P C A 21
;
_chemical_formula_sum "Si O2"
_cell_formula_units_Z 32
_cell_length_a 15.827626
_cell_length_b 16.663749
_cell_length_c 5.219982
_cell_angle_alpha 90.000000
_cell_angle_beta 90.000000
_cell_angle_gamma 90.000000
_cell_volume 1376.757656
_symmetry_space_group_name_H-M "P C A 21"
_symmetry_group_IT_number 29
_symmetry_cell_setting 'orthorhombic'
loop_
_space_group_symop_operation_xyz
x,y,z
-x,-y,1/2+z
1/2-x,y,1/2+z
1/2+x,-y,z
loop_
_atom_site_type_symbol
_atom_site_label
_atom_site_fract_x
_atom_site_fract_y
_atom_site_fract_z
Si Si1 0.305122 0.212727 0.916410
Si Si2 0.026335 0.597644 0.878600
Si Si3 0.868986 0.535527 0.574986
Si Si4 0.309323 0.864878 0.971553
Si Si5 0.598600 0.666423 0.744357
Si Si6 0.698407 0.394703 0.335908
Si Si7 0.305069 0.043642 0.037052
Si Si8 0.558784 0.276368 0.503329
O O1 0.271671 0.214081 0.626533
O O2 0.359227 0.287616 0.009402
O O3 0.350620 0.127371 0.972364
O O4 0.107493 0.541309 0.900199
O O5 0.052164 0.686180 0.786964
O O6 0.960935 0.563659 0.670932
O O7 0.965732 0.602850 0.121651
O O8 0.818024 0.490799 0.800513
O O9 0.838795 0.613629 0.421076
O O10 0.254979 0.854512 0.711337
O O11 0.385881 0.802764 0.987025
O O12 0.343654 0.956490 0.987111
O O13 0.536909 0.726478 0.898250
O O14 0.747336 0.371455 0.590831
O O15 0.611992 0.344949 0.351193
O O16 0.227775 0.045939 0.829458
#
# Coordination Sequence:
#
# PCOD9340556 Si02
#       8
#     4   4   4   4   4   4   4   4
#     4  10  23  43  67  95 127 158 209 268 320 375
#     4  11  21  40  63  82 116 170 212 259 312 379
#     4  11  22  40  60  83 116 167 220 259 306 389
#     4  10  21  37  66  96 128 168 210 253 301 375
#     4  11  25  39  68  87 124 170 216 262 329 377
#     4  12  26  40  60  89 126 167 206 269 321 358
#     4   8  16  36  64  91 121 164 201 242 311 381
#     4  11  24  39  60  93 130 166 216 254 318 388
#
# _framework density 23.243013999999999
#
# number of rings (size 3 to 8) (size 9 to 14) (size 15 to 20)
#    0.000    1.500    2.500    2.250    7.000    1.000 
#    0.000    0.000    2.750    0.000    0.000    0.000 
#    0.000    0.000    0.000    0.000    0.000    0.000 
#
# Total GULP energy -178713.391509 kJ/mol
# GULP energy per Si atom -5584.793485 kJ/mol
# Density = 2.319011 g / cm^3
# Si number density = 23.243014 Si / 1000 Ang^3
#
#
#
# Elastic Constant Matrix: (Units=GPa)
#
#
# Indices 1 2 3 4 5 6 
#
# 1 36.8721 12.0330 11.6083 0.0000 0.0000 0.0000
# 2 12.0330 105.3000 2.3267 0.0000 0.0000 0.0000
# 3 11.6083 2.3267 101.4604 0.0000 0.0000 0.0000
# 4 0.0000 0.0000 0.0000 31.0056 0.0000 0.0000
# 5 0.0000 0.0000 0.0000 0.0000 29.6574 0.0000
# 6 0.0000 0.0000 0.0000 0.0000 0.0000 17.5017
#
#
#
# Elastic Compliance Matrix: (Units=1/GPa)
#
#
# Indices 1 2 3 4 5 6 
#
# 1 0.029215 -0.003266 -0.003268 0.000000 0.000000 0.000000
# 2 -0.003266 0.009867 0.000147 0.000000 0.000000 0.000000
# 3 -0.003268 0.000147 0.010227 0.000000 0.000000 0.000000
# 4 0.000000 0.000000 0.000000 0.032252 0.000000 0.000000
# 5 0.000000 0.000000 0.000000 0.000000 0.033718 0.000000
# 6 0.000000 0.000000 0.000000 0.000000 0.000000 0.057137
#
#
# Mechanical properties :
#
#
# Convention : Reuss Voigt Hill
#
# Bulk Modulus (GPa) = 27.37063 32.84092 30.10577
# Shear Modulus (GPa) = 25.33334 30.14390 27.73862
#
# Velocity S-wave (km/s) = 3.30500 3.60516 3.45834
# Velocity P-wave (km/s) = 5.13473 5.61156 5.37843
#
# Compressibility (1/GPa) = 0.03653552
#
# Stress axis : x y z
#
# Youngs Moduli (GPa) = 34.22841 101.35126 97.78468
#
# Poissons Ratio (x) = 0.33105 0.31953
# Poissons Ratio (y) = 0.11180 -0.01442
# Poissons Ratio (z) = 0.11185 -0.01494
#
# Static dielectric constant tensor:
#      x y z
#    x 1.867770 0.000000 0.000000 
#    y 0.000000 1.928850 0.000000 
#    z 0.000000 0.000000 1.946090 
# 
# From -- ./inp_files/445.got.cif
#   From: 2010.05.17/outbox.cif.g08.bks.cpg/sg29_1_cif.got.tgz:445.got - 2010.06.04 01:19:37.
