data_PCOD9340223
_publ_section_title
;
Structure prediction by ZEFSAII (Michael W. Deem and Ramdas Pophale) SiO2 
 PCOD9340223
Probable space group: P C A 21
;
_chemical_formula_sum "Si O2"
_cell_formula_units_Z 28
_cell_length_a 16.579232
_cell_length_b 7.977960
_cell_length_c 10.377378
_cell_angle_alpha 90.000000
_cell_angle_beta 90.000000
_cell_angle_gamma 90.000000
_cell_volume 1372.599700
_symmetry_space_group_name_H-M "P C A 21"
_symmetry_group_IT_number 29
_symmetry_cell_setting 'orthorhombic'
loop_
_space_group_symop_operation_xyz
x,y,z
-x,-y,1/2+z
1/2-x,y,1/2+z
1/2+x,-y,z
loop_
_atom_site_type_symbol
_atom_site_label
_atom_site_fract_x
_atom_site_fract_y
_atom_site_fract_z
Si Si1 0.323362 0.493911 0.256340
Si Si2 0.025512 0.669396 0.888523
Si Si3 0.592887 0.853948 0.776708
Si Si4 0.139294 0.911765 0.016084
Si Si5 0.278177 0.658535 0.986591
Si Si6 0.978172 0.895975 0.673432
Si Si7 0.540088 0.319505 0.443068
O O1 0.406250 0.592011 0.293036
O O2 0.346198 0.297372 0.247522
O O3 0.264809 0.547409 0.374883
O O4 0.289938 0.557712 0.120057
O O5 0.976946 0.810616 0.812291
O O6 0.971865 0.518473 0.937297
O O7 0.075413 0.760307 0.999465
O O8 0.511892 0.765683 0.831189
O O9 0.629860 0.972159 0.888857
O O10 0.555126 0.977680 0.670362
O O11 0.224424 0.821330 0.018622
O O12 0.105445 0.018548 0.134166
O O13 0.365816 0.715223 0.938999
O O14 0.998162 0.753312 0.570154
#
# Coordination Sequence:
#
# PCOD9340223 Si02
#       7
#     4   4   4   4   4   4   4
#     4  10  22  43  63  92 133 175 217 270 332 398
#     4   9  19  39  63  88 125 167 221 262 317 397
#     4   9  21  42  63  91 130 171 220 274 318 393
#     4   9  21  38  63  91 134 163 209 275 333 381
#     4  11  23  42  64  97 132 180 213 273 338 395
#     4  10  19  38  64  93 119 171 217 274 328 373
#     4  10  21  38  66  92 121 171 221 258 324 401
#
# _framework density 20.399246000000002
#
# number of rings (size 3 to 8) (size 9 to 14) (size 15 to 20)
#    0.000    2.286    1.429    0.000    4.000    0.000 
#   10.286    0.000    0.000    0.000    0.000    0.000 
#    0.000    0.000    0.000    0.000    0.000    0.000 
#
# Total GULP energy -156239.983445 kJ/mol
# GULP energy per Si atom -5579.999409 kJ/mol
# Density = 2.035282 g / cm^3
# Si number density = 20.399246 Si / 1000 Ang^3
#
#
#
# Elastic Constant Matrix: (Units=GPa)
#
#
# Indices 1 2 3 4 5 6 
#
# 1 119.4305 54.2610 31.4754 0.0000 0.0000 0.0000
# 2 54.2610 106.4170 17.2409 0.0000 0.0000 0.0000
# 3 31.4754 17.2409 58.8928 0.0000 0.0000 0.0000
# 4 0.0000 0.0000 0.0000 16.4497 0.0000 0.0000
# 5 0.0000 0.0000 0.0000 0.0000 21.4629 0.0000
# 6 0.0000 0.0000 0.0000 0.0000 0.0000 38.3567
#
#
#
# Elastic Compliance Matrix: (Units=1/GPa)
#
#
# Indices 1 2 3 4 5 6 
#
# 1 0.012108 -0.005380 -0.004896 0.000000 0.000000 0.000000
# 2 -0.005380 0.012256 -0.000712 0.000000 0.000000 0.000000
# 3 -0.004896 -0.000712 0.019805 0.000000 0.000000 0.000000
# 4 0.000000 0.000000 0.000000 0.060791 0.000000 0.000000
# 5 0.000000 0.000000 0.000000 0.000000 0.046592 0.000000
# 6 0.000000 0.000000 0.000000 0.000000 0.000000 0.026071
#
#
# Mechanical properties :
#
#
# Convention : Reuss Voigt Hill
#
# Bulk Modulus (GPa) = 45.06238 54.52166 49.79202
# Shear Modulus (GPa) = 24.15482 27.37139 25.76310
#
# Velocity S-wave (km/s) = 3.44481 3.66701 3.55765
# Velocity P-wave (km/s) = 6.16121 6.68690 6.42943
#
# Compressibility (1/GPa) = 0.02219146
#
# Stress axis : x y z
#
# Youngs Moduli (GPa) = 82.59068 81.59365 50.49183
#
# Poissons Ratio (x) = 0.43901 0.24721
# Poissons Ratio (y) = 0.44438 0.03596
# Poissons Ratio (z) = 0.40436 0.05812
#
# Static dielectric constant tensor:
#      x y z
#    x 1.708080 0.000000 0.000000 
#    y 0.000000 1.750090 0.000000 
#    z 0.000000 0.000000 1.746860 
# 
# From -- ./inp_files/3430.got.cif
#   From: 2010.05.17/outbox.cif.g08.bks.cpg/sg29_2_cif.got.tgz:3430.got - 2010.06.04 01:19:37.
