data_PCOD9340861
_publ_section_title
;
Structure prediction by ZEFSAII (Michael W. Deem and Ramdas Pophale) SiO2 
 PCOD9340861
Probable space group: P C A 21
;
_chemical_formula_sum "Si O2"
_cell_formula_units_Z 32
_cell_length_a 10.929707
_cell_length_b 5.023484
_cell_length_c 22.803484
_cell_angle_alpha 90.000000
_cell_angle_beta 90.000000
_cell_angle_gamma 90.000000
_cell_volume 1252.030038
_symmetry_space_group_name_H-M "P C A 21"
_symmetry_group_IT_number 29
_symmetry_cell_setting 'orthorhombic'
loop_
_space_group_symop_operation_xyz
x,y,z
-x,-y,1/2+z
1/2-x,y,1/2+z
1/2+x,-y,z
loop_
_atom_site_type_symbol
_atom_site_label
_atom_site_fract_x
_atom_site_fract_y
_atom_site_fract_z
Si Si1 0.981641 0.113594 0.234790
Si Si2 0.023639 0.624412 0.605409
Si Si3 0.995489 0.441173 0.346773
Si Si4 0.106630 0.081185 0.999577
Si Si5 0.786314 0.330905 0.629064
Si Si6 0.201794 0.587730 0.951177
Si Si7 0.913116 0.064525 0.894079
Si Si8 0.745064 0.834054 0.203832
O O1 0.975392 0.242005 0.169619
O O2 0.948829 0.314982 0.286966
O O3 0.127612 0.066719 0.240309
O O4 0.876414 0.890796 0.232187
O O5 0.965158 0.806312 0.554981
O O6 0.927045 0.384317 0.611939
O O7 0.166659 0.573571 0.592235
O O8 0.037309 0.744313 0.342451
O O9 0.896028 0.437972 0.398535
O O10 0.100215 0.234687 0.370561
O O11 0.209400 0.295248 0.979301
O O12 0.012760 0.058851 0.945639
O O13 0.158149 0.785664 0.002995
O O14 0.771386 0.527784 0.685853
O O15 0.764942 0.023590 0.645987
O O16 0.306885 0.760655 0.921744
#
# Coordination Sequence:
#
# PCOD9340861 Si02
#       8
#     4   4   4   4   4   4   4   4
#     4  10  23  43  64  98 133 169 214 263 327 391
#     4  10  23  43  64  98 133 169 214 263 327 391
#     4  10  23  40  64  96 122 168 212 266 323 379
#     4  10  23  40  64  96 122 168 212 266 323 379
#     4  10  22  40  62  88 131 173 212 256 313 385
#     4  10  22  43  65  91 126 165 219 264 320 373
#     4  10  22  43  65  91 126 165 219 264 320 373
#     4  10  22  40  62  88 131 173 212 256 313 385
#
# _framework density 25.558491
#
# number of rings (size 3 to 8) (size 9 to 14) (size 15 to 20)
#    0.000    2.000    0.000    1.500    3.500    8.000 
#    9.000    0.000    0.000    0.000    0.000    0.000 
#    0.000    0.000    0.000    0.000    0.000    0.000 
#
# Total GULP energy -178776.673388 kJ/mol
# GULP energy per Si atom -5586.771043 kJ/mol
# Density = 2.550032 g / cm^3
# Si number density = 25.558491 Si / 1000 Ang^3
#
#
#
# Elastic Constant Matrix: (Units=GPa)
#
#
# Indices 1 2 3 4 5 6 
#
# 1 112.8915 8.2247 -2.2239 0.0000 0.0000 0.0000
# 2 8.2247 98.5538 26.9885 0.0000 0.0000 0.0000
# 3 -2.2239 26.9885 81.8480 0.0000 0.0000 0.0000
# 4 0.0000 0.0000 0.0000 38.8565 0.0000 0.0000
# 5 0.0000 0.0000 0.0000 0.0000 23.5451 0.0000
# 6 0.0000 0.0000 0.0000 0.0000 0.0000 20.9801
#
#
#
# Elastic Compliance Matrix: (Units=1/GPa)
#
#
# Indices 1 2 3 4 5 6 
#
# 1 0.008934 -0.000893 0.000537 0.000000 0.000000 0.000000
# 2 -0.000893 0.011243 -0.003732 0.000000 0.000000 0.000000
# 3 0.000537 -0.003732 0.013463 0.000000 0.000000 0.000000
# 4 0.000000 0.000000 0.000000 0.025736 0.000000 0.000000
# 5 0.000000 0.000000 0.000000 0.000000 0.042472 0.000000
# 6 0.000000 0.000000 0.000000 0.000000 0.000000 0.047664
#
#
# Mechanical properties :
#
#
# Convention : Reuss Voigt Hill
#
# Bulk Modulus (GPa) = 39.26900 39.91909 39.59404
# Shear Modulus (GPa) = 30.08897 34.02994 32.05945
#
# Velocity S-wave (km/s) = 3.43484 3.65287 3.54553
# Velocity P-wave (km/s) = 5.57930 5.78307 5.68210
#
# Compressibility (1/GPa) = 0.02546538
#
# Stress axis : x y z
#
# Youngs Moduli (GPa) = 111.93600 88.94348 74.27878
#
# Poissons Ratio (x) = 0.07939 -0.03989
# Poissons Ratio (y) = 0.09992 0.27717
# Poissons Ratio (z) = -0.06012 0.33190
#
# Static dielectric constant tensor:
#      x y z
#    x 2.083650 0.000000 0.000000 
#    y 0.000000 1.704230 0.000000 
#    z 0.000000 0.000000 2.026240 
# 
# From -- ./inp_files/5529.got.cif
#   From: 2010.05.17/outbox.cif.g08.bks.cpg/sg29_3_cif.got.tgz:5529.got - 2010.06.04 01:19:37.
