data_PCOD9340249
_publ_section_title
;
Structure prediction by ZEFSAII (Michael W. Deem and Ramdas Pophale) SiO2 
 PCOD9340249
Probable space group: P C A 21
;
_chemical_formula_sum "Si O2"
_cell_formula_units_Z 28
_cell_length_a 5.614562
_cell_length_b 7.180598
_cell_length_c 27.101774
_cell_angle_alpha 90.000000
_cell_angle_beta 90.000000
_cell_angle_gamma 90.000000
_cell_volume 1092.632754
_symmetry_space_group_name_H-M "P C A 21"
_symmetry_group_IT_number 29
_symmetry_cell_setting 'orthorhombic'
loop_
_space_group_symop_operation_xyz
x,y,z
-x,-y,1/2+z
1/2-x,y,1/2+z
1/2+x,-y,z
loop_
_atom_site_type_symbol
_atom_site_label
_atom_site_fract_x
_atom_site_fract_y
_atom_site_fract_z
Si Si1 0.999998 0.685999 0.324150
Si Si2 0.000003 0.392707 0.940540
Si Si3 0.000001 0.232145 0.574540
Si Si4 0.500002 0.992158 0.695572
Si Si5 0.999998 0.261479 0.288412
Si Si6 0.500002 0.604647 0.685019
Si Si7 0.499999 0.805564 0.035378
O O1 0.999998 0.640377 0.382134
O O2 0.250129 0.786321 0.313890
O O3 0.999998 0.787656 0.219193
O O4 0.749868 0.786321 0.313890
O O5 0.750004 0.500002 0.951003
O O6 0.999999 0.211615 0.976110
O O7 0.742986 0.290228 0.553486
O O8 0.257016 0.290228 0.553486
O O9 0.000001 0.307472 0.630267
O O10 0.000001 0.011758 0.559231
O O11 0.500002 0.154045 0.736038
O O12 0.750002 0.000000 0.667403
O O13 0.999998 0.489020 0.293117
O O14 0.750002 0.500000 0.690955
#
# Coordination Sequence:
#
# PCOD9340249 Si02
#       7
#     4   4   4   4   4   4   4
#     4  10  19  40  72 108 145 201 253 301 368 454
#     4  12  21  37  67 110 152 198 249 314 361 438
#     4  10  23  45  70  98 147 200 247 311 385 454
#     4  12  28  50  78 114 154 194 253 327 394 464
#     4  10  20  42  71 102 144 198 249 305 380 443
#     4  12  28  51  80 114 148 201 261 326 395 468
#     4  10  23  39  70 104 146 204 246 312 371 439
#
# _framework density 25.626173999999999
#
# number of rings (size 3 to 8) (size 9 to 14) (size 15 to 20)
#    0.000    1.143    2.857    3.429    4.000    3.429 
#   15.429    0.000   18.857    0.000    0.000    0.000 
#    0.000    0.000    0.000    0.000    0.000    0.000 
#
# Total GULP energy -156441.391092 kJ/mol
# GULP energy per Si atom -5587.192539 kJ/mol
# Density = 2.556785 g / cm^3
# Si number density = 25.626174 Si / 1000 Ang^3
#
#
#
# Elastic Constant Matrix: (Units=GPa)
#
#
# Indices 1 2 3 4 5 6 
#
# 1 339.4141 52.3743 57.6180 0.0000 0.0000 0.0000
# 2 52.3743 144.9976 43.0304 0.0000 0.0000 0.0000
# 3 57.6180 43.0304 129.9684 0.0000 0.0000 0.0000
# 4 0.0000 0.0000 0.0000 50.9359 0.0000 0.0000
# 5 0.0000 0.0000 0.0000 0.0000 57.2454 0.0000
# 6 0.0000 0.0000 0.0000 0.0000 0.0000 10.0383
#
#
#
# Elastic Compliance Matrix: (Units=1/GPa)
#
#
# Indices 1 2 3 4 5 6 
#
# 1 0.003274 -0.000834 -0.001176 0.000000 0.000000 0.000000
# 2 -0.000834 0.007860 -0.002233 0.000000 0.000000 0.000000
# 3 -0.001176 -0.002233 0.008955 0.000000 0.000000 0.000000
# 4 0.000000 0.000000 0.000000 0.019633 0.000000 0.000000
# 5 0.000000 0.000000 0.000000 0.000000 0.017469 0.000000
# 6 0.000000 0.000000 0.000000 0.000000 0.000000 0.099618
#
#
# Mechanical properties :
#
#
# Convention : Reuss Voigt Hill
#
# Bulk Modulus (GPa) = 86.16948 102.26950 94.21949
# Shear Modulus (GPa) = 29.55747 54.40108 41.97927
#
# Velocity S-wave (km/s) = 3.39987 4.61246 4.05179
# Velocity P-wave (km/s) = 7.00791 8.26809 7.66394
#
# Compressibility (1/GPa) = 0.01160504
#
# Stress axis : x y z
#
# Youngs Moduli (GPa) = 305.39090 127.21849 111.67480
#
# Poissons Ratio (x) = 0.10609 0.13128
# Poissons Ratio (y) = 0.25467 0.24935
# Poissons Ratio (z) = 0.35901 0.28405
#
# Static dielectric constant tensor:
#      x y z
#    x 2.038910 0.000000 0.000000 
#    y 0.000000 1.950760 0.000000 
#    z 0.000000 0.000000 1.996050 
# 
# From -- ./inp_files/5633.got.cif
#   From: 2010.05.17/outbox.cif.g08.bks.cpg/sg29_3_cif.got.tgz:5633.got - 2010.06.04 01:19:37.
