data_PCOD9340350
_publ_section_title
;
Structure prediction by ZEFSAII (Michael W. Deem and Ramdas Pophale) SiO2 
 PCOD9340350
Probable space group: P C A 21
;
_chemical_formula_sum "Si O2"
_cell_formula_units_Z 32
_cell_length_a 23.376853
_cell_length_b 7.983723
_cell_length_c 7.067432
_cell_angle_alpha 90.000000
_cell_angle_beta 90.000000
_cell_angle_gamma 90.000000
_cell_volume 1319.025358
_symmetry_space_group_name_H-M "P C A 21"
_symmetry_group_IT_number 29
_symmetry_cell_setting 'orthorhombic'
loop_
_space_group_symop_operation_xyz
x,y,z
-x,-y,1/2+z
1/2-x,y,1/2+z
1/2+x,-y,z
loop_
_atom_site_type_symbol
_atom_site_label
_atom_site_fract_x
_atom_site_fract_y
_atom_site_fract_z
Si Si1 0.652312 0.818974 0.563660
Si Si2 0.331491 0.526959 0.558973
Si Si3 0.124916 0.821528 0.554574
Si Si4 0.908084 0.165778 0.506732
Si Si5 0.385282 0.199264 0.477911
Si Si6 0.298193 0.516281 0.120220
Si Si7 0.505737 0.306406 0.500608
Si Si8 0.472250 0.301033 0.937464
O O1 0.653203 0.828109 0.792784
O O2 0.694298 0.664572 0.521384
O O3 0.589373 0.763044 0.497074
O O4 0.658598 0.010248 0.499752
O O5 0.372958 0.681901 0.596262
O O6 0.359934 0.348166 0.604820
O O7 0.323898 0.514490 0.331239
O O8 0.268428 0.555353 0.636110
O O9 0.108246 0.830008 0.780460
O O10 0.164392 0.660025 0.521686
O O11 0.062479 0.799990 0.461076
O O12 0.974953 0.202910 0.531614
O O13 0.892345 0.980517 0.573687
O O14 0.447194 0.258396 0.396823
O O15 0.485264 0.279390 0.715884
O O16 0.521206 0.501096 0.478289
#
# Coordination Sequence:
#
# PCOD9340350 Si02
#       8
#     4   4   4   4   4   4   4   4
#     4  10  20  37  59  81 111 146 179 224 278 326
#     4  10  21  38  56  78 108 145 186 227 271 320
#     4   9  19  36  57  81 110 145 180 220 274 329
#     4   9  19  36  57  81 110 145 180 220 274 329
#     4  10  20  37  59  81 111 146 179 224 278 326
#     4  10  21  38  56  78 108 145 186 227 271 320
#     4  11  20  34  57  85 115 145 181 222 272 334
#     4  11  20  34  57  85 115 145 181 222 272 334
#
# _framework density 24.260339999999999
#
# number of rings (size 3 to 8) (size 9 to 14) (size 15 to 20)
#    0.000    2.000    2.500    1.500    0.000    2.000 
#    0.000    2.500    0.000    0.000    0.000    0.000 
#    0.000    0.000    0.000    0.000    0.000    0.000 
#
# Total GULP energy -179055.591540 kJ/mol
# GULP energy per Si atom -5595.487236 kJ/mol
# Density = 2.420512 g / cm^3
# Si number density = 24.260340 Si / 1000 Ang^3
#
#
#
# Elastic Constant Matrix: (Units=GPa)
#
#
# Indices 1 2 3 4 5 6 
#
# 1 65.6613 -6.9299 -1.6868 0.0000 0.0000 0.0000
# 2 -6.9299 110.5425 -1.1899 0.0000 0.0000 0.0000
# 3 -1.6868 -1.1899 67.7758 0.0000 0.0000 0.0000
# 4 0.0000 0.0000 0.0000 3.6216 0.0000 0.0000
# 5 0.0000 0.0000 0.0000 0.0000 27.9911 0.0000
# 6 0.0000 0.0000 0.0000 0.0000 0.0000 11.0377
#
#
#
# Elastic Compliance Matrix: (Units=1/GPa)
#
#
# Indices 1 2 3 4 5 6 
#
# 1 0.015342 0.000966 0.000399 0.000000 0.000000 0.000000
# 2 0.000966 0.009109 0.000184 0.000000 0.000000 0.000000
# 3 0.000399 0.000184 0.014768 0.000000 0.000000 0.000000
# 4 0.000000 0.000000 0.000000 0.276119 0.000000 0.000000
# 5 0.000000 0.000000 0.000000 0.000000 0.035726 0.000000
# 6 0.000000 0.000000 0.000000 0.000000 0.000000 0.090599
#
#
# Mechanical properties :
#
#
# Convention : Reuss Voigt Hill
#
# Bulk Modulus (GPa) = 23.63169 24.92959 24.28064
# Shear Modulus (GPa) = 11.04558 25.44916 18.24737
#
# Velocity S-wave (km/s) = 2.13608 3.24234 2.74551
# Velocity P-wave (km/s) = 3.98068 4.93105 4.48113
#
# Compressibility (1/GPa) = 0.04231606
#
# Stress axis : x y z
#
# Youngs Moduli (GPa) = 65.18105 109.78346 67.71541
#
# Poissons Ratio (x) = -0.10606 -0.02700
# Poissons Ratio (y) = -0.06297 -0.01246
# Poissons Ratio (z) = -0.02599 -0.02020
#
# Static dielectric constant tensor:
#      x y z
#    x 1.885000 0.000000 0.000000 
#    y 0.000000 1.911290 0.000000 
#    z 0.000000 0.000000 2.002010 
# 
# From -- ./inp_files/2278.got.cif
#   From: 2010.05.17/outbox.cif.g08.bks.cpg/sg29_2_cif.got.tgz:2278.got - 2010.06.04 01:19:37.
