data_PCOD9340655
_publ_section_title
;
Structure prediction by ZEFSAII (Michael W. Deem and Ramdas Pophale) SiO2 
 PCOD9340655
Probable space group: P C A 21
;
_chemical_formula_sum "Si O2"
_cell_formula_units_Z 16
_cell_length_a 21.250299
_cell_length_b 4.732517
_cell_length_c 5.309816
_cell_angle_alpha 90.000000
_cell_angle_beta 90.000000
_cell_angle_gamma 90.000000
_cell_volume 533.994396
_symmetry_space_group_name_H-M "P C A 21"
_symmetry_group_IT_number 29
_symmetry_cell_setting 'orthorhombic'
loop_
_space_group_symop_operation_xyz
x,y,z
-x,-y,1/2+z
1/2-x,y,1/2+z
1/2+x,-y,z
loop_
_atom_site_type_symbol
_atom_site_label
_atom_site_fract_x
_atom_site_fract_y
_atom_site_fract_z
Si Si1 0.112724 0.388356 0.987070
Si Si2 0.233397 0.641399 0.987074
Si Si3 0.355444 0.027496 0.987070
Si Si4 0.015010 0.820160 0.487069
O O1 0.158298 0.661612 0.987072
O O2 0.130606 0.211687 0.736424
O O3 0.037414 0.427131 0.987070
O O4 0.130605 0.211686 0.237716
O O5 0.250000 0.476954 0.737074
O O6 0.214525 0.890363 0.487072
O O7 0.409849 0.782307 0.987072
O O8 0.000000 0.999996 0.237066
#
# Coordination Sequence:
#
# PCOD9340655 Si02
#       4
#     4   4   4   4
#     4  10  21  40  65  91 123 160 203 258 310 363
#     4  12  26  40  58  94 128 164 208 244 310 378
#     4  10  21  40  65  91 123 160 203 258 310 363
#     4   8  16  34  62  90 114 152 204 256 310 354
#
# _framework density 29.962861
#
# number of rings (size 3 to 8) (size 9 to 14) (size 15 to 20)
#    0.000    2.000    0.000    3.000    0.000    6.000 
#    0.000    2.500    0.000    0.000    0.000    3.500 
#    0.000    0.000    0.000    0.000    0.000    0.000 
#
# Total GULP energy -89646.773229 kJ/mol
# GULP energy per Si atom -5602.923327 kJ/mol
# Density = 2.989466 g / cm^3
# Si number density = 29.962861 Si / 1000 Ang^3
#
#
#
# Elastic Constant Matrix: (Units=GPa)
#
#
# Indices 1 2 3 4 5 6 
#
# 1 230.9046 104.2650 69.9642 0.0000 0.0000 0.0000
# 2 104.2650 126.0389 51.8617 0.0000 0.0000 0.0000
# 3 69.9642 51.8617 271.5361 0.0000 0.0000 0.0000
# 4 0.0000 0.0000 0.0000 12.4156 0.0000 0.0000
# 5 0.0000 0.0000 0.0000 0.0000 58.6660 0.0000
# 6 0.0000 0.0000 0.0000 0.0000 0.0000 70.1803
#
#
#
# Elastic Compliance Matrix: (Units=1/GPa)
#
#
# Indices 1 2 3 4 5 6 
#
# 1 0.007056 -0.005523 -0.000763 0.000000 0.000000 0.000000
# 2 -0.005523 0.012934 -0.001047 0.000000 0.000000 0.000000
# 3 -0.000763 -0.001047 0.004079 0.000000 0.000000 0.000000
# 4 0.000000 0.000000 0.000000 0.080544 0.000000 0.000000
# 5 0.000000 0.000000 0.000000 0.000000 0.017046 0.000000
# 6 0.000000 0.000000 0.000000 0.000000 0.000000 0.014249
#
#
# Mechanical properties :
#
#
# Convention : Reuss Voigt Hill
#
# Bulk Modulus (GPa) = 106.35576 120.07349 113.21463
# Shear Modulus (GPa) = 32.52907 55.07828 43.80368
#
# Velocity S-wave (km/s) = 3.29849 4.29210 3.82767
# Velocity P-wave (km/s) = 7.07670 8.04512 7.57640
#
# Compressibility (1/GPa) = 0.00940241
#
# Stress axis : x y z
#
# Youngs Moduli (GPa) = 141.72489 77.31690 245.13355
#
# Poissons Ratio (x) = 0.42702 0.18708
# Poissons Ratio (y) = 0.78274 0.25671
# Poissons Ratio (z) = 0.10816 0.08097
#
# Static dielectric constant tensor:
#      x y z
#    x 2.362920 0.000000 0.000000 
#    y 0.000000 2.220890 0.000000 
#    z 0.000000 0.000000 2.398960 
# 
# From -- ./inp_files/477.got.cif
#   From: 2010.05.17/outbox.cif.g08.bks.cpg/sg29_1_cif.got.tgz:477.got - 2010.06.04 01:19:37.
