data_PCOD9340392
_publ_section_title
;
Structure prediction by ZEFSAII (Michael W. Deem and Ramdas Pophale) SiO2 
 PCOD9340392
Probable space group: P C A 21
;
_chemical_formula_sum "Si O2"
_cell_formula_units_Z 24
_cell_length_a 9.888095
_cell_length_b 8.513584
_cell_length_c 15.184013
_cell_angle_alpha 90.000000
_cell_angle_beta 90.000000
_cell_angle_gamma 90.000000
_cell_volume 1278.237701
_symmetry_space_group_name_H-M "P C A 21"
_symmetry_group_IT_number 29
_symmetry_cell_setting 'orthorhombic'
loop_
_space_group_symop_operation_xyz
x,y,z
-x,-y,1/2+z
1/2-x,y,1/2+z
1/2+x,-y,z
loop_
_atom_site_type_symbol
_atom_site_label
_atom_site_fract_x
_atom_site_fract_y
_atom_site_fract_z
Si Si1 0.907100 0.122132 0.460500
Si Si2 0.163942 0.322252 0.492936
Si Si3 0.000721 0.903154 0.622232
Si Si4 0.712097 0.845724 0.678808
Si Si5 0.396247 0.192291 0.365721
Si Si6 0.869974 0.309085 0.980814
O O1 0.762180 0.202095 0.469272
O O2 0.022674 0.253203 0.457300
O O3 0.912081 0.994829 0.382388
O O4 0.940037 0.019509 0.547445
O O5 0.186429 0.259279 0.592091
O O6 0.280537 0.249976 0.432369
O O7 0.165342 0.509312 0.489133
O O8 0.051698 0.752234 0.567909
O O9 0.873629 0.870353 0.685244
O O10 0.128953 0.992681 0.662972
O O11 0.649457 0.774167 0.767011
O O12 0.532597 0.275502 0.398031
#
# Coordination Sequence:
#
# PCOD9340392 Si02
#       6
#     4   4   4   4   4   4
#     4  10  20  38  64  86 118 164 208 253 307 366
#     4  11  23  42  63  91 129 165 201 262 320 367
#     4  10  20  40  62  91 119 160 209 255 303 366
#     4  11  23  40  66  95 122 164 216 253 307 368
#     4  11  23  41  63  92 123 163 218 256 302 371
#     4  11  21  41  64  87 127 166 204 257 319 366
#
# _framework density 18.775850999999999
#
# number of rings (size 3 to 8) (size 9 to 14) (size 15 to 20)
#    0.000    1.333    5.000    3.000    4.667    0.000 
#    3.000    1.667    0.000    0.000    0.000    0.000 
#    0.000    0.000    0.000    0.000    0.000    0.000 
#
# Total GULP energy -134041.166813 kJ/mol
# GULP energy per Si atom -5585.048617 kJ/mol
# Density = 1.873312 g / cm^3
# Si number density = 18.775851 Si / 1000 Ang^3
#
#
#
# Elastic Constant Matrix: (Units=GPa)
#
#
# Indices 1 2 3 4 5 6 
#
# 1 73.8417 -5.2523 3.0248 0.0000 0.0000 0.0000
# 2 -5.2523 68.6986 15.1859 0.0000 0.0000 0.0000
# 3 3.0248 15.1859 83.1307 0.0000 0.0000 0.0000
# 4 0.0000 0.0000 0.0000 7.2245 0.0000 0.0000
# 5 0.0000 0.0000 0.0000 0.0000 5.8209 0.0000
# 6 0.0000 0.0000 0.0000 0.0000 0.0000 16.0858
#
#
#
# Elastic Compliance Matrix: (Units=1/GPa)
#
#
# Indices 1 2 3 4 5 6 
#
# 1 0.013657 0.001203 -0.000717 0.000000 0.000000 0.000000
# 2 0.001203 0.015275 -0.002834 0.000000 0.000000 0.000000
# 3 -0.000717 -0.002834 0.012573 0.000000 0.000000 0.000000
# 4 0.000000 0.000000 0.000000 0.138419 0.000000 0.000000
# 5 0.000000 0.000000 0.000000 0.000000 0.171794 0.000000
# 6 0.000000 0.000000 0.000000 0.000000 0.000000 0.062167
#
#
# Mechanical properties :
#
#
# Convention : Reuss Voigt Hill
#
# Bulk Modulus (GPa) = 27.16732 27.95420 27.56076
# Shear Modulus (GPa) = 11.60496 20.00708 15.80602
#
# Velocity S-wave (km/s) = 2.48882 3.26786 2.90457
# Velocity P-wave (km/s) = 4.77071 5.39993 5.09504
#
# Compressibility (1/GPa) = 0.03680893
#
# Stress axis : x y z
#
# Youngs Moduli (GPa) = 73.22049 65.46751 79.53532
#
# Poissons Ratio (x) = -0.07873 0.05700
# Poissons Ratio (y) = -0.08805 0.22541
# Poissons Ratio (z) = 0.05247 0.18554
#
# Static dielectric constant tensor:
#      x y z
#    x 1.664670 0.000000 0.000000 
#    y 0.000000 1.622190 0.000000 
#    z 0.000000 0.000000 1.649840 
# 
# From -- ./inp_files/4182.got.cif
#   From: 2010.05.17/outbox.cif.g08.bks.cpg/sg29_3_cif.got.tgz:4182.got - 2010.06.04 01:19:37.
