data_PCOD9340285
_publ_section_title
;
Structure prediction by ZEFSAII (Michael W. Deem and Ramdas Pophale) SiO2 
 PCOD9340285
Probable space group: P C A 21
;
_chemical_formula_sum "Si O2"
_cell_formula_units_Z 20
_cell_length_a 5.452148
_cell_length_b 9.037273
_cell_length_c 14.787867
_cell_angle_alpha 90.000000
_cell_angle_beta 90.000000
_cell_angle_gamma 90.000000
_cell_volume 728.635915
_symmetry_space_group_name_H-M "P C A 21"
_symmetry_group_IT_number 29
_symmetry_cell_setting 'orthorhombic'
loop_
_space_group_symop_operation_xyz
x,y,z
-x,-y,1/2+z
1/2-x,y,1/2+z
1/2+x,-y,z
loop_
_atom_site_type_symbol
_atom_site_label
_atom_site_fract_x
_atom_site_fract_y
_atom_site_fract_z
Si Si1 0.718878 0.189416 0.424900
Si Si2 0.913995 0.329103 0.604752
Si Si3 0.757837 0.923649 0.144760
Si Si4 0.219214 0.141521 0.355948
Si Si5 0.414357 0.562130 0.231403
O O1 0.777800 0.275107 0.516205
O O2 0.455114 0.231852 0.387034
O O3 0.959937 0.223747 0.364875
O O4 0.708238 0.008639 0.417415
O O5 0.162634 0.233198 0.607055
O O6 0.737745 0.296322 0.692716
O O7 0.813134 0.535424 0.772744
O O8 0.755905 0.910749 0.253441
O O9 0.994381 0.019522 0.115751
O O10 0.982448 0.511192 0.132064
#
# Coordination Sequence:
#
# PCOD9340285 Si02
#       5
#     4   4   4   4   4
#     4  10  20  34  58  80 116 156 181 238 278 362
#     4  10  24  36  68  84 120 148 216 234 294 336
#     4  12  24  37  57  92 123 158 186 244 294 368
#     4  10  20  39  49  84 125 154 177 222 312 344
#     4   8  20  40  54  84 112 156 192 256 278 324
#
# _framework density 27.448553
#
# number of rings (size 3 to 8) (size 9 to 14) (size 15 to 20)
#    1.200    0.800    4.000    0.000   11.200    0.000 
#    0.000    0.000    0.000    7.200    0.000    0.000 
#    0.000    0.000    0.000    0.000    0.000    0.000 
#
# Total GULP energy -111542.412196 kJ/mol
# GULP energy per Si atom -5577.120610 kJ/mol
# Density = 2.738608 g / cm^3
# Si number density = 27.448553 Si / 1000 Ang^3
#
#
#
# Elastic Constant Matrix: (Units=GPa)
#
#
# Indices 1 2 3 4 5 6 
#
# 1 253.9613 -0.7634 27.7006 0.0000 0.0000 0.0000
# 2 -0.7634 14.7959 -15.7343 0.0000 0.0000 0.0000
# 3 27.7006 -15.7343 72.0359 0.0000 0.0000 0.0000
# 4 0.0000 0.0000 0.0000 9.8116 0.0000 0.0000
# 5 0.0000 0.0000 0.0000 0.0000 50.7338 0.0000
# 6 0.0000 0.0000 0.0000 0.0000 0.0000 40.7495
#
#
#
# Elastic Compliance Matrix: (Units=1/GPa)
#
#
# Indices 1 2 3 4 5 6 
#
# 1 0.004152 -0.001933 -0.002019 0.000000 0.000000 0.000000
# 2 -0.001933 0.088934 0.020168 0.000000 0.000000 0.000000
# 3 -0.002019 0.020168 0.019063 0.000000 0.000000 0.000000
# 4 0.000000 0.000000 0.000000 0.101920 0.000000 0.000000
# 5 0.000000 0.000000 0.000000 0.000000 0.019711 0.000000
# 6 0.000000 0.000000 0.000000 0.000000 0.000000 0.024540
#
#
# Mechanical properties :
#
#
# Convention : Reuss Voigt Hill
#
# Bulk Modulus (GPa) = 6.91640 40.35542 23.63591
# Shear Modulus (GPa) = 18.24283 42.23167 30.23725
#
# Velocity S-wave (km/s) = 2.58082 3.92672 3.32263
# Velocity P-wave (km/s) = 3.37729 5.94079 4.83214
#
# Compressibility (1/GPa) = 0.14458379
#
# Stress axis : x y z
#
# Youngs Moduli (GPa) = 240.84860 11.24430 52.45629
#
# Poissons Ratio (x) = 0.02173 0.10589
# Poissons Ratio (y) = 0.46544 -1.05796
# Poissons Ratio (z) = 0.48620 -0.22678
#
# Static dielectric constant tensor:
#      x y z
#    x 2.300910 0.000000 0.000000 
#    y 0.000000 2.327340 0.000000 
#    z 0.000000 0.000000 2.172520 
# 
# From -- ./inp_files/4012.got.cif
#   From: 2010.05.17/outbox.cif.g08.bks.cpg/sg29_3_cif.got.tgz:4012.got - 2010.06.04 01:19:37.
