data_PCOD9340235
_publ_section_title
;
Structure prediction by ZEFSAII (Michael W. Deem and Ramdas Pophale) SiO2 
 PCOD9340235
Probable space group: P C A 21
;
_chemical_formula_sum "Si O2"
_cell_formula_units_Z 28
_cell_length_a 14.678672
_cell_length_b 7.001541
_cell_length_c 10.043138
_cell_angle_alpha 90.000000
_cell_angle_beta 90.000000
_cell_angle_gamma 90.000000
_cell_volume 1032.166674
_symmetry_space_group_name_H-M "P C A 21"
_symmetry_group_IT_number 29
_symmetry_cell_setting 'orthorhombic'
loop_
_space_group_symop_operation_xyz
x,y,z
-x,-y,1/2+z
1/2-x,y,1/2+z
1/2+x,-y,z
loop_
_atom_site_type_symbol
_atom_site_label
_atom_site_fract_x
_atom_site_fract_y
_atom_site_fract_z
Si Si1 0.768716 0.340581 0.598050
Si Si2 0.074814 0.326206 0.384622
Si Si3 0.418376 0.565551 0.239600
Si Si4 0.352173 0.755055 0.856281
Si Si5 0.683027 0.784716 0.131855
Si Si6 0.499520 0.154540 0.553655
Si Si7 0.112389 0.161363 0.671034
O O1 0.678688 0.364536 0.690637
O O2 0.733841 0.244584 0.460510
O O3 0.834252 0.224846 0.698784
O O4 0.799539 0.563752 0.583153
O O5 0.114033 0.537237 0.365194
O O6 0.129541 0.213666 0.271841
O O7 0.098009 0.257501 0.528108
O O8 0.966528 0.336626 0.363960
O O9 0.412000 0.339606 0.264663
O O10 0.484985 0.634127 0.118541
O O11 0.434236 0.867575 0.927542
O O12 0.780064 0.878247 0.166189
O O13 0.607551 0.874048 0.033446
O O14 0.545460 0.016585 0.664663
#
# Coordination Sequence:
#
# PCOD9340235 Si02
#       7
#     4   4   4   4   4   4   4
#     4   9  18  37  68  90 128 179 218 275 349 401
#     4  10  19  40  65  91 130 172 228 278 336 419
#     4   9  20  42  63  89 132 172 221 287 334 412
#     4  10  19  39  63  98 129 175 229 277 335 411
#     4   9  20  40  63  90 132 179 217 284 339 408
#     4  10  21  41  64  96 131 171 231 281 337 412
#     4  11  21  45  64  94 134 178 230 280 354 403
#
# _framework density 27.127402
#
# number of rings (size 3 to 8) (size 9 to 14) (size 15 to 20)
#    0.000    2.286    4.286    0.000    0.000    1.143 
#   18.000    5.714    0.000    0.000    0.000    0.000 
#    0.000    0.000    0.000    0.000    0.000    0.000 
#
# Total GULP energy -156572.756091 kJ/mol
# GULP energy per Si atom -5591.884146 kJ/mol
# Density = 2.706566 g / cm^3
# Si number density = 27.127402 Si / 1000 Ang^3
#
#
#
# Elastic Constant Matrix: (Units=GPa)
#
#
# Indices 1 2 3 4 5 6 
#
# 1 168.1195 45.0935 22.6449 0.0000 0.0000 0.0000
# 2 45.0935 75.9707 1.7937 0.0000 0.0000 0.0000
# 3 22.6449 1.7937 80.9718 0.0000 0.0000 0.0000
# 4 0.0000 0.0000 0.0000 35.0553 0.0000 0.0000
# 5 0.0000 0.0000 0.0000 0.0000 38.3018 0.0000
# 6 0.0000 0.0000 0.0000 0.0000 0.0000 36.3704
#
#
#
# Elastic Compliance Matrix: (Units=1/GPa)
#
#
# Indices 1 2 3 4 5 6 
#
# 1 0.007375 -0.004331 -0.001966 0.000000 0.000000 0.000000
# 2 -0.004331 0.015713 0.000863 0.000000 0.000000 0.000000
# 3 -0.001966 0.000863 0.012881 0.000000 0.000000 0.000000
# 4 0.000000 0.000000 0.000000 0.028526 0.000000 0.000000
# 5 0.000000 0.000000 0.000000 0.000000 0.026108 0.000000
# 6 0.000000 0.000000 0.000000 0.000000 0.000000 0.027495
#
#
# Mechanical properties :
#
#
# Convention : Reuss Voigt Hill
#
# Bulk Modulus (GPa) = 39.84032 51.56955 45.70494
# Shear Modulus (GPa) = 36.40765 38.98083 37.69424
#
# Velocity S-wave (km/s) = 3.66744 3.79483 3.73168
# Velocity P-wave (km/s) = 5.71417 6.18485 5.95416
#
# Compressibility (1/GPa) = 0.02510020
#
# Stress axis : x y z
#
# Youngs Moduli (GPa) = 135.59916 63.64049 77.63482
#
# Poissons Ratio (x) = 0.27562 0.15267
# Poissons Ratio (y) = 0.58727 -0.06701
# Poissons Ratio (z) = 0.26665 -0.05493
#
# Static dielectric constant tensor:
#      x y z
#    x 2.178250 0.000000 0.000000 
#    y 0.000000 2.222850 0.000000 
#    z 0.000000 0.000000 2.148490 
# 
# From -- ./inp_files/3424.got.cif
#   From: 2010.05.17/outbox.cif.g08.bks.cpg/sg29_2_cif.got.tgz:3424.got - 2010.06.04 01:19:37.
