data_PCOD9340961
_publ_section_title
;
Structure prediction by ZEFSAII (Michael W. Deem and Ramdas Pophale) SiO2 
 PCOD9340961
Probable space group: P C A 21
;
_chemical_formula_sum "Si O2"
_cell_formula_units_Z 32
_cell_length_a 14.144167
_cell_length_b 11.306388
_cell_length_c 8.807957
_cell_angle_alpha 90.000000
_cell_angle_beta 90.000000
_cell_angle_gamma 90.000000
_cell_volume 1408.563551
_symmetry_space_group_name_H-M "P C A 21"
_symmetry_group_IT_number 29
_symmetry_cell_setting 'orthorhombic'
loop_
_space_group_symop_operation_xyz
x,y,z
-x,-y,1/2+z
1/2-x,y,1/2+z
1/2+x,-y,z
loop_
_atom_site_type_symbol
_atom_site_label
_atom_site_fract_x
_atom_site_fract_y
_atom_site_fract_z
Si Si1 0.059308 0.241521 0.411700
Si Si2 0.050090 0.437350 0.147028
Si Si3 0.611030 0.917151 0.163880
Si Si4 0.471663 0.228547 0.407093
Si Si5 0.206005 0.606285 0.007117
Si Si6 0.154961 0.500161 0.696355
Si Si7 0.699267 0.758396 0.679718
Si Si8 0.609816 0.193586 0.142649
O O1 0.057857 0.348579 0.290632
O O2 0.062589 0.118394 0.321353
O O3 0.152475 0.248921 0.514020
O O4 0.970030 0.235161 0.522036
O O5 0.134874 0.524759 0.107069
O O6 0.956624 0.515016 0.177116
O O7 0.039712 0.351084 0.000184
O O8 0.707476 0.837931 0.167676
O O9 0.628297 0.054511 0.143029
O O10 0.540005 0.870539 0.035242
O O11 0.382775 0.201220 0.295312
O O12 0.565888 0.225673 0.306557
O O13 0.308231 0.553698 0.039497
O O14 0.199129 0.734406 0.081921
O O15 0.175905 0.589337 0.834070
O O16 0.210044 0.378438 0.727428
#
# Coordination Sequence:
#
# PCOD9340961 Si02
#       8
#     4   4   4   4   4   4   4   4
#     4  10  22  42  70  96 129 180 231 287 347 419
#     4  11  23  46  73 101 140 178 227 285 364 418
#     4  11  23  41  66  98 131 180 237 290 338 412
#     4  10  22  42  71  97 128 180 229 283 344 414
#     4  12  28  44  67 105 143 182 227 290 352 432
#     4  12  27  43  71 105 141 181 226 290 357 425
#     4  11  23  41  67 100 134 172 230 291 341 406
#     4  11  24  45  63  94 140 181 231 280 351 418
#
# _framework density 22.718181000000001
#
# number of rings (size 3 to 8) (size 9 to 14) (size 15 to 20)
#    0.000    1.000    2.500    4.500    5.250    0.000 
#    4.500    2.500    0.000    0.000    0.000    0.000 
#    0.000    0.000    0.000    0.000    0.000    0.000 
#
# Total GULP energy -178988.966191 kJ/mol
# GULP energy per Si atom -5593.405193 kJ/mol
# Density = 2.266647 g / cm^3
# Si number density = 22.718181 Si / 1000 Ang^3
#
#
#
# Elastic Constant Matrix: (Units=GPa)
#
#
# Indices 1 2 3 4 5 6 
#
# 1 39.4505 -5.1411 11.4818 0.0000 0.0000 0.0000
# 2 -5.1411 126.5865 20.5460 0.0000 0.0000 0.0000
# 3 11.4818 20.5460 105.7425 0.0000 0.0000 0.0000
# 4 0.0000 0.0000 0.0000 26.3382 0.0000 0.0000
# 5 0.0000 0.0000 0.0000 0.0000 21.8079 0.0000
# 6 0.0000 0.0000 0.0000 0.0000 0.0000 20.7324
#
#
#
# Elastic Compliance Matrix: (Units=1/GPa)
#
#
# Indices 1 2 3 4 5 6 
#
# 1 0.026483 0.001593 -0.003185 0.000000 0.000000 0.000000
# 2 0.001593 0.008253 -0.001776 0.000000 0.000000 0.000000
# 3 -0.003185 -0.001776 0.010148 0.000000 0.000000 0.000000
# 4 0.000000 0.000000 0.000000 0.037968 0.000000 0.000000
# 5 0.000000 0.000000 0.000000 0.000000 0.045855 0.000000
# 6 0.000000 0.000000 0.000000 0.000000 0.000000 0.048234
#
#
# Mechanical properties :
#
#
# Convention : Reuss Voigt Hill
#
# Bulk Modulus (GPa) = 26.21537 36.17254 31.19396
# Shear Modulus (GPa) = 25.45917 30.10187 27.78052
#
# Velocity S-wave (km/s) = 3.35125 3.64402 3.50070
# Velocity P-wave (km/s) = 5.15159 5.80190 5.48639
#
# Compressibility (1/GPa) = 0.03814556
#
# Stress axis : x y z
#
# Youngs Moduli (GPa) = 37.76043 121.17180 98.54215
#
# Poissons Ratio (x) = -0.19297 0.31386
# Poissons Ratio (y) = -0.06013 0.17505
# Poissons Ratio (z) = 0.12027 0.21526
#
# Static dielectric constant tensor:
#      x y z
#    x 1.876530 0.000000 0.000000 
#    y 0.000000 1.841200 0.000000 
#    z 0.000000 0.000000 1.853560 
# 
# From -- ./inp_files/1896.got.cif
#   From: 2010.05.17/outbox.cif.g08.bks.cpg/sg29_1_cif.got.tgz:1896.got - 2010.06.04 01:19:37.
