data_PCOD9340467
_publ_section_title
;
Structure prediction by ZEFSAII (Michael W. Deem and Ramdas Pophale) SiO2 
 PCOD9340467
Probable space group: P C A 21
;
_chemical_formula_sum "Si O2"
_cell_formula_units_Z 32
_cell_length_a 20.627610
_cell_length_b 5.096753
_cell_length_c 11.266286
_cell_angle_alpha 90.000000
_cell_angle_beta 90.000000
_cell_angle_gamma 90.000000
_cell_volume 1184.467833
_symmetry_space_group_name_H-M "P C A 21"
_symmetry_group_IT_number 29
_symmetry_cell_setting 'orthorhombic'
loop_
_space_group_symop_operation_xyz
x,y,z
-x,-y,1/2+z
1/2-x,y,1/2+z
1/2+x,-y,z
loop_
_atom_site_type_symbol
_atom_site_label
_atom_site_fract_x
_atom_site_fract_y
_atom_site_fract_z
Si Si1 0.676572 0.019213 0.828650
Si Si2 0.803439 0.154520 0.890779
Si Si3 0.661634 0.588022 0.036454
Si Si4 0.537446 0.891704 0.802079
Si Si5 0.293197 0.261801 0.101639
Si Si6 0.907523 0.549368 0.991582
Si Si7 0.041357 0.632920 0.944545
Si Si8 0.404661 0.108238 0.747100
O O1 0.717708 0.880599 0.724448
O O2 0.729543 0.243845 0.862564
O O3 0.604702 0.046618 0.772299
O O4 0.665126 0.808922 0.933416
O O5 0.856825 0.324963 0.958325
O O6 0.845207 0.086599 0.774517
O O7 0.791745 0.916389 0.983098
O O8 0.734129 0.536575 0.083387
O O9 0.618967 0.712205 0.141445
O O10 0.614726 0.360300 0.990886
O O11 0.523355 0.065340 0.920788
O O12 0.472892 0.959461 0.727674
O O13 0.541613 0.585680 0.837301
O O14 0.368415 0.341756 0.103074
O O15 0.908908 0.718534 0.868778
O O16 0.982416 0.515005 0.022109
#
# Coordination Sequence:
#
# PCOD9340467 Si02
#       8
#     4   4   4   4   4   4   4   4
#     4  10  22  43  65  98 138 175 231 282 345 411
#     4  10  20  41  67  93 131 174 227 281 343 414
#     4  10  22  43  68  96 138 180 224 285 340 414
#     4  10  22  43  68  96 139 177 227 287 338 410
#     4  10  22  42  66  96 131 181 226 281 350 408
#     4  10  22  41  68  96 131 176 230 286 343 418
#     4  10  22  44  66  99 137 179 228 282 344 407
#     4  10  20  43  68  94 131 180 225 276 347 412
#
# _framework density 27.016351
#
# number of rings (size 3 to 8) (size 9 to 14) (size 15 to 20)
#    0.000    2.000    2.500    0.000    1.750    1.000 
#   24.750    0.000    0.000    0.000    0.000    0.000 
#    0.000    0.000    0.000    0.000    0.000    0.000 
#
# Total GULP energy -178414.377016 kJ/mol
# GULP energy per Si atom -5575.449282 kJ/mol
# Density = 2.695486 g / cm^3
# Si number density = 27.016351 Si / 1000 Ang^3
#
#
#
# Elastic Constant Matrix: (Units=GPa)
#
#
# Indices 1 2 3 4 5 6 
#
# 1 212.6601 0.7991 -0.7579 0.0000 0.0000 0.0000
# 2 0.7991 58.8567 -0.0960 0.0000 0.0000 0.0000
# 3 -0.7579 -0.0960 45.1900 0.0000 0.0000 0.0000
# 4 0.0000 0.0000 0.0000 22.3938 0.0000 0.0000
# 5 0.0000 0.0000 0.0000 0.0000 -261.0382 0.0000
# 6 0.0000 0.0000 0.0000 0.0000 0.0000 38.9039
#
#
#
# Elastic Compliance Matrix: (Units=1/GPa)
#
#
# Indices 1 2 3 4 5 6 
#
# 1 0.004703 -0.000064 0.000079 0.000000 0.000000 0.000000
# 2 -0.000064 0.016991 0.000035 0.000000 0.000000 0.000000
# 3 0.000079 0.000035 0.022130 0.000000 0.000000 0.000000
# 4 0.000000 0.000000 0.000000 0.044655 0.000000 0.000000
# 5 0.000000 0.000000 0.000000 0.000000 -0.003831 0.000000
# 6 0.000000 0.000000 0.000000 0.000000 0.000000 0.025704
#
#
# Mechanical properties :
#
#
# Convention : Reuss Voigt Hill
#
# Bulk Modulus (GPa) = 22.76635 35.17747 28.97191
# Shear Modulus (GPa) = 40.03376 -18.83067 10.60155
#
# Velocity S-wave (km/s) = 3.85364 -2.64296 1.98309
# Velocity P-wave (km/s) = 5.31468 1.93273 3.99883
#
# Compressibility (1/GPa) = 0.04392447
#
# Stress axis : x y z
#
# Youngs Moduli (GPa) = 212.63654 58.85349 45.18711
#
# Poissons Ratio (x) = 0.00375 -0.00356
# Poissons Ratio (y) = 0.01355 -0.00158
# Poissons Ratio (z) = -0.01674 -0.00206
#
# Static dielectric constant tensor:
#      x y z
#    x 2.329610 0.000000 0.000000 
#    y 0.000000 2.379940 0.000000 
#    z 0.000000 0.000000 2.306360 
# 
# From -- ./inp_files/3838.got.cif
#   From: 2010.05.17/outbox.cif.g08.bks.cpg/sg29_2_cif.got.tgz:3838.got - 2010.06.04 01:19:37.
