data_PCOD9340339
_publ_section_title
;
Structure prediction by ZEFSAII (Michael W. Deem and Ramdas Pophale) SiO2 
 PCOD9340339
Probable space group: P C A 21
;
_chemical_formula_sum "Si O2"
_cell_formula_units_Z 32
_cell_length_a 9.687800
_cell_length_b 18.591321
_cell_length_c 8.787602
_cell_angle_alpha 90.000000
_cell_angle_beta 90.000000
_cell_angle_gamma 90.000000
_cell_volume 1582.726205
_symmetry_space_group_name_H-M "P C A 21"
_symmetry_group_IT_number 29
_symmetry_cell_setting 'orthorhombic'
loop_
_space_group_symop_operation_xyz
x,y,z
-x,-y,1/2+z
1/2-x,y,1/2+z
1/2+x,-y,z
loop_
_atom_site_type_symbol
_atom_site_label
_atom_site_fract_x
_atom_site_fract_y
_atom_site_fract_z
Si Si1 0.593717 0.651696 0.656200
Si Si2 0.691774 0.015067 0.902245
Si Si3 0.112393 0.371421 0.013401
Si Si4 0.938014 0.009568 0.087739
Si Si5 0.171488 0.846530 0.472715
Si Si6 0.654602 0.377852 0.697249
Si Si7 0.355955 0.751902 0.698282
Si Si8 0.388650 0.543826 0.510110
O O1 0.744589 0.655729 0.584536
O O2 0.602733 0.650080 0.838057
O O3 0.487747 0.716006 0.617357
O O4 0.517016 0.579527 0.598319
O O5 0.833401 0.978832 0.958608
O O6 0.615432 0.987458 0.753147
O O7 0.732088 0.097958 0.878523
O O8 0.590840 0.013012 0.046984
O O9 0.110369 0.458417 0.018433
O O10 0.978361 0.348079 0.108925
O O11 0.923650 0.096030 0.062490
O O12 0.266478 0.799940 0.583540
O O13 0.101115 0.796741 0.346937
O O14 0.755078 0.313317 0.749275
O O15 0.608055 0.425804 0.839282
O O16 0.748973 0.425901 0.586197
#
# Coordination Sequence:
#
# PCOD9340339 Si02
#       8
#     4   4   4   4   4   4   4   4
#     4  11  25  37  60  86 118 164 199 262 310 364
#     4  10  20  36  63  96 129 157 197 243 301 341
#     4  12  22  39  58  84 123 151 204 264 330 362
#     4  10  20  36  63  97 126 158 196 243 301 341
#     4  10  20  38  65  87 117 165 198 238 286 360
#     4  11  23  37  62  88 118 158 203 261 304 368
#     4  11  21  41  61  83 118 160 219 234 287 375
#     4  11  21  38  58  91 113 157 202 257 323 385
#
# _framework density 20.218278999999999
#
# number of rings (size 3 to 8) (size 9 to 14) (size 15 to 20)
#    0.750    0.500    1.250    7.500    1.750    0.000 
#    0.000    0.000    8.250    0.000    0.000    0.000 
#    0.000    0.000    0.000    0.000    0.000    0.000 
#
# Total GULP energy -178662.376711 kJ/mol
# GULP energy per Si atom -5583.199272 kJ/mol
# Density = 2.017226 g / cm^3
# Si number density = 20.218279 Si / 1000 Ang^3
#
#
#
# Elastic Constant Matrix: (Units=GPa)
#
#
# Indices 1 2 3 4 5 6 
#
# 1 90.0783 -3.3505 3.3074 0.0000 0.0000 0.0000
# 2 -3.3505 24.2773 -9.8478 0.0000 0.0000 0.0000
# 3 3.3074 -9.8478 71.5240 0.0000 0.0000 0.0000
# 4 0.0000 0.0000 0.0000 32.0921 0.0000 0.0000
# 5 0.0000 0.0000 0.0000 0.0000 37.3044 0.0000
# 6 0.0000 0.0000 0.0000 0.0000 0.0000 16.6291
#
#
#
# Elastic Compliance Matrix: (Units=1/GPa)
#
#
# Indices 1 2 3 4 5 6 
#
# 1 0.011166 0.001410 -0.000322 0.000000 0.000000 0.000000
# 2 0.001410 0.043805 0.005966 0.000000 0.000000 0.000000
# 3 -0.000322 0.005966 0.014818 0.000000 0.000000 0.000000
# 4 0.000000 0.000000 0.000000 0.031160 0.000000 0.000000
# 5 0.000000 0.000000 0.000000 0.000000 0.026806 0.000000
# 6 0.000000 0.000000 0.000000 0.000000 0.000000 0.060136
#
#
# Mechanical properties :
#
#
# Convention : Reuss Voigt Hill
#
# Bulk Modulus (GPa) = 11.91931 18.45532 15.18731
# Shear Modulus (GPa) = 24.78333 30.25650 27.51992
#
# Velocity S-wave (km/s) = 3.50492 3.87265 3.69337
# Velocity P-wave (km/s) = 4.72096 5.39856 5.07109
#
# Compressibility (1/GPa) = 0.08389751
#
# Stress axis : x y z
#
# Youngs Moduli (GPa) = 89.55974 22.82820 67.48699
#
# Poissons Ratio (x) = -0.03219 0.02174
# Poissons Ratio (y) = -0.12630 -0.40264
# Poissons Ratio (z) = 0.02885 -0.13620
#
# Static dielectric constant tensor:
#      x y z
#    x 1.689530 0.000000 0.000000 
#    y 0.000000 1.707230 0.000000 
#    z 0.000000 0.000000 1.724520 
# 
# From -- ./inp_files/1260.got.cif
#   From: 2010.05.17/outbox.cif.g08.bks.cpg/sg29_1_cif.got.tgz:1260.got - 2010.06.04 01:19:37.
