data_PCOD9340210
_publ_section_title
;
Structure prediction by ZEFSAII (Michael W. Deem and Ramdas Pophale) SiO2 
 PCOD9340210
Probable space group: P C A 21
;
_chemical_formula_sum "Si O2"
_cell_formula_units_Z 32
_cell_length_a 15.146611
_cell_length_b 17.960222
_cell_length_c 5.375816
_cell_angle_alpha 90.000000
_cell_angle_beta 90.000000
_cell_angle_gamma 90.000000
_cell_volume 1462.418148
_symmetry_space_group_name_H-M "P C A 21"
_symmetry_group_IT_number 29
_symmetry_cell_setting 'orthorhombic'
loop_
_space_group_symop_operation_xyz
x,y,z
-x,-y,1/2+z
1/2-x,y,1/2+z
1/2+x,-y,z
loop_
_atom_site_type_symbol
_atom_site_label
_atom_site_fract_x
_atom_site_fract_y
_atom_site_fract_z
Si Si1 0.357560 0.344271 0.572830
Si Si2 0.203476 0.710679 0.478930
Si Si3 0.054137 0.499946 0.946030
Si Si4 0.301684 0.113321 0.011995
Si Si5 0.658626 0.713898 0.572649
Si Si6 0.689950 0.138137 0.337028
Si Si7 0.054012 0.997878 0.366351
Si Si8 0.269746 0.548913 0.465347
O O1 0.390771 0.425242 0.500691
O O2 0.385963 0.292649 0.341260
O O3 0.252349 0.329628 0.597677
O O4 0.393675 0.321982 0.843524
O O5 0.218252 0.722948 0.772343
O O6 0.145341 0.779363 0.378929
O O7 0.203491 0.620365 0.458542
O O8 0.126444 0.565775 0.967927
O O9 0.014793 0.495249 0.670840
O O10 0.264444 0.094536 0.284959
O O11 0.318752 0.201578 0.006789
O O12 0.389178 0.068386 0.953765
O O13 0.758181 0.132115 0.572602
O O14 0.618753 0.073162 0.353081
O O15 0.015074 0.012612 0.092011
O O16 0.246858 0.506298 0.713385
#
# Coordination Sequence:
#
# PCOD9340210 Si02
#       8
#     4   4   4   4   4   4   4   4
#     4  10  20  36  62  90 126 156 212 267 311 379
#     4   8  16  32  60  84 110 140 203 261 282 338
#     4  12  26  41  61  94 140 171 201 260 342 398
#     4  12  21  41  70  97 127 168 228 279 313 383
#     4  10  19  37  66  95 113 157 224 276 307 354
#     4  10  19  38  67  90 114 164 216 258 298 363
#     4  12  26  41  61  96 140 169 201 258 340 398
#     4  10  21  38  65  90 114 161 219 261 297 363
#
# _framework density 21.881567
#
# number of rings (size 3 to 8) (size 9 to 14) (size 15 to 20)
#    0.000    1.500    2.500    3.750    3.500    0.000 
#    0.000    0.000   49.500    0.000    0.000    0.000 
#    0.000    0.000    0.000    0.000    0.000    0.000 
#
# Total GULP energy -178176.964216 kJ/mol
# GULP energy per Si atom -5568.030132 kJ/mol
# Density = 2.183176 g / cm^3
# Si number density = 21.881567 Si / 1000 Ang^3
#
#
#
# Elastic Constant Matrix: (Units=GPa)
#
#
# Indices 1 2 3 4 5 6 
#
# 1 31.9793 23.0069 8.0307 0.0000 0.0000 0.0000
# 2 23.0069 61.0501 -7.7836 0.0000 0.0000 0.0000
# 3 8.0307 -7.7836 147.2251 0.0000 0.0000 0.0000
# 4 0.0000 0.0000 0.0000 22.0061 0.0000 0.0000
# 5 0.0000 0.0000 0.0000 0.0000 41.5737 0.0000
# 6 0.0000 0.0000 0.0000 0.0000 0.0000 4.8740
#
#
#
# Elastic Compliance Matrix: (Units=1/GPa)
#
#
# Indices 1 2 3 4 5 6 
#
# 1 0.044470 -0.017184 -0.003334 0.000000 0.000000 0.000000
# 2 -0.017184 0.023131 0.002160 0.000000 0.000000 0.000000
# 3 -0.003334 0.002160 0.007088 0.000000 0.000000 0.000000
# 4 0.000000 0.000000 0.000000 0.045442 0.000000 0.000000
# 5 0.000000 0.000000 0.000000 0.000000 0.024054 0.000000
# 6 0.000000 0.000000 0.000000 0.000000 0.000000 0.205172
#
#
# Mechanical properties :
#
#
# Convention : Reuss Voigt Hill
#
# Bulk Modulus (GPa) = 26.33369 31.86251 29.09810
# Shear Modulus (GPa) = 12.53977 28.15745 20.34861
#
# Velocity S-wave (km/s) = 2.39649 3.59111 3.05281
# Velocity P-wave (km/s) = 4.44054 5.63806 5.07474
#
# Compressibility (1/GPa) = 0.03797418
#
# Stress axis : x y z
#
# Youngs Moduli (GPa) = 22.48699 43.23165 141.07557
#
# Poissons Ratio (x) = 0.74289 0.47038
# Poissons Ratio (y) = 0.38641 -0.30476
# Poissons Ratio (z) = 0.07498 -0.09339
#
# Static dielectric constant tensor:
#      x y z
#    x 1.854640 0.000000 0.000000 
#    y 0.000000 1.855800 0.000000 
#    z 0.000000 0.000000 1.882490 
# 
# From -- ./inp_files/127.got.cif
#   From: 2010.05.17/outbox.cif.g08.bks.cpg/sg29_1_cif.got.tgz:127.got - 2010.06.04 01:19:37.
