data_PCOD9340772
_publ_section_title
;
Structure prediction by ZEFSAII (Michael W. Deem and Ramdas Pophale) SiO2 
 PCOD9340772
Probable space group: P C A 21
;
_chemical_formula_sum "Si O2"
_cell_formula_units_Z 32
_cell_length_a 8.624691
_cell_length_b 11.462783
_cell_length_c 13.437987
_cell_angle_alpha 90.000000
_cell_angle_beta 90.000000
_cell_angle_gamma 90.000000
_cell_volume 1328.519190
_symmetry_space_group_name_H-M "P C A 21"
_symmetry_group_IT_number 29
_symmetry_cell_setting 'orthorhombic'
loop_
_space_group_symop_operation_xyz
x,y,z
-x,-y,1/2+z
1/2-x,y,1/2+z
1/2+x,-y,z
loop_
_atom_site_type_symbol
_atom_site_label
_atom_site_fract_x
_atom_site_fract_y
_atom_site_fract_z
Si Si1 0.712208 0.849037 0.474720
Si Si2 0.401426 0.527354 0.258821
Si Si3 0.612902 0.151491 0.326029
Si Si4 0.497642 0.273348 0.527318
Si Si5 0.811303 0.632974 0.862236
Si Si6 0.285504 0.716103 0.651688
Si Si7 0.914904 0.057066 0.407887
Si Si8 0.008233 0.449899 0.554012
O O1 0.718414 0.770300 0.373008
O O2 0.529913 0.874365 0.481972
O O3 0.826833 0.778840 0.547107
O O4 0.798968 0.971611 0.465682
O O5 0.339635 0.444639 0.344947
O O6 0.561658 0.592079 0.282380
O O7 0.275267 0.624924 0.234688
O O8 0.414814 0.446118 0.162637
O O9 0.550170 0.232159 0.416681
O O10 0.601932 0.200995 0.214459
O O11 0.797758 0.135707 0.345133
O O12 0.523258 0.028669 0.341803
O O13 0.632803 0.229287 0.601181
O O14 0.486046 0.412127 0.539444
O O15 0.887264 0.598303 0.966755
O O16 0.361034 0.634302 0.566647
#
# Coordination Sequence:
#
# PCOD9340772 Si02
#       8
#     4   4   4   4   4   4   4   4
#     4  10  22  40  70  97 126 180 227 295 350 405
#     4  11  25  42  65 104 145 190 236 274 353 441
#     4  10  21  45  72  98 137 185 231 302 360 402
#     4  10  24  41  68  99 143 181 232 278 353 427
#     4  12  25  41  71  99 142 194 228 290 363 414
#     4  11  24  41  67 101 146 187 228 287 349 439
#     4   9  21  43  71 101 128 172 253 297 346 418
#     4  11  26  41  64 107 151 183 237 285 336 460
#
# _framework density 24.086967999999999
#
# number of rings (size 3 to 8) (size 9 to 14) (size 15 to 20)
#    0.000    1.500    1.250    2.250   14.000    0.000 
#    0.000    5.000    0.000    0.000    0.000    0.000 
#    0.000    0.000    0.000    0.000    0.000    0.000 
#
# Total GULP energy -178812.169785 kJ/mol
# GULP energy per Si atom -5587.880306 kJ/mol
# Density = 2.403214 g / cm^3
# Si number density = 24.086968 Si / 1000 Ang^3
#
#
#
# Elastic Constant Matrix: (Units=GPa)
#
#
# Indices 1 2 3 4 5 6 
#
# 1 93.9376 37.2278 19.8800 0.0000 0.0000 0.0000
# 2 37.2278 81.9320 19.2488 0.0000 0.0000 0.0000
# 3 19.8800 19.2488 84.6580 0.0000 0.0000 0.0000
# 4 0.0000 0.0000 0.0000 22.4994 0.0000 0.0000
# 5 0.0000 0.0000 0.0000 0.0000 44.6508 0.0000
# 6 0.0000 0.0000 0.0000 0.0000 0.0000 46.3322
#
#
#
# Elastic Compliance Matrix: (Units=1/GPa)
#
#
# Indices 1 2 3 4 5 6 
#
# 1 0.013249 -0.005588 -0.001841 0.000000 0.000000 0.000000
# 2 -0.005588 0.015251 -0.002155 0.000000 0.000000 0.000000
# 3 -0.001841 -0.002155 0.012735 0.000000 0.000000 0.000000
# 4 0.000000 0.000000 0.000000 0.044446 0.000000 0.000000
# 5 0.000000 0.000000 0.000000 0.000000 0.022396 0.000000
# 6 0.000000 0.000000 0.000000 0.000000 0.000000 0.021583
#
#
# Mechanical properties :
#
#
# Convention : Reuss Voigt Hill
#
# Bulk Modulus (GPa) = 45.31724 45.91563 45.61644
# Shear Modulus (GPa) = 32.01377 34.97455 33.49416
#
# Velocity S-wave (km/s) = 3.64963 3.81466 3.73305
# Velocity P-wave (km/s) = 6.05099 6.20532 6.12864
#
# Compressibility (1/GPa) = 0.02206666
#
# Stress axis : x y z
#
# Youngs Moduli (GPa) = 75.47534 65.57157 78.52630
#
# Poissons Ratio (x) = 0.36639 0.14455
# Poissons Ratio (y) = 0.42173 0.16925
# Poissons Ratio (z) = 0.13894 0.14133
#
# Static dielectric constant tensor:
#      x y z
#    x 2.009390 0.000000 0.000000 
#    y 0.000000 1.958970 0.000000 
#    z 0.000000 0.000000 1.931270 
# 
# From -- ./inp_files/4344.got.cif
#   From: 2010.05.17/outbox.cif.g08.bks.cpg/sg29_3_cif.got.tgz:4344.got - 2010.06.04 01:19:37.
