data_PCOD9340212
_publ_section_title
;
Structure prediction by ZEFSAII (Michael W. Deem and Ramdas Pophale) SiO2 
 PCOD9340212
Probable space group: P C A 21
;
_chemical_formula_sum "Si O2"
_cell_formula_units_Z 24
_cell_length_a 7.900534
_cell_length_b 8.668856
_cell_length_c 15.086600
_cell_angle_alpha 90.000000
_cell_angle_beta 90.000000
_cell_angle_gamma 90.000000
_cell_volume 1033.259986
_symmetry_space_group_name_H-M "P C A 21"
_symmetry_group_IT_number 29
_symmetry_cell_setting 'orthorhombic'
loop_
_space_group_symop_operation_xyz
x,y,z
-x,-y,1/2+z
1/2-x,y,1/2+z
1/2+x,-y,z
loop_
_atom_site_type_symbol
_atom_site_label
_atom_site_fract_x
_atom_site_fract_y
_atom_site_fract_z
Si Si1 0.691175 0.256382 0.352150
Si Si2 0.959170 0.557994 0.852150
Si Si3 0.685880 0.753937 0.509858
Si Si4 0.608518 0.042920 0.953859
Si Si5 0.685880 0.753936 0.194442
Si Si6 0.608518 0.042920 0.750441
O O1 0.538282 0.373520 0.352150
O O2 0.723428 0.148856 0.266695
O O3 0.854152 0.370440 0.352150
O O4 0.723428 0.148856 0.437605
O O5 0.864807 0.626735 0.938186
O O6 0.864806 0.626735 0.766114
O O7 0.750000 0.686871 0.602150
O O8 0.829265 0.875028 0.479142
O O9 0.519690 0.864823 0.515658
O O10 0.536944 0.042647 0.852150
O O11 0.519691 0.864823 0.188642
O O12 0.829266 0.875028 0.225158
#
# Coordination Sequence:
#
# PCOD9340212 Si02
#       6
#     4   4   4   4   4   4
#     4   8  19  32  56  68 106 144 169 218 254 314
#     4  10  19  38  50  78 106 140 179 212 264 312
#     4  11  20  34  57  81 108 137 174 222 265 312
#     4   9  18  36  53  77 105 136 179 217 259 309
#     4  11  20  34  57  81 108 137 174 222 265 312
#     4   9  18  36  53  77 105 136 179 217 259 309
#
# _framework density 23.227457999999999
#
# number of rings (size 3 to 8) (size 9 to 14) (size 15 to 20)
#    1.000    1.333    3.333    1.000    0.000    2.667 
#    0.000    8.333    0.000    0.000    0.000    0.000 
#    0.000    0.000    0.000    0.000    0.000    0.000 
#
# Total GULP energy -133973.565851 kJ/mol
# GULP energy per Si atom -5582.231910 kJ/mol
# Density = 2.317459 g / cm^3
# Si number density = 23.227458 Si / 1000 Ang^3
#
#
#
# Elastic Constant Matrix: (Units=GPa)
#
#
# Indices 1 2 3 4 5 6 
#
# 1 49.2798 9.9774 -19.4834 0.0000 0.0000 0.0000
# 2 9.9774 66.0956 23.9480 0.0000 0.0000 0.0000
# 3 -19.4834 23.9480 31.5565 0.0000 0.0000 0.0000
# 4 0.0000 0.0000 0.0000 9.6646 0.0000 0.0000
# 5 0.0000 0.0000 0.0000 0.0000 8.5880 0.0000
# 6 0.0000 0.0000 0.0000 0.0000 0.0000 44.9326
#
#
#
# Elastic Compliance Matrix: (Units=1/GPa)
#
#
# Indices 1 2 3 4 5 6 
#
# 1 0.040893 -0.021131 0.041284 0.000000 0.000000 0.000000
# 2 -0.021131 0.031787 -0.037169 0.000000 0.000000 0.000000
# 3 0.041284 -0.037169 0.085386 0.000000 0.000000 0.000000
# 4 0.000000 0.000000 0.000000 0.103471 0.000000 0.000000
# 5 0.000000 0.000000 0.000000 0.000000 0.116442 0.000000
# 6 0.000000 0.000000 0.000000 0.000000 0.000000 0.022256
#
#
# Mechanical properties :
#
#
# Convention : Reuss Voigt Hill
#
# Bulk Modulus (GPa) = 8.06242 19.53510 13.79876
# Shear Modulus (GPa) = 10.51282 21.46969 15.99125
#
# Velocity S-wave (km/s) = 2.12976 3.04357 2.62670
# Velocity P-wave (km/s) = 3.08649 4.55847 3.89269
#
# Compressibility (1/GPa) = 0.12403217
#
# Stress axis : x y z
#
# Youngs Moduli (GPa) = 24.45430 31.45973 11.71156
#
# Poissons Ratio (x) = 0.66477 -0.48350
# Poissons Ratio (y) = 0.51674 0.43531
# Poissons Ratio (z) = -1.00956 1.16933
#
# Static dielectric constant tensor:
#      x y z
#    x 1.982080 0.000000 0.000000 
#    y 0.000000 1.899710 0.000000 
#    z 0.000000 0.000000 1.868000 
# 
# From -- ./inp_files/4220.got.cif
#   From: 2010.05.17/outbox.cif.g08.bks.cpg/sg29_3_cif.got.tgz:4220.got - 2010.06.04 01:19:37.
