data_PCOD9340956
_publ_section_title
;
Structure prediction by ZEFSAII (Michael W. Deem and Ramdas Pophale) SiO2 
 PCOD9340956
Probable space group: P C A 21
;
_chemical_formula_sum "Si O2"
_cell_formula_units_Z 28
_cell_length_a 20.367691
_cell_length_b 5.452011
_cell_length_c 10.135949
_cell_angle_alpha 90.000000
_cell_angle_beta 90.000000
_cell_angle_gamma 90.000000
_cell_volume 1125.545194
_symmetry_space_group_name_H-M "P C A 21"
_symmetry_group_IT_number 29
_symmetry_cell_setting 'orthorhombic'
loop_
_space_group_symop_operation_xyz
x,y,z
-x,-y,1/2+z
1/2-x,y,1/2+z
1/2+x,-y,z
loop_
_atom_site_type_symbol
_atom_site_label
_atom_site_fract_x
_atom_site_fract_y
_atom_site_fract_z
Si Si1 0.806285 0.651974 0.099960
Si Si2 0.429250 0.653316 0.178466
Si Si3 0.834580 0.754440 0.546211
Si Si4 0.165420 0.754437 0.877797
Si Si5 0.108829 0.000001 0.462005
Si Si6 0.306285 0.651976 0.824049
Si Si7 0.429249 0.346685 0.745542
O O1 0.868089 0.530448 0.172565
O O2 0.730997 0.703675 0.136588
O O3 0.801138 0.500000 0.962005
O O4 0.839928 0.909932 0.070607
O O5 0.401766 0.814078 0.299844
O O6 0.500000 0.547769 0.212004
O O7 0.432024 0.794642 0.038606
O O8 0.843107 0.500001 0.462004
O O9 0.901766 0.814078 0.624165
O O10 0.818634 0.000001 0.462004
O O11 0.230997 0.703674 0.787420
O O12 0.160073 0.909933 0.353404
O O13 0.067976 0.205360 0.385403
O O14 0.368089 0.530451 0.751444
#
# Coordination Sequence:
#
# PCOD9340956 Si02
#       7
#     4   4   4   4   4   4   4
#     4   9  20  43  67 100 137 186 243 303 360 424
#     4  11  26  42  69 102 147 198 235 303 369 449
#     4  11  25  45  74 110 143 189 251 307 361 429
#     4  11  25  45  74 110 143 189 251 307 361 429
#     4  10  22  42  68  96 138 182 244 294 368 426
#     4   9  20  43  67 100 137 186 243 303 360 424
#     4  11  26  42  69 102 147 198 235 303 369 449
#
# _framework density 24.876832
#
# number of rings (size 3 to 8) (size 9 to 14) (size 15 to 20)
#    0.000    1.714    1.429    0.857    6.000    5.714 
#    0.000    0.000    0.000    0.000    0.000    0.000 
#    0.000    0.000    0.000    0.000    0.000    0.000 
#
# Total GULP energy -155949.476208 kJ/mol
# GULP energy per Si atom -5569.624150 kJ/mol
# Density = 2.482021 g / cm^3
# Si number density = 24.876832 Si / 1000 Ang^3
#
#
#
# Elastic Constant Matrix: (Units=GPa)
#
#
# Indices 1 2 3 4 5 6 
#
# 1 194.1936 20.2149 53.7529 0.0000 0.0000 0.0000
# 2 20.2149 78.3703 12.6460 0.0000 0.0000 0.0000
# 3 53.7529 12.6460 47.6296 0.0000 0.0000 0.0000
# 4 0.0000 0.0000 0.0000 16.6978 0.0000 0.0000
# 5 0.0000 0.0000 0.0000 0.0000 35.4320 0.0000
# 6 0.0000 0.0000 0.0000 0.0000 0.0000 23.2552
#
#
#
# Elastic Compliance Matrix: (Units=1/GPa)
#
#
# Indices 1 2 3 4 5 6 
#
# 1 0.007515 -0.000595 -0.008324 0.000000 0.000000 0.000000
# 2 -0.000595 0.013378 -0.002880 0.000000 0.000000 0.000000
# 3 -0.008324 -0.002880 0.031154 0.000000 0.000000 0.000000
# 4 0.000000 0.000000 0.000000 0.059888 0.000000 0.000000
# 5 0.000000 0.000000 0.000000 0.000000 0.028223 0.000000
# 6 0.000000 0.000000 0.000000 0.000000 0.000000 0.043001
#
#
# Mechanical properties :
#
#
# Convention : Reuss Voigt Hill
#
# Bulk Modulus (GPa) = 35.15022 54.82456 44.98739
# Shear Modulus (GPa) = 23.12234 30.64896 26.88565
#
# Velocity S-wave (km/s) = 3.05203 3.51383 3.29104
# Velocity P-wave (km/s) = 5.15560 6.20878 5.70654
#
# Compressibility (1/GPa) = 0.02844932
#
# Stress axis : x y z
#
# Youngs Moduli (GPa) = 133.05916 74.74815 32.09891
#
# Poissons Ratio (x) = 0.04451 0.26718
# Poissons Ratio (y) = 0.07923 0.09245
# Poissons Ratio (z) = 1.10753 0.21528
#
# Static dielectric constant tensor:
#      x y z
#    x 1.848250 0.000000 0.000000 
#    y 0.000000 2.169870 0.000000 
#    z 0.000000 0.000000 2.472580 
# 
# From -- ./inp_files/3599.got.cif
#   From: 2010.05.17/outbox.cif.g08.bks.cpg/sg29_2_cif.got.tgz:3599.got - 2010.06.04 01:19:37.
