data_PCOD9340689
_publ_section_title
;
Structure prediction by ZEFSAII (Michael W. Deem and Ramdas Pophale) SiO2 
 PCOD9340689
Probable space group: P C A 21
;
_chemical_formula_sum "Si O2"
_cell_formula_units_Z 32
_cell_length_a 19.901787
_cell_length_b 12.200029
_cell_length_c 5.109840
_cell_angle_alpha 90.000000
_cell_angle_beta 90.000000
_cell_angle_gamma 90.000000
_cell_volume 1240.681306
_symmetry_space_group_name_H-M "P C A 21"
_symmetry_group_IT_number 29
_symmetry_cell_setting 'orthorhombic'
loop_
_space_group_symop_operation_xyz
x,y,z
-x,-y,1/2+z
1/2-x,y,1/2+z
1/2+x,-y,z
loop_
_atom_site_type_symbol
_atom_site_label
_atom_site_fract_x
_atom_site_fract_y
_atom_site_fract_z
Si Si1 0.955982 0.009753 0.247490
Si Si2 0.892471 0.449642 0.171758
Si Si3 0.293693 0.360740 0.163035
Si Si4 0.102830 0.208039 0.969554
Si Si5 0.087712 0.763496 0.986063
Si Si6 0.704672 0.894731 0.329457
Si Si7 0.705287 0.154340 0.325899
Si Si8 0.998644 0.634000 0.326360
O O1 0.921580 0.124544 0.323184
O O2 0.910815 0.905458 0.319142
O O3 0.018206 0.995907 0.451256
O O4 0.824696 0.517566 0.161294
O O5 0.930056 0.417220 0.905136
O O6 0.883296 0.337057 0.322801
O O7 0.948469 0.532391 0.293044
O O8 0.266461 0.346146 0.870375
O O9 0.352657 0.285796 0.283223
O O10 0.140814 0.172513 0.231734
O O11 0.036778 0.280769 0.024638
O O12 0.137514 0.789444 0.226799
O O13 0.016799 0.715933 0.090680
O O14 0.760766 0.873161 0.105871
O O15 0.690481 0.024127 0.319614
O O16 0.762514 0.178389 0.107106
#
# Coordination Sequence:
#
# PCOD9340689 Si02
#       8
#     4   4   4   4   4   4   4   4
#     4  12  27  45  68 112 153 192 241 296 370 456
#     4  11  26  46  77 102 151 188 252 315 373 434
#     4  11  28  50  79 113 143 196 255 311 377 442
#     4  11  23  46  73 109 150 190 240 308 367 448
#     4  12  25  45  72 102 144 191 243 297 367 443
#     4  10  21  41  65  95 138 184 231 284 350 426
#     4  10  24  42  64  97 134 182 231 279 349 421
#     4  11  24  47  70 108 139 193 243 306 375 434
#
# _framework density 25.792278
#
# number of rings (size 3 to 8) (size 9 to 14) (size 15 to 20)
#    0.000    1.000    3.750    1.500    3.500    3.000 
#    2.250    0.000    0.000    0.000    0.000    0.000 
#    0.000    0.000    0.000    0.000    0.000    0.000 
#
# Total GULP energy -179422.574011 kJ/mol
# GULP energy per Si atom -5606.955438 kJ/mol
# Density = 2.573357 g / cm^3
# Si number density = 25.792278 Si / 1000 Ang^3
#
#
#
# Elastic Constant Matrix: (Units=GPa)
#
#
# Indices 1 2 3 4 5 6 
#
# 1 65.7474 44.3605 24.7240 0.0000 0.0000 0.0000
# 2 44.3605 165.6613 23.6382 0.0000 0.0000 0.0000
# 3 24.7240 23.6382 98.8864 0.0000 0.0000 0.0000
# 4 0.0000 0.0000 0.0000 36.4936 0.0000 0.0000
# 5 0.0000 0.0000 0.0000 0.0000 40.2629 0.0000
# 6 0.0000 0.0000 0.0000 0.0000 0.0000 58.5757
#
#
#
# Elastic Compliance Matrix: (Units=1/GPa)
#
#
# Indices 1 2 3 4 5 6 
#
# 1 0.019870 -0.004775 -0.003827 0.000000 0.000000 0.000000
# 2 -0.004775 0.007397 -0.000574 0.000000 0.000000 0.000000
# 3 -0.003827 -0.000574 0.011207 0.000000 0.000000 0.000000
# 4 0.000000 0.000000 0.000000 0.027402 0.000000 0.000000
# 5 0.000000 0.000000 0.000000 0.000000 0.024837 0.000000
# 6 0.000000 0.000000 0.000000 0.000000 0.000000 0.017072
#
#
# Mechanical properties :
#
#
# Convention : Reuss Voigt Hill
#
# Bulk Modulus (GPa) = 49.69627 57.30451 53.50039
# Shear Modulus (GPa) = 37.63815 42.90460 40.27138
#
# Velocity S-wave (km/s) = 3.82420 4.08299 3.95571
# Velocity P-wave (km/s) = 6.22969 6.67036 6.45378
#
# Compressibility (1/GPa) = 0.02012224
#
# Stress axis : x y z
#
# Youngs Moduli (GPa) = 50.32622 135.19055 89.23246
#
# Poissons Ratio (x) = 0.64551 0.34146
# Poissons Ratio (y) = 0.24030 0.05125
# Poissons Ratio (z) = 0.19258 0.07765
#
# Static dielectric constant tensor:
#      x y z
#    x 2.063630 0.000000 0.000000 
#    y 0.000000 2.010940 0.000000 
#    z 0.000000 0.000000 2.032040 
# 
# From -- ./inp_files/552.got.cif
#   From: 2010.05.17/outbox.cif.g08.bks.cpg/sg29_1_cif.got.tgz:552.got - 2010.06.04 01:19:37.
