data_PCOD9340509
_publ_section_title
;
Structure prediction by ZEFSAII (Michael W. Deem and Ramdas Pophale) SiO2 
 PCOD9340509
Probable space group: P C A 21
;
_chemical_formula_sum "Si O2"
_cell_formula_units_Z 32
_cell_length_a 10.627251
_cell_length_b 9.794611
_cell_length_c 14.147871
_cell_angle_alpha 90.000000
_cell_angle_beta 90.000000
_cell_angle_gamma 90.000000
_cell_volume 1472.648915
_symmetry_space_group_name_H-M "P C A 21"
_symmetry_group_IT_number 29
_symmetry_cell_setting 'orthorhombic'
loop_
_space_group_symop_operation_xyz
x,y,z
-x,-y,1/2+z
1/2-x,y,1/2+z
1/2+x,-y,z
loop_
_atom_site_type_symbol
_atom_site_label
_atom_site_fract_x
_atom_site_fract_y
_atom_site_fract_z
Si Si1 0.682018 0.643265 0.073210
Si Si2 0.432231 0.241435 0.979512
Si Si3 0.119773 0.570179 0.908094
Si Si4 0.296462 0.098418 0.836665
Si Si5 0.173600 0.346732 0.760499
Si Si6 0.020279 0.141621 0.166220
Si Si7 0.459586 0.828732 0.659491
Si Si8 0.716270 0.190365 0.793728
O O1 0.725551 0.605541 0.180772
O O2 0.568350 0.752494 0.087159
O O3 0.804654 0.720848 0.033042
O O4 0.651775 0.518339 0.002253
O O5 0.480748 0.365851 0.916749
O O6 0.403358 0.110179 0.915841
O O7 0.546690 0.223998 0.052655
O O8 0.122680 0.472420 0.818187
O O9 0.210916 0.694505 0.874571
O O10 0.221871 0.239675 0.839531
O O11 0.360583 0.115302 0.734671
O O12 0.218892 0.960478 0.840459
O O13 0.064902 0.261979 0.709411
O O14 0.906706 0.201992 0.227679
O O15 0.989816 0.983789 0.143647
O O16 0.336490 0.811878 0.723733
#
# Coordination Sequence:
#
# PCOD9340509 Si02
#       8
#     4   4   4   4   4   4   4   4
#     4  10  25  45  71 100 143 190 233 298 368 438
#     4  11  24  45  67 103 144 184 238 301 370 429
#     4  12  26  43  69 110 143 191 242 294 369 448
#     4  10  20  45  73  97 138 184 237 297 366 420
#     4  10  22  44  75  97 146 192 234 299 368 427
#     4  10  21  46  72 102 133 192 233 291 372 428
#     4  10  24  43  71 106 140 183 244 300 358 433
#     4  11  24  43  76 105 141 182 245 302 353 445
#
# _framework density 21.729552000000002
#
# number of rings (size 3 to 8) (size 9 to 14) (size 15 to 20)
#    0.000    1.500    3.750    0.000    5.250    3.000 
#    4.500    0.000    0.000    0.000    0.000    0.000 
#    0.000    0.000    0.000    0.000    0.000    0.000 
#
# Total GULP energy -178386.050996 kJ/mol
# GULP energy per Si atom -5574.564094 kJ/mol
# Density = 2.168009 g / cm^3
# Si number density = 21.729552 Si / 1000 Ang^3
#
#
#
# Elastic Constant Matrix: (Units=GPa)
#
#
# Indices 1 2 3 4 5 6 
#
# 1 55.0270 33.6561 26.8553 0.0000 0.0000 0.0000
# 2 33.6561 122.9872 65.4403 0.0000 0.0000 0.0000
# 3 26.8553 65.4403 102.7173 0.0000 0.0000 0.0000
# 4 0.0000 0.0000 0.0000 32.5011 0.0000 0.0000
# 5 0.0000 0.0000 0.0000 0.0000 34.3911 0.0000
# 6 0.0000 0.0000 0.0000 0.0000 0.0000 34.1409
#
#
#
# Elastic Compliance Matrix: (Units=1/GPa)
#
#
# Indices 1 2 3 4 5 6 
#
# 1 0.022403 -0.004560 -0.002952 0.000000 0.000000 0.000000
# 2 -0.004560 0.013229 -0.007236 0.000000 0.000000 0.000000
# 3 -0.002952 -0.007236 0.015117 0.000000 0.000000 0.000000
# 4 0.000000 0.000000 0.000000 0.030768 0.000000 0.000000
# 5 0.000000 0.000000 0.000000 0.000000 0.029077 0.000000
# 6 0.000000 0.000000 0.000000 0.000000 0.000000 0.029290
#
#
# Mechanical properties :
#
#
# Convention : Reuss Voigt Hill
#
# Bulk Modulus (GPa) = 47.05199 59.18167 53.11683
# Shear Modulus (GPa) = 28.33435 30.52527 29.42981
#
# Velocity S-wave (km/s) = 3.61495 3.75211 3.68417
# Velocity P-wave (km/s) = 6.25494 6.78718 6.52649
#
# Compressibility (1/GPa) = 0.02125309
#
# Stress axis : x y z
#
# Youngs Moduli (GPa) = 44.63779 75.59228 66.14993
#
# Poissons Ratio (x) = 0.34468 0.19528
# Poissons Ratio (y) = 0.20354 0.47865
# Poissons Ratio (z) = 0.13178 0.54697
#
# Static dielectric constant tensor:
#      x y z
#    x 1.811670 0.000000 0.000000 
#    y 0.000000 1.872330 0.000000 
#    z 0.000000 0.000000 1.880670 
# 
# From -- ./inp_files/4543.got.cif
#   From: 2010.05.17/outbox.cif.g08.bks.cpg/sg29_3_cif.got.tgz:4543.got - 2010.06.04 01:19:37.
