data_PCOD9340567
_publ_section_title
;
Structure prediction by ZEFSAII (Michael W. Deem and Ramdas Pophale) SiO2 
 PCOD9340567
Probable space group: P C A 21
;
_chemical_formula_sum "Si O2"
_cell_formula_units_Z 28
_cell_length_a 18.042439
_cell_length_b 6.902668
_cell_length_c 10.695769
_cell_angle_alpha 90.000000
_cell_angle_beta 90.000000
_cell_angle_gamma 90.000000
_cell_volume 1332.061407
_symmetry_space_group_name_H-M "P C A 21"
_symmetry_group_IT_number 29
_symmetry_cell_setting 'orthorhombic'
loop_
_space_group_symop_operation_xyz
x,y,z
-x,-y,1/2+z
1/2-x,y,1/2+z
1/2+x,-y,z
loop_
_atom_site_type_symbol
_atom_site_label
_atom_site_fract_x
_atom_site_fract_y
_atom_site_fract_z
Si Si1 0.833193 0.708341 0.762670
Si Si2 0.305733 0.264177 0.392559
Si Si3 0.991621 0.136908 0.566999
Si Si4 0.670247 0.054964 0.070199
Si Si5 0.602338 0.548909 0.673834
Si Si6 0.743959 0.434772 0.084802
Si Si7 0.996663 0.201107 0.274028
O O1 0.782662 0.768487 0.878748
O O2 0.793179 0.513576 0.713316
O O3 0.921057 0.702357 0.769951
O O4 0.816357 0.883604 0.667475
O O5 0.353101 0.320176 0.272959
O O6 0.305146 0.448304 0.484424
O O7 0.338609 0.066385 0.444428
O O8 0.042186 0.318920 0.604117
O O9 0.994672 0.112248 0.415323
O O10 0.905081 0.169286 0.597368
O O11 0.010171 0.955577 0.660123
O O12 0.734605 0.208476 0.068194
O O13 0.668896 0.479571 0.584210
O O14 0.562982 0.369529 0.744959
#
# Coordination Sequence:
#
# PCOD9340567 Si02
#       7
#     4   4   4   4   4   4   4
#     4   9  21  38  57  86 122 158 208 266 319 383
#     4  10  21  39  61  90 124 164 217 277 327 392
#     4  11  24  42  64  94 131 172 218 272 333 407
#     4  10  21  38  61  85 120 165 210 263 327 388
#     4  11  24  39  64  96 130 171 221 277 341 411
#     4  10  21  38  60  87 120 164 213 268 329 394
#     4  11  24  42  65  94 131 174 217 271 338 405
#
# _framework density 21.020052
#
# number of rings (size 3 to 8) (size 9 to 14) (size 15 to 20)
#    0.000    1.714    0.000    3.429    0.000   11.429 
#    0.000    4.286    0.000    0.000    0.000    0.000 
#    0.000    0.000    0.000    0.000    0.000    0.000 
#
# Total GULP energy -156027.047501 kJ/mol
# GULP energy per Si atom -5572.394554 kJ/mol
# Density = 2.097221 g / cm^3
# Si number density = 21.020052 Si / 1000 Ang^3
#
#
#
# Elastic Constant Matrix: (Units=GPa)
#
#
# Indices 1 2 3 4 5 6 
#
# 1 85.1325 52.7485 22.1712 0.0000 0.0000 0.0000
# 2 52.7485 87.4564 37.2262 0.0000 0.0000 0.0000
# 3 22.1712 37.2262 78.1579 0.0000 0.0000 0.0000
# 4 0.0000 0.0000 0.0000 8.5441 0.0000 0.0000
# 5 0.0000 0.0000 0.0000 0.0000 29.5392 0.0000
# 6 0.0000 0.0000 0.0000 0.0000 0.0000 32.2285
#
#
#
# Elastic Compliance Matrix: (Units=1/GPa)
#
#
# Indices 1 2 3 4 5 6 
#
# 1 0.018756 -0.011348 0.000085 0.000000 0.000000 0.000000
# 2 -0.011348 0.021208 -0.006882 0.000000 0.000000 0.000000
# 3 0.000085 -0.006882 0.016049 0.000000 0.000000 0.000000
# 4 0.000000 0.000000 0.000000 0.117039 0.000000 0.000000
# 5 0.000000 0.000000 0.000000 0.000000 0.033853 0.000000
# 6 0.000000 0.000000 0.000000 0.000000 0.000000 0.031028
#
#
# Mechanical properties :
#
#
# Convention : Reuss Voigt Hill
#
# Bulk Modulus (GPa) = 50.70770 52.78208 51.74489
# Shear Modulus (GPa) = 17.80630 23.30243 20.55436
#
# Velocity S-wave (km/s) = 2.91367 3.33315 3.13044
# Velocity P-wave (km/s) = 5.95778 6.32282 6.14301
#
# Compressibility (1/GPa) = 0.01972087
#
# Stress axis : x y z
#
# Youngs Moduli (GPa) = 53.31654 47.15101 62.31093
#
# Poissons Ratio (x) = 0.53509 -0.00528
# Poissons Ratio (y) = 0.60506 0.42884
# Poissons Ratio (z) = -0.00452 0.32450
#
# Static dielectric constant tensor:
#      x y z
#    x 1.772490 0.000000 0.000000 
#    y 0.000000 1.734370 0.000000 
#    z 0.000000 0.000000 1.884680 
# 
# From -- ./inp_files/3576.got.cif
#   From: 2010.05.17/outbox.cif.g08.bks.cpg/sg29_2_cif.got.tgz:3576.got - 2010.06.04 01:19:37.
