data_PCOD9340639
_publ_section_title
;
Structure prediction by ZEFSAII (Michael W. Deem and Ramdas Pophale) SiO2 
 PCOD9340639
Probable space group: P C A 21
;
_chemical_formula_sum "Si O2"
_cell_formula_units_Z 32
_cell_length_a 5.409419
_cell_length_b 16.740091
_cell_length_c 13.503201
_cell_angle_alpha 90.000000
_cell_angle_beta 90.000000
_cell_angle_gamma 90.000000
_cell_volume 1222.771109
_symmetry_space_group_name_H-M "P C A 21"
_symmetry_group_IT_number 29
_symmetry_cell_setting 'orthorhombic'
loop_
_space_group_symop_operation_xyz
x,y,z
-x,-y,1/2+z
1/2-x,y,1/2+z
1/2+x,-y,z
loop_
_atom_site_type_symbol
_atom_site_label
_atom_site_fract_x
_atom_site_fract_y
_atom_site_fract_z
Si Si1 0.527819 0.223388 0.526940
Si Si2 0.151977 0.200630 0.817510
Si Si3 0.513419 0.670990 0.353823
Si Si4 0.530975 0.705323 0.616304
Si Si5 0.463071 0.472517 0.962678
Si Si6 0.354876 0.026914 0.802644
Si Si7 0.578070 0.962614 0.069013
Si Si8 0.526201 0.404959 0.278253
O O1 0.524903 0.224169 0.407956
O O2 0.779414 0.259891 0.569051
O O3 0.482660 0.131243 0.558277
O O4 0.288535 0.274857 0.560360
O O5 0.421622 0.237566 0.845245
O O6 0.197047 0.107503 0.814588
O O7 0.065098 0.236479 0.713990
O O8 0.472404 0.620685 0.453403
O O9 0.285206 0.641249 0.290505
O O10 0.779262 0.634359 0.322555
O O11 0.518244 0.614576 0.661999
O O12 0.698333 0.514194 0.009421
O O13 0.444451 0.517488 0.851389
O O14 0.396627 0.016158 0.684829
O O15 0.639457 0.034064 0.838681
O O16 0.348439 0.014250 0.027488
#
# Coordination Sequence:
#
# PCOD9340639 Si02
#       8
#     4   4   4   4   4   4   4   4
#     4  12  26  41  65  95 127 172 218 270 331 394
#     4  11  25  43  67  94 131 170 220 267 333 391
#     4   9  18  32  55  90 119 153 204 255 296 371
#     4  11  24  42  62  94 132 166 216 272 319 384
#     4   8  14  27  49  85 116 148 205 241 292 369
#     4  10  23  38  63  89 119 166 210 264 326 384
#     4  10  21  40  62  86 120 163 208 267 329 381
#     4   9  17  31  57  85 118 162 199 246 304 368
#
# _framework density 26.170067
#
# number of rings (size 3 to 8) (size 9 to 14) (size 15 to 20)
#    0.000    2.000    1.250    2.250    3.500    6.000 
#    0.000    0.000    0.000    0.000    0.000   84.000 
#    0.000    0.000    0.000    0.000    0.000    0.000 
#
# Total GULP energy -178567.832068 kJ/mol
# GULP energy per Si atom -5580.244752 kJ/mol
# Density = 2.611050 g / cm^3
# Si number density = 26.170067 Si / 1000 Ang^3
#
#
#
# Elastic Constant Matrix: (Units=GPa)
#
#
# Indices 1 2 3 4 5 6 
#
# 1 182.4508 46.6826 50.4942 0.0000 0.0000 0.0000
# 2 46.6826 95.4253 -7.7259 0.0000 0.0000 0.0000
# 3 50.4942 -7.7259 98.0742 0.0000 0.0000 0.0000
# 4 0.0000 0.0000 0.0000 34.5286 0.0000 0.0000
# 5 0.0000 0.0000 0.0000 0.0000 46.2593 0.0000
# 6 0.0000 0.0000 0.0000 0.0000 0.0000 39.4202
#
#
#
# Elastic Compliance Matrix: (Units=1/GPa)
#
#
# Indices 1 2 3 4 5 6 
#
# 1 0.007729 -0.004129 -0.004305 0.000000 0.000000 0.000000
# 2 -0.004129 0.012753 0.003131 0.000000 0.000000 0.000000
# 3 -0.004305 0.003131 0.012659 0.000000 0.000000 0.000000
# 4 0.000000 0.000000 0.000000 0.028961 0.000000 0.000000
# 5 0.000000 0.000000 0.000000 0.000000 0.021617 0.000000
# 6 0.000000 0.000000 0.000000 0.000000 0.000000 0.025368
#
#
# Mechanical properties :
#
#
# Convention : Reuss Voigt Hill
#
# Bulk Modulus (GPa) = 44.37647 61.65024 53.01336
# Shear Modulus (GPa) = 39.30643 43.14158 41.22401
#
# Velocity S-wave (km/s) = 3.87972 4.06459 3.97323
# Velocity P-wave (km/s) = 6.08797 6.75548 6.43039
#
# Compressibility (1/GPa) = 0.02253446
#
# Stress axis : x y z
#
# Youngs Moduli (GPa) = 129.38579 78.41264 78.99389
#
# Poissons Ratio (x) = 0.32380 0.34003
# Poissons Ratio (y) = 0.53430 -0.24731
# Poissons Ratio (z) = 0.55695 -0.24549
#
# Static dielectric constant tensor:
#      x y z
#    x 2.038190 0.000000 0.000000 
#    y 0.000000 2.145170 0.000000 
#    z 0.000000 0.000000 2.309070 
# 
# From -- ./inp_files/4103.got.cif
#   From: 2010.05.17/outbox.cif.g08.bks.cpg/sg29_3_cif.got.tgz:4103.got - 2010.06.04 01:19:37.
