data_PCOD9340540
_publ_section_title
;
Structure prediction by ZEFSAII (Michael W. Deem and Ramdas Pophale) SiO2 
 PCOD9340540
Probable space group: P C A 21
;
_chemical_formula_sum "Si O2"
_cell_formula_units_Z 28
_cell_length_a 32.094753
_cell_length_b 7.288700
_cell_length_c 5.174963
_cell_angle_alpha 90.000000
_cell_angle_beta 90.000000
_cell_angle_gamma 90.000000
_cell_volume 1210.574055
_symmetry_space_group_name_H-M "P C A 21"
_symmetry_group_IT_number 29
_symmetry_cell_setting 'orthorhombic'
loop_
_space_group_symop_operation_xyz
x,y,z
-x,-y,1/2+z
1/2-x,y,1/2+z
1/2+x,-y,z
loop_
_atom_site_type_symbol
_atom_site_label
_atom_site_fract_x
_atom_site_fract_y
_atom_site_fract_z
Si Si1 0.000000 0.111853 0.008990
Si Si2 0.274435 0.723717 0.267173
Si Si3 0.868980 0.723932 0.246348
Si Si4 0.368980 0.723932 0.271632
Si Si5 0.225565 0.276284 0.750809
Si Si6 0.583072 0.719907 0.243349
Si Si7 0.083072 0.719907 0.274631
O O1 0.038041 0.221071 0.139616
O O2 0.983757 0.000000 0.258990
O O3 0.961960 0.221072 0.878364
O O4 0.242814 0.782092 0.490324
O O5 0.321670 0.780686 0.324390
O O6 0.274765 0.500001 0.258991
O O7 0.869361 0.500000 0.258990
O O8 0.821670 0.780685 0.193590
O O9 0.884165 0.782933 0.527526
O O10 0.901083 0.782562 0.023334
O O11 0.401083 0.782562 0.494646
O O12 0.384165 0.782934 0.990455
O O13 0.257186 0.217909 0.527659
O O14 0.583030 0.500000 0.258990
#
# Coordination Sequence:
#
# PCOD9340540 Si02
#       7
#     4   4   4   4   4   4   4
#     4  12  26  42  60  86 118 146 188 246 300 348
#     4   9  15  23  39  67 107 146 174 212 272 328
#     4   9  17  30  49  76 108 145 187 226 269 331
#     4   9  17  30  49  76 108 145 187 226 269 331
#     4   9  15  23  39  67 107 146 174 212 272 328
#     4  10  21  37  58  80 109 149 190 230 279 341
#     4  10  21  37  58  80 109 149 190 230 279 341
#
# _framework density 23.129522999999999
#
# number of rings (size 3 to 8) (size 9 to 14) (size 15 to 20)
#    0.000    2.286    0.000    3.429    0.000   11.429 
#    0.000    0.000    0.000    0.000    0.000    0.000 
#    0.000   80.000    0.000    0.000    0.000    0.000 
#
# Total GULP energy -156507.548990 kJ/mol
# GULP energy per Si atom -5589.555321 kJ/mol
# Density = 2.307688 g / cm^3
# Si number density = 23.129523 Si / 1000 Ang^3
#
#
#
# Elastic Constant Matrix: (Units=GPa)
#
#
# Indices 1 2 3 4 5 6 
#
# 1 148.8031 5.4729 55.6102 0.0000 0.0000 0.0000
# 2 5.4729 73.2391 12.7397 0.0000 0.0000 0.0000
# 3 55.6102 12.7397 167.9032 0.0000 0.0000 0.0000
# 4 0.0000 0.0000 0.0000 4.3411 0.0000 0.0000
# 5 0.0000 0.0000 0.0000 0.0000 -5.1565 0.0000
# 6 0.0000 0.0000 0.0000 0.0000 0.0000 -164.0366
#
#
#
# Elastic Compliance Matrix: (Units=1/GPa)
#
#
# Indices 1 2 3 4 5 6 
#
# 1 0.007671 -0.000133 -0.002531 0.000000 0.000000 0.000000
# 2 -0.000133 0.013839 -0.001006 0.000000 0.000000 0.000000
# 3 -0.002531 -0.001006 0.006870 0.000000 0.000000 0.000000
# 4 0.000000 0.000000 0.000000 0.230356 0.000000 0.000000
# 5 0.000000 0.000000 0.000000 0.000000 -0.193929 0.000000
# 6 0.000000 0.000000 0.000000 0.000000 0.000000 -0.006096
#
#
# Mechanical properties :
#
#
# Convention : Reuss Voigt Hill
#
# Bulk Modulus (GPa) = 47.52646 59.73234 53.62940
# Shear Modulus (GPa) = 68.43370 -11.89556 28.26907
#
# Velocity S-wave (km/s) = 5.44531 -2.27028 3.49980
# Velocity P-wave (km/s) = 7.75421 4.35993 6.29034
#
# Compressibility (1/GPa) = 0.02104091
#
# Stress axis : x y z
#
# Youngs Moduli (GPa) = 130.36299 72.26044 145.55486
#
# Poissons Ratio (x) = 0.00961 0.36833
# Poissons Ratio (y) = 0.01734 0.14642
# Poissons Ratio (z) = 0.32989 0.07269
#
# Static dielectric constant tensor:
#      x y z
#    x 1.820460 0.000000 0.000000 
#    y 0.000000 1.939430 0.000000 
#    z 0.000000 0.000000 1.804910 
# 
# From -- ./inp_files/779.got.cif
#   From: 2010.05.17/outbox.cif.g08.bks.cpg/sg29_1_cif.got.tgz:779.got - 2010.06.04 01:19:37.
