data_PCOD9340551
_publ_section_title
;
Structure prediction by ZEFSAII (Michael W. Deem and Ramdas Pophale) SiO2 
 PCOD9340551
Probable space group: P C A 21
;
_chemical_formula_sum "Si O2"
_cell_formula_units_Z 24
_cell_length_a 22.916353
_cell_length_b 4.969074
_cell_length_c 8.403571
_cell_angle_alpha 90.000000
_cell_angle_beta 90.000000
_cell_angle_gamma 90.000000
_cell_volume 956.940293
_symmetry_space_group_name_H-M "P C A 21"
_symmetry_group_IT_number 29
_symmetry_cell_setting 'orthorhombic'
loop_
_space_group_symop_operation_xyz
x,y,z
-x,-y,1/2+z
1/2-x,y,1/2+z
1/2+x,-y,z
loop_
_atom_site_type_symbol
_atom_site_label
_atom_site_fract_x
_atom_site_fract_y
_atom_site_fract_z
Si Si1 0.884317 0.081858 0.030560
Si Si2 0.267505 0.321319 0.590654
Si Si3 0.991620 0.153271 0.624474
Si Si4 0.669990 0.900915 0.827339
Si Si5 0.552528 0.678467 0.946950
Si Si6 0.831388 0.560998 0.877588
O O1 0.947006 0.952903 0.055262
O O2 0.858263 0.119026 0.209602
O O3 0.880353 0.361730 0.940548
O O4 0.847515 0.863888 0.929460
O O5 0.297252 0.076388 0.494486
O O6 0.220525 0.218900 0.716782
O O7 0.228864 0.501989 0.472288
O O8 0.317597 0.463228 0.692705
O O9 0.008154 0.242014 0.803031
O O10 0.965721 0.397096 0.522293
O O11 0.950236 0.898457 0.589596
O O12 0.616214 0.701847 0.867428
#
# Coordination Sequence:
#
# PCOD9340551 Si02
#       6
#     4   4   4   4   4   4
#     4  10  22  41  63  90 125 166 212 267 323 382
#     4   9  20  40  62  91 126 166 211 265 324 385
#     4  11  24  43  67  96 134 175 218 271 331 392
#     4   9  21  40  65  94 128 167 214 268 325 387
#     4  11  24  43  68  99 135 174 220 272 329 393
#     4  10  21  37  61  90 124 164 211 261 320 385
#
# _framework density 25.079934999999999
#
# number of rings (size 3 to 8) (size 9 to 14) (size 15 to 20)
#    0.000    2.000    0.000    2.000    0.000   16.000 
#    0.000    8.333    0.000    0.000    0.000    0.000 
#    0.000    0.000    0.000    0.000    0.000    0.000 
#
# Total GULP energy -134125.269308 kJ/mol
# GULP energy per Si atom -5588.552888 kJ/mol
# Density = 2.502285 g / cm^3
# Si number density = 25.079935 Si / 1000 Ang^3
#
#
#
# Elastic Constant Matrix: (Units=GPa)
#
#
# Indices 1 2 3 4 5 6 
#
# 1 91.7662 7.4460 37.6343 0.0000 0.0000 0.0000
# 2 7.4460 79.5454 10.9340 0.0000 0.0000 0.0000
# 3 37.6343 10.9340 90.9800 0.0000 0.0000 0.0000
# 4 0.0000 0.0000 0.0000 2.2020 0.0000 0.0000
# 5 0.0000 0.0000 0.0000 0.0000 14.4121 0.0000
# 6 0.0000 0.0000 0.0000 0.0000 0.0000 23.0303
#
#
#
# Elastic Compliance Matrix: (Units=1/GPa)
#
#
# Indices 1 2 3 4 5 6 
#
# 1 0.013142 -0.000491 -0.005377 0.000000 0.000000 0.000000
# 2 -0.000491 0.012801 -0.001335 0.000000 0.000000 0.000000
# 3 -0.005377 -0.001335 0.013376 0.000000 0.000000 0.000000
# 4 0.000000 0.000000 0.000000 0.454135 0.000000 0.000000
# 5 0.000000 0.000000 0.000000 0.000000 0.069386 0.000000
# 6 0.000000 0.000000 0.000000 0.000000 0.000000 0.043421
#
#
# Mechanical properties :
#
#
# Convention : Reuss Voigt Hill
#
# Bulk Modulus (GPa) = 40.14109 41.59115 40.86612
# Shear Modulus (GPa) = 7.94946 21.68070 14.81508
#
# Velocity S-wave (km/s) = 1.78228 2.94337 2.43310
# Velocity P-wave (km/s) = 4.50282 5.30760 4.92169
#
# Compressibility (1/GPa) = 0.02491213
#
# Stress axis : x y z
#
# Youngs Moduli (GPa) = 76.08940 78.11924 74.75913
#
# Poissons Ratio (x) = 0.03836 0.40201
# Poissons Ratio (y) = 0.03736 0.09983
# Poissons Ratio (z) = 0.40916 0.10431
#
# Static dielectric constant tensor:
#      x y z
#    x 2.071810 0.000000 0.000000 
#    y 0.000000 1.959710 0.000000 
#    z 0.000000 0.000000 2.015870 
# 
# From -- ./inp_files/2363.got.cif
#   From: 2010.05.17/outbox.cif.g08.bks.cpg/sg29_2_cif.got.tgz:2363.got - 2010.06.04 01:19:37.
