data_PCOD9340109
_publ_section_title
;
Structure prediction by ZEFSAII (Michael W. Deem and Ramdas Pophale) SiO2 
 PCOD9340109
Probable space group: P C A 21
;
_chemical_formula_sum "Si O2"
_cell_formula_units_Z 32
_cell_length_a 5.661552
_cell_length_b 14.289200
_cell_length_c 15.382207
_cell_angle_alpha 90.000000
_cell_angle_beta 90.000000
_cell_angle_gamma 90.000000
_cell_volume 1244.405915
_symmetry_space_group_name_H-M "P C A 21"
_symmetry_group_IT_number 29
_symmetry_cell_setting 'orthorhombic'
loop_
_space_group_symop_operation_xyz
x,y,z
-x,-y,1/2+z
1/2-x,y,1/2+z
1/2+x,-y,z
loop_
_atom_site_type_symbol
_atom_site_label
_atom_site_fract_x
_atom_site_fract_y
_atom_site_fract_z
Si Si1 0.321879 0.370892 0.926390
Si Si2 0.176683 0.797819 0.187196
Si Si3 0.366469 0.996885 0.593793
Si Si4 0.698104 0.841661 0.431021
Si Si5 0.682117 0.800994 0.132620
Si Si6 0.675868 0.480944 0.270393
Si Si7 0.821981 0.354233 0.935218
Si Si8 0.305882 0.853341 0.884818
O O1 0.320303 0.263848 0.891038
O O2 0.324018 0.441359 0.846698
O O3 0.571399 0.384915 0.973854
O O4 0.071868 0.386725 0.972971
O O5 0.423861 0.756657 0.150075
O O6 0.219617 0.822425 0.286092
O O7 0.914357 0.753620 0.174551
O O8 0.136271 0.897520 0.140060
O O9 0.615953 0.005998 0.546057
O O10 0.353487 0.087616 0.657791
O O11 0.750751 0.815459 0.531432
O O12 0.448554 0.890599 0.413578
O O13 0.928908 0.892435 0.393860
O O14 0.426002 0.500267 0.223677
O O15 0.677528 0.387425 0.332421
O O16 0.820904 0.242675 0.940443
#
# Coordination Sequence:
#
# PCOD9340109 Si02
#       8
#     4   4   4   4   4   4   4   4
#     4   8  14  23  37  59  90 117 143 183 233 272
#     4  10  19  33  53  71  94 130 165 194 234 295
#     4   8  16  30  50  66  84 118 164 194 218 276
#     4  10  19  31  48  73 102 123 153 206 250 277
#     4  10  19  33  53  71  94 130 165 194 234 295
#     4   8  12  20  34  54  84 116 146 176 220 272
#     4   8  14  23  37  59  90 117 143 183 233 272
#     4  10  19  31  48  73 102 123 153 206 250 277
#
# _framework density 25.715083
#
# number of rings (size 3 to 8) (size 9 to 14) (size 15 to 20)
#    0.000    3.000    0.000    1.500    0.000    0.000 
#    0.000    0.000    0.000   40.500    0.000    0.000 
#    0.000  150.000    0.000    0.000    0.000    0.000 
#
# Total GULP energy -178224.607534 kJ/mol
# GULP energy per Si atom -5569.518985 kJ/mol
# Density = 2.565655 g / cm^3
# Si number density = 25.715083 Si / 1000 Ang^3
#
#
#
# Elastic Constant Matrix: (Units=GPa)
#
#
# Indices 1 2 3 4 5 6 
#
# 1 372.7686 -0.6101 40.1352 0.0000 0.0000 0.0000
# 2 -0.6101 75.5376 -16.6380 0.0000 0.0000 0.0000
# 3 40.1352 -16.6380 69.0624 0.0000 0.0000 0.0000
# 4 0.0000 0.0000 0.0000 -4.7632 0.0000 0.0000
# 5 0.0000 0.0000 0.0000 0.0000 23.7558 0.0000
# 6 0.0000 0.0000 0.0000 0.0000 0.0000 2.6278
#
#
#
# Elastic Compliance Matrix: (Units=1/GPa)
#
#
# Indices 1 2 3 4 5 6 
#
# 1 0.002871 -0.000364 -0.001756 0.000000 0.000000 0.000000
# 2 -0.000364 0.014026 0.003590 0.000000 0.000000 0.000000
# 3 -0.001756 0.003590 0.016365 0.000000 0.000000 0.000000
# 4 0.000000 0.000000 0.000000 -0.209945 0.000000 0.000000
# 5 0.000000 0.000000 0.000000 0.000000 0.042095 0.000000
# 6 0.000000 0.000000 0.000000 0.000000 0.000000 0.380543
#
#
# Mechanical properties :
#
#
# Convention : Reuss Voigt Hill
#
# Bulk Modulus (GPa) = 27.62123 62.57142 45.09633
# Shear Modulus (GPa) = 19.60149 37.28953 28.44551
#
# Velocity S-wave (km/s) = 2.76389 3.81215 3.32954
# Velocity P-wave (km/s) = 4.57712 6.61529 5.68824
#
# Compressibility (1/GPa) = 0.03620403
#
# Stress axis : x y z
#
# Youngs Moduli (GPa) = 348.29700 71.29445 61.10524
#
# Poissons Ratio (x) = 0.02592 0.10731
# Poissons Ratio (y) = 0.12665 -0.21939
# Poissons Ratio (z) = 0.61166 -0.25598
#
# Static dielectric constant tensor:
#      x y z
#    x 2.237620 0.000000 0.000000 
#    y 0.000000 2.095020 0.000000 
#    z 0.000000 0.000000 1.984660 
# 
# From -- ./inp_files/2715.got.cif
#   From: 2010.05.17/outbox.cif.g08.bks.cpg/sg29_2_cif.got.tgz:2715.got - 2010.06.04 01:19:37.
