data_PCOD9340627
_publ_section_title
;
Structure prediction by ZEFSAII (Michael W. Deem and Ramdas Pophale) SiO2 
 PCOD9340627
Probable space group: P C A 21
;
_chemical_formula_sum "Si O2"
_cell_formula_units_Z 32
_cell_length_a 5.488949
_cell_length_b 17.328217
_cell_length_c 14.603454
_cell_angle_alpha 90.000000
_cell_angle_beta 90.000000
_cell_angle_gamma 90.000000
_cell_volume 1388.988534
_symmetry_space_group_name_H-M "P C A 21"
_symmetry_group_IT_number 29
_symmetry_cell_setting 'orthorhombic'
loop_
_space_group_symop_operation_xyz
x,y,z
-x,-y,1/2+z
1/2-x,y,1/2+z
1/2+x,-y,z
loop_
_atom_site_type_symbol
_atom_site_label
_atom_site_fract_x
_atom_site_fract_y
_atom_site_fract_z
Si Si1 0.907230 0.037438 0.007610
Si Si2 0.374696 0.666927 0.275284
Si Si3 0.885609 0.183461 0.514991
Si Si4 0.407230 0.962562 0.228014
Si Si5 0.250001 0.218086 0.367813
Si Si6 0.614393 0.183461 0.220634
Si Si7 0.993991 0.451706 0.117812
Si Si8 0.125305 0.666927 0.460340
O O1 0.842653 0.127538 0.995454
O O2 0.917765 0.025495 0.117812
O O3 0.665292 0.993177 0.972940
O O4 0.587601 0.723769 0.307561
O O5 0.187901 0.726905 0.227755
O O6 0.464800 0.602402 0.206683
O O7 0.250000 0.635260 0.367812
O O8 0.973562 0.165790 0.617812
O O9 0.812101 0.273095 0.507869
O O10 0.082862 0.170625 0.436902
O O11 0.342654 0.872462 0.240170
O O12 0.665292 0.993178 0.262684
O O13 0.417140 0.170625 0.298723
O O14 0.412399 0.276231 0.428064
O O15 0.758372 0.508075 0.117812
O O16 0.964800 0.397599 0.028942
#
# Coordination Sequence:
#
# PCOD9340627 Si02
#       8
#     4   4   4   4   4   4   4   4
#     4   9  19  35  57  94 137 177 230 286 345 396
#     4  10  24  45  70 101 139 180 231 279 339 406
#     4  10  21  39  69  96 132 187 236 285 337 407
#     4   9  19  35  57  94 137 177 230 286 345 396
#     4  10  24  40  68  98 136 174 246 278 340 402
#     4  10  21  39  69  96 132 187 236 285 337 407
#     4  12  30  48  76 110 142 176 226 272 344 422
#     4  10  24  45  70 101 139 180 231 279 339 406
#
# _framework density 23.038350000000001
#
# number of rings (size 3 to 8) (size 9 to 14) (size 15 to 20)
#    0.000    2.000    1.250    0.000   12.250    1.000 
#    0.000    1.250    0.000    0.000    0.000    0.000 
#    0.000    0.000    0.000    0.000    0.000    0.000 
#
# Total GULP energy -179040.714375 kJ/mol
# GULP energy per Si atom -5595.022324 kJ/mol
# Density = 2.298591 g / cm^3
# Si number density = 23.038350 Si / 1000 Ang^3
#
#
#
# Elastic Constant Matrix: (Units=GPa)
#
#
# Indices 1 2 3 4 5 6 
#
# 1 86.7748 19.9797 35.5014 0.0000 0.0000 0.0000
# 2 19.9797 72.1030 40.8481 0.0000 0.0000 0.0000
# 3 35.5014 40.8481 131.9585 0.0000 0.0000 0.0000
# 4 0.0000 0.0000 0.0000 -2.7216 0.0000 0.0000
# 5 0.0000 0.0000 0.0000 0.0000 27.7442 0.0000
# 6 0.0000 0.0000 0.0000 0.0000 0.0000 34.4177
#
#
#
# Elastic Compliance Matrix: (Units=1/GPa)
#
#
# Indices 1 2 3 4 5 6 
#
# 1 0.013181 -0.001993 -0.002929 0.000000 0.000000 0.000000
# 2 -0.001993 0.017120 -0.004763 0.000000 0.000000 0.000000
# 3 -0.002929 -0.004763 0.009841 0.000000 0.000000 0.000000
# 4 0.000000 0.000000 0.000000 -0.367432 0.000000 0.000000
# 5 0.000000 0.000000 0.000000 0.000000 0.036044 0.000000
# 6 0.000000 0.000000 0.000000 0.000000 0.000000 0.029055
#
#
# Mechanical properties :
#
#
# Convention : Reuss Voigt Hill
#
# Bulk Modulus (GPa) = 48.14478 53.72166 50.93322
# Shear Modulus (GPa) = -21.19572 24.85520 1.82974
#
# Velocity S-wave (km/s) = -3.03647 3.28817 0.89215
# Velocity P-wave (km/s) = 2.94100 6.14695 4.81843
#
# Compressibility (1/GPa) = 0.02077068
#
# Stress axis : x y z
#
# Youngs Moduli (GPa) = 75.86440 58.41171 101.61861
#
# Poissons Ratio (x) = 0.11642 0.29767
# Poissons Ratio (y) = 0.15120 0.48404
# Poissons Ratio (z) = 0.22223 0.27823
#
# Static dielectric constant tensor:
#      x y z
#    x 1.888120 0.000000 0.000000 
#    y 0.000000 1.820330 0.000000 
#    z 0.000000 0.000000 1.855940 
# 
# From -- ./inp_files/4112.got.cif
#   From: 2010.05.17/outbox.cif.g08.bks.cpg/sg29_3_cif.got.tgz:4112.got - 2010.06.04 01:19:37.
