data_PCOD9340061
_publ_section_title
;
Structure prediction by ZEFSAII (Michael W. Deem and Ramdas Pophale) SiO2 
 PCOD9340061
Probable space group: P C A 21
;
_chemical_formula_sum "Si O2"
_cell_formula_units_Z 32
_cell_length_a 13.589849
_cell_length_b 10.826371
_cell_length_c 8.760535
_cell_angle_alpha 90.000000
_cell_angle_beta 90.000000
_cell_angle_gamma 90.000000
_cell_volume 1288.926539
_symmetry_space_group_name_H-M "P C A 21"
_symmetry_group_IT_number 29
_symmetry_cell_setting 'orthorhombic'
loop_
_space_group_symop_operation_xyz
x,y,z
-x,-y,1/2+z
1/2-x,y,1/2+z
1/2+x,-y,z
loop_
_atom_site_type_symbol
_atom_site_label
_atom_site_fract_x
_atom_site_fract_y
_atom_site_fract_z
Si Si1 0.982208 0.409110 0.969050
Si Si2 0.701229 0.083304 0.475361
Si Si3 0.694560 0.912998 0.218530
Si Si4 0.318577 0.415482 0.966229
Si Si5 0.462050 0.260957 0.756877
Si Si6 0.850658 0.698861 0.296175
Si Si7 0.231712 0.735047 0.704839
Si Si8 0.613934 0.346854 0.951972
O O1 0.035318 0.315813 0.849701
O O2 0.041342 0.538992 0.971886
O O3 0.869318 0.450891 0.942135
O O4 0.995714 0.356006 0.136244
O O5 0.653709 0.976149 0.374479
O O6 0.774521 0.007877 0.586422
O O7 0.740602 0.169389 0.339135
O O8 0.659847 0.184623 0.593227
O O9 0.598609 0.840059 0.163595
O O10 0.791227 0.828783 0.264485
O O11 0.375117 0.327435 0.848942
O O12 0.207310 0.377154 0.928266
O O13 0.339854 0.372428 0.137103
O O14 0.544386 0.236230 0.886020
O O15 0.321105 0.688256 0.598649
O O16 0.183199 0.628831 0.805108
#
# Coordination Sequence:
#
# PCOD9340061 Si02
#       8
#     4   4   4   4   4   4   4   4
#     4  11  23  39  58  87 128 167 204 253 301 368
#     4   9  18  36  63  90 118 151 199 261 310 364
#     4  10  18  34  61  90 120 155 197 258 321 374
#     4  10  21  36  54  82 121 160 200 247 293 358
#     4  10  21  38  58  89 126 160 201 250 310 375
#     4  11  21  36  61  90 122 164 206 245 313 389
#     4   9  20  40  64  89 116 161 212 249 305 376
#     4  10  22  41  61  85 125 168 209 259 303 366
#
# _framework density 24.826858999999999
#
# number of rings (size 3 to 8) (size 9 to 14) (size 15 to 20)
#    0.000    2.000    0.000    5.250    0.000    4.000 
#    0.000   13.750    0.000    4.500    0.000    0.000 
#    0.000    0.000    0.000    0.000    0.000    0.000 
#
# Total GULP energy -178407.052443 kJ/mol
# GULP energy per Si atom -5575.220389 kJ/mol
# Density = 2.477035 g / cm^3
# Si number density = 24.826859 Si / 1000 Ang^3
#
#
#
# Elastic Constant Matrix: (Units=GPa)
#
#
# Indices 1 2 3 4 5 6 
#
# 1 71.0840 22.8320 21.6008 0.0000 0.0000 0.0000
# 2 22.8320 83.4890 29.6703 0.0000 0.0000 0.0000
# 3 21.6008 29.6703 135.6283 0.0000 0.0000 0.0000
# 4 0.0000 0.0000 0.0000 45.5631 0.0000 0.0000
# 5 0.0000 0.0000 0.0000 0.0000 34.7775 0.0000
# 6 0.0000 0.0000 0.0000 0.0000 0.0000 17.3458
#
#
#
# Elastic Compliance Matrix: (Units=1/GPa)
#
#
# Indices 1 2 3 4 5 6 
#
# 1 0.015776 -0.003710 -0.001701 0.000000 0.000000 0.000000
# 2 -0.003710 0.013860 -0.002441 0.000000 0.000000 0.000000
# 3 -0.001701 -0.002441 0.008178 0.000000 0.000000 0.000000
# 4 0.000000 0.000000 0.000000 0.021948 0.000000 0.000000
# 5 0.000000 0.000000 0.000000 0.000000 0.028754 0.000000
# 6 0.000000 0.000000 0.000000 0.000000 0.000000 0.057651
#
#
# Mechanical properties :
#
#
# Convention : Reuss Voigt Hill
#
# Bulk Modulus (GPa) = 45.22838 48.71193 46.97015
# Shear Modulus (GPa) = 29.54370 33.94382 31.74376
#
# Velocity S-wave (km/s) = 3.45336 3.70161 3.57964
# Velocity P-wave (km/s) = 5.84449 6.15893 6.00377
#
# Compressibility (1/GPa) = 0.02211001
#
# Stress axis : x y z
#
# Youngs Moduli (GPa) = 63.38592 72.15162 122.27888
#
# Poissons Ratio (x) = 0.26767 0.20800
# Poissons Ratio (y) = 0.23516 0.29850
# Poissons Ratio (z) = 0.10782 0.17613
#
# Static dielectric constant tensor:
#      x y z
#    x 2.076400 0.000000 0.000000 
#    y 0.000000 2.117910 0.000000 
#    z 0.000000 0.000000 1.943990 
# 
# From -- ./inp_files/1880.got.cif
#   From: 2010.05.17/outbox.cif.g08.bks.cpg/sg29_1_cif.got.tgz:1880.got - 2010.06.04 01:19:37.
