data_PCOD9340546
_publ_section_title
;
Structure prediction by ZEFSAII (Michael W. Deem and Ramdas Pophale) SiO2 
 PCOD9340546
Probable space group: P C A 21
;
_chemical_formula_sum "Si O2"
_cell_formula_units_Z 32
_cell_length_a 34.544747
_cell_length_b 7.792027
_cell_length_c 5.087158
_cell_angle_alpha 90.000000
_cell_angle_beta 90.000000
_cell_angle_gamma 90.000000
_cell_volume 1369.328639
_symmetry_space_group_name_H-M "P C A 21"
_symmetry_group_IT_number 29
_symmetry_cell_setting 'orthorhombic'
loop_
_space_group_symop_operation_xyz
x,y,z
-x,-y,1/2+z
1/2-x,y,1/2+z
1/2+x,-y,z
loop_
_atom_site_type_symbol
_atom_site_label
_atom_site_fract_x
_atom_site_fract_y
_atom_site_fract_z
Si Si1 0.989247 0.902478 0.543100
Si Si2 0.353654 0.657411 0.030433
Si Si3 0.729930 0.431624 0.749589
Si Si4 0.598557 0.932373 0.035008
Si Si5 0.770243 0.841065 0.238558
Si Si6 0.981682 0.427098 0.743669
Si Si7 0.601082 0.350618 0.033428
Si Si8 0.645223 0.929772 0.533067
O O1 0.944233 0.865392 0.591931
O O2 0.011121 0.749991 0.396682
O O3 0.991188 0.049250 0.318158
O O4 0.312300 0.600746 0.135830
O O5 0.386200 0.601706 0.240593
O O6 0.353462 0.863750 0.031180
O O7 0.365246 0.600592 0.739458
O O8 0.760810 0.361950 0.537809
O O9 0.734742 0.636637 0.766900
O O10 0.629887 0.873739 0.249905
O O11 0.596675 0.141976 0.044362
O O12 0.613619 0.878990 0.750341
O O13 0.760556 0.911578 0.526432
O O14 0.812768 0.870401 0.125005
O O15 0.938404 0.432950 0.633743
O O16 0.008141 0.442855 0.481739
#
# Coordination Sequence:
#
# PCOD9340546 Si02
#       8
#     4   4   4   4   4   4   4   4
#     4  12  24  42  72  93 122 178 224 257 314 392
#     4  10  21  37  62  88 114 158 203 245 305 362
#     4  10  21  38  59  84 117 156 200 242 290 375
#     4  10  21  39  63  89 118 159 209 257 298 372
#     4  10  21  38  59  82 119 159 189 240 310 365
#     4  12  26  44  64  96 136 166 213 276 326 375
#     4  10  21  41  62  84 125 165 196 256 319 366
#     4  10  21  37  59  90 121 147 198 259 306 353
#
# _framework density 23.369118
#
# number of rings (size 3 to 8) (size 9 to 14) (size 15 to 20)
#    0.000    1.500    1.250    3.750    3.500    1.000 
#    6.750    0.000    0.000    0.000    0.000    0.000 
#    0.000    0.000    0.000    0.000    0.000    0.000 
#
# Total GULP energy -179030.749950 kJ/mol
# GULP energy per Si atom -5594.710936 kJ/mol
# Density = 2.331593 g / cm^3
# Si number density = 23.369118 Si / 1000 Ang^3
#
#
#
# Elastic Constant Matrix: (Units=GPa)
#
#
# Indices 1 2 3 4 5 6 
#
# 1 52.1835 -12.9261 -20.8106 0.0000 0.0000 0.0000
# 2 -12.9261 33.5771 10.8208 0.0000 0.0000 0.0000
# 3 -20.8106 10.8208 76.8823 0.0000 0.0000 0.0000
# 4 0.0000 0.0000 0.0000 20.4299 0.0000 0.0000
# 5 0.0000 0.0000 0.0000 0.0000 49.3681 0.0000
# 6 0.0000 0.0000 0.0000 0.0000 0.0000 5.0492
#
#
#
# Elastic Compliance Matrix: (Units=1/GPa)
#
#
# Indices 1 2 3 4 5 6 
#
# 1 0.023024 0.007181 0.005222 0.000000 0.000000 0.000000
# 2 0.007181 0.033437 -0.002762 0.000000 0.000000 0.000000
# 3 0.005222 -0.002762 0.014809 0.000000 0.000000 0.000000
# 4 0.000000 0.000000 0.000000 0.048948 0.000000 0.000000
# 5 0.000000 0.000000 0.000000 0.000000 0.020256 0.000000
# 6 0.000000 0.000000 0.000000 0.000000 0.000000 0.198052
#
#
# Mechanical properties :
#
#
# Convention : Reuss Voigt Hill
#
# Bulk Modulus (GPa) = 11.04362 12.97903 12.01133
# Shear Modulus (GPa) = 14.30903 27.34001 20.82452
#
# Velocity S-wave (km/s) = 2.47716 3.42412 2.98839
# Velocity P-wave (km/s) = 3.59413 4.60421 4.13017
#
# Compressibility (1/GPa) = 0.09055001
#
# Stress axis : x y z
#
# Youngs Moduli (GPa) = 43.43260 29.90716 67.52621
#
# Poissons Ratio (x) = -0.21476 -0.35259
# Poissons Ratio (y) = -0.31188 0.18653
# Poissons Ratio (z) = -0.22679 0.08261
#
# Static dielectric constant tensor:
#      x y z
#    x 1.818990 0.000000 0.000000 
#    y 0.000000 1.923880 0.000000 
#    z 0.000000 0.000000 1.869150 
# 
# From -- ./inp_files/935.got.cif
#   From: 2010.05.17/outbox.cif.g08.bks.cpg/sg29_1_cif.got.tgz:935.got - 2010.06.04 01:19:37.
