data_PCOD9340422
_publ_section_title
;
Structure prediction by ZEFSAII (Michael W. Deem and Ramdas Pophale) SiO2 
 PCOD9340422
Probable space group: P C A 21
;
_chemical_formula_sum "Si O2"
_cell_formula_units_Z 32
_cell_length_a 18.787748
_cell_length_b 5.368388
_cell_length_c 15.728219
_cell_angle_alpha 90.000000
_cell_angle_beta 90.000000
_cell_angle_gamma 90.000000
_cell_volume 1586.346924
_symmetry_space_group_name_H-M "P C A 21"
_symmetry_group_IT_number 29
_symmetry_cell_setting 'orthorhombic'
loop_
_space_group_symop_operation_xyz
x,y,z
-x,-y,1/2+z
1/2-x,y,1/2+z
1/2+x,-y,z
loop_
_atom_site_type_symbol
_atom_site_label
_atom_site_fract_x
_atom_site_fract_y
_atom_site_fract_z
Si Si1 0.564688 0.794566 0.264130
Si Si2 0.665117 0.884493 0.424096
Si Si3 0.649886 0.364518 0.988836
Si Si4 0.810810 0.750010 0.360405
Si Si5 0.217014 0.638565 0.714403
Si Si6 0.405943 0.884053 0.316905
Si Si7 0.381606 0.712881 0.677625
Si Si8 0.311315 0.637270 0.021999
O O1 0.607213 0.855307 0.350528
O O2 0.481073 0.802660 0.283465
O O3 0.588185 0.525715 0.228479
O O4 0.583640 0.023989 0.201691
O O5 0.742671 0.924472 0.379221
O O6 0.671102 0.616202 0.471197
O O7 0.648052 0.119873 0.485192
O O8 0.609805 0.345659 0.077495
O O9 0.729678 0.274647 0.008422
O O10 0.668661 0.635344 0.951720
O O11 0.612586 0.228326 0.909797
O O12 0.780475 0.570827 0.287327
O O13 0.889352 0.826095 0.327954
O O14 0.158999 0.821483 0.754020
O O15 0.297329 0.731022 0.699871
O O16 0.185950 0.571716 0.621724
#
# Coordination Sequence:
#
# PCOD9340422 Si02
#       8
#     4   4   4   4   4   4   4   4
#     4  12  27  43  66  96 140 176 216 266 338 395
#     4  11  21  42  63  95 130 169 216 271 324 390
#     4   9  22  40  68  96 126 172 224 272 322 391
#     4  10  20  39  70  91 130 167 223 270 324 384
#     4  10  23  41  70  98 128 172 224 280 321 389
#     4  11  24  43  66  98 136 179 214 268 336 396
#     4  11  25  45  70  99 129 175 227 273 322 394
#     4  10  22  39  69 101 123 164 228 278 321 377
#
# _framework density 20.172134
#
# number of rings (size 3 to 8) (size 9 to 14) (size 15 to 20)
#    0.000    1.500    2.500    1.500    8.750    2.000 
#    4.500    0.000    0.000    0.000    0.000    0.000 
#    0.000    0.000    0.000    0.000    0.000    0.000 
#
# Total GULP energy -178207.690802 kJ/mol
# GULP energy per Si atom -5568.990338 kJ/mol
# Density = 2.012622 g / cm^3
# Si number density = 20.172134 Si / 1000 Ang^3
#
#
#
# Elastic Constant Matrix: (Units=GPa)
#
#
# Indices 1 2 3 4 5 6 
#
# 1 72.4179 20.9092 32.6362 0.0000 0.0000 0.0000
# 2 20.9092 57.0012 18.1330 0.0000 0.0000 0.0000
# 3 32.6362 18.1330 102.5270 0.0000 0.0000 0.0000
# 4 0.0000 0.0000 0.0000 -9.7547 0.0000 0.0000
# 5 0.0000 0.0000 0.0000 0.0000 13.6644 0.0000
# 6 0.0000 0.0000 0.0000 0.0000 0.0000 -483.7773
#
#
#
# Elastic Compliance Matrix: (Units=1/GPa)
#
#
# Indices 1 2 3 4 5 6 
#
# 1 0.017310 -0.004871 -0.004649 0.000000 0.000000 0.000000
# 2 -0.004871 0.019960 -0.001980 0.000000 0.000000 0.000000
# 3 -0.004649 -0.001980 0.011583 0.000000 0.000000 0.000000
# 4 0.000000 0.000000 0.000000 -0.102515 0.000000 0.000000
# 5 0.000000 0.000000 0.000000 0.000000 0.073183 0.000000
# 6 0.000000 0.000000 0.000000 0.000000 0.000000 -0.002067
#
#
# Mechanical properties :
#
#
# Convention : Reuss Voigt Hill
#
# Bulk Modulus (GPa) = 38.67704 41.70030 40.18867
# Shear Modulus (GPa) = 101.89262 -85.28901 8.30180
#
# Velocity S-wave (km/s) = 7.11486 -6.50941 2.03087
# Velocity P-wave (km/s) = 9.31183 5.98159 5.04632
#
# Compressibility (1/GPa) = 0.02585513
#
# Stress axis : x y z
#
# Youngs Moduli (GPa) = 57.76973 50.10020 86.33044
#
# Poissons Ratio (x) = 0.24403 0.40132
# Poissons Ratio (y) = 0.28139 0.17090
# Poissons Ratio (z) = 0.26855 0.09918
#
# Static dielectric constant tensor:
#      x y z
#    x 1.707130 0.000000 0.000000 
#    y 0.000000 1.842310 0.000000 
#    z 0.000000 0.000000 1.767090 
# 
# From -- ./inp_files/4789.got.cif
#   From: 2010.05.17/outbox.cif.g08.bks.cpg/sg29_3_cif.got.tgz:4789.got - 2010.06.04 01:19:37.
