data_PCOD9340927
_publ_section_title
;
Structure prediction by ZEFSAII (Michael W. Deem and Ramdas Pophale) SiO2 
 PCOD9340927
Probable space group: P C A 21
;
_chemical_formula_sum "Si O2"
_cell_formula_units_Z 28
_cell_length_a 11.138615
_cell_length_b 4.964648
_cell_length_c 18.892076
_cell_angle_alpha 90.000000
_cell_angle_beta 90.000000
_cell_angle_gamma 90.000000
_cell_volume 1044.718629
_symmetry_space_group_name_H-M "P C A 21"
_symmetry_group_IT_number 29
_symmetry_cell_setting 'orthorhombic'
loop_
_space_group_symop_operation_xyz
x,y,z
-x,-y,1/2+z
1/2-x,y,1/2+z
1/2+x,-y,z
loop_
_atom_site_type_symbol
_atom_site_label
_atom_site_fract_x
_atom_site_fract_y
_atom_site_fract_z
Si Si1 0.607546 0.151834 0.471540
Si Si2 0.580347 0.468237 0.040454
Si Si3 0.779879 0.521436 0.678805
Si Si4 0.095067 0.104451 0.608675
Si Si5 0.581363 0.989942 0.223544
Si Si6 0.929138 0.008844 0.357433
Si Si7 0.788948 0.489361 0.393408
O O1 0.531536 0.356836 0.517772
O O2 0.518173 0.967518 0.424947
O O3 0.664378 0.341437 0.409501
O O4 0.671800 0.999952 0.539392
O O5 0.650861 0.582345 0.106121
O O6 0.524035 0.195478 0.067773
O O7 0.661674 0.450173 0.972771
O O8 0.652539 0.648124 0.654230
O O9 0.820719 0.217059 0.698247
O O10 0.840755 0.720584 0.735546
O O11 0.031069 0.929966 0.670091
O O12 0.511490 0.080378 0.293064
O O13 0.822647 0.795214 0.374864
O O14 0.866542 0.294908 0.343158
#
# Coordination Sequence:
#
# PCOD9340927 Si02
#       7
#     4   4   4   4   4   4   4
#     4  11  24  40  68 100 133 174 225 283 339 389
#     4  10  22  42  62 102 132 170 212 292 330 400
#     4  11  25  40  71  96 133 175 225 274 338 396
#     4  11  24  40  68 100 133 174 225 283 339 389
#     4  11  26  47  66  98 140 180 223 273 331 405
#     4  11  26  47  66  98 140 180 223 273 331 405
#     4  11  25  40  71  96 133 175 225 274 338 396
#
# _framework density 26.801476000000001
#
# number of rings (size 3 to 8) (size 9 to 14) (size 15 to 20)
#    0.000    1.143    2.857    1.714   12.000    2.286 
#    0.000    0.000    0.000    0.000    0.000    0.000 
#    0.000    0.000    0.000    0.000    0.000    0.000 
#
# Total GULP energy -156165.067692 kJ/mol
# GULP energy per Si atom -5577.323846 kJ/mol
# Density = 2.674047 g / cm^3
# Si number density = 26.801476 Si / 1000 Ang^3
#
#
#
# Elastic Constant Matrix: (Units=GPa)
#
#
# Indices 1 2 3 4 5 6 
#
# 1 30.6775 -2.9624 6.7663 0.0000 0.0000 0.0000
# 2 -2.9624 85.5420 -22.2725 0.0000 0.0000 0.0000
# 3 6.7663 -22.2725 94.8692 0.0000 0.0000 0.0000
# 4 0.0000 0.0000 0.0000 44.8628 0.0000 0.0000
# 5 0.0000 0.0000 0.0000 0.0000 40.9380 0.0000
# 6 0.0000 0.0000 0.0000 0.0000 0.0000 8.4050
#
#
#
# Elastic Compliance Matrix: (Units=1/GPa)
#
#
# Indices 1 2 3 4 5 6 
#
# 1 0.033144 0.000567 -0.002231 0.000000 0.000000 0.000000
# 2 0.000567 0.012461 0.002885 0.000000 0.000000 0.000000
# 3 -0.002231 0.002885 0.011377 0.000000 0.000000 0.000000
# 4 0.000000 0.000000 0.000000 0.022290 0.000000 0.000000
# 5 0.000000 0.000000 0.000000 0.000000 0.024427 0.000000
# 6 0.000000 0.000000 0.000000 0.000000 0.000000 0.118976
#
#
# Mechanical properties :
#
#
# Convention : Reuss Voigt Hill
#
# Bulk Modulus (GPa) = 16.82806 19.35018 18.08912
# Shear Modulus (GPa) = 20.82970 34.14499 27.48734
#
# Velocity S-wave (km/s) = 2.79083 3.57318 3.20596
# Velocity P-wave (km/s) = 4.08379 4.92534 4.52418
#
# Compressibility (1/GPa) = 0.05942457
#
# Stress axis : x y z
#
# Youngs Moduli (GPa) = 30.17136 80.25058 87.89466
#
# Poissons Ratio (x) = -0.04550 0.19608
# Poissons Ratio (y) = -0.01711 -0.25358
# Poissons Ratio (z) = 0.06731 -0.23153
#
# Static dielectric constant tensor:
#      x y z
#    x 2.364620 0.000000 0.000000 
#    y 0.000000 -0.383620 0.000000 
#    z 0.000000 0.000000 2.120500 
# 
# From -- ./inp_files/5107.got.cif
#   From: 2010.05.17/outbox.cif.g08.bks.cpg/sg29_3_cif.got.tgz:5107.got - 2010.06.04 01:19:37.
