data_PCOD9340269
_publ_section_title
;
Structure prediction by ZEFSAII (Michael W. Deem and Ramdas Pophale) SiO2 
 PCOD9340269
Probable space group: P C A 21
;
_chemical_formula_sum "Si O2"
_cell_formula_units_Z 32
_cell_length_a 27.416770
_cell_length_b 5.279995
_cell_length_c 8.562404
_cell_angle_alpha 90.000000
_cell_angle_beta 90.000000
_cell_angle_gamma 90.000000
_cell_volume 1239.497101
_symmetry_space_group_name_H-M "P C A 21"
_symmetry_group_IT_number 29
_symmetry_cell_setting 'orthorhombic'
loop_
_space_group_symop_operation_xyz
x,y,z
-x,-y,1/2+z
1/2-x,y,1/2+z
1/2+x,-y,z
loop_
_atom_site_type_symbol
_atom_site_label
_atom_site_fract_x
_atom_site_fract_y
_atom_site_fract_z
Si Si1 0.174993 0.205192 0.829530
Si Si2 0.624208 0.298445 0.726471
Si Si3 0.540736 0.794886 0.049468
Si Si4 0.997404 0.567359 0.264949
Si Si5 0.818313 0.326851 0.902154
Si Si6 0.945412 0.933526 0.053991
Si Si7 0.232368 0.185366 0.499619
Si Si8 0.903491 0.091907 0.751989
O O1 0.136446 0.436911 0.813820
O O2 0.209860 0.215436 0.672989
O O3 0.210050 0.223140 0.978566
O O4 0.151793 0.928007 0.815152
O O5 0.648315 0.342429 0.556909
O O6 0.574773 0.146346 0.675078
O O7 0.520576 0.691801 0.212506
O O8 0.590417 0.926340 0.096384
O O9 0.499306 0.989544 0.996939
O O10 0.532060 0.573791 0.926261
O O11 0.957207 0.676654 0.144363
O O12 0.047092 0.738244 0.262885
O O13 0.791577 0.592819 0.894963
O O14 0.782319 0.090734 0.933237
O O15 0.855285 0.257116 0.763521
O O16 0.907124 0.925733 0.912288
#
# Coordination Sequence:
#
# PCOD9340269 Si02
#       8
#     4   4   4   4   4   4   4   4
#     4  10  20  36  57  82 109 141 179 224 275 331
#     4   9  19  34  58  83 106 141 187 226 266 326
#     4  10  20  33  53  78 109 145 182 226 278 327
#     4  10  20  33  53  78 109 145 182 226 278 327
#     4   9  19  34  58  83 106 141 187 226 266 326
#     4   9  19  35  54  77 104 142 187 229 269 321
#     4  10  20  36  57  82 109 141 179 224 275 331
#     4   9  19  35  54  77 104 142 187 229 269 321
#
# _framework density 25.816924
#
# number of rings (size 3 to 8) (size 9 to 14) (size 15 to 20)
#    0.000    2.500    0.000    1.500    3.500    1.000 
#    0.000    2.500    0.000    0.000    0.000    0.000 
#    0.000    0.000    0.000    0.000    0.000    0.000 
#
# Total GULP energy -178705.834701 kJ/mol
# GULP energy per Si atom -5584.557334 kJ/mol
# Density = 2.575816 g / cm^3
# Si number density = 25.816924 Si / 1000 Ang^3
#
#
#
# Elastic Constant Matrix: (Units=GPa)
#
#
# Indices 1 2 3 4 5 6 
#
# 1 63.2266 -6.4201 -1.2429 0.0000 0.0000 0.0000
# 2 -6.4201 79.7732 6.9249 0.0000 0.0000 0.0000
# 3 -1.2429 6.9249 56.9788 0.0000 0.0000 0.0000
# 4 0.0000 0.0000 0.0000 19.2628 0.0000 0.0000
# 5 0.0000 0.0000 0.0000 0.0000 36.6660 0.0000
# 6 0.0000 0.0000 0.0000 0.0000 0.0000 29.4888
#
#
#
# Elastic Compliance Matrix: (Units=1/GPa)
#
#
# Indices 1 2 3 4 5 6 
#
# 1 0.015949 0.001267 0.000194 0.000000 0.000000 0.000000
# 2 0.001267 0.012770 -0.001524 0.000000 0.000000 0.000000
# 3 0.000194 -0.001524 0.017740 0.000000 0.000000 0.000000
# 4 0.000000 0.000000 0.000000 0.051914 0.000000 0.000000
# 5 0.000000 0.000000 0.000000 0.000000 0.027273 0.000000
# 6 0.000000 0.000000 0.000000 0.000000 0.000000 0.033911
#
#
# Mechanical properties :
#
#
# Convention : Reuss Voigt Hill
#
# Bulk Modulus (GPa) = 21.58390 22.05583 21.81986
# Shear Modulus (GPa) = 28.55067 30.46463 29.50765
#
# Velocity S-wave (km/s) = 3.32910 3.43888 3.38443
# Velocity P-wave (km/s) = 4.81204 4.93250 4.87264
#
# Compressibility (1/GPa) = 0.04633083
#
# Stress axis : x y z
#
# Youngs Moduli (GPa) = 62.70157 78.30979 56.37016
#
# Poissons Ratio (x) = -0.09919 -0.01093
# Poissons Ratio (y) = -0.07942 0.08593
# Poissons Ratio (z) = -0.01216 0.11937
#
# Static dielectric constant tensor:
#      x y z
#    x 2.045310 0.000000 0.000000 
#    y 0.000000 2.050320 0.000000 
#    z 0.000000 0.000000 2.091370 
# 
# From -- ./inp_files/2584.got.cif
#   From: 2010.05.17/outbox.cif.g08.bks.cpg/sg29_2_cif.got.tgz:2584.got - 2010.06.04 01:19:37.
