data_PCOD9340666
_publ_section_title
;
Structure prediction by ZEFSAII (Michael W. Deem and Ramdas Pophale) SiO2 
 PCOD9340666
Probable space group: P C A 21
;
_chemical_formula_sum "Si O2"
_cell_formula_units_Z 32
_cell_length_a 12.572609
_cell_length_b 8.025405
_cell_length_c 13.185701
_cell_angle_alpha 90.000000
_cell_angle_beta 90.000000
_cell_angle_gamma 90.000000
_cell_volume 1330.440911
_symmetry_space_group_name_H-M "P C A 21"
_symmetry_group_IT_number 29
_symmetry_cell_setting 'orthorhombic'
loop_
_space_group_symop_operation_xyz
x,y,z
-x,-y,1/2+z
1/2-x,y,1/2+z
1/2+x,-y,z
loop_
_atom_site_type_symbol
_atom_site_label
_atom_site_fract_x
_atom_site_fract_y
_atom_site_fract_z
Si Si1 0.258173 0.188959 0.122730
Si Si2 0.439248 0.944387 0.085435
Si Si3 0.146280 0.413526 0.784562
Si Si4 0.357653 0.008535 0.787531
Si Si5 0.147320 0.790183 0.781725
Si Si6 0.056471 0.710968 0.395319
Si Si7 0.302033 0.434040 0.959637
Si Si8 0.510529 0.788670 0.455964
O O1 0.342336 0.273368 0.199869
O O2 0.321212 0.033438 0.071994
O O3 0.159527 0.118136 0.186498
O O4 0.234194 0.343707 0.047783
O O5 0.430434 0.870037 0.197083
O O6 0.468290 0.810273 0.998995
O O7 0.512528 0.099566 0.053600
O O8 0.167725 0.600931 0.743594
O O9 0.242566 0.372182 0.860029
O O10 0.037489 0.401976 0.848974
O O11 0.240591 0.923905 0.797064
O O12 0.426745 0.842037 0.803625
O O13 0.407232 0.118789 0.878016
O O14 0.092222 0.763365 0.889524
O O15 0.167265 0.621496 0.427354
O O16 0.420871 0.370134 0.985069
#
# Coordination Sequence:
#
# PCOD9340666 Si02
#       8
#     4   4   4   4   4   4   4   4
#     4  10  23  43  68  97 135 178 223 282 333 404
#     4   9  23  39  66  94 132 173 218 282 316 405
#     4  12  24  42  73  98 132 180 221 278 343 409
#     4  10  22  39  67  95 130 175 221 275 333 396
#     4  11  22  42  67  97 131 177 225 271 342 398
#     4  11  23  43  67 100 138 177 224 281 347 397
#     4  11  22  44  67  96 138 174 222 281 338 405
#     4  10  21  40  67  93 134 172 216 276 330 398
#
# _framework density 24.052175999999999
#
# number of rings (size 3 to 8) (size 9 to 14) (size 15 to 20)
#    0.000    1.500    3.750    0.750    7.000    1.000 
#    0.000    5.000    0.000    0.000    0.000    0.000 
#    0.000    0.000    0.000    0.000    0.000    0.000 
#
# Total GULP energy -178175.875144 kJ/mol
# GULP energy per Si atom -5567.996098 kJ/mol
# Density = 2.399743 g / cm^3
# Si number density = 24.052176 Si / 1000 Ang^3
#
#
#
# Elastic Constant Matrix: (Units=GPa)
#
#
# Indices 1 2 3 4 5 6 
#
# 1 50.8563 9.0717 -2.7505 0.0000 0.0000 0.0000
# 2 9.0717 81.3541 17.2026 0.0000 0.0000 0.0000
# 3 -2.7505 17.2026 78.5573 0.0000 0.0000 0.0000
# 4 0.0000 0.0000 0.0000 43.0728 0.0000 0.0000
# 5 0.0000 0.0000 0.0000 0.0000 34.6444 0.0000
# 6 0.0000 0.0000 0.0000 0.0000 0.0000 26.8572
#
#
#
# Elastic Compliance Matrix: (Units=1/GPa)
#
#
# Indices 1 2 3 4 5 6 
#
# 1 0.020180 -0.002516 0.001258 0.000000 0.000000 0.000000
# 2 -0.002516 0.013202 -0.002979 0.000000 0.000000 0.000000
# 3 0.001258 -0.002979 0.013426 0.000000 0.000000 0.000000
# 4 0.000000 0.000000 0.000000 0.023217 0.000000 0.000000
# 5 0.000000 0.000000 0.000000 0.000000 0.028865 0.000000
# 6 0.000000 0.000000 0.000000 0.000000 0.000000 0.037234
#
#
# Mechanical properties :
#
#
# Convention : Reuss Voigt Hill
#
# Bulk Modulus (GPa) = 26.08722 28.64613 27.36667
# Shear Modulus (GPa) = 31.77088 33.39783 32.58435
#
# Velocity S-wave (km/s) = 3.63838 3.73038 3.68467
# Velocity P-wave (km/s) = 5.34042 5.52179 5.43186
#
# Compressibility (1/GPa) = 0.03833294
#
# Stress axis : x y z
#
# Youngs Moduli (GPa) = 49.55383 75.74335 74.48249
#
# Poissons Ratio (x) = 0.19058 -0.09367
# Poissons Ratio (y) = 0.12469 0.22190
# Poissons Ratio (z) = -0.06232 0.22565
#
# Static dielectric constant tensor:
#      x y z
#    x 1.967690 0.000000 0.000000 
#    y 0.000000 2.021520 0.000000 
#    z 0.000000 0.000000 1.936990 
# 
# From -- ./inp_files/4582.got.cif
#   From: 2010.05.17/outbox.cif.g08.bks.cpg/sg29_3_cif.got.tgz:4582.got - 2010.06.04 01:19:37.
