data_PCOD9340449
_publ_section_title
;
Structure prediction by ZEFSAII (Michael W. Deem and Ramdas Pophale) SiO2 
 PCOD9340449
Probable space group: P C A 21
;
_chemical_formula_sum "Si O2"
_cell_formula_units_Z 32
_cell_length_a 20.159619
_cell_length_b 5.358556
_cell_length_c 12.044003
_cell_angle_alpha 90.000000
_cell_angle_beta 90.000000
_cell_angle_gamma 90.000000
_cell_volume 1301.070856
_symmetry_space_group_name_H-M "P C A 21"
_symmetry_group_IT_number 29
_symmetry_cell_setting 'orthorhombic'
loop_
_space_group_symop_operation_xyz
x,y,z
-x,-y,1/2+z
1/2-x,y,1/2+z
1/2+x,-y,z
loop_
_atom_site_type_symbol
_atom_site_label
_atom_site_fract_x
_atom_site_fract_y
_atom_site_fract_z
Si Si1 0.309730 0.240954 0.478390
Si Si2 0.187074 0.937672 0.197925
Si Si3 0.681730 0.589697 0.344233
Si Si4 0.921523 0.932144 0.317690
Si Si5 0.310822 0.060818 0.136496
Si Si6 0.362789 0.569799 0.063938
Si Si7 0.387288 0.579573 0.644138
Si Si8 0.522618 0.429528 0.746865
O O1 0.253075 0.368667 0.401209
O O2 0.349923 0.452016 0.545307
O O3 0.279159 0.067562 0.577736
O O4 0.363568 0.095392 0.407264
O O5 0.266071 0.921510 0.231977
O O6 0.115051 0.873060 0.134034
O O7 0.165259 0.160431 0.279217
O O8 0.628925 0.531031 0.439011
O O9 0.671296 0.377928 0.245443
O O10 0.883281 0.933814 0.201115
O O11 0.964056 0.184418 0.319877
O O12 0.964335 0.679144 0.317920
O O13 0.330658 0.842271 0.047518
O O14 0.311121 0.366174 0.114772
O O15 0.425877 0.574619 0.143385
O O16 0.450556 0.456037 0.692563
#
# Coordination Sequence:
#
# PCOD9340449 Si02
#       8
#     4   4   4   4   4   4   4   4
#     4  11  24  44  71 104 138 188 243 302 372 439
#     4  11  24  40  65 103 148 178 235 309 369 421
#     4  11  24  42  69 104 140 187 240 299 370 431
#     4  10  23  44  75 100 137 193 246 289 362 438
#     4  10  20  40  67 102 133 176 233 298 349 420
#     4  10  22  42  69  97 135 189 235 284 352 429
#     4  11  28  44  69 107 150 189 236 316 359 435
#     4  10  25  48  71 101 147 190 244 297 353 439
#
# _framework density 24.595124999999999
#
# number of rings (size 3 to 8) (size 9 to 14) (size 15 to 20)
#    0.000    1.500    2.500    0.750    8.750    3.000 
#    0.000    0.000    0.000    0.000    0.000    0.000 
#    0.000    0.000    0.000    0.000    0.000    0.000 
#
# Total GULP energy -178138.198302 kJ/mol
# GULP energy per Si atom -5566.818697 kJ/mol
# Density = 2.453915 g / cm^3
# Si number density = 24.595125 Si / 1000 Ang^3
#
#
#
# Elastic Constant Matrix: (Units=GPa)
#
#
# Indices 1 2 3 4 5 6 
#
# 1 93.7614 39.0414 27.3911 0.0000 0.0000 0.0000
# 2 39.0414 151.0100 52.6872 0.0000 0.0000 0.0000
# 3 27.3911 52.6872 104.5511 0.0000 0.0000 0.0000
# 4 0.0000 0.0000 0.0000 33.4974 0.0000 0.0000
# 5 0.0000 0.0000 0.0000 0.0000 29.8930 0.0000
# 6 0.0000 0.0000 0.0000 0.0000 0.0000 25.1859
#
#
#
# Elastic Compliance Matrix: (Units=1/GPa)
#
#
# Indices 1 2 3 4 5 6 
#
# 1 0.012275 -0.002489 -0.001961 0.000000 0.000000 0.000000
# 2 -0.002489 0.008540 -0.003651 0.000000 0.000000 0.000000
# 3 -0.001961 -0.003651 0.011919 0.000000 0.000000 0.000000
# 4 0.000000 0.000000 0.000000 0.029853 0.000000 0.000000
# 5 0.000000 0.000000 0.000000 0.000000 0.033453 0.000000
# 6 0.000000 0.000000 0.000000 0.000000 0.000000 0.039705
#
#
# Mechanical properties :
#
#
# Convention : Reuss Voigt Hill
#
# Bulk Modulus (GPa) = 60.49899 65.28465 62.89182
# Shear Modulus (GPa) = 31.75470 33.06210 32.40840
#
# Velocity S-wave (km/s) = 3.59708 3.67038 3.63392
# Velocity P-wave (km/s) = 6.47328 6.67560 6.57522
#
# Compressibility (1/GPa) = 0.01652920
#
# Stress axis : x y z
#
# Youngs Moduli (GPa) = 81.46751 117.10253 83.90244
#
# Poissons Ratio (x) = 0.29148 0.16457
# Poissons Ratio (y) = 0.20278 0.30635
# Poissons Ratio (z) = 0.15980 0.42757
#
# Static dielectric constant tensor:
#      x y z
#    x 2.165860 0.000000 0.000000 
#    y 0.000000 2.127540 0.000000 
#    z 0.000000 0.000000 2.040250 
# 
# From -- ./inp_files/3878.got.cif
#   From: 2010.05.17/outbox.cif.g08.bks.cpg/sg29_2_cif.got.tgz:3878.got - 2010.06.04 01:19:37.
