data_PCOD9340029
_publ_section_title
;
Structure prediction by ZEFSAII (Michael W. Deem and Ramdas Pophale) SiO2 
 PCOD9340029
Probable space group: P C A 21
;
_chemical_formula_sum "Si O2"
_cell_formula_units_Z 28
_cell_length_a 9.782596
_cell_length_b 8.224718
_cell_length_c 14.466641
_cell_angle_alpha 90.000000
_cell_angle_beta 90.000000
_cell_angle_gamma 90.000000
_cell_volume 1163.972820
_symmetry_space_group_name_H-M "P C A 21"
_symmetry_group_IT_number 29
_symmetry_cell_setting 'orthorhombic'
loop_
_space_group_symop_operation_xyz
x,y,z
-x,-y,1/2+z
1/2-x,y,1/2+z
1/2+x,-y,z
loop_
_atom_site_type_symbol
_atom_site_label
_atom_site_fract_x
_atom_site_fract_y
_atom_site_fract_z
Si Si1 0.866825 0.173951 0.366910
Si Si2 0.623912 0.772296 0.722944
Si Si3 0.432541 0.775575 0.566021
Si Si4 0.685731 0.652945 0.455641
Si Si5 0.148191 0.047614 0.321483
Si Si6 0.183492 0.470112 0.126387
Si Si7 0.013934 0.498424 0.307408
O O1 0.985272 0.064019 0.317726
O O2 0.911880 0.355728 0.340869
O O3 0.879839 0.132830 0.476131
O O4 0.716080 0.125274 0.337884
O O5 0.514726 0.850360 0.651992
O O6 0.757866 0.879732 0.740137
O O7 0.690615 0.611560 0.677074
O O8 0.548367 0.679412 0.807095
O O9 0.549360 0.661831 0.519082
O O10 0.313927 0.661870 0.605990
O O11 0.689142 0.828170 0.405496
O O12 0.809927 0.611116 0.524005
O O13 0.643731 0.526544 0.375691
O O14 0.065089 0.455295 0.203388
#
# Coordination Sequence:
#
# PCOD9340029 Si02
#       7
#     4   4   4   4   4   4   4
#     4  10  21  43  57  89 124 168 205 254 304 381
#     4  10  18  36  61  87 117 160 201 265 320 361
#     4   8  19  34  55  83 121 148 202 257 304 371
#     4   9  19  33  58  84 119 162 195 249 315 364
#     4  10  21  40  59  83 125 165 205 250 308 368
#     4  10  17  35  61  89 113 152 203 257 319 361
#     4   9  19  35  59  85 121 153 207 262 310 374
#
# _framework density 24.055543
#
# number of rings (size 3 to 8) (size 9 to 14) (size 15 to 20)
#    0.000    2.857    2.857    0.000    4.000    0.000 
#   10.286    0.000    0.000    0.000    0.000    0.000 
#    0.000    0.000    0.000    0.000    0.000    0.000 
#
# Total GULP energy -155881.604199 kJ/mol
# GULP energy per Si atom -5567.200150 kJ/mol
# Density = 2.400079 g / cm^3
# Si number density = 24.055543 Si / 1000 Ang^3
#
#
#
# Elastic Constant Matrix: (Units=GPa)
#
#
# Indices 1 2 3 4 5 6 
#
# 1 74.0448 18.8008 -0.5836 0.0000 0.0000 0.0000
# 2 18.8008 25.9625 8.5578 0.0000 0.0000 0.0000
# 3 -0.5836 8.5578 77.7469 0.0000 0.0000 0.0000
# 4 0.0000 0.0000 0.0000 24.8132 0.0000 0.0000
# 5 0.0000 0.0000 0.0000 0.0000 22.4215 0.0000
# 6 0.0000 0.0000 0.0000 0.0000 0.0000 31.2620
#
#
#
# Elastic Compliance Matrix: (Units=1/GPa)
#
#
# Indices 1 2 3 4 5 6 
#
# 1 0.016718 -0.012605 0.001513 0.000000 0.000000 0.000000
# 2 -0.012605 0.049471 -0.005540 0.000000 0.000000 0.000000
# 3 0.001513 -0.005540 0.013483 0.000000 0.000000 0.000000
# 4 0.000000 0.000000 0.000000 0.040301 0.000000 0.000000
# 5 0.000000 0.000000 0.000000 0.000000 0.044600 0.000000
# 6 0.000000 0.000000 0.000000 0.000000 0.000000 0.031988
#
#
# Mechanical properties :
#
#
# Convention : Reuss Voigt Hill
#
# Bulk Modulus (GPa) = 21.54789 25.70046 23.62418
# Shear Modulus (GPa) = 20.38369 25.76464 23.07416
#
# Velocity S-wave (km/s) = 2.91410 3.27624 3.10046
# Velocity P-wave (km/s) = 4.50551 5.00186 4.76016
#
# Compressibility (1/GPa) = 0.04640825
#
# Stress axis : x y z
#
# Youngs Moduli (GPa) = 59.81655 20.21389 74.16527
#
# Poissons Ratio (x) = 0.25479 -0.11221
# Poissons Ratio (y) = 0.75398 0.41088
# Poissons Ratio (z) = -0.09050 0.11199
#
# Static dielectric constant tensor:
#      x y z
#    x 1.953020 0.000000 0.000000 
#    y 0.000000 1.951420 0.000000 
#    z 0.000000 0.000000 2.048560 
# 
# From -- ./inp_files/4499.got.cif
#   From: 2010.05.17/outbox.cif.g08.bks.cpg/sg29_3_cif.got.tgz:4499.got - 2010.06.04 01:19:37.
