data_PCOD9340243
_publ_section_title
;
Structure prediction by ZEFSAII (Michael W. Deem and Ramdas Pophale) SiO2 
 PCOD9340243
Probable space group: P C A 21
;
_chemical_formula_sum "Si O2"
_cell_formula_units_Z 32
_cell_length_a 12.851839
_cell_length_b 7.727886
_cell_length_c 14.480743
_cell_angle_alpha 90.000000
_cell_angle_beta 90.000000
_cell_angle_gamma 90.000000
_cell_volume 1438.191869
_symmetry_space_group_name_H-M "P C A 21"
_symmetry_group_IT_number 29
_symmetry_cell_setting 'orthorhombic'
loop_
_space_group_symop_operation_xyz
x,y,z
-x,-y,1/2+z
1/2-x,y,1/2+z
1/2+x,-y,z
loop_
_atom_site_type_symbol
_atom_site_label
_atom_site_fract_x
_atom_site_fract_y
_atom_site_fract_z
Si Si1 0.896137 0.935530 0.962580
Si Si2 0.202762 0.706101 0.526041
Si Si3 0.925361 0.609523 0.315981
Si Si4 0.320105 0.230039 0.493700
Si Si5 0.915528 0.113049 0.572863
Si Si6 0.596825 0.124148 0.283935
Si Si7 0.235599 0.646983 0.822450
Si Si8 0.219115 0.421553 0.661694
O O1 0.935296 0.987771 0.861406
O O2 0.790898 0.828487 0.954056
O O3 0.863931 0.119026 0.011865
O O4 0.978228 0.831967 0.024060
O O5 0.222645 0.622043 0.425824
O O6 0.161718 0.568061 0.599541
O O7 0.318071 0.759724 0.560451
O O8 0.880634 0.670647 0.414115
O O9 0.886593 0.407857 0.315782
O O10 0.862686 0.682092 0.225390
O O11 0.036974 0.696293 0.306999
O O12 0.383982 0.059904 0.519026
O O13 0.292137 0.324769 0.589674
O O14 0.927271 0.074235 0.680345
O O15 0.720507 0.164776 0.296077
O O16 0.280021 0.520326 0.743368
#
# Coordination Sequence:
#
# PCOD9340243 Si02
#       8
#     4   4   4   4   4   4   4   4
#     4  10  24  40  60  92 122 166 202 254 307 362
#     4  10  20  43  64  85 125 161 206 254 307 369
#     4  10  21  38  61  92 124 155 204 258 300 355
#     4  11  22  40  62  91 127 158 205 259 302 363
#     4  11  22  42  62  88 121 168 204 249 312 368
#     4  11  21  42  64  88 127 163 209 249 307 379
#     4   9  21  39  62  89 122 158 199 256 306 351
#     4  10  19  40  63  87 120 163 197 251 309 353
#
# _framework density 22.250159
#
# number of rings (size 3 to 8) (size 9 to 14) (size 15 to 20)
#    0.750    1.000    3.750    0.750    1.750    0.000 
#    6.750    1.250    0.000    0.000    0.000    0.000 
#    0.000    0.000    0.000    0.000    0.000    0.000 
#
# Total GULP energy -178251.357616 kJ/mol
# GULP energy per Si atom -5570.354926 kJ/mol
# Density = 2.219952 g / cm^3
# Si number density = 22.250159 Si / 1000 Ang^3
#
#
#
# Elastic Constant Matrix: (Units=GPa)
#
#
# Indices 1 2 3 4 5 6 
#
# 1 53.9705 -4.6781 23.8782 0.0000 0.0000 0.0000
# 2 -4.6781 19.5677 0.3581 0.0000 0.0000 0.0000
# 3 23.8782 0.3581 133.2574 0.0000 0.0000 0.0000
# 4 0.0000 0.0000 0.0000 25.7510 0.0000 0.0000
# 5 0.0000 0.0000 0.0000 0.0000 18.1786 0.0000
# 6 0.0000 0.0000 0.0000 0.0000 0.0000 9.7479
#
#
#
# Elastic Compliance Matrix: (Units=1/GPa)
#
#
# Indices 1 2 3 4 5 6 
#
# 1 0.020601 0.004993 -0.003705 0.000000 0.000000 0.000000
# 2 0.004993 0.052317 -0.001035 0.000000 0.000000 0.000000
# 3 -0.003705 -0.001035 0.008171 0.000000 0.000000 0.000000
# 4 0.000000 0.000000 0.000000 0.038833 0.000000 0.000000
# 5 0.000000 0.000000 0.000000 0.000000 0.055010 0.000000
# 6 0.000000 0.000000 0.000000 0.000000 0.000000 0.102586
#
#
# Mechanical properties :
#
#
# Convention : Reuss Voigt Hill
#
# Bulk Modulus (GPa) = 12.25575 27.32356 19.78966
# Shear Modulus (GPa) = 16.43600 23.21800 19.82700
#
# Velocity S-wave (km/s) = 2.72084 3.23383 2.98836
# Velocity P-wave (km/s) = 3.92310 5.12351 4.56295
#
# Compressibility (1/GPa) = 0.08159433
#
# Stress axis : x y z
#
# Youngs Moduli (GPa) = 48.54244 19.11412 122.38534
#
# Poissons Ratio (x) = -0.09543 0.45341
# Poissons Ratio (y) = -0.24236 0.12670
# Poissons Ratio (z) = 0.17984 0.01979
#
# Static dielectric constant tensor:
#      x y z
#    x 1.870570 0.000000 0.000000 
#    y 0.000000 1.859820 0.000000 
#    z 0.000000 0.000000 1.809510 
# 
# From -- ./inp_files/4568.got.cif
#   From: 2010.05.17/outbox.cif.g08.bks.cpg/sg29_3_cif.got.tgz:4568.got - 2010.06.04 01:19:37.
