data_PCOD9340659
_publ_section_title
;
Structure prediction by ZEFSAII (Michael W. Deem and Ramdas Pophale) SiO2 
 PCOD9340659
Probable space group: P C A 21
;
_chemical_formula_sum "Si O2"
_cell_formula_units_Z 28
_cell_length_a 7.950177
_cell_length_b 13.497845
_cell_length_c 12.040748
_cell_angle_alpha 90.000000
_cell_angle_beta 90.000000
_cell_angle_gamma 90.000000
_cell_volume 1292.095761
_symmetry_space_group_name_H-M "P C A 21"
_symmetry_group_IT_number 29
_symmetry_cell_setting 'orthorhombic'
loop_
_space_group_symop_operation_xyz
x,y,z
-x,-y,1/2+z
1/2-x,y,1/2+z
1/2+x,-y,z
loop_
_atom_site_type_symbol
_atom_site_label
_atom_site_fract_x
_atom_site_fract_y
_atom_site_fract_z
Si Si1 0.626410 0.267455 0.833650
Si Si2 0.871970 0.106140 0.753758
Si Si3 0.762607 0.444430 0.450633
Si Si4 0.008000 0.881060 0.006526
Si Si5 0.815006 0.937620 0.383809
Si Si6 0.818492 0.599754 0.771715
Si Si7 0.540586 0.538594 0.620119
O O1 0.724129 0.187473 0.759391
O O2 0.747031 0.360331 0.858334
O O3 0.597768 0.211163 0.949273
O O4 0.446801 0.309792 0.791422
O O5 0.960103 0.110526 0.635510
O O6 0.028188 0.124629 0.837451
O O7 0.788787 0.999846 0.788873
O O8 0.755646 0.549160 0.384086
O O9 0.634521 0.451351 0.552113
O O10 0.931551 0.420622 0.518878
O O11 0.818104 0.881688 0.960678
O O12 0.097949 0.977039 0.955378
O O13 0.669501 0.611851 0.681619
O O14 0.932538 0.514373 0.714692
#
# Coordination Sequence:
#
# PCOD9340659 Si02
#       7
#     4   4   4   4   4   4   4
#     4  11  24  39  59  98 135 165 220 280 326 390
#     4  10  21  40  70  95 135 172 212 276 329 396
#     4  11  21  42  60  89 125 168 220 268 321 393
#     4  10  21  40  66  93 133 166 216 269 331 399
#     4   9  20  42  66  99 126 175 219 258 335 404
#     4  11  21  42  61  91 126 168 220 274 325 387
#     4  10  22  37  68  83 114 184 217 259 333 389
#
# _framework density 21.670221000000002
#
# number of rings (size 3 to 8) (size 9 to 14) (size 15 to 20)
#    0.000    1.714    2.857    0.857    2.000    0.000 
#    7.714    1.429    0.000    0.000    0.000    0.000 
#    0.000    0.000    0.000    0.000    0.000    0.000 
#
# Total GULP energy -156083.466392 kJ/mol
# GULP energy per Si atom -5574.409514 kJ/mol
# Density = 2.162090 g / cm^3
# Si number density = 21.670221 Si / 1000 Ang^3
#
#
#
# Elastic Constant Matrix: (Units=GPa)
#
#
# Indices 1 2 3 4 5 6 
#
# 1 79.7036 20.8827 46.2688 0.0000 0.0000 0.0000
# 2 20.8827 45.0096 23.4775 0.0000 0.0000 0.0000
# 3 46.2688 23.4775 86.8489 0.0000 0.0000 0.0000
# 4 0.0000 0.0000 0.0000 9.7750 0.0000 0.0000
# 5 0.0000 0.0000 0.0000 0.0000 40.3090 0.0000
# 6 0.0000 0.0000 0.0000 0.0000 0.0000 22.4907
#
#
#
# Elastic Compliance Matrix: (Units=1/GPa)
#
#
# Indices 1 2 3 4 5 6 
#
# 1 0.018783 -0.004069 -0.008907 0.000000 0.000000 0.000000
# 2 -0.004069 0.026746 -0.005062 0.000000 0.000000 0.000000
# 3 -0.008907 -0.005062 0.017628 0.000000 0.000000 0.000000
# 4 0.000000 0.000000 0.000000 0.102302 0.000000 0.000000
# 5 0.000000 0.000000 0.000000 0.000000 0.024808 0.000000
# 6 0.000000 0.000000 0.000000 0.000000 0.000000 0.044463
#
#
# Mechanical properties :
#
#
# Convention : Reuss Voigt Hill
#
# Bulk Modulus (GPa) = 36.92656 43.64668 40.28662
# Shear Modulus (GPa) = 17.86782 22.57715 20.22249
#
# Velocity S-wave (km/s) = 2.87458 3.23127 3.05813
# Velocity P-wave (km/s) = 5.30046 5.84008 5.57680
#
# Compressibility (1/GPa) = 0.02708078
#
# Stress axis : x y z
#
# Youngs Moduli (GPa) = 53.23972 37.38893 56.72844
#
# Poissons Ratio (x) = 0.15213 0.50527
# Poissons Ratio (y) = 0.21662 0.28719
# Poissons Ratio (z) = 0.47419 0.18928
#
# Static dielectric constant tensor:
#      x y z
#    x 1.899330 0.000000 0.000000 
#    y 0.000000 1.817950 0.000000 
#    z 0.000000 0.000000 1.777120 
# 
# From -- ./inp_files/2867.got.cif
#   From: 2010.05.17/outbox.cif.g08.bks.cpg/sg29_2_cif.got.tgz:2867.got - 2010.06.04 01:19:37.
