data_PCOD9340248
_publ_section_title
;
Structure prediction by ZEFSAII (Michael W. Deem and Ramdas Pophale) SiO2 
 PCOD9340248
Probable space group: P C A 21
;
_chemical_formula_sum "Si O2"
_cell_formula_units_Z 32
_cell_length_a 11.516688
_cell_length_b 14.013175
_cell_length_c 8.383525
_cell_angle_alpha 90.000000
_cell_angle_beta 90.000000
_cell_angle_gamma 90.000000
_cell_volume 1352.978237
_symmetry_space_group_name_H-M "P C A 21"
_symmetry_group_IT_number 29
_symmetry_cell_setting 'orthorhombic'
loop_
_space_group_symop_operation_xyz
x,y,z
-x,-y,1/2+z
1/2-x,y,1/2+z
1/2+x,-y,z
loop_
_atom_site_type_symbol
_atom_site_label
_atom_site_fract_x
_atom_site_fract_y
_atom_site_fract_z
Si Si1 0.677184 0.234499 0.251500
Si Si2 0.983755 0.365405 0.540261
Si Si3 0.645078 0.831592 0.084041
Si Si4 0.308420 0.043607 0.285049
Si Si5 0.715906 0.644904 0.716593
Si Si6 0.943391 0.288268 0.207838
Si Si7 0.801216 0.098764 0.033230
Si Si8 0.095011 0.427364 0.031252
O O1 0.586961 0.309035 0.177623
O O2 0.807350 0.278073 0.242845
O O3 0.652013 0.187366 0.423217
O O4 0.695990 0.146716 0.131524
O O5 0.995195 0.302604 0.383707
O O6 0.925233 0.464034 0.486624
O O7 0.110004 0.385840 0.606440
O O8 0.641725 0.870880 0.899858
O O9 0.660536 0.632187 0.892078
O O10 0.700077 0.914350 0.188951
O O11 0.731439 0.744393 0.145381
O O12 0.258522 0.968915 0.407509
O O13 0.370992 0.974961 0.151545
O O14 0.822749 0.574194 0.686960
O O15 0.978424 0.374108 0.088828
O O16 0.018771 0.200637 0.140547
#
# Coordination Sequence:
#
# PCOD9340248 Si02
#       8
#     4   4   4   4   4   4   4   4
#     4  11  23  42  65  94 142 193 226 286 360 432
#     4  12  26  41  69  95 138 196 241 297 360 428
#     4  10  19  40  69  96 134 174 229 290 362 420
#     4   9  18  37  71  96 128 175 220 286 348 421
#     4  11  24  44  67 101 135 181 239 304 358 425
#     4  11  24  44  63 102 140 185 237 299 352 436
#     4   9  20  40  64  95 139 172 226 281 341 433
#     4  11  26  42  68  97 140 180 248 309 351 419
#
# _framework density 23.651526
#
# number of rings (size 3 to 8) (size 9 to 14) (size 15 to 20)
#    0.000    1.500    1.250    4.500    5.250    0.000 
#    0.000    3.750   13.750    0.000    0.000    0.000 
#    0.000    0.000    0.000    0.000    0.000    0.000 
#
# Total GULP energy -178295.994542 kJ/mol
# GULP energy per Si atom -5571.749829 kJ/mol
# Density = 2.359769 g / cm^3
# Si number density = 23.651526 Si / 1000 Ang^3
#
#
#
# Elastic Constant Matrix: (Units=GPa)
#
#
# Indices 1 2 3 4 5 6 
#
# 1 82.1674 36.2205 36.1027 0.0000 0.0000 0.0000
# 2 36.2205 96.7108 39.9830 0.0000 0.0000 0.0000
# 3 36.1027 39.9830 139.0407 0.0000 0.0000 0.0000
# 4 0.0000 0.0000 0.0000 31.2171 0.0000 0.0000
# 5 0.0000 0.0000 0.0000 0.0000 24.1243 0.0000
# 6 0.0000 0.0000 0.0000 0.0000 0.0000 29.1777
#
#
#
# Elastic Compliance Matrix: (Units=1/GPa)
#
#
# Indices 1 2 3 4 5 6 
#
# 1 0.015395 -0.004668 -0.002655 0.000000 0.000000 0.000000
# 2 -0.004668 0.013151 -0.002570 0.000000 0.000000 0.000000
# 3 -0.002655 -0.002570 0.008620 0.000000 0.000000 0.000000
# 4 0.000000 0.000000 0.000000 0.032034 0.000000 0.000000
# 5 0.000000 0.000000 0.000000 0.000000 0.041452 0.000000
# 6 0.000000 0.000000 0.000000 0.000000 0.000000 0.034273
#
#
# Mechanical properties :
#
#
# Convention : Reuss Voigt Hill
#
# Bulk Modulus (GPa) = 57.53533 60.28129 58.90831
# Shear Modulus (GPa) = 29.32504 30.61133 29.96819
#
# Velocity S-wave (km/s) = 3.52501 3.60149 3.56346
# Velocity P-wave (km/s) = 6.39896 6.54499 6.47239
#
# Compressibility (1/GPa) = 0.01738063
#
# Stress axis : x y z
#
# Youngs Moduli (GPa) = 64.95818 76.04145 116.00347
#
# Poissons Ratio (x) = 0.35496 0.30798
# Poissons Ratio (y) = 0.30322 0.29808
# Poissons Ratio (z) = 0.17246 0.19540
#
# Static dielectric constant tensor:
#      x y z
#    x 1.889290 0.000000 0.000000 
#    y 0.000000 2.065310 0.000000 
#    z 0.000000 0.000000 1.971440 
# 
# From -- ./inp_files/1575.got.cif
#   From: 2010.05.17/outbox.cif.g08.bks.cpg/sg29_1_cif.got.tgz:1575.got - 2010.06.04 01:19:37.
