data_PCOD9340494
_publ_section_title
;
Structure prediction by ZEFSAII (Michael W. Deem and Ramdas Pophale) SiO2 
 PCOD9340494
Probable space group: P C A 21
;
_chemical_formula_sum "Si O2"
_cell_formula_units_Z 32
_cell_length_a 13.638381
_cell_length_b 5.206668
_cell_length_c 20.539936
_cell_angle_alpha 90.000000
_cell_angle_beta 90.000000
_cell_angle_gamma 90.000000
_cell_volume 1458.551576
_symmetry_space_group_name_H-M "P C A 21"
_symmetry_group_IT_number 29
_symmetry_cell_setting 'orthorhombic'
loop_
_space_group_symop_operation_xyz
x,y,z
-x,-y,1/2+z
1/2-x,y,1/2+z
1/2+x,-y,z
loop_
_atom_site_type_symbol
_atom_site_label
_atom_site_fract_x
_atom_site_fract_y
_atom_site_fract_z
Si Si1 0.218522 0.722354 0.231720
Si Si2 0.577580 0.769841 0.837102
Si Si3 0.149933 0.216717 0.701512
Si Si4 0.233172 0.911631 0.377389
Si Si5 0.550727 0.963359 0.443697
Si Si6 0.378897 0.575470 0.440499
Si Si7 0.945438 0.776986 0.546207
Si Si8 0.456307 0.732815 0.630392
O O1 0.280599 0.464378 0.214372
O O2 0.202338 0.765597 0.310002
O O3 0.116811 0.718906 0.192177
O O4 0.283338 0.963848 0.206392
O O5 0.572487 0.784681 0.761173
O O6 0.592381 0.488443 0.865784
O O7 0.677504 0.914206 0.854569
O O8 0.494587 0.892116 0.880976
O O9 0.072753 0.221463 0.642664
O O10 0.277477 0.721063 0.431960
O O11 0.156406 0.091901 0.415304
O O12 0.473106 0.742712 0.461621
O O13 0.543875 0.151551 0.505646
O O14 0.376124 0.328879 0.487490
O O15 0.951038 0.541483 0.595204
O O16 0.917337 0.031080 0.586005
#
# Coordination Sequence:
#
# PCOD9340494 Si02
#       8
#     4   4   4   4   4   4   4   4
#     4  11  24  45  70 105 134 173 232 280 345 418
#     4   9  20  37  65  97 135 167 207 285 345 393
#     4  11  23  45  68 100 136 172 226 282 339 405
#     4  10  21  40  68 106 132 166 227 283 350 408
#     4  10  21  41  66  98 130 180 218 275 338 413
#     4  10  20  43  66  94 141 170 215 288 341 396
#     4  11  24  46  65  93 137 179 235 267 330 408
#     4  12  25  47  68  95 137 189 226 284 328 401
#
# _framework density 21.939575000000001
#
# number of rings (size 3 to 8) (size 9 to 14) (size 15 to 20)
#    0.000    1.500    2.500    2.250    0.000    2.000 
#   13.500    1.250    0.000    0.000    0.000    0.000 
#    0.000    0.000    0.000    0.000    0.000    0.000 
#
# Total GULP energy -178308.123450 kJ/mol
# GULP energy per Si atom -5572.128858 kJ/mol
# Density = 2.188964 g / cm^3
# Si number density = 21.939575 Si / 1000 Ang^3
#
#
#
# Elastic Constant Matrix: (Units=GPa)
#
#
# Indices 1 2 3 4 5 6 
#
# 1 55.6607 13.0848 33.4871 0.0000 0.0000 0.0000
# 2 13.0848 108.1796 25.5283 0.0000 0.0000 0.0000
# 3 33.4871 25.5283 69.4312 0.0000 0.0000 0.0000
# 4 0.0000 0.0000 0.0000 36.7961 0.0000 0.0000
# 5 0.0000 0.0000 0.0000 0.0000 20.0027 0.0000
# 6 0.0000 0.0000 0.0000 0.0000 0.0000 -5.0200
#
#
#
# Elastic Compliance Matrix: (Units=1/GPa)
#
#
# Indices 1 2 3 4 5 6 
#
# 1 0.025314 -0.000198 -0.012136 0.000000 0.000000 0.000000
# 2 -0.000198 0.010124 -0.003627 0.000000 0.000000 0.000000
# 3 -0.012136 -0.003627 0.021590 0.000000 0.000000 0.000000
# 4 0.000000 0.000000 0.000000 0.027177 0.000000 0.000000
# 5 0.000000 0.000000 0.000000 0.000000 0.049993 0.000000
# 6 0.000000 0.000000 0.000000 0.000000 0.000000 -0.199205
#
#
# Mechanical properties :
#
#
# Convention : Reuss Voigt Hill
#
# Bulk Modulus (GPa) = 39.83222 41.94134 40.88678
# Shear Modulus (GPa) = -202.29254 21.10050 -90.59602
#
# Velocity S-wave (km/s) = -9.61273 3.10458 -6.43297
# Velocity P-wave (km/s) = 10.24750 5.65769 6.04160
#
# Compressibility (1/GPa) = 0.02510530
#
# Stress axis : x y z
#
# Youngs Moduli (GPa) = 39.50355 98.77828 46.31833
#
# Poissons Ratio (x) = 0.01955 0.56214
# Poissons Ratio (y) = 0.00782 0.16799
# Poissons Ratio (z) = 0.47943 0.35825
#
# Static dielectric constant tensor:
#      x y z
#    x 1.795540 0.000000 0.000000 
#    y 0.000000 1.846630 0.000000 
#    z 0.000000 0.000000 1.882070 
# 
# From -- ./inp_files/5543.got.cif
#   From: 2010.05.17/outbox.cif.g08.bks.cpg/sg29_3_cif.got.tgz:5543.got - 2010.06.04 01:19:37.
