data_PCOD9340416
_publ_section_title
;
Structure prediction by ZEFSAII (Michael W. Deem and Ramdas Pophale) SiO2 
 PCOD9340416
Probable space group: P C A 21
;
_chemical_formula_sum "Si O2"
_cell_formula_units_Z 28
_cell_length_a 8.634655
_cell_length_b 11.933936
_cell_length_c 12.104329
_cell_angle_alpha 90.000000
_cell_angle_beta 90.000000
_cell_angle_gamma 90.000000
_cell_volume 1247.295667
_symmetry_space_group_name_H-M "P C A 21"
_symmetry_group_IT_number 29
_symmetry_cell_setting 'orthorhombic'
loop_
_space_group_symop_operation_xyz
x,y,z
-x,-y,1/2+z
1/2-x,y,1/2+z
1/2+x,-y,z
loop_
_atom_site_type_symbol
_atom_site_label
_atom_site_fract_x
_atom_site_fract_y
_atom_site_fract_z
Si Si1 0.515234 0.854623 0.191550
Si Si2 0.846582 0.544760 0.336755
Si Si3 0.046827 0.394373 0.195073
Si Si4 0.597717 0.209612 0.918445
Si Si5 0.165150 0.920182 0.132972
Si Si6 0.883365 0.419760 0.547964
Si Si7 0.113000 0.716760 0.269376
O O1 0.542277 0.729714 0.147779
O O2 0.513837 0.834057 0.323212
O O3 0.343481 0.892846 0.157994
O O4 0.629486 0.951326 0.155780
O O5 0.709706 0.585085 0.256946
O O6 0.793304 0.496266 0.456344
O O7 0.925713 0.433816 0.286286
O O8 0.979143 0.641597 0.326400
O O9 0.013277 0.483774 0.100116
O O10 0.757527 0.248964 0.859082
O O11 0.629899 0.114492 0.008012
O O12 0.536839 0.317123 0.985130
O O13 0.068034 0.836031 0.213403
O O14 0.826032 0.354157 0.660303
#
# Coordination Sequence:
#
# PCOD9340416 Si02
#       7
#     4   4   4   4   4   4   4
#     4  11  25  48  67 108 136 181 245 299 337 433
#     4  11  23  40  66 101 143 186 224 292 359 423
#     4  11  26  41  66 105 145 178 237 290 348 438
#     4  10  21  45  71  96 138 188 227 288 363 416
#     4  10  25  44  75  91 140 187 238 293 358 404
#     4  10  20  39  66 101 136 182 218 286 352 426
#     4   9  22  39  67  98 136 182 235 282 347 430
#
# _framework density 22.448568000000002
#
# number of rings (size 3 to 8) (size 9 to 14) (size 15 to 20)
#    0.000    1.714    1.429    1.714   10.000    5.714 
#    0.000    0.000    0.000    0.000    0.000    0.000 
#    0.000    0.000    0.000    0.000    0.000    0.000 
#
# Total GULP energy -156072.150897 kJ/mol
# GULP energy per Si atom -5574.005389 kJ/mol
# Density = 2.239747 g / cm^3
# Si number density = 22.448568 Si / 1000 Ang^3
#
#
#
# Elastic Constant Matrix: (Units=GPa)
#
#
# Indices 1 2 3 4 5 6 
#
# 1 52.0600 35.6373 15.9133 0.0000 0.0000 0.0000
# 2 35.6373 162.2642 46.1680 0.0000 0.0000 0.0000
# 3 15.9133 46.1680 97.2286 0.0000 0.0000 0.0000
# 4 0.0000 0.0000 0.0000 38.9370 0.0000 0.0000
# 5 0.0000 0.0000 0.0000 0.0000 17.3583 0.0000
# 6 0.0000 0.0000 0.0000 0.0000 0.0000 8.6070
#
#
#
# Elastic Compliance Matrix: (Units=1/GPa)
#
#
# Indices 1 2 3 4 5 6 
#
# 1 0.022812 -0.004564 -0.001566 0.000000 0.000000 0.000000
# 2 -0.004564 0.008039 -0.003070 0.000000 0.000000 0.000000
# 3 -0.001566 -0.003070 0.011999 0.000000 0.000000 0.000000
# 4 0.000000 0.000000 0.000000 0.025683 0.000000 0.000000
# 5 0.000000 0.000000 0.000000 0.000000 0.057609 0.000000
# 6 0.000000 0.000000 0.000000 0.000000 0.000000 0.116184
#
#
# Mechanical properties :
#
#
# Convention : Reuss Voigt Hill
#
# Bulk Modulus (GPa) = 40.90249 56.33221 48.61735
# Shear Modulus (GPa) = 18.59589 27.23607 22.91598
#
# Velocity S-wave (km/s) = 2.88128 3.48697 3.19850
# Velocity P-wave (km/s) = 5.41564 6.43120 5.94514
#
# Compressibility (1/GPa) = 0.02444839
#
# Stress axis : x y z
#
# Youngs Moduli (GPa) = 43.83674 124.39727 83.33908
#
# Poissons Ratio (x) = 0.56780 0.13053
# Poissons Ratio (y) = 0.20009 0.25586
# Poissons Ratio (z) = 0.06866 0.38191
#
# Static dielectric constant tensor:
#      x y z
#    x 1.886640 0.000000 0.000000 
#    y 0.000000 1.848830 0.000000 
#    z 0.000000 0.000000 1.942430 
# 
# From -- ./inp_files/2871.got.cif
#   From: 2010.05.17/outbox.cif.g08.bks.cpg/sg29_2_cif.got.tgz:2871.got - 2010.06.04 01:19:37.
