data_PCOD9340094
_publ_section_title
;
Structure prediction by ZEFSAII (Michael W. Deem and Ramdas Pophale) SiO2 
 PCOD9340094
Probable space group: P C A 21
;
_chemical_formula_sum "Si O2"
_cell_formula_units_Z 32
_cell_length_a 13.900575
_cell_length_b 8.678076
_cell_length_c 13.314888
_cell_angle_alpha 90.000000
_cell_angle_beta 90.000000
_cell_angle_gamma 90.000000
_cell_volume 1606.178219
_symmetry_space_group_name_H-M "P C A 21"
_symmetry_group_IT_number 29
_symmetry_cell_setting 'orthorhombic'
loop_
_space_group_symop_operation_xyz
x,y,z
-x,-y,1/2+z
1/2-x,y,1/2+z
1/2+x,-y,z
loop_
_atom_site_type_symbol
_atom_site_label
_atom_site_fract_x
_atom_site_fract_y
_atom_site_fract_z
Si Si1 0.279823 0.817480 0.094560
Si Si2 0.614334 0.337256 0.770343
Si Si3 0.094354 0.723192 0.424229
Si Si4 0.903210 0.712663 0.725263
Si Si5 0.886103 0.747873 0.489834
Si Si6 0.829103 0.034943 0.776509
Si Si7 0.158867 0.921708 0.922490
Si Si8 0.236971 0.449612 0.378464
O O1 0.320488 0.690708 0.171381
O O2 0.233636 0.937416 0.175004
O O3 0.370913 0.832438 0.018029
O O4 0.194504 0.809922 0.012436
O O5 0.504875 0.369530 0.744344
O O6 0.672772 0.458016 0.834604
O O7 0.610169 0.181784 0.837768
O O8 0.116084 0.813730 0.319829
O O9 0.163457 0.573340 0.427255
O O10 0.983470 0.682367 0.439447
O O11 0.887173 0.714355 0.607160
O O12 0.821100 0.628993 0.788405
O O13 0.898517 0.891269 0.760269
O O14 0.893216 0.930747 0.467343
O O15 0.787081 0.676192 0.448827
O O16 0.751368 0.009004 0.864287
#
# Coordination Sequence:
#
# PCOD9340094 Si02
#       8
#     4   4   4   4   4   4   4   4
#     4  10  18  38  70  90 116 162 210 242 320 354
#     4  11  23  43  66  90 125 166 209 254 307 374
#     4  11  23  43  66  90 125 166 209 254 307 374
#     4  12  25  40  65  94 125 161 211 258 308 368
#     4  12  25  40  65  94 125 161 211 258 308 368
#     4  10  20  40  67  90 123 158 199 263 311 359
#     4  10  20  40  67  90 123 158 199 263 311 359
#     4  12  26  42  60  88 132 170 202 254 308 366
#
# _framework density 19.923068000000001
#
# number of rings (size 3 to 8) (size 9 to 14) (size 15 to 20)
#    0.000    1.000    7.500    1.500    1.750    0.000 
#    0.000    0.000    2.750    0.000    0.000    0.000 
#    0.000    0.000    0.000    0.000    0.000    0.000 
#
# Total GULP energy -178183.217827 kJ/mol
# GULP energy per Si atom -5568.225557 kJ/mol
# Density = 1.987772 g / cm^3
# Si number density = 19.923068 Si / 1000 Ang^3
#
#
#
# Elastic Constant Matrix: (Units=GPa)
#
#
# Indices 1 2 3 4 5 6 
#
# 1 86.7089 34.9455 51.2175 0.0000 0.0000 0.0000
# 2 34.9455 61.6133 28.1676 0.0000 0.0000 0.0000
# 3 51.2175 28.1676 100.3340 0.0000 0.0000 0.0000
# 4 0.0000 0.0000 0.0000 8.9206 0.0000 0.0000
# 5 0.0000 0.0000 0.0000 0.0000 30.0231 0.0000
# 6 0.0000 0.0000 0.0000 0.0000 0.0000 22.9090
#
#
#
# Elastic Compliance Matrix: (Units=1/GPa)
#
#
# Indices 1 2 3 4 5 6 
#
# 1 0.018980 -0.007268 -0.007648 0.000000 0.000000 0.000000
# 2 -0.007268 0.021404 -0.002299 0.000000 0.000000 0.000000
# 3 -0.007648 -0.002299 0.014516 0.000000 0.000000 0.000000
# 4 0.000000 0.000000 0.000000 0.112100 0.000000 0.000000
# 5 0.000000 0.000000 0.000000 0.000000 0.033308 0.000000
# 6 0.000000 0.000000 0.000000 0.000000 0.000000 0.043651
#
#
# Mechanical properties :
#
#
# Convention : Reuss Voigt Hill
#
# Bulk Modulus (GPa) = 48.85330 53.03526 50.94428
# Shear Modulus (GPa) = 17.53086 21.32558 19.42822
#
# Velocity S-wave (km/s) = 2.96958 3.27524 3.12615
# Velocity P-wave (km/s) = 6.02761 6.40162 6.21743
#
# Compressibility (1/GPa) = 0.02046945
#
# Stress axis : x y z
#
# Youngs Moduli (GPa) = 52.68776 46.72129 68.88905
#
# Poissons Ratio (x) = 0.33959 0.52687
# Poissons Ratio (y) = 0.38295 0.15834
# Poissons Ratio (z) = 0.40296 0.10739
#
# Static dielectric constant tensor:
#      x y z
#    x 1.713020 0.000000 0.000000 
#    y 0.000000 1.741000 0.000000 
#    z 0.000000 0.000000 1.702840 
# 
# From -- ./inp_files/3515.got.cif
#   From: 2010.05.17/outbox.cif.g08.bks.cpg/sg29_2_cif.got.tgz:3515.got - 2010.06.04 01:19:37.
