data_PCOD9340763
_publ_section_title
;
Structure prediction by ZEFSAII (Michael W. Deem and Ramdas Pophale) SiO2 
 PCOD9340763
Probable space group: P C A 21
;
_chemical_formula_sum "Si O2"
_cell_formula_units_Z 28
_cell_length_a 15.268430
_cell_length_b 13.407908
_cell_length_c 5.522925
_cell_angle_alpha 90.000000
_cell_angle_beta 90.000000
_cell_angle_gamma 90.000000
_cell_volume 1130.640529
_symmetry_space_group_name_H-M "P C A 21"
_symmetry_group_IT_number 29
_symmetry_cell_setting 'orthorhombic'
loop_
_space_group_symop_operation_xyz
x,y,z
-x,-y,1/2+z
1/2-x,y,1/2+z
1/2+x,-y,z
loop_
_atom_site_type_symbol
_atom_site_label
_atom_site_fract_x
_atom_site_fract_y
_atom_site_fract_z
Si Si1 0.293933 0.206224 0.653950
Si Si2 0.558988 0.895926 0.424536
Si Si3 0.729029 0.228954 0.166259
Si Si4 0.273876 0.432337 0.171735
Si Si5 0.885101 0.083735 0.176736
Si Si6 0.477419 0.445324 0.265855
Si Si7 0.040121 0.772595 0.287653
O O1 0.262434 0.172268 0.389457
O O2 0.390006 0.166262 0.719224
O O3 0.279670 0.326768 0.654604
O O4 0.540321 0.820430 0.644276
O O5 0.619093 0.987467 0.506427
O O6 0.462555 0.942168 0.366704
O O7 0.764535 0.281023 0.927058
O O8 0.788637 0.129822 0.217461
O O9 0.626877 0.211269 0.124404
O O10 0.239926 0.483713 0.414344
O O11 0.376791 0.418803 0.209094
O O12 0.933685 0.171542 0.030039
O O13 0.484889 0.509524 0.513607
O O14 0.525793 0.342881 0.323696
#
# Coordination Sequence:
#
# PCOD9340763 Si02
#       7
#     4   4   4   4   4   4   4
#     4  10  24  40  67 107 140 189 237 296 373 431
#     4  12  24  43  74 107 152 197 250 304 372 443
#     4  10  22  43  66 100 145 197 241 298 357 438
#     4  10  21  44  72 107 147 186 237 314 380 446
#     4  11  25  42  70 110 151 199 252 298 364 459
#     4  12  29  50  79 115 146 198 259 322 384 453
#     4  11  25  46  74 102 153 196 246 310 380 442
#
# _framework density 24.764724999999999
#
# number of rings (size 3 to 8) (size 9 to 14) (size 15 to 20)
#    0.000    1.143    2.857    2.571    8.000    2.286 
#    0.000    8.571    0.000    0.000    0.000    0.000 
#    0.000    0.000    0.000    0.000    0.000    0.000 
#
# Total GULP energy -156401.747596 kJ/mol
# GULP energy per Si atom -5585.776700 kJ/mol
# Density = 2.470836 g / cm^3
# Si number density = 24.764725 Si / 1000 Ang^3
#
#
#
# Elastic Constant Matrix: (Units=GPa)
#
#
# Indices 1 2 3 4 5 6 
#
# 1 69.5709 33.2360 8.0489 0.0000 0.0000 0.0000
# 2 33.2360 89.8037 -6.9116 0.0000 0.0000 0.0000
# 3 8.0489 -6.9116 128.4005 0.0000 0.0000 0.0000
# 4 0.0000 0.0000 0.0000 -22.0362 0.0000 0.0000
# 5 0.0000 0.0000 0.0000 0.0000 52.4046 0.0000
# 6 0.0000 0.0000 0.0000 0.0000 0.0000 -1.2591
#
#
#
# Elastic Compliance Matrix: (Units=1/GPa)
#
#
# Indices 1 2 3 4 5 6 
#
# 1 0.017733 -0.006676 -0.001471 0.000000 0.000000 0.000000
# 2 -0.006676 0.013695 0.001156 0.000000 0.000000 0.000000
# 3 -0.001471 0.001156 0.007943 0.000000 0.000000 0.000000
# 4 0.000000 0.000000 0.000000 -0.045380 0.000000 0.000000
# 5 0.000000 0.000000 0.000000 0.000000 0.019082 0.000000
# 6 0.000000 0.000000 0.000000 0.000000 0.000000 -0.794206
#
#
# Mechanical properties :
#
#
# Convention : Reuss Voigt Hill
#
# Bulk Modulus (GPa) = 39.38868 39.61355 39.50111
# Shear Modulus (GPa) = -6.59033 22.71531 8.06249
#
# Velocity S-wave (km/s) = -1.63308 3.03189 1.80629
# Velocity P-wave (km/s) = 3.51905 5.31857 4.50948
#
# Compressibility (1/GPa) = 0.02538800
#
# Stress axis : x y z
#
# Youngs Moduli (GPa) = 56.39047 73.01814 125.90409
#
# Poissons Ratio (x) = 0.48749 0.18521
# Poissons Ratio (y) = 0.37648 -0.14551
# Poissons Ratio (z) = 0.08295 -0.08439
#
# Static dielectric constant tensor:
#      x y z
#    x 2.060290 0.000000 0.000000 
#    y 0.000000 1.958660 0.000000 
#    z 0.000000 0.000000 2.061920 
# 
# From -- ./inp_files/231.got.cif
#   From: 2010.05.17/outbox.cif.g08.bks.cpg/sg29_1_cif.got.tgz:231.got - 2010.06.04 01:19:37.
