data_PCOD9340869
_publ_section_title
;
Structure prediction by ZEFSAII (Michael W. Deem and Ramdas Pophale) SiO2 
 PCOD9340869
Probable space group: P C A 21
;
_chemical_formula_sum "Si O2"
_cell_formula_units_Z 20
_cell_length_a 12.639338
_cell_length_b 8.008591
_cell_length_c 8.475557
_cell_angle_alpha 90.000000
_cell_angle_beta 90.000000
_cell_angle_gamma 90.000000
_cell_volume 857.923752
_symmetry_space_group_name_H-M "P C A 21"
_symmetry_group_IT_number 29
_symmetry_cell_setting 'orthorhombic'
loop_
_space_group_symop_operation_xyz
x,y,z
-x,-y,1/2+z
1/2-x,y,1/2+z
1/2+x,-y,z
loop_
_atom_site_type_symbol
_atom_site_label
_atom_site_fract_x
_atom_site_fract_y
_atom_site_fract_z
Si Si1 0.183628 0.345706 0.446260
Si Si2 0.134487 0.173291 0.752099
Si Si3 0.347424 0.603837 0.556352
Si Si4 0.031474 0.619579 0.458948
Si Si5 0.323647 0.786091 0.222849
O O1 0.126122 0.223144 0.568366
O O2 0.257576 0.245767 0.328174
O O3 0.259422 0.458943 0.555432
O O4 0.107362 0.485267 0.372359
O O5 0.040067 0.261787 0.849646
O O6 0.146486 0.975306 0.761997
O O7 0.456909 0.504515 0.559260
O O8 0.345063 0.678717 0.378482
O O9 0.297934 0.748503 0.667758
O O10 0.102579 0.726894 0.578166
#
# Coordination Sequence:
#
# PCOD9340869 Si02
#       5
#     4   4   4   4   4
#     4  10  22  42  66  92 129 175 216 262 323 394
#     4  11  24  43  67 100 132 169 218 279 331 375
#     4  10  22  42  66  92 129 175 216 262 323 394
#     4  10  22  40  64  96 130 174 220 258 322 404
#     4  11  24  43  67 100 132 169 218 279 331 375
#
# _framework density 23.312094999999999
#
# number of rings (size 3 to 8) (size 9 to 14) (size 15 to 20)
#    0.000    1.600    0.000    6.000    0.000   14.400 
#    0.000   10.000    0.000    0.000    0.000    0.000 
#    0.000    0.000    0.000    0.000    0.000    0.000 
#
# Total GULP energy -111781.320449 kJ/mol
# GULP energy per Si atom -5589.066022 kJ/mol
# Density = 2.325904 g / cm^3
# Si number density = 23.312095 Si / 1000 Ang^3
#
#
#
# Elastic Constant Matrix: (Units=GPa)
#
#
# Indices 1 2 3 4 5 6 
#
# 1 106.3476 51.0279 18.9032 0.0000 0.0000 0.0000
# 2 51.0279 133.6352 44.5266 0.0000 0.0000 0.0000
# 3 18.9032 44.5266 98.4831 0.0000 0.0000 0.0000
# 4 0.0000 0.0000 0.0000 35.3286 0.0000 0.0000
# 5 0.0000 0.0000 0.0000 0.0000 27.5541 0.0000
# 6 0.0000 0.0000 0.0000 0.0000 0.0000 32.7913
#
#
#
# Elastic Compliance Matrix: (Units=1/GPa)
#
#
# Indices 1 2 3 4 5 6 
#
# 1 0.011518 -0.004311 -0.000262 0.000000 0.000000 0.000000
# 2 -0.004311 0.010424 -0.003885 0.000000 0.000000 0.000000
# 3 -0.000262 -0.003885 0.011961 0.000000 0.000000 0.000000
# 4 0.000000 0.000000 0.000000 0.028306 0.000000 0.000000
# 5 0.000000 0.000000 0.000000 0.000000 0.036292 0.000000
# 6 0.000000 0.000000 0.000000 0.000000 0.000000 0.030496
#
#
# Mechanical properties :
#
#
# Convention : Reuss Voigt Hill
#
# Bulk Modulus (GPa) = 58.86954 63.04236 60.95595
# Shear Modulus (GPa) = 32.98696 34.06867 33.52782
#
# Velocity S-wave (km/s) = 3.76575 3.82699 3.79650
# Velocity P-wave (km/s) = 6.64947 6.82857 6.73961
#
# Compressibility (1/GPa) = 0.01698671
#
# Stress axis : x y z
#
# Youngs Moduli (GPa) = 86.81971 95.93479 83.60540
#
# Poissons Ratio (x) = 0.41357 0.02188
# Poissons Ratio (y) = 0.37427 0.32484
# Poissons Ratio (z) = 0.02273 0.37274
#
# Static dielectric constant tensor:
#      x y z
#    x 1.976470 0.000000 0.000000 
#    y 0.000000 1.816240 0.000000 
#    z 0.000000 0.000000 1.935370 
# 
# From -- ./inp_files/1641.got.cif
#   From: 2010.05.17/outbox.cif.g08.bks.cpg/sg29_1_cif.got.tgz:1641.got - 2010.06.04 01:19:37.
