data_PCOD9340746
_publ_section_title
;
Structure prediction by ZEFSAII (Michael W. Deem and Ramdas Pophale) SiO2 
 PCOD9340746
Probable space group: P C A 21
;
_chemical_formula_sum "Si O2"
_cell_formula_units_Z 20
_cell_length_a 7.423949
_cell_length_b 7.967462
_cell_length_c 14.272606
_cell_angle_alpha 90.000000
_cell_angle_beta 90.000000
_cell_angle_gamma 90.000000
_cell_volume 844.225095
_symmetry_space_group_name_H-M "P C A 21"
_symmetry_group_IT_number 29
_symmetry_cell_setting 'orthorhombic'
loop_
_space_group_symop_operation_xyz
x,y,z
-x,-y,1/2+z
1/2-x,y,1/2+z
1/2+x,-y,z
loop_
_atom_site_type_symbol
_atom_site_label
_atom_site_fract_x
_atom_site_fract_y
_atom_site_fract_z
Si Si1 0.736820 0.364404 0.869160
Si Si2 0.359641 0.245934 0.062516
Si Si3 0.891878 0.858240 0.852556
Si Si4 0.025127 0.399870 0.005828
Si Si5 0.485795 0.200182 0.260311
O O1 0.568363 0.254756 0.838031
O O2 0.651378 0.526831 0.920907
O O3 0.862444 0.301887 0.956147
O O4 0.880714 0.356221 0.784211
O O5 0.456126 0.167404 0.151016
O O6 0.372914 0.145504 0.965377
O O7 0.147853 0.288247 0.072348
O O8 0.450498 0.430458 0.051496
O O9 0.714351 0.787612 0.802747
O O10 0.925075 0.040742 0.810444
#
# Coordination Sequence:
#
# PCOD9340746 Si02
#       5
#     4   4   4   4   4
#     4  10  21  43  69  93 137 179 226 285 346 404
#     4  10  23  43  69 103 137 185 233 287 348 418
#     4  11  24  46  66  99 142 185 231 286 345 408
#     4   9  20  45  69  97 136 184 228 289 353 400
#     4  12  24  43  67 104 138 185 234 281 352 416
#
# _framework density 23.690362
#
# number of rings (size 3 to 8) (size 9 to 14) (size 15 to 20)
#    0.000    1.600    4.000    0.000    0.000    3.200 
#   10.800    0.000    0.000    0.000    0.000    0.000 
#    0.000    0.000    0.000    0.000    0.000    0.000 
#
# Total GULP energy -111595.719463 kJ/mol
# GULP energy per Si atom -5579.785973 kJ/mol
# Density = 2.363644 g / cm^3
# Si number density = 23.690362 Si / 1000 Ang^3
#
#
#
# Elastic Constant Matrix: (Units=GPa)
#
#
# Indices 1 2 3 4 5 6 
#
# 1 132.0722 2.0671 6.2132 0.0000 0.0000 0.0000
# 2 2.0671 41.0638 -5.4203 0.0000 0.0000 0.0000
# 3 6.2132 -5.4203 82.3712 0.0000 0.0000 0.0000
# 4 0.0000 0.0000 0.0000 23.0406 0.0000 0.0000
# 5 0.0000 0.0000 0.0000 0.0000 11.4459 0.0000
# 6 0.0000 0.0000 0.0000 0.0000 0.0000 21.2970
#
#
#
# Elastic Compliance Matrix: (Units=1/GPa)
#
#
# Indices 1 2 3 4 5 6 
#
# 1 0.007607 -0.000463 -0.000604 0.000000 0.000000 0.000000
# 2 -0.000463 0.024594 0.001653 0.000000 0.000000 0.000000
# 3 -0.000604 0.001653 0.012295 0.000000 0.000000 0.000000
# 4 0.000000 0.000000 0.000000 0.043402 0.000000 0.000000
# 5 0.000000 0.000000 0.000000 0.000000 0.087368 0.000000
# 6 0.000000 0.000000 0.000000 0.000000 0.000000 0.046955
#
#
# Mechanical properties :
#
#
# Convention : Reuss Voigt Hill
#
# Bulk Modulus (GPa) = 21.89703 29.02525 25.46114
# Shear Modulus (GPa) = 21.16221 27.99983 24.58102
#
# Velocity S-wave (km/s) = 2.99203 3.44162 3.22467
# Velocity P-wave (km/s) = 4.60428 5.29825 4.96341
#
# Compressibility (1/GPa) = 0.04566830
#
# Stress axis : x y z
#
# Youngs Moduli (GPa) = 131.45291 40.66052 81.33696
#
# Poissons Ratio (x) = 0.01881 0.04915
# Poissons Ratio (y) = 0.06082 -0.13447
# Poissons Ratio (z) = 0.07943 -0.06722
#
# Static dielectric constant tensor:
#      x y z
#    x 1.954810 0.000000 0.000000 
#    y 0.000000 1.990100 0.000000 
#    z 0.000000 0.000000 1.903700 
# 
# From -- ./inp_files/4183.got.cif
#   From: 2010.05.17/outbox.cif.g08.bks.cpg/sg29_3_cif.got.tgz:4183.got - 2010.06.04 01:19:37.
