data_PCOD9340022
_publ_section_title
;
Structure prediction by ZEFSAII (Michael W. Deem and Ramdas Pophale) SiO2 
 PCOD9340022
Probable space group: P C A 21
;
_chemical_formula_sum "Si O2"
_cell_formula_units_Z 28
_cell_length_a 15.487421
_cell_length_b 17.301698
_cell_length_c 5.173497
_cell_angle_alpha 90.000000
_cell_angle_beta 90.000000
_cell_angle_gamma 90.000000
_cell_volume 1386.283432
_symmetry_space_group_name_H-M "P C A 21"
_symmetry_group_IT_number 29
_symmetry_cell_setting 'orthorhombic'
loop_
_space_group_symop_operation_xyz
x,y,z
-x,-y,1/2+z
1/2-x,y,1/2+z
1/2+x,-y,z
loop_
_atom_site_type_symbol
_atom_site_label
_atom_site_fract_x
_atom_site_fract_y
_atom_site_fract_z
Si Si1 0.296741 0.709607 0.379050
Si Si2 0.193015 0.472695 0.001971
Si Si3 0.994218 0.820961 0.425391
Si Si4 0.443938 0.357298 0.418031
Si Si5 0.941553 0.983095 0.423962
Si Si6 0.888461 0.143821 0.425816
Si Si7 0.451968 0.601756 0.424284
O O1 0.228151 0.683787 0.592805
O O2 0.306158 0.801531 0.399024
O O3 0.388257 0.674624 0.454225
O O4 0.262897 0.485793 0.777605
O O5 0.151955 0.387595 0.974480
O O6 0.112033 0.529863 0.959852
O O7 0.955646 0.735188 0.415535
O O8 0.049191 0.832735 0.687182
O O9 0.924910 0.891459 0.414365
O O10 0.060245 0.835141 0.188171
O O11 0.504293 0.391495 0.645569
O O12 0.476713 0.391720 0.146283
O O13 0.871728 0.051810 0.417163
O O14 0.996157 0.998737 0.682712
#
# Coordination Sequence:
#
# PCOD9340022 Si02
#       7
#     4   4   4   4   4   4   4
#     4  12  22  33  52  79 117 156 187 233 296 347
#     4  12  26  44  61  86 120 154 189 237 298 357
#     4  10  17  33  54  85 105 141 187 245 275 319
#     4  12  22  39  66  88 114 148 199 246 288 335
#     4   8  16  27  50  74 106 140 177 228 278 319
#     4  10  18  33  49  77 116 145 190 229 277 337
#     4  12  23  41  60  87 114 152 199 240 286 350
#
# _framework density 20.197892
#
# number of rings (size 3 to 8) (size 9 to 14) (size 15 to 20)
#    0.000    1.143    2.857    5.143    0.000    0.000 
#    0.000    0.000    0.000    1.714    0.000    0.000 
#    0.000    0.000    0.000    0.000    0.000    0.000 
#
# Total GULP energy -156359.252440 kJ/mol
# GULP energy per Si atom -5584.259016 kJ/mol
# Density = 2.015192 g / cm^3
# Si number density = 20.197892 Si / 1000 Ang^3
#
#
#
# Elastic Constant Matrix: (Units=GPa)
#
#
# Indices 1 2 3 4 5 6 
#
# 1 14.9063 14.4804 -5.5306 0.0000 0.0000 0.0000
# 2 14.4804 110.8102 6.1325 0.0000 0.0000 0.0000
# 3 -5.5306 6.1325 88.7182 0.0000 0.0000 0.0000
# 4 0.0000 0.0000 0.0000 19.1256 0.0000 0.0000
# 5 0.0000 0.0000 0.0000 0.0000 22.1639 0.0000
# 6 0.0000 0.0000 0.0000 0.0000 0.0000 21.6302
#
#
#
# Elastic Compliance Matrix: (Units=1/GPa)
#
#
# Indices 1 2 3 4 5 6 
#
# 1 0.079615 -0.010720 0.005704 0.000000 0.000000 0.000000
# 2 -0.010720 0.010502 -0.001394 0.000000 0.000000 0.000000
# 3 0.005704 -0.001394 0.011724 0.000000 0.000000 0.000000
# 4 0.000000 0.000000 0.000000 0.052286 0.000000 0.000000
# 5 0.000000 0.000000 0.000000 0.000000 0.045118 0.000000
# 6 0.000000 0.000000 0.000000 0.000000 0.000000 0.046232
#
#
# Mechanical properties :
#
#
# Convention : Reuss Voigt Hill
#
# Bulk Modulus (GPa) = 11.23317 27.17770 19.20544
# Shear Modulus (GPa) = 17.36287 25.87411 21.61849
#
# Velocity S-wave (km/s) = 2.93514 3.58303 3.27515
# Velocity P-wave (km/s) = 4.13042 5.53194 4.88174
#
# Compressibility (1/GPa) = 0.08902205
#
# Stress axis : x y z
#
# Youngs Moduli (GPa) = 12.56038 95.21618 85.29794
#
# Poissons Ratio (x) = 1.02068 -0.48655
# Poissons Ratio (y) = 0.13464 0.11892
# Poissons Ratio (z) = -0.07165 0.13275
#
# Static dielectric constant tensor:
#      x y z
#    x 1.667540 0.000000 0.000000 
#    y 0.000000 1.824380 0.000000 
#    z 0.000000 0.000000 1.702100 
# 
# From -- ./inp_files/256.got.cif
#   From: 2010.05.17/outbox.cif.g08.bks.cpg/sg29_1_cif.got.tgz:256.got - 2010.06.04 01:19:37.
