data_PCOD9340634
_publ_section_title
;
Structure prediction by ZEFSAII (Michael W. Deem and Ramdas Pophale) SiO2 
 PCOD9340634
Probable space group: P C A 21
;
_chemical_formula_sum "Si O2"
_cell_formula_units_Z 24
_cell_length_a 13.584924
_cell_length_b 14.075629
_cell_length_c 5.224895
_cell_angle_alpha 90.000000
_cell_angle_beta 90.000000
_cell_angle_gamma 90.000000
_cell_volume 999.085352
_symmetry_space_group_name_H-M "P C A 21"
_symmetry_group_IT_number 29
_symmetry_cell_setting 'orthorhombic'
loop_
_space_group_symop_operation_xyz
x,y,z
-x,-y,1/2+z
1/2-x,y,1/2+z
1/2+x,-y,z
loop_
_atom_site_type_symbol
_atom_site_label
_atom_site_fract_x
_atom_site_fract_y
_atom_site_fract_z
Si Si1 0.998759 0.559822 0.805250
Si Si2 0.193192 0.190260 0.751035
Si Si3 0.280578 0.399816 0.763944
Si Si4 0.052297 0.037364 0.663636
Si Si5 0.198063 0.883242 0.812375
Si Si6 0.316636 0.685165 0.169073
O O1 0.094113 0.615651 0.716958
O O2 0.990356 0.474845 0.597217
O O3 0.896393 0.617849 0.778185
O O4 0.266805 0.158317 0.525694
O O5 0.211266 0.305179 0.755289
O O6 0.085897 0.147275 0.690423
O O7 0.253900 0.455657 0.510856
O O8 0.150979 0.981119 0.733116
O O9 0.019715 0.002628 0.383984
O O10 0.290859 0.876705 0.617509
O O11 0.139372 0.791558 0.713387
O O12 0.233852 0.677881 0.391876
#
# Coordination Sequence:
#
# PCOD9340634 Si02
#       6
#     4   4   4   4   4   4
#     4  12  26  42  66  99 130 166 221 276 330 403
#     4  10  21  40  63  88 126 171 212 259 321 389
#     4  10  23  42  65  95 132 174 214 268 331 396
#     4  12  24  37  60  94 126 163 211 267 318 376
#     4  10  21  40  61  83 117 161 205 249 306 374
#     4  10  23  43  67  91 125 169 211 267 330 388
#
# _framework density 24.021974
#
# number of rings (size 3 to 8) (size 9 to 14) (size 15 to 20)
#    0.000    1.333    0.000    5.000    0.000    9.333 
#    0.000    0.000    0.000    0.000    0.000    0.000 
#    0.000    0.000    0.000    0.000    0.000    0.000 
#
# Total GULP energy -134012.955121 kJ/mol
# GULP energy per Si atom -5583.873130 kJ/mol
# Density = 2.396730 g / cm^3
# Si number density = 24.021974 Si / 1000 Ang^3
#
#
#
# Elastic Constant Matrix: (Units=GPa)
#
#
# Indices 1 2 3 4 5 6 
#
# 1 62.6162 12.8368 17.9858 0.0000 0.0000 0.0000
# 2 12.8368 67.6230 -6.2119 0.0000 0.0000 0.0000
# 3 17.9858 -6.2119 131.7092 0.0000 0.0000 0.0000
# 4 0.0000 0.0000 0.0000 18.3145 0.0000 0.0000
# 5 0.0000 0.0000 0.0000 0.0000 31.9041 0.0000
# 6 0.0000 0.0000 0.0000 0.0000 0.0000 37.1413
#
#
#
# Elastic Compliance Matrix: (Units=1/GPa)
#
#
# Indices 1 2 3 4 5 6 
#
# 1 0.017428 -0.003542 -0.002547 0.000000 0.000000 0.000000
# 2 -0.003542 0.015572 0.001218 0.000000 0.000000 0.000000
# 3 -0.002547 0.001218 0.007998 0.000000 0.000000 0.000000
# 4 0.000000 0.000000 0.000000 0.054602 0.000000 0.000000
# 5 0.000000 0.000000 0.000000 0.000000 0.031344 0.000000
# 6 0.000000 0.000000 0.000000 0.000000 0.000000 0.026924
#
#
# Mechanical properties :
#
#
# Convention : Reuss Voigt Hill
#
# Bulk Modulus (GPa) = 31.99414 34.57445 33.28429
# Shear Modulus (GPa) = 28.73088 33.29448 31.01268
#
# Velocity S-wave (km/s) = 3.46211 3.72694 3.59696
# Velocity P-wave (km/s) = 5.41565 5.73971 5.58003
#
# Compressibility (1/GPa) = 0.03125573
#
# Stress axis : x y z
#
# Youngs Moduli (GPa) = 57.37855 64.21700 125.03520
#
# Poissons Ratio (x) = 0.22748 0.31847
# Poissons Ratio (y) = 0.20325 -0.15231
# Poissons Ratio (z) = 0.14614 -0.07823
#
# Static dielectric constant tensor:
#      x y z
#    x 1.917860 0.000000 0.000000 
#    y 0.000000 1.998420 0.000000 
#    z 0.000000 0.000000 2.009440 
# 
# From -- ./inp_files/78.got.cif
#   From: 2010.05.17/outbox.cif.g08.bks.cpg/sg29_1_cif.got.tgz:78.got - 2010.06.04 01:19:37.
