data_PCOD9340699
_publ_section_title
;
Structure prediction by ZEFSAII (Michael W. Deem and Ramdas Pophale) SiO2 
 PCOD9340699
Probable space group: P C A 21
;
_chemical_formula_sum "Si O2"
_cell_formula_units_Z 32
_cell_length_a 10.633427
_cell_length_b 11.373524
_cell_length_c 11.774625
_cell_angle_alpha 90.000000
_cell_angle_beta 90.000000
_cell_angle_gamma 90.000000
_cell_volume 1424.017698
_symmetry_space_group_name_H-M "P C A 21"
_symmetry_group_IT_number 29
_symmetry_cell_setting 'orthorhombic'
loop_
_space_group_symop_operation_xyz
x,y,z
-x,-y,1/2+z
1/2-x,y,1/2+z
1/2+x,-y,z
loop_
_atom_site_type_symbol
_atom_site_label
_atom_site_fract_x
_atom_site_fract_y
_atom_site_fract_z
Si Si1 0.992642 0.332216 0.904270
Si Si2 0.636896 0.780764 0.528193
Si Si3 0.524357 0.603822 0.362847
Si Si4 0.280970 0.763063 0.341502
Si Si5 0.335997 0.974313 0.913824
Si Si6 0.392106 0.897663 0.162423
Si Si7 0.604254 0.728232 0.146681
Si Si8 0.037790 0.131801 0.744053
O O1 0.848181 0.297979 0.876599
O O2 0.007181 0.467814 0.873817
O O3 0.070697 0.239846 0.826763
O O4 0.030501 0.314264 0.034410
O O5 0.607082 0.661170 0.462561
O O6 0.757644 0.761937 0.607495
O O7 0.525779 0.816904 0.616412
O O8 0.667154 0.887319 0.440169
O O9 0.396371 0.679128 0.366233
O O10 0.594409 0.631960 0.244823
O O11 0.286910 0.890191 0.404420
O O12 0.294511 0.801576 0.209206
O O13 0.421682 0.932095 0.808421
O O14 0.395560 0.923631 0.029971
O O15 0.526963 0.841225 0.191221
O O16 0.368290 0.023255 0.221736
#
# Coordination Sequence:
#
# PCOD9340699 Si02
#       8
#     4   4   4   4   4   4   4   4
#     4  11  26  48  71 101 146 199 246 304 369 450
#     4  11  27  42  77 109 151 195 243 308 380 447
#     4  11  28  48  70 109 145 197 255 301 366 458
#     4  10  23  43  71  99 138 189 238 305 365 430
#     4  10  21  42  70 105 145 183 234 304 367 449
#     4  10  21  41  68 104 139 181 237 298 371 439
#     4  11  25  47  71 102 150 191 243 310 379 435
#     4  10  23  43  70 107 142 189 238 298 375 444
#
# _framework density 22.471630999999999
#
# number of rings (size 3 to 8) (size 9 to 14) (size 15 to 20)
#    0.000    1.500    2.500    1.500    7.000    9.000 
#    2.250    0.000    0.000    0.000    0.000    0.000 
#    0.000    0.000    0.000    0.000    0.000    0.000 
#
# Total GULP energy -178544.697004 kJ/mol
# GULP energy per Si atom -5579.521781 kJ/mol
# Density = 2.242048 g / cm^3
# Si number density = 22.471631 Si / 1000 Ang^3
#
#
#
# Elastic Constant Matrix: (Units=GPa)
#
#
# Indices 1 2 3 4 5 6 
#
# 1 74.4100 18.6723 37.2665 0.0000 0.0000 0.0000
# 2 18.6723 150.3524 60.1323 0.0000 0.0000 0.0000
# 3 37.2665 60.1323 112.9521 0.0000 0.0000 0.0000
# 4 0.0000 0.0000 0.0000 33.3640 0.0000 0.0000
# 5 0.0000 0.0000 0.0000 0.0000 37.7129 0.0000
# 6 0.0000 0.0000 0.0000 0.0000 0.0000 23.0245
#
#
#
# Elastic Compliance Matrix: (Units=1/GPa)
#
#
# Indices 1 2 3 4 5 6 
#
# 1 0.016102 0.000159 -0.005397 0.000000 0.000000 0.000000
# 2 0.000159 0.008452 -0.004552 0.000000 0.000000 0.000000
# 3 -0.005397 -0.004552 0.013057 0.000000 0.000000 0.000000
# 4 0.000000 0.000000 0.000000 0.029972 0.000000 0.000000
# 5 0.000000 0.000000 0.000000 0.000000 0.026516 0.000000
# 6 0.000000 0.000000 0.000000 0.000000 0.000000 0.043432
#
#
# Mechanical properties :
#
#
# Convention : Reuss Voigt Hill
#
# Bulk Modulus (GPa) = 55.46051 63.31740 59.38895
# Shear Modulus (GPa) = 30.65177 33.59651 32.12414
#
# Velocity S-wave (km/s) = 3.69727 3.87080 3.78503
# Velocity P-wave (km/s) = 6.55441 6.94372 6.75187
#
# Compressibility (1/GPa) = 0.01803085
#
# Stress axis : x y z
#
# Youngs Moduli (GPa) = 62.10309 118.31780 76.58540
#
# Poissons Ratio (x) = -0.01879 0.41335
# Poissons Ratio (y) = -0.00986 0.34861
# Poissons Ratio (z) = 0.33518 0.53857
#
# Static dielectric constant tensor:
#      x y z
#    x 1.906100 0.000000 0.000000 
#    y 0.000000 1.835400 0.000000 
#    z 0.000000 0.000000 1.874720 
# 
# From -- ./inp_files/3228.got.cif
#   From: 2010.05.17/outbox.cif.g08.bks.cpg/sg29_2_cif.got.tgz:3228.got - 2010.06.04 01:19:37.
