data_PCOD9340892
_publ_section_title
;
Structure prediction by ZEFSAII (Michael W. Deem and Ramdas Pophale) SiO2 
 PCOD9340892
Probable space group: P C A 21
;
_chemical_formula_sum "Si O2"
_cell_formula_units_Z 28
_cell_length_a 14.435997
_cell_length_b 6.634024
_cell_length_c 12.744547
_cell_angle_alpha 90.000000
_cell_angle_beta 90.000000
_cell_angle_gamma 90.000000
_cell_volume 1220.529343
_symmetry_space_group_name_H-M "P C A 21"
_symmetry_group_IT_number 29
_symmetry_cell_setting 'orthorhombic'
loop_
_space_group_symop_operation_xyz
x,y,z
-x,-y,1/2+z
1/2-x,y,1/2+z
1/2+x,-y,z
loop_
_atom_site_type_symbol
_atom_site_label
_atom_site_fract_x
_atom_site_fract_y
_atom_site_fract_z
Si Si1 0.557348 0.589767 0.038460
Si Si2 0.873856 0.963518 0.433896
Si Si3 0.213706 0.762103 0.347700
Si Si4 0.324506 0.386002 0.739857
Si Si5 0.383281 0.854334 0.052552
Si Si6 0.045433 0.220417 0.425895
Si Si7 0.795190 0.034081 0.658879
O O1 0.620301 0.530935 0.137825
O O2 0.478814 0.746529 0.080650
O O3 0.613874 0.724362 0.952377
O O4 0.507855 0.401489 0.984362
O O5 0.854130 0.036578 0.553406
O O6 0.790617 0.069673 0.372330
O O7 0.967056 0.061321 0.390013
O O8 0.239355 0.548943 0.297598
O O9 0.157070 0.732012 0.453176
O O10 0.153369 0.863674 0.255959
O O11 0.394515 0.306655 0.830247
O O12 0.274062 0.194123 0.691232
O O13 0.302246 0.857346 0.137102
O O14 0.396525 0.082055 0.007933
#
# Coordination Sequence:
#
# PCOD9340892 Si02
#       7
#     4   4   4   4   4   4   4
#     4  10  22  42  63  95 126 173 212 268 320 392
#     4   9  23  40  61  89 129 166 213 261 324 379
#     4  11  21  41  64  93 126 172 209 268 320 387
#     4  11  23  39  67  95 128 165 217 263 325 380
#     4  10  22  41  65  90 131 172 212 265 330 382
#     4  11  21  42  63  94 128 164 212 269 320 391
#     4  10  22  41  61  90 126 170 215 264 315 389
#
# _framework density 22.940867000000001
#
# number of rings (size 3 to 8) (size 9 to 14) (size 15 to 20)
#    0.000    1.714    2.857    0.857    2.000    2.286 
#    5.143    0.000    0.000    0.000    0.000    0.000 
#    0.000    0.000    0.000    0.000    0.000    0.000 
#
# Total GULP energy -156270.240845 kJ/mol
# GULP energy per Si atom -5581.080030 kJ/mol
# Density = 2.288865 g / cm^3
# Si number density = 22.940867 Si / 1000 Ang^3
#
#
#
# Elastic Constant Matrix: (Units=GPa)
#
#
# Indices 1 2 3 4 5 6 
#
# 1 59.6027 15.9713 18.2919 0.0000 0.0000 0.0000
# 2 15.9713 96.1512 40.2692 0.0000 0.0000 0.0000
# 3 18.2919 40.2692 90.9560 0.0000 0.0000 0.0000
# 4 0.0000 0.0000 0.0000 34.3078 0.0000 0.0000
# 5 0.0000 0.0000 0.0000 0.0000 8.6241 0.0000
# 6 0.0000 0.0000 0.0000 0.0000 0.0000 35.4153
#
#
#
# Elastic Compliance Matrix: (Units=1/GPa)
#
#
# Indices 1 2 3 4 5 6 
#
# 1 0.018138 -0.001823 -0.002840 0.000000 0.000000 0.000000
# 2 -0.001823 0.012951 -0.005367 0.000000 0.000000 0.000000
# 3 -0.002840 -0.005367 0.013942 0.000000 0.000000 0.000000
# 4 0.000000 0.000000 0.000000 0.029148 0.000000 0.000000
# 5 0.000000 0.000000 0.000000 0.000000 0.115954 0.000000
# 6 0.000000 0.000000 0.000000 0.000000 0.000000 0.028236
#
#
# Mechanical properties :
#
#
# Convention : Reuss Voigt Hill
#
# Bulk Modulus (GPa) = 40.04956 43.97499 42.01228
# Shear Modulus (GPa) = 20.26310 27.14795 23.70552
#
# Velocity S-wave (km/s) = 2.97522 3.44377 3.21803
# Velocity P-wave (km/s) = 5.41278 5.91804 5.67104
#
# Compressibility (1/GPa) = 0.02496906
#
# Stress axis : x y z
#
# Youngs Moduli (GPa) = 55.13274 77.21433 71.72683
#
# Poissons Ratio (x) = 0.14078 0.20374
# Poissons Ratio (y) = 0.10052 0.38497
# Poissons Ratio (z) = 0.15660 0.41442
#
# Static dielectric constant tensor:
#      x y z
#    x 1.869950 0.000000 0.000000 
#    y 0.000000 1.906140 0.000000 
#    z 0.000000 0.000000 1.855010 
# 
# From -- ./inp_files/3588.got.cif
#   From: 2010.05.17/outbox.cif.g08.bks.cpg/sg29_2_cif.got.tgz:3588.got - 2010.06.04 01:19:37.
