data_PCOD9340573
_publ_section_title
;
Structure prediction by ZEFSAII (Michael W. Deem and Ramdas Pophale) SiO2 
 PCOD9340573
Probable space group: P C A 21
;
_chemical_formula_sum "Si O2"
_cell_formula_units_Z 28
_cell_length_a 14.768059
_cell_length_b 15.803254
_cell_length_c 5.282294
_cell_angle_alpha 90.000000
_cell_angle_beta 90.000000
_cell_angle_gamma 90.000000
_cell_volume 1232.799667
_symmetry_space_group_name_H-M "P C A 21"
_symmetry_group_IT_number 29
_symmetry_cell_setting 'orthorhombic'
loop_
_space_group_symop_operation_xyz
x,y,z
-x,-y,1/2+z
1/2-x,y,1/2+z
1/2+x,-y,z
loop_
_atom_site_type_symbol
_atom_site_label
_atom_site_fract_x
_atom_site_fract_y
_atom_site_fract_z
Si Si1 0.944339 0.999512 0.490180
Si Si2 0.418562 0.417730 0.893837
Si Si3 0.344925 0.251587 0.019600
Si Si4 0.858758 0.819965 0.521846
Si Si5 0.292242 0.903689 0.742679
Si Si6 0.537972 0.396036 0.393799
Si Si7 0.793679 0.296944 0.799617
O O1 0.879827 0.917150 0.472400
O O2 0.887278 0.074883 0.615548
O O3 0.017075 0.980950 0.712996
O O4 0.338965 0.349800 0.941499
O O5 0.469061 0.398897 0.629156
O O6 0.401212 0.517731 0.905121
O O7 0.485926 0.400478 0.128033
O O8 0.247367 0.206065 0.045440
O O9 0.397998 0.206672 0.792224
O O10 0.392576 0.235107 0.286246
O O11 0.223215 0.938139 0.526323
O O12 0.281617 0.803620 0.774695
O O13 0.606465 0.318656 0.393535
O O14 0.773104 0.330856 0.518632
#
# Coordination Sequence:
#
# PCOD9340573 Si02
#       7
#     4   4   4   4   4   4   4
#     4  12  26  42  64  98 130 169 222 272 330 391
#     4  10  21  38  61  92 127 170 210 254 334 388
#     4  10  21  40  61  92 122 173 214 259 321 396
#     4  10  23  39  61  88 132 163 217 266 324 384
#     4  10  23  41  67  88 122 165 211 266 325 384
#     4  10  21  38  62  91 130 166 207 270 319 381
#     4  10  21  40  60  91 115 160 211 257 315 368
#
# _framework density 22.712530000000001
#
# number of rings (size 3 to 8) (size 9 to 14) (size 15 to 20)
#    0.000    1.714    0.000    3.429    4.000    3.429 
#    5.143    0.000    0.000    0.000    0.000    0.000 
#    0.000    0.000    0.000    0.000    0.000    0.000 
#
# Total GULP energy -156222.964334 kJ/mol
# GULP energy per Si atom -5579.391583 kJ/mol
# Density = 2.266084 g / cm^3
# Si number density = 22.712530 Si / 1000 Ang^3
#
#
#
# Elastic Constant Matrix: (Units=GPa)
#
#
# Indices 1 2 3 4 5 6 
#
# 1 50.0886 9.1419 15.6684 0.0000 0.0000 0.0000
# 2 9.1419 29.4586 17.1292 0.0000 0.0000 0.0000
# 3 15.6684 17.1292 147.6871 0.0000 0.0000 0.0000
# 4 0.0000 0.0000 0.0000 20.4824 0.0000 0.0000
# 5 0.0000 0.0000 0.0000 0.0000 18.9071 0.0000
# 6 0.0000 0.0000 0.0000 0.0000 0.0000 43.0897
#
#
#
# Elastic Compliance Matrix: (Units=1/GPa)
#
#
# Indices 1 2 3 4 5 6 
#
# 1 0.021518 -0.005737 -0.001617 0.000000 0.000000 0.000000
# 2 -0.005737 0.037930 -0.003791 0.000000 0.000000 0.000000
# 3 -0.001617 -0.003791 0.007382 0.000000 0.000000 0.000000
# 4 0.000000 0.000000 0.000000 0.048822 0.000000 0.000000
# 5 0.000000 0.000000 0.000000 0.000000 0.052890 0.000000
# 6 0.000000 0.000000 0.000000 0.000000 0.000000 0.023207
#
#
# Mechanical properties :
#
#
# Convention : Reuss Voigt Hill
#
# Bulk Modulus (GPa) = 22.45167 34.56814 28.50990
# Shear Modulus (GPa) = 21.84481 28.84884 25.34683
#
# Velocity S-wave (km/s) = 3.10465 3.56781 3.34426
# Velocity P-wave (km/s) = 4.77057 5.67673 5.24327
#
# Compressibility (1/GPa) = 0.04454012
#
# Stress axis : x y z
#
# Youngs Moduli (GPa) = 46.47344 26.36404 135.45883
#
# Poissons Ratio (x) = 0.15125 0.21910
# Poissons Ratio (y) = 0.26662 0.51347
# Poissons Ratio (z) = 0.07517 0.09994
#
# Static dielectric constant tensor:
#      x y z
#    x 1.774230 0.000000 0.000000 
#    y 0.000000 1.863040 0.000000 
#    z 0.000000 0.000000 1.913920 
# 
# From -- ./inp_files/248.got.cif
#   From: 2010.05.17/outbox.cif.g08.bks.cpg/sg29_1_cif.got.tgz:248.got - 2010.06.04 01:19:37.
