data_PCOD9340346
_publ_section_title
;
Structure prediction by ZEFSAII (Michael W. Deem and Ramdas Pophale) SiO2 
 PCOD9340346
Probable space group: P C A 21
;
_chemical_formula_sum "Si O2"
_cell_formula_units_Z 32
_cell_length_a 8.338893
_cell_length_b 21.438339
_cell_length_c 7.739491
_cell_angle_alpha 90.000000
_cell_angle_beta 90.000000
_cell_angle_gamma 90.000000
_cell_volume 1383.604401
_symmetry_space_group_name_H-M "P C A 21"
_symmetry_group_IT_number 29
_symmetry_cell_setting 'orthorhombic'
loop_
_space_group_symop_operation_xyz
x,y,z
-x,-y,1/2+z
1/2-x,y,1/2+z
1/2+x,-y,z
loop_
_atom_site_type_symbol
_atom_site_label
_atom_site_fract_x
_atom_site_fract_y
_atom_site_fract_z
Si Si1 0.491668 0.693079 0.970210
Si Si2 0.178723 0.815341 0.568650
Si Si3 0.503952 0.439721 0.404256
Si Si4 0.166850 0.307367 0.341356
Si Si5 0.493827 0.182616 0.934294
Si Si6 0.838161 0.562825 0.031399
Si Si7 0.324471 0.059293 0.824892
Si Si8 0.008175 0.938379 0.459146
O O1 0.373884 0.751367 0.974974
O O2 0.408907 0.626289 0.937172
O O3 0.639746 0.697176 0.836186
O O4 0.583445 0.692829 0.154881
O O5 0.369729 0.819970 0.578072
O O6 0.094589 0.815591 0.754995
O O7 0.110826 0.875716 0.470412
O O8 0.354474 0.440416 0.537378
O O9 0.606735 0.500989 0.431589
O O10 0.422428 0.438662 0.216484
O O11 0.124408 0.372157 0.435729
O O12 0.107186 0.245765 0.439857
O O13 0.384477 0.121708 0.921261
O O14 0.132838 0.062463 0.817812
O O15 0.412082 0.056882 0.640140
O O16 0.378716 0.997011 0.923813
#
# Coordination Sequence:
#
# PCOD9340346 Si02
#       8
#     4   4   4   4   4   4   4   4
#     4  10  20  37  58  83 112 147 189 235 284 341
#     4  10  23  39  58  84 116 150 190 235 285 340
#     4  11  22  38  59  85 115 151 191 236 286 342
#     4  10  20  37  58  83 112 147 189 235 284 341
#     4  10  23  39  58  84 116 150 190 235 285 340
#     4  11  22  38  59  85 115 151 191 236 286 342
#     4  11  23  40  61  88 118 154 194 238 287 341
#     4  11  23  40  61  88 118 154 194 238 287 341
#
# _framework density 23.127998000000002
#
# number of rings (size 3 to 8) (size 9 to 14) (size 15 to 20)
#    0.000    1.500    0.000    6.750    0.000    7.000 
#    0.000    2.500    0.000    0.000    0.000    0.000 
#    0.000    0.000    0.000    0.000    0.000    0.000 
#
# Total GULP energy -179178.828970 kJ/mol
# GULP energy per Si atom -5599.338405 kJ/mol
# Density = 2.307536 g / cm^3
# Si number density = 23.127998 Si / 1000 Ang^3
#
#
#
# Elastic Constant Matrix: (Units=GPa)
#
#
# Indices 1 2 3 4 5 6 
#
# 1 39.6651 31.8516 -13.2972 0.0000 0.0000 0.0000
# 2 31.8516 178.4479 23.8031 0.0000 0.0000 0.0000
# 3 -13.2972 23.8031 61.3982 0.0000 0.0000 0.0000
# 4 0.0000 0.0000 0.0000 30.3770 0.0000 0.0000
# 5 0.0000 0.0000 0.0000 0.0000 -2.1483 0.0000
# 6 0.0000 0.0000 0.0000 0.0000 0.0000 44.3831
#
#
#
# Elastic Compliance Matrix: (Units=1/GPa)
#
#
# Indices 1 2 3 4 5 6 
#
# 1 0.034853 -0.007622 0.010503 0.000000 0.000000 0.000000
# 2 -0.007622 0.007576 -0.004588 0.000000 0.000000 0.000000
# 3 0.010503 -0.004588 0.020340 0.000000 0.000000 0.000000
# 4 0.000000 0.000000 0.000000 0.032920 0.000000 0.000000
# 5 0.000000 0.000000 0.000000 0.000000 -0.465476 0.000000
# 6 0.000000 0.000000 0.000000 0.000000 0.000000 0.022531
#
#
# Mechanical properties :
#
#
# Convention : Reuss Voigt Hill
#
# Bulk Modulus (GPa) = 16.84757 40.46959 28.65858
# Shear Modulus (GPa) = -15.42938 30.33259 7.45161
#
# Velocity S-wave (km/s) = -2.58569 3.62541 1.79691
# Velocity P-wave (km/s) = 1.27046 5.92122 4.08942
#
# Compressibility (1/GPa) = 0.05935575
#
# Stress axis : x y z
#
# Youngs Moduli (GPa) = 28.69225 131.99024 49.16310
#
# Poissons Ratio (x) = 1.00602 -0.51636
# Poissons Ratio (y) = 0.21869 0.22556
# Poissons Ratio (z) = -0.30136 0.60556
#
# Static dielectric constant tensor:
#      x y z
#    x 1.850930 0.000000 0.000000 
#    y 0.000000 1.837990 0.000000 
#    z 0.000000 0.000000 1.926700 
# 
# From -- ./inp_files/1254.got.cif
#   From: 2010.05.17/outbox.cif.g08.bks.cpg/sg29_1_cif.got.tgz:1254.got - 2010.06.04 01:19:37.
