data_PCOD9340012
_publ_section_title
;
Structure prediction by ZEFSAII (Michael W. Deem and Ramdas Pophale) SiO2 
 PCOD9340012
Probable space group: P C A 21
;
_chemical_formula_sum "Si O2"
_cell_formula_units_Z 32
_cell_length_a 12.433239
_cell_length_b 17.278242
_cell_length_c 5.585049
_cell_angle_alpha 90.000000
_cell_angle_beta 90.000000
_cell_angle_gamma 90.000000
_cell_volume 1199.805428
_symmetry_space_group_name_H-M "P C A 21"
_symmetry_group_IT_number 29
_symmetry_cell_setting 'orthorhombic'
loop_
_space_group_symop_operation_xyz
x,y,z
-x,-y,1/2+z
1/2-x,y,1/2+z
1/2+x,-y,z
loop_
_atom_site_type_symbol
_atom_site_label
_atom_site_fract_x
_atom_site_fract_y
_atom_site_fract_z
Si Si1 0.823073 0.765759 0.017860
Si Si2 0.681667 0.520884 0.053594
Si Si3 0.112930 0.086754 0.740530
Si Si4 0.094542 0.321214 0.919325
Si Si5 0.502291 0.188880 0.638034
Si Si6 0.303399 0.798577 0.681747
Si Si7 0.682867 0.351479 0.017360
Si Si8 0.903357 0.066501 0.464545
O O1 0.803709 0.848158 0.155168
O O2 0.893093 0.696767 0.140330
O O3 0.708946 0.723257 0.983030
O O4 0.906948 0.799177 0.828087
O O5 0.759695 0.526784 0.815022
O O6 0.602848 0.592749 0.013903
O O7 0.629277 0.435501 0.042064
O O8 0.026992 0.052495 0.547367
O O9 0.152090 0.011488 0.880270
O O10 0.040883 0.138380 0.917916
O O11 0.995070 0.275746 0.034326
O O12 0.588177 0.134311 0.767012
O O13 0.281349 0.787771 0.962232
O O14 0.378400 0.728471 0.578733
O O15 0.341368 0.886703 0.666178
O O16 0.733579 0.350946 0.748251
#
# Coordination Sequence:
#
# PCOD9340012 Si02
#       8
#     4   4   4   4   4   4   4   4
#     4  10  19  32  50  77 115 147 183 236 281 340
#     4  10  17  27  51  83 118 153 184 232 286 348
#     4  10  22  37  56  77 107 151 192 240 282 356
#     4  11  18  31  51  84 120 147 190 227 286 340
#     4  10  21  36  54  77 108 154 191 234 284 352
#     4  10  23  42  64  92 118 148 199 258 303 343
#     4   8  16  32  53  83 116 145 186 237 293 345
#     4  11  22  41  61  79 112 151 205 238 301 356
#
# _framework density 26.67099
#
# number of rings (size 3 to 8) (size 9 to 14) (size 15 to 20)
#    0.000    2.000    3.750    0.000    1.750    0.000 
#    4.500    0.000    0.000    0.000    9.750    0.000 
#    0.000    0.000    0.000    0.000    0.000    0.000 
#
# Total GULP energy -178284.866023 kJ/mol
# GULP energy per Si atom -5571.402063 kJ/mol
# Density = 2.661029 g / cm^3
# Si number density = 26.670990 Si / 1000 Ang^3
#
#
#
# Elastic Constant Matrix: (Units=GPa)
#
#
# Indices 1 2 3 4 5 6 
#
# 1 41.5178 -0.5700 5.0928 0.0000 0.0000 0.0000
# 2 -0.5700 190.9728 10.4458 0.0000 0.0000 0.0000
# 3 5.0928 10.4458 88.8524 0.0000 0.0000 0.0000
# 4 0.0000 0.0000 0.0000 32.2132 0.0000 0.0000
# 5 0.0000 0.0000 0.0000 0.0000 43.2637 0.0000
# 6 0.0000 0.0000 0.0000 0.0000 0.0000 20.4652
#
#
#
# Elastic Compliance Matrix: (Units=1/GPa)
#
#
# Indices 1 2 3 4 5 6 
#
# 1 0.024261 0.000149 -0.001408 0.000000 0.000000 0.000000
# 2 0.000149 0.005271 -0.000628 0.000000 0.000000 0.000000
# 3 -0.001408 -0.000628 0.011409 0.000000 0.000000 0.000000
# 4 0.000000 0.000000 0.000000 0.031043 0.000000 0.000000
# 5 0.000000 0.000000 0.000000 0.000000 0.023114 0.000000
# 6 0.000000 0.000000 0.000000 0.000000 0.000000 0.048863
#
#
# Mechanical properties :
#
#
# Convention : Reuss Voigt Hill
#
# Bulk Modulus (GPa) = 26.90541 39.03114 32.96827
# Shear Modulus (GPa) = 31.22562 39.61338 35.41950
#
# Velocity S-wave (km/s) = 3.42537 3.85809 3.64815
# Velocity P-wave (km/s) = 5.07484 5.87474 5.48938
#
# Compressibility (1/GPa) = 0.03716725
#
# Stress axis : x y z
#
# Youngs Moduli (GPa) = 41.21869 189.71166 87.64867
#
# Poissons Ratio (x) = -0.02835 0.12342
# Poissons Ratio (y) = -0.00616 0.05507
# Poissons Ratio (z) = 0.05804 0.11919
#
# Static dielectric constant tensor:
#      x y z
#    x 2.141050 0.000000 0.000000 
#    y 0.000000 2.096600 0.000000 
#    z 0.000000 0.000000 2.582110 
# 
# From -- ./inp_files/448.got.cif
#   From: 2010.05.17/outbox.cif.g08.bks.cpg/sg29_1_cif.got.tgz:448.got - 2010.06.04 01:19:37.
