data_PCOD9340272
_publ_section_title
;
Structure prediction by ZEFSAII (Michael W. Deem and Ramdas Pophale) SiO2 
 PCOD9340272
Probable space group: P C A 21
;
_chemical_formula_sum "Si O2"
_cell_formula_units_Z 24
_cell_length_a 15.819737
_cell_length_b 9.484531
_cell_length_c 8.161737
_cell_angle_alpha 90.000000
_cell_angle_beta 90.000000
_cell_angle_gamma 90.000000
_cell_volume 1224.609758
_symmetry_space_group_name_H-M "P C A 21"
_symmetry_group_IT_number 29
_symmetry_cell_setting 'orthorhombic'
loop_
_space_group_symop_operation_xyz
x,y,z
-x,-y,1/2+z
1/2-x,y,1/2+z
1/2+x,-y,z
loop_
_atom_site_type_symbol
_atom_site_label
_atom_site_fract_x
_atom_site_fract_y
_atom_site_fract_z
Si Si1 0.042857 0.647991 0.625000
Si Si2 0.035713 0.095530 0.294042
Si Si3 0.532796 0.664295 0.760007
Si Si4 0.872612 0.155712 0.668726
Si Si5 0.204179 0.824135 0.530580
Si Si6 0.385854 0.076593 0.156890
O O1 0.997998 0.655413 0.447346
O O2 0.136418 0.717339 0.611629
O O3 0.985636 0.747355 0.740370
O O4 0.046707 0.489667 0.688490
O O5 0.072890 0.084247 0.475012
O O6 0.095871 0.006433 0.170950
O O7 0.948131 0.010104 0.276261
O O8 0.454779 0.744699 0.670058
O O9 0.613314 0.766650 0.729574
O O10 0.803262 0.205288 0.539958
O O11 0.827114 0.171135 0.844686
O O12 0.193180 0.975674 0.622183
#
# Coordination Sequence:
#
# PCOD9340272 Si02
#       6
#     4   4   4   4   4   4
#     4  10  20  34  52  76 102 133 170 208 250 301
#     4   9  17  31  50  73  98 127 164 204 241 290
#     4  10  20  34  52  76 102 133 170 208 250 301
#     4   9  19  33  51  75 101 128 165 208 251 297
#     4   9  19  33  51  75 101 128 165 208 251 297
#     4   9  17  31  50  73  98 127 164 204 241 290
#
# _framework density 19.598078000000001
#
# number of rings (size 3 to 8) (size 9 to 14) (size 15 to 20)
#    0.000    2.667    0.000    4.000    0.000    8.000 
#    0.000    1.667    0.000    0.000    0.000    0.000 
#    0.000    0.000    0.000    0.000    0.000    0.000 
#
# Total GULP energy -133769.982194 kJ/mol
# GULP energy per Si atom -5573.749258 kJ/mol
# Density = 1.955347 g / cm^3
# Si number density = 19.598078 Si / 1000 Ang^3
#
#
#
# Elastic Constant Matrix: (Units=GPa)
#
#
# Indices 1 2 3 4 5 6 
#
# 1 35.4481 3.7022 7.4289 0.0000 0.0000 0.0000
# 2 3.7022 133.8968 20.9904 0.0000 0.0000 0.0000
# 3 7.4289 20.9904 44.1043 0.0000 0.0000 0.0000
# 4 0.0000 0.0000 0.0000 24.0115 0.0000 0.0000
# 5 0.0000 0.0000 0.0000 0.0000 31.1814 0.0000
# 6 0.0000 0.0000 0.0000 0.0000 0.0000 16.9968
#
#
#
# Elastic Compliance Matrix: (Units=1/GPa)
#
#
# Indices 1 2 3 4 5 6 
#
# 1 0.029243 -0.000039 -0.004907 0.000000 0.000000 0.000000
# 2 -0.000039 0.008071 -0.003834 0.000000 0.000000 0.000000
# 3 -0.004907 -0.003834 0.025325 0.000000 0.000000 0.000000
# 4 0.000000 0.000000 0.000000 0.041647 0.000000 0.000000
# 5 0.000000 0.000000 0.000000 0.000000 0.032070 0.000000
# 6 0.000000 0.000000 0.000000 0.000000 0.000000 0.058835
#
#
# Mechanical properties :
#
#
# Convention : Reuss Voigt Hill
#
# Bulk Modulus (GPa) = 22.18428 30.85470 26.51949
# Shear Modulus (GPa) = 21.95129 26.52644 24.23887
#
# Velocity S-wave (km/s) = 3.35038 3.68302 3.52063
# Velocity P-wave (km/s) = 5.12942 5.81928 5.48521
#
# Compressibility (1/GPa) = 0.04507696
#
# Stress axis : x y z
#
# Youngs Moduli (GPa) = 34.19659 123.90606 39.48674
#
# Poissons Ratio (x) = 0.00487 0.19376
# Poissons Ratio (y) = 0.00134 0.15141
# Poissons Ratio (z) = 0.16780 0.47511
#
# Static dielectric constant tensor:
#      x y z
#    x 1.732180 0.000000 0.000000 
#    y 0.000000 1.690070 0.000000 
#    z 0.000000 0.000000 1.717470 
# 
# From -- ./inp_files/1672.got.cif
#   From: 2010.05.17/outbox.cif.g08.bks.cpg/sg29_1_cif.got.tgz:1672.got - 2010.06.04 01:19:37.
