data_PCOD9340111
_publ_section_title
;
Structure prediction by ZEFSAII (Michael W. Deem and Ramdas Pophale) SiO2 
 PCOD9340111
Probable space group: P C A 21
;
_chemical_formula_sum "Si O2"
_cell_formula_units_Z 32
_cell_length_a 14.291993
_cell_length_b 8.711159
_cell_length_c 11.218277
_cell_angle_alpha 90.000000
_cell_angle_beta 90.000000
_cell_angle_gamma 90.000000
_cell_volume 1396.673506
_symmetry_space_group_name_H-M "P C A 21"
_symmetry_group_IT_number 29
_symmetry_cell_setting 'orthorhombic'
loop_
_space_group_symop_operation_xyz
x,y,z
-x,-y,1/2+z
1/2-x,y,1/2+z
1/2+x,-y,z
loop_
_atom_site_type_symbol
_atom_site_label
_atom_site_fract_x
_atom_site_fract_y
_atom_site_fract_z
Si Si1 0.385777 0.561047 0.701900
Si Si2 0.635168 0.938680 0.445962
Si Si3 0.848361 0.087059 0.701896
Si Si4 0.364839 0.061320 0.457831
Si Si5 0.862330 0.969476 0.201897
Si Si6 0.600875 0.580344 0.446574
Si Si7 0.100874 0.419655 0.957228
Si Si8 0.387681 0.398032 0.201901
O O1 0.357139 0.475193 0.822286
O O2 0.357140 0.475176 0.581521
O O3 0.499571 0.578220 0.701902
O O4 0.347460 0.731508 0.701892
O O5 0.608564 0.027515 0.325804
O O6 0.750003 0.929904 0.451897
O O7 0.602166 0.016012 0.570403
O O8 0.597948 0.764832 0.441558
O O9 0.891440 0.027510 0.577992
O O10 0.744282 0.021975 0.701897
O O11 0.397837 0.983985 0.333390
O O12 0.402060 0.235167 0.462235
O O13 0.867751 0.784121 0.201899
O O14 0.499998 0.500007 0.451902
O O15 0.646491 0.539406 0.574606
O O16 0.146493 0.460591 0.829197
#
# Coordination Sequence:
#
# PCOD9340111 Si02
#       8
#     4   4   4   4   4   4   4   4
#     4  10  19  31  50  79 106 124 158 214 255 284
#     4   9  17  32  54  72  93 133 173 199 239 304
#     4  10  19  31  50  75 101 131 164 201 245 294
#     4   9  17  32  54  72  93 133 173 199 239 304
#     4   8  16  33  53  69  91 130 170 198 229 290
#     4   9  17  32  53  75  99 128 164 209 251 291
#     4   9  17  32  53  75  99 128 164 209 251 291
#     4   8  16  33  55  75  96 131 170 199 241 304
#
# _framework density 22.911581999999999
#
# number of rings (size 3 to 8) (size 9 to 14) (size 15 to 20)
#    0.000    3.000    0.000    0.750    0.000    0.000 
#    0.000   16.250    0.000    0.000    0.000    0.000 
#    0.000    0.000    0.000    0.000    0.000    0.000 
#
# Total GULP energy -178466.131562 kJ/mol
# GULP energy per Si atom -5577.066611 kJ/mol
# Density = 2.285943 g / cm^3
# Si number density = 22.911582 Si / 1000 Ang^3
#
#
#
# Elastic Constant Matrix: (Units=GPa)
#
#
# Indices 1 2 3 4 5 6 
#
# 1 45.6082 -65.8782 -16.9002 0.0000 0.0000 0.0000
# 2 -65.8782 -41.6135 44.9327 0.0000 0.0000 0.0000
# 3 -16.9002 44.9327 318.2433 0.0000 0.0000 0.0000
# 4 0.0000 0.0000 0.0000 135.2976 0.0000 0.0000
# 5 0.0000 0.0000 0.0000 0.0000 -18.7269 0.0000
# 6 0.0000 0.0000 0.0000 0.0000 0.0000 108.5440
#
#
#
# Elastic Compliance Matrix: (Units=1/GPa)
#
#
# Indices 1 2 3 4 5 6 
#
# 1 0.007766 -0.010281 0.001864 0.000000 0.000000 0.000000
# 2 -0.010281 -0.007240 0.000476 0.000000 0.000000 0.000000
# 3 0.001864 0.000476 0.003174 0.000000 0.000000 0.000000
# 4 0.000000 0.000000 0.000000 0.007391 0.000000 0.000000
# 5 0.000000 0.000000 0.000000 0.000000 -0.053399 0.000000
# 6 0.000000 0.000000 0.000000 0.000000 0.000000 0.009213
#
#
# Mechanical properties :
#
#
# Convention : Reuss Voigt Hill
#
# Bulk Modulus (GPa) = -82.08544 27.39407 -27.34569
# Shear Modulus (GPa) = -235.02821 69.02853 -82.99984
#
# Velocity S-wave (km/s) = -10.13919 5.49487 -6.02535
# Velocity P-wave (km/s) = 13.15203 7.22776 7.76966
#
# Compressibility (1/GPa) = -0.01218243
#
# Stress axis : x y z
#
# Youngs Moduli (GPa) = 128.76938 -138.12045 315.06001
#
# Poissons Ratio (x) = -1.42007 -0.58728
# Poissons Ratio (y) = 1.32392 -0.15004
# Poissons Ratio (z) = -0.24003 0.06578
#
# Static dielectric constant tensor:
#      x y z
#    x 1.857560 0.000000 0.000000 
#    y 0.000000 1.741650 0.000000 
#    z 0.000000 0.000000 1.956720 
# 
# From -- ./inp_files/3683.got.cif
#   From: 2010.05.17/outbox.cif.g08.bks.cpg/sg29_2_cif.got.tgz:3683.got - 2010.06.04 01:19:37.
