data_PCOD9340913
_publ_section_title
;
Structure prediction by ZEFSAII (Michael W. Deem and Ramdas Pophale) SiO2 
 PCOD9340913
Probable space group: P C A 21
;
_chemical_formula_sum "Si O2"
_cell_formula_units_Z 32
_cell_length_a 13.292179
_cell_length_b 4.980926
_cell_length_c 19.269873
_cell_angle_alpha 90.000000
_cell_angle_beta 90.000000
_cell_angle_gamma 90.000000
_cell_volume 1275.807418
_symmetry_space_group_name_H-M "P C A 21"
_symmetry_group_IT_number 29
_symmetry_cell_setting 'orthorhombic'
loop_
_space_group_symop_operation_xyz
x,y,z
-x,-y,1/2+z
1/2-x,y,1/2+z
1/2+x,-y,z
loop_
_atom_site_type_symbol
_atom_site_label
_atom_site_fract_x
_atom_site_fract_y
_atom_site_fract_z
Si Si1 0.343543 0.997735 0.234000
Si Si2 0.143741 0.866683 0.148418
Si Si3 0.828346 0.631925 0.562109
Si Si4 0.220017 0.847259 0.885714
Si Si5 0.521554 0.503368 0.728147
Si Si6 0.544539 0.946111 0.958314
Si Si7 0.416270 0.572207 0.871880
Si Si8 0.139090 0.181505 0.491112
O O1 0.243292 0.907807 0.194206
O O2 0.316341 0.981683 0.315310
O O3 0.432025 0.789237 0.212452
O O4 0.381962 0.299769 0.224229
O O5 0.166317 0.677069 0.082252
O O6 0.060936 0.686295 0.187745
O O7 0.125996 0.168065 0.120279
O O8 0.885907 0.720790 0.492753
O O9 0.711423 0.705928 0.549572
O O10 0.296887 0.618952 0.860208
O O11 0.118101 0.822895 0.929704
O O12 0.291649 0.009353 0.938865
O O13 0.470331 0.462786 0.803980
O O14 0.481490 0.832644 0.893120
O O15 0.458841 0.019896 0.014367
O O16 0.411601 0.403369 0.942333
#
# Coordination Sequence:
#
# PCOD9340913 Si02
#       8
#     4   4   4   4   4   4   4   4
#     4  12  26  46  75 103 144 188 240 294 367 425
#     4  12  28  52  69 105 147 195 248 301 349 439
#     4  11  28  47  74  98 147 195 242 292 362 426
#     4  10  22  41  68 105 143 179 225 299 370 427
#     4  12  27  46  75 110 139 191 238 302 363 433
#     4  10  23  44  68 106 136 185 231 302 358 433
#     4  11  23  41  73 105 143 178 241 302 372 436
#     4  10  25  41  72 104 143 187 239 294 367 439
#
# _framework density 25.082153000000002
#
# number of rings (size 3 to 8) (size 9 to 14) (size 15 to 20)
#    0.000    1.000    2.500    2.250   10.500    5.000 
#    0.000    0.000    0.000    0.000    0.000    0.000 
#    0.000    0.000    0.000    0.000    0.000    0.000 
#
# Total GULP energy -178742.224146 kJ/mol
# GULP energy per Si atom -5585.694505 kJ/mol
# Density = 2.502506 g / cm^3
# Si number density = 25.082153 Si / 1000 Ang^3
#
#
#
# Elastic Constant Matrix: (Units=GPa)
#
#
# Indices 1 2 3 4 5 6 
#
# 1 114.0434 2.0080 8.3614 0.0000 0.0000 0.0000
# 2 2.0080 85.5040 -6.4873 0.0000 0.0000 0.0000
# 3 8.3614 -6.4873 56.1504 0.0000 0.0000 0.0000
# 4 0.0000 0.0000 0.0000 24.0545 0.0000 0.0000
# 5 0.0000 0.0000 0.0000 0.0000 30.2132 0.0000
# 6 0.0000 0.0000 0.0000 0.0000 0.0000 21.8201
#
#
#
# Elastic Compliance Matrix: (Units=1/GPa)
#
#
# Indices 1 2 3 4 5 6 
#
# 1 0.008874 -0.000311 -0.001357 0.000000 0.000000 0.000000
# 2 -0.000311 0.011810 0.001411 0.000000 0.000000 0.000000
# 3 -0.001357 0.001411 0.018174 0.000000 0.000000 0.000000
# 4 0.000000 0.000000 0.000000 0.041572 0.000000 0.000000
# 5 0.000000 0.000000 0.000000 0.000000 0.033098 0.000000
# 6 0.000000 0.000000 0.000000 0.000000 0.000000 0.045829
#
#
# Mechanical properties :
#
#
# Convention : Reuss Voigt Hill
#
# Bulk Modulus (GPa) = 26.08113 29.27355 27.67734
# Shear Modulus (GPa) = 28.95966 32.00527 30.48247
#
# Velocity S-wave (km/s) = 3.40162 3.57601 3.48990
# Velocity P-wave (km/s) = 5.08418 5.36161 5.22474
#
# Compressibility (1/GPa) = 0.03834189
#
# Stress axis : x y z
#
# Youngs Moduli (GPa) = 112.69392 84.67608 55.02231
#
# Poissons Ratio (x) = 0.02637 0.07468
# Poissons Ratio (y) = 0.03509 -0.07763
# Poissons Ratio (z) = 0.15296 -0.11946
#
# Static dielectric constant tensor:
#      x y z
#    x 2.029180 0.000000 0.000000 
#    y 0.000000 2.068560 0.000000 
#    z 0.000000 0.000000 1.986680 
# 
# From -- ./inp_files/5566.got.cif
#   From: 2010.05.17/outbox.cif.g08.bks.cpg/sg29_3_cif.got.tgz:5566.got - 2010.06.04 01:19:37.
