data_PCOD9340377
_publ_section_title
;
Structure prediction by ZEFSAII (Michael W. Deem and Ramdas Pophale) SiO2 
 PCOD9340377
Probable space group: P C A 21
;
_chemical_formula_sum "Si O2"
_cell_formula_units_Z 24
_cell_length_a 16.405451
_cell_length_b 8.465884
_cell_length_c 8.854990
_cell_angle_alpha 90.000000
_cell_angle_beta 90.000000
_cell_angle_gamma 90.000000
_cell_volume 1229.839854
_symmetry_space_group_name_H-M "P C A 21"
_symmetry_group_IT_number 29
_symmetry_cell_setting 'orthorhombic'
loop_
_space_group_symop_operation_xyz
x,y,z
-x,-y,1/2+z
1/2-x,y,1/2+z
1/2+x,-y,z
loop_
_atom_site_type_symbol
_atom_site_label
_atom_site_fract_x
_atom_site_fract_y
_atom_site_fract_z
Si Si1 0.508587 0.654510 0.554840
Si Si2 0.658938 0.332364 0.888100
Si Si3 0.257037 0.384150 0.787706
Si Si4 0.591589 0.393883 0.354805
Si Si5 0.805704 0.180948 0.062742
Si Si6 0.674133 0.815818 0.534659
O O1 0.432185 0.684950 0.446253
O O2 0.552301 0.498271 0.488581
O O3 0.473282 0.637014 0.723247
O O4 0.577633 0.787730 0.545401
O O5 0.688198 0.514218 0.874450
O O6 0.671842 0.258796 0.722431
O O7 0.719221 0.246336 0.005054
O O8 0.334170 0.503210 0.782243
O O9 0.216019 0.318752 0.637711
O O10 0.291081 0.230041 0.871805
O O11 0.631113 0.241387 0.434187
O O12 0.804810 0.993312 0.076483
#
# Coordination Sequence:
#
# PCOD9340377 Si02
#       6
#     4   4   4   4   4   4
#     4  11  22  37  61  88 117 152 203 253 293 342
#     4  11  21  40  63  86 115 160 204 243 288 355
#     4  10  20  38  61  82 112 156 202 234 284 358
#     4  10  21  38  60  87 117 158 202 246 291 351
#     4  11  23  39  60  86 122 158 193 239 304 362
#     4  11  23  38  59  89 119 152 192 247 302 352
#
# _framework density 19.514735999999999
#
# number of rings (size 3 to 8) (size 9 to 14) (size 15 to 20)
#    0.000    1.333    0.000    9.000    0.000    1.333 
#    0.000    5.000    0.000    0.000    0.000    0.000 
#    0.000    0.000    0.000    0.000    0.000    0.000 
#
# Total GULP energy -134094.567237 kJ/mol
# GULP energy per Si atom -5587.273635 kJ/mol
# Density = 1.947032 g / cm^3
# Si number density = 19.514736 Si / 1000 Ang^3
#
#
#
# Elastic Constant Matrix: (Units=GPa)
#
#
# Indices 1 2 3 4 5 6 
#
# 1 69.6617 7.9362 26.3372 0.0000 0.0000 0.0000
# 2 7.9362 81.2892 18.4170 0.0000 0.0000 0.0000
# 3 26.3372 18.4170 70.2922 0.0000 0.0000 0.0000
# 4 0.0000 0.0000 0.0000 17.1939 0.0000 0.0000
# 5 0.0000 0.0000 0.0000 0.0000 42.8679 0.0000
# 6 0.0000 0.0000 0.0000 0.0000 0.0000 14.2533
#
#
#
# Elastic Compliance Matrix: (Units=1/GPa)
#
#
# Indices 1 2 3 4 5 6 
#
# 1 0.016728 -0.000227 -0.006208 0.000000 0.000000 0.000000
# 2 -0.000227 0.013081 -0.003342 0.000000 0.000000 0.000000
# 3 -0.006208 -0.003342 0.017428 0.000000 0.000000 0.000000
# 4 0.000000 0.000000 0.000000 0.058160 0.000000 0.000000
# 5 0.000000 0.000000 0.000000 0.000000 0.023327 0.000000
# 6 0.000000 0.000000 0.000000 0.000000 0.000000 0.070159
#
#
# Mechanical properties :
#
#
# Convention : Reuss Voigt Hill
#
# Bulk Modulus (GPa) = 36.12362 36.29156 36.20759
# Shear Modulus (GPa) = 21.96194 26.09987 24.03090
#
# Velocity S-wave (km/s) = 3.35834 3.66108 3.51297
# Velocity P-wave (km/s) = 5.79561 6.04224 5.92021
#
# Compressibility (1/GPa) = 0.02768272
#
# Stress axis : x y z
#
# Youngs Moduli (GPa) = 59.77959 76.44591 57.37823
#
# Poissons Ratio (x) = 0.01732 0.35622
# Poissons Ratio (y) = 0.01355 0.19178
# Poissons Ratio (z) = 0.37113 0.25552
#
# Static dielectric constant tensor:
#      x y z
#    x 1.674180 0.000000 0.000000 
#    y 0.000000 1.637620 0.000000 
#    z 0.000000 0.000000 1.721150 
# 
# From -- ./inp_files/1671.got.cif
#   From: 2010.05.17/outbox.cif.g08.bks.cpg/sg29_1_cif.got.tgz:1671.got - 2010.06.04 01:19:37.
