data_PCOD9340660
_publ_section_title
;
Structure prediction by ZEFSAII (Michael W. Deem and Ramdas Pophale) SiO2 
 PCOD9340660
Probable space group: P C A 21
;
_chemical_formula_sum "Si O2"
_cell_formula_units_Z 28
_cell_length_a 17.875697
_cell_length_b 8.480004
_cell_length_c 7.353733
_cell_angle_alpha 90.000000
_cell_angle_beta 90.000000
_cell_angle_gamma 90.000000
_cell_volume 1114.722839
_symmetry_space_group_name_H-M "P C A 21"
_symmetry_group_IT_number 29
_symmetry_cell_setting 'orthorhombic'
loop_
_space_group_symop_operation_xyz
x,y,z
-x,-y,1/2+z
1/2-x,y,1/2+z
1/2+x,-y,z
loop_
_atom_site_type_symbol
_atom_site_label
_atom_site_fract_x
_atom_site_fract_y
_atom_site_fract_z
Si Si1 0.295247 0.516118 0.757230
Si Si2 0.173341 0.718808 0.605823
Si Si3 0.809505 0.042502 0.600100
Si Si4 0.572312 0.311931 0.124988
Si Si5 0.017102 0.829512 0.509597
Si Si6 0.546349 0.812472 0.392953
Si Si7 0.704331 0.823696 0.411160
O O1 0.212686 0.584059 0.722375
O O2 0.366877 0.545598 0.626726
O O3 0.282479 0.336149 0.803437
O O4 0.323214 0.633956 0.912723
O O5 0.092094 0.788928 0.624605
O O6 0.233388 0.858100 0.617197
O O7 0.782004 0.892538 0.484664
O O8 0.826043 0.969889 0.793982
O O9 0.874392 0.164877 0.561143
O O10 0.530057 0.266475 0.317787
O O11 0.508255 0.320707 0.974526
O O12 0.955009 0.801836 0.669765
O O13 0.017195 0.013045 0.449631
O O14 0.624849 0.785874 0.503424
#
# Coordination Sequence:
#
# PCOD9340660 Si02
#       7
#     4   4   4   4   4   4   4
#     4  10  23  42  64  94 140 174 223 276 348 415
#     4  10  21  40  66  94 125 179 223 269 338 415
#     4  11  21  40  70 100 129 170 232 290 336 401
#     4  10  23  44  67  96 136 188 227 279 349 427
#     4  11  21  39  67 100 130 170 235 285 332 413
#     4  12  23  41  68  99 138 176 229 293 348 403
#     4  12  24  42  64 107 136 171 231 294 347 408
#
# _framework density 25.118352999999999
#
# number of rings (size 3 to 8) (size 9 to 14) (size 15 to 20)
#    0.000    1.143    4.286    2.571    6.000    0.000 
#    7.714    0.000    0.000    0.000    0.000    0.000 
#    0.000    0.000    0.000    0.000    0.000    0.000 
#
# Total GULP energy -155925.364405 kJ/mol
# GULP energy per Si atom -5568.763014 kJ/mol
# Density = 2.506118 g / cm^3
# Si number density = 25.118353 Si / 1000 Ang^3
#
#
#
# Elastic Constant Matrix: (Units=GPa)
#
#
# Indices 1 2 3 4 5 6 
#
# 1 65.5445 -8.4379 15.0198 0.0000 0.0000 0.0000
# 2 -8.4379 112.3231 9.2571 0.0000 0.0000 0.0000
# 3 15.0198 9.2571 69.2346 0.0000 0.0000 0.0000
# 4 0.0000 0.0000 0.0000 20.6405 0.0000 0.0000
# 5 0.0000 0.0000 0.0000 0.0000 30.9846 0.0000
# 6 0.0000 0.0000 0.0000 0.0000 0.0000 13.5624
#
#
#
# Elastic Compliance Matrix: (Units=1/GPa)
#
#
# Indices 1 2 3 4 5 6 
#
# 1 0.016312 0.001534 -0.003744 0.000000 0.000000 0.000000
# 2 0.001534 0.009146 -0.001556 0.000000 0.000000 0.000000
# 3 -0.003744 -0.001556 0.015464 0.000000 0.000000 0.000000
# 4 0.000000 0.000000 0.000000 0.048448 0.000000 0.000000
# 5 0.000000 0.000000 0.000000 0.000000 0.032274 0.000000
# 6 0.000000 0.000000 0.000000 0.000000 0.000000 0.073733
#
#
# Mechanical properties :
#
#
# Convention : Reuss Voigt Hill
#
# Bulk Modulus (GPa) = 29.94807 30.97559 30.46183
# Shear Modulus (GPa) = 23.36015 28.45506 25.90761
#
# Velocity S-wave (km/s) = 3.05290 3.36942 3.21506
# Velocity P-wave (km/s) = 4.93717 5.24366 5.09272
#
# Compressibility (1/GPa) = 0.03339113
#
# Stress axis : x y z
#
# Youngs Moduli (GPa) = 61.30375 109.33344 64.66698
#
# Poissons Ratio (x) = -0.16771 0.24211
# Poissons Ratio (y) = -0.09404 0.10060
# Poissons Ratio (z) = 0.22951 0.17009
#
# Static dielectric constant tensor:
#      x y z
#    x 2.699720 0.000000 0.000000 
#    y 0.000000 1.964850 0.000000 
#    z 0.000000 0.000000 2.257390 
# 
# From -- ./inp_files/2125.got.cif
#   From: 2010.05.17/outbox.cif.g08.bks.cpg/sg29_2_cif.got.tgz:2125.got - 2010.06.04 01:19:37.
