data_PCOD9340687
_publ_section_title
;
Structure prediction by ZEFSAII (Michael W. Deem and Ramdas Pophale) SiO2 
 PCOD9340687
Probable space group: P C A 21
;
_chemical_formula_sum "Si O2"
_cell_formula_units_Z 20
_cell_length_a 13.561786
_cell_length_b 11.148882
_cell_length_c 5.036904
_cell_angle_alpha 90.000000
_cell_angle_beta 90.000000
_cell_angle_gamma 90.000000
_cell_volume 761.573598
_symmetry_space_group_name_H-M "P C A 21"
_symmetry_group_IT_number 29
_symmetry_cell_setting 'orthorhombic'
loop_
_space_group_symop_operation_xyz
x,y,z
-x,-y,1/2+z
1/2-x,y,1/2+z
1/2+x,-y,z
loop_
_atom_site_type_symbol
_atom_site_label
_atom_site_fract_x
_atom_site_fract_y
_atom_site_fract_z
Si Si1 0.198632 0.492820 0.351360
Si Si2 0.182831 0.765361 0.225135
Si Si3 0.328650 0.031498 0.388862
Si Si4 0.485177 0.413750 0.710035
Si Si5 0.525038 0.150858 0.576364
O O1 0.205004 0.487240 0.666787
O O2 0.162300 0.624179 0.258053
O O3 0.130803 0.388640 0.244056
O O4 0.265163 0.789692 0.449186
O O5 0.087612 0.839569 0.302811
O O6 0.249868 0.032958 0.639659
O O7 0.411564 0.126401 0.501142
O O8 0.414855 0.941245 0.261388
O O9 0.496264 0.498346 0.456265
O O10 0.536258 0.285659 0.699109
#
# Coordination Sequence:
#
# PCOD9340687 Si02
#       5
#     4   4   4   4   4
#     4  10  21  41  65 104 156 201 250 310 385 483
#     4  10  22  40  73 113 153 201 262 320 389 483
#     4  12  30  55  84 121 162 220 294 355 415 491
#     4  12  27  45  74 118 162 205 260 325 416 505
#     4  12  28  53  86 116 167 221 276 350 423 486
#
# _framework density 26.261413000000001
#
# number of rings (size 3 to 8) (size 9 to 14) (size 15 to 20)
#    0.000    0.800    2.000    3.600    5.600    9.600 
#    0.000    0.000    0.000    0.000    0.000    0.000 
#    0.000    0.000    0.000    0.000    0.000    0.000 
#
# Total GULP energy -111508.700936 kJ/mol
# GULP energy per Si atom -5575.435047 kJ/mol
# Density = 2.620164 g / cm^3
# Si number density = 26.261413 Si / 1000 Ang^3
#
#
#
# Elastic Constant Matrix: (Units=GPa)
#
#
# Indices 1 2 3 4 5 6 
#
# 1 175.7236 62.4669 60.2733 0.0000 0.0000 0.0000
# 2 62.4669 91.2969 49.0182 0.0000 0.0000 0.0000
# 3 60.2733 49.0182 188.7048 0.0000 0.0000 0.0000
# 4 0.0000 0.0000 0.0000 32.0549 0.0000 0.0000
# 5 0.0000 0.0000 0.0000 0.0000 39.3338 0.0000
# 6 0.0000 0.0000 0.0000 0.0000 0.0000 47.6783
#
#
#
# Elastic Compliance Matrix: (Units=1/GPa)
#
#
# Indices 1 2 3 4 5 6 
#
# 1 0.007777 -0.004634 -0.001280 0.000000 0.000000 0.000000
# 2 -0.004634 0.015489 -0.002543 0.000000 0.000000 0.000000
# 3 -0.001280 -0.002543 0.006369 0.000000 0.000000 0.000000
# 4 0.000000 0.000000 0.000000 0.031197 0.000000 0.000000
# 5 0.000000 0.000000 0.000000 0.000000 0.025423 0.000000
# 6 0.000000 0.000000 0.000000 0.000000 0.000000 0.020974
#
#
# Mechanical properties :
#
#
# Convention : Reuss Voigt Hill
#
# Bulk Modulus (GPa) = 78.61532 88.80468 83.71000
# Shear Modulus (GPa) = 38.94540 42.74453 40.84496
#
# Velocity S-wave (km/s) = 3.85514 4.03880 3.94804
# Velocity P-wave (km/s) = 7.05810 7.45910 7.26137
#
# Compressibility (1/GPa) = 0.01272017
#
# Stress axis : x y z
#
# Youngs Moduli (GPa) = 128.58134 64.56007 157.01201
#
# Poissons Ratio (x) = 0.29916 0.20104
# Poissons Ratio (y) = 0.59582 0.39936
# Poissons Ratio (z) = 0.16463 0.16421
#
# Static dielectric constant tensor:
#      x y z
#    x 2.195250 0.000000 0.000000 
#    y 0.000000 2.200550 0.000000 
#    z 0.000000 0.000000 2.090330 
# 
# From -- ./inp_files/185.got.cif
#   From: 2010.05.17/outbox.cif.g08.bks.cpg/sg29_1_cif.got.tgz:185.got - 2010.06.04 01:19:37.
