data_PCOD9340542
_publ_section_title
;
Structure prediction by ZEFSAII (Michael W. Deem and Ramdas Pophale) SiO2 
 PCOD9340542
Probable space group: P C A 21
;
_chemical_formula_sum "Si O2"
_cell_formula_units_Z 32
_cell_length_a 8.171863
_cell_length_b 19.234259
_cell_length_c 7.982346
_cell_angle_alpha 90.000000
_cell_angle_beta 90.000000
_cell_angle_gamma 90.000000
_cell_volume 1254.662985
_symmetry_space_group_name_H-M "P C A 21"
_symmetry_group_IT_number 29
_symmetry_cell_setting 'orthorhombic'
loop_
_space_group_symop_operation_xyz
x,y,z
-x,-y,1/2+z
1/2-x,y,1/2+z
1/2+x,-y,z
loop_
_atom_site_type_symbol
_atom_site_label
_atom_site_fract_x
_atom_site_fract_y
_atom_site_fract_z
Si Si1 0.477670 0.329778 0.080790
Si Si2 0.481765 0.083144 0.121578
Si Si3 0.372578 0.462603 0.235417
Si Si4 0.977442 0.162315 0.089826
Si Si5 0.138237 0.284705 0.946520
Si Si6 0.353119 0.040262 0.759134
Si Si7 0.855775 0.207209 0.452448
Si Si8 0.031692 0.415552 0.103805
O O1 0.478766 0.412264 0.112413
O O2 0.430197 0.298265 0.262411
O O3 0.323239 0.311058 0.963547
O O4 0.629753 0.287505 0.007109
O O5 0.423996 0.051326 0.943614
O O6 0.534327 0.161070 0.079256
O O7 0.328420 0.070898 0.243140
O O8 0.631286 0.038776 0.197692
O O9 0.434916 0.447750 0.420622
O O10 0.188969 0.435756 0.214080
O O11 0.384167 0.542798 0.185074
O O12 0.924537 0.195036 0.267851
O O13 0.034707 0.085494 0.133316
O O14 0.824008 0.175017 0.969454
O O15 0.123654 0.206548 0.009161
O O16 0.032286 0.333778 0.071354
#
# Coordination Sequence:
#
# PCOD9340542 Si02
#       8
#     4   4   4   4   4   4   4   4
#     4  10  21  38  60  85 114 150 192 237 287 343
#     4  11  24  41  63  90 120 155 194 237 286 340
#     4  10  21  37  58  84 114 150 191 236 287 343
#     4  11  24  40  60  87 118 153 193 238 287 340
#     4  10  21  38  60  85 114 150 192 237 287 343
#     4  11  24  41  63  90 120 155 194 237 286 340
#     4  11  24  40  60  87 118 153 193 238 287 340
#     4  10  21  37  58  84 114 150 191 236 287 343
#
# _framework density 25.504857000000001
#
# number of rings (size 3 to 8) (size 9 to 14) (size 15 to 20)
#    0.000    1.500    0.000    4.500    0.000   12.000 
#    0.000    0.000    0.000    0.000    0.000    0.000 
#    0.000    0.000    0.000    0.000    0.000    0.000 
#
# Total GULP energy -179367.673790 kJ/mol
# GULP energy per Si atom -5605.239806 kJ/mol
# Density = 2.544681 g / cm^3
# Si number density = 25.504857 Si / 1000 Ang^3
#
#
#
# Elastic Constant Matrix: (Units=GPa)
#
#
# Indices 1 2 3 4 5 6 
#
# 1 59.7303 4.9467 -6.3048 0.0000 0.0000 0.0000
# 2 4.9467 83.0594 20.7694 0.0000 0.0000 0.0000
# 3 -6.3048 20.7694 91.0682 0.0000 0.0000 0.0000
# 4 0.0000 0.0000 0.0000 40.8342 0.0000 0.0000
# 5 0.0000 0.0000 0.0000 0.0000 24.6232 0.0000
# 6 0.0000 0.0000 0.0000 0.0000 0.0000 35.4536
#
#
#
# Elastic Compliance Matrix: (Units=1/GPa)
#
#
# Indices 1 2 3 4 5 6 
#
# 1 0.017015 -0.001387 0.001494 0.000000 0.000000 0.000000
# 2 -0.001387 0.012881 -0.003034 0.000000 0.000000 0.000000
# 3 0.001494 -0.003034 0.011776 0.000000 0.000000 0.000000
# 4 0.000000 0.000000 0.000000 0.024489 0.000000 0.000000
# 5 0.000000 0.000000 0.000000 0.000000 0.040612 0.000000
# 6 0.000000 0.000000 0.000000 0.000000 0.000000 0.028206
#
#
# Mechanical properties :
#
#
# Convention : Reuss Voigt Hill
#
# Bulk Modulus (GPa) = 27.91846 30.29786 29.10816
# Shear Modulus (GPa) = 32.72875 34.47864 33.60370
#
# Velocity S-wave (km/s) = 3.58611 3.68073 3.63373
# Velocity P-wave (km/s) = 5.30255 5.47438 5.38915
#
# Compressibility (1/GPa) = 0.03581860
#
# Stress axis : x y z
#
# Youngs Moduli (GPa) = 58.77339 77.63515 84.91777
#
# Poissons Ratio (x) = 0.10768 -0.12689
# Poissons Ratio (y) = 0.08152 0.25761
# Poissons Ratio (z) = -0.08782 0.23552
#
# Static dielectric constant tensor:
#      x y z
#    x 1.996510 0.000000 0.000000 
#    y 0.000000 1.948340 0.000000 
#    z 0.000000 0.000000 1.964450 
# 
# From -- ./inp_files/1250.got.cif
#   From: 2010.05.17/outbox.cif.g08.bks.cpg/sg29_1_cif.got.tgz:1250.got - 2010.06.04 01:19:37.
