data_PCOD9340761
_publ_section_title
;
Structure prediction by ZEFSAII (Michael W. Deem and Ramdas Pophale) SiO2 
 PCOD9340761
Probable space group: P C A 21
;
_chemical_formula_sum "Si O2"
_cell_formula_units_Z 28
_cell_length_a 13.277555
_cell_length_b 8.313743
_cell_length_c 9.749903
_cell_angle_alpha 90.000000
_cell_angle_beta 90.000000
_cell_angle_gamma 90.000000
_cell_volume 1076.254547
_symmetry_space_group_name_H-M "P C A 21"
_symmetry_group_IT_number 29
_symmetry_cell_setting 'orthorhombic'
loop_
_space_group_symop_operation_xyz
x,y,z
-x,-y,1/2+z
1/2-x,y,1/2+z
1/2+x,-y,z
loop_
_atom_site_type_symbol
_atom_site_label
_atom_site_fract_x
_atom_site_fract_y
_atom_site_fract_z
Si Si1 0.049521 0.656409 0.754340
Si Si2 0.156863 0.906155 0.612166
Si Si3 0.448703 0.687251 0.760608
Si Si4 0.837003 0.830337 0.339535
Si Si5 0.263771 0.343816 0.082181
Si Si6 0.962779 0.802445 0.998605
Si Si7 0.755343 0.326697 0.440826
O O1 0.087861 0.747217 0.622477
O O2 0.985802 0.496797 0.742680
O O3 0.151029 0.635911 0.842215
O O4 0.989778 0.787142 0.842338
O O5 0.250190 0.838945 0.527195
O O6 0.175776 0.998258 0.758234
O O7 0.093038 0.034103 0.529336
O O8 0.545449 0.779006 0.829001
O O9 0.450608 0.767139 0.609048
O O10 0.344356 0.684546 0.843011
O O11 0.798760 0.784971 0.491045
O O12 0.771500 0.712067 0.239168
O O13 0.378889 0.331319 0.030877
O O14 0.236092 0.524952 0.047950
#
# Coordination Sequence:
#
# PCOD9340761 Si02
#       7
#     4   4   4   4   4   4   4
#     4  12  25  44  72 103 137 183 237 287 356 419
#     4  10  26  44  66 101 144 179 240 284 357 427
#     4  10  23  46  69  97 140 181 232 291 354 416
#     4  10  23  46  69 102 145 183 235 294 364 430
#     4  10  21  44  71 100 140 184 236 292 356 421
#     4  10  25  47  67  98 144 181 231 289 363 427
#     4  12  25  43  74 103 138 183 243 297 342 430
#
# _framework density 26.016152000000002
#
# number of rings (size 3 to 8) (size 9 to 14) (size 15 to 20)
#    0.000    1.714    2.857    1.714   10.000    0.000 
#    5.143    0.000    0.000    0.000    0.000    0.000 
#    0.000    0.000    0.000    0.000    0.000    0.000 
#
# Total GULP energy -156614.609459 kJ/mol
# GULP energy per Si atom -5593.378909 kJ/mol
# Density = 2.595694 g / cm^3
# Si number density = 26.016152 Si / 1000 Ang^3
#
#
#
# Elastic Constant Matrix: (Units=GPa)
#
#
# Indices 1 2 3 4 5 6 
#
# 1 88.2339 15.0537 10.4845 0.0000 0.0000 0.0000
# 2 15.0537 133.3153 4.8885 0.0000 0.0000 0.0000
# 3 10.4845 4.8885 47.5203 0.0000 0.0000 0.0000
# 4 0.0000 0.0000 0.0000 37.6589 0.0000 0.0000
# 5 0.0000 0.0000 0.0000 0.0000 41.6481 0.0000
# 6 0.0000 0.0000 0.0000 0.0000 0.0000 27.9769
#
#
#
# Elastic Compliance Matrix: (Units=1/GPa)
#
#
# Indices 1 2 3 4 5 6 
#
# 1 0.011841 -0.001246 -0.002484 0.000000 0.000000 0.000000
# 2 -0.001246 0.007661 -0.000513 0.000000 0.000000 0.000000
# 3 -0.002484 -0.000513 0.021645 0.000000 0.000000 0.000000
# 4 0.000000 0.000000 0.000000 0.026554 0.000000 0.000000
# 5 0.000000 0.000000 0.000000 0.000000 0.024011 0.000000
# 6 0.000000 0.000000 0.000000 0.000000 0.000000 0.035744
#
#
# Mechanical properties :
#
#
# Convention : Reuss Voigt Hill
#
# Bulk Modulus (GPa) = 30.61913 36.65810 33.63862
# Shear Modulus (GPa) = 34.05334 37.36631 35.70982
#
# Velocity S-wave (km/s) = 3.62184 3.79393 3.70888
# Velocity P-wave (km/s) = 5.41157 5.77174 5.59456
#
# Compressibility (1/GPa) = 0.03265932
#
# Stress axis : x y z
#
# Youngs Moduli (GPa) = 84.45013 130.53937 46.20099
#
# Poissons Ratio (x) = 0.16265 0.11478
# Poissons Ratio (y) = 0.10522 0.02371
# Poissons Ratio (z) = 0.20981 0.06699
#
# Static dielectric constant tensor:
#      x y z
#    x 2.060520 0.000000 0.000000 
#    y 0.000000 2.051270 0.000000 
#    z 0.000000 0.000000 2.077520 
# 
# From -- ./inp_files/3438.got.cif
#   From: 2010.05.17/outbox.cif.g08.bks.cpg/sg29_2_cif.got.tgz:3438.got - 2010.06.04 01:19:37.
