data_PCOD9340795
_publ_section_title
;
Structure prediction by ZEFSAII (Michael W. Deem and Ramdas Pophale) SiO2 
 PCOD9340795
Probable space group: P C A 21
;
_chemical_formula_sum "Si O2"
_cell_formula_units_Z 32
_cell_length_a 19.647928
_cell_length_b 13.249936
_cell_length_c 5.570267
_cell_angle_alpha 90.000000
_cell_angle_beta 90.000000
_cell_angle_gamma 90.000000
_cell_volume 1450.128711
_symmetry_space_group_name_H-M "P C A 21"
_symmetry_group_IT_number 29
_symmetry_cell_setting 'orthorhombic'
loop_
_space_group_symop_operation_xyz
x,y,z
-x,-y,1/2+z
1/2-x,y,1/2+z
1/2+x,-y,z
loop_
_atom_site_type_symbol
_atom_site_label
_atom_site_fract_x
_atom_site_fract_y
_atom_site_fract_z
Si Si1 0.415648 0.532314 0.760010
Si Si2 0.280944 0.368831 0.217066
Si Si3 0.588707 0.744479 0.851505
Si Si4 0.421265 0.932407 0.948910
Si Si5 0.913750 0.963464 0.450627
Si Si6 0.518764 0.656285 0.457716
Si Si7 0.231445 0.593653 0.136878
Si Si8 0.440216 0.713182 0.069722
O O1 0.483454 0.572391 0.629043
O O2 0.427739 0.416226 0.822270
O O3 0.346542 0.556975 0.623126
O O4 0.411134 0.607204 0.987353
O O5 0.233403 0.331786 0.442155
O O6 0.354388 0.339594 0.320360
O O7 0.272417 0.488446 0.175937
O O8 0.616202 0.850529 0.940785
O O9 0.558143 0.747621 0.582559
O O10 0.520973 0.717197 0.999110
O O11 0.503808 0.946975 0.949783
O O12 0.396422 0.980365 0.698875
O O13 0.407738 0.812533 0.963202
O O14 0.396727 0.980956 0.200229
O O15 0.451109 0.708721 0.351314
O O16 0.245612 0.647135 0.392364
#
# Coordination Sequence:
#
# PCOD9340795 Si02
#       8
#     4   4   4   4   4   4   4   4
#     4  11  23  37  55  87 124 165 215 246 314 364
#     4  10  22  37  55  83 114 158 198 247 294 365
#     4  10  23  35  60  88 120 160 202 246 326 376
#     4   9  19  34  53  83 119 150 192 226 303 353
#     4   9  19  33  56  82 116 152 183 241 285 378
#     4  11  22  35  56  88 126 170 201 258 308 384
#     4  10  23  38  59  78 112 162 205 255 291 350
#     4  10  23  35  58  85 125 165 198 259 305 382
#
# _framework density 22.067007
#
# number of rings (size 3 to 8) (size 9 to 14) (size 15 to 20)
#    0.000    2.000    1.250    1.500   17.500    0.000 
#    0.000    0.000    0.000    0.000    0.000    5.250 
#    0.000    0.000    0.000    0.000    0.000    0.000 
#
# Total GULP energy -178204.556279 kJ/mol
# GULP energy per Si atom -5568.892384 kJ/mol
# Density = 2.201678 g / cm^3
# Si number density = 22.067007 Si / 1000 Ang^3
#
#
#
# Elastic Constant Matrix: (Units=GPa)
#
#
# Indices 1 2 3 4 5 6 
#
# 1 37.0682 -2.1525 -4.0283 0.0000 0.0000 0.0000
# 2 -2.1525 87.8821 35.1542 0.0000 0.0000 0.0000
# 3 -4.0283 35.1542 107.5199 0.0000 0.0000 0.0000
# 4 0.0000 0.0000 0.0000 24.4208 0.0000 0.0000
# 5 0.0000 0.0000 0.0000 0.0000 21.7711 0.0000
# 6 0.0000 0.0000 0.0000 0.0000 0.0000 5.7816
#
#
#
# Elastic Compliance Matrix: (Units=1/GPa)
#
#
# Indices 1 2 3 4 5 6 
#
# 1 0.027094 0.000296 0.000918 0.000000 0.000000 0.000000
# 2 0.000296 0.013094 -0.004270 0.000000 0.000000 0.000000
# 3 0.000918 -0.004270 0.010731 0.000000 0.000000 0.000000
# 4 0.000000 0.000000 0.000000 0.040949 0.000000 0.000000
# 5 0.000000 0.000000 0.000000 0.000000 0.045932 0.000000
# 6 0.000000 0.000000 0.000000 0.000000 0.000000 0.172962
#
#
# Mechanical properties :
#
#
# Convention : Reuss Voigt Hill
#
# Bulk Modulus (GPa) = 22.31719 32.26855 27.29287
# Shear Modulus (GPa) = 15.06887 23.96117 19.51502
#
# Velocity S-wave (km/s) = 2.61601 3.29878 2.97703
# Velocity P-wave (km/s) = 4.38862 5.40037 4.92057
#
# Compressibility (1/GPa) = 0.04480850
#
# Stress axis : x y z
#
# Youngs Moduli (GPa) = 36.90817 76.36940 93.18667
#
# Poissons Ratio (x) = -0.02263 -0.08556
# Poissons Ratio (y) = -0.01094 0.39792
# Poissons Ratio (z) = -0.03389 0.32611
#
# Static dielectric constant tensor:
#      x y z
#    x 1.844100 0.000000 0.000000 
#    y 0.000000 1.786440 0.000000 
#    z 0.000000 0.000000 2.237690 
# 
# From -- ./inp_files/452.got.cif
#   From: 2010.05.17/outbox.cif.g08.bks.cpg/sg29_1_cif.got.tgz:452.got - 2010.06.04 01:19:37.
