data_PCOD9340134
_publ_section_title
;
Structure prediction by ZEFSAII (Michael W. Deem and Ramdas Pophale) SiO2 
 PCOD9340134
Probable space group: P C A 21
;
_chemical_formula_sum "Si O2"
_cell_formula_units_Z 20
_cell_length_a 16.103225
_cell_length_b 8.542344
_cell_length_c 5.436722
_cell_angle_alpha 90.000000
_cell_angle_beta 90.000000
_cell_angle_gamma 90.000000
_cell_volume 747.871604
_symmetry_space_group_name_H-M "P C A 21"
_symmetry_group_IT_number 29
_symmetry_cell_setting 'orthorhombic'
loop_
_space_group_symop_operation_xyz
x,y,z
-x,-y,1/2+z
1/2-x,y,1/2+z
1/2+x,-y,z
loop_
_atom_site_type_symbol
_atom_site_label
_atom_site_fract_x
_atom_site_fract_y
_atom_site_fract_z
Si Si1 0.467191 0.444393 0.218420
Si Si2 0.215024 0.181476 0.086759
Si Si3 0.436212 0.854492 0.887576
Si Si4 0.091435 0.947145 0.893575
Si Si5 0.775329 0.469199 0.139955
O O1 0.495025 0.562199 0.440075
O O2 0.501980 0.289943 0.353851
O O3 0.370177 0.475908 0.172839
O O4 0.216949 0.132663 0.375344
O O5 0.221540 0.368840 0.107861
O O6 0.137902 0.110146 0.941152
O O7 0.385432 0.854927 0.637670
O O8 0.492896 0.013194 0.888809
O O9 0.389033 0.858281 0.143893
O O10 0.740170 0.387091 0.381038
#
# Coordination Sequence:
#
# PCOD9340134 Si02
#       5
#     4   4   4   4   4
#     4  12  25  42  66  96 134 181 229 275 332 403
#     4  10  19  32  56  88 119 149 198 258 318 377
#     4  10  21  37  58  88 125 158 197 253 322 389
#     4  10  20  35  60  90 120 153 194 260 331 382
#     4  10  21  38  64  94 124 161 222 288 329 379
#
# _framework density 26.742557000000001
#
# number of rings (size 3 to 8) (size 9 to 14) (size 15 to 20)
#    0.000    1.600    0.000    6.000    0.000    9.600 
#    0.000    0.000    0.000   24.000    0.000    0.000 
#    0.000    0.000    0.000    0.000    0.000    0.000 
#
# Total GULP energy -111583.827273 kJ/mol
# GULP energy per Si atom -5579.191364 kJ/mol
# Density = 2.668169 g / cm^3
# Si number density = 26.742557 Si / 1000 Ang^3
#
#
#
# Elastic Constant Matrix: (Units=GPa)
#
#
# Indices 1 2 3 4 5 6 
#
# 1 63.1364 7.3247 43.2914 0.0000 0.0000 0.0000
# 2 7.3247 43.3146 16.6393 0.0000 0.0000 0.0000
# 3 43.2914 16.6393 290.7220 0.0000 0.0000 0.0000
# 4 0.0000 0.0000 0.0000 22.0675 0.0000 0.0000
# 5 0.0000 0.0000 0.0000 0.0000 42.4844 0.0000
# 6 0.0000 0.0000 0.0000 0.0000 0.0000 33.9320
#
#
#
# Elastic Compliance Matrix: (Units=1/GPa)
#
#
# Indices 1 2 3 4 5 6 
#
# 1 0.017814 -0.002038 -0.002536 0.000000 0.000000 0.000000
# 2 -0.002038 0.023839 -0.001061 0.000000 0.000000 0.000000
# 3 -0.002536 -0.001061 0.003878 0.000000 0.000000 0.000000
# 4 0.000000 0.000000 0.000000 0.045315 0.000000 0.000000
# 5 0.000000 0.000000 0.000000 0.000000 0.023538 0.000000
# 6 0.000000 0.000000 0.000000 0.000000 0.000000 0.029471
#
#
# Mechanical properties :
#
#
# Convention : Reuss Voigt Hill
#
# Bulk Modulus (GPa) = 29.18773 59.07598 44.13186
# Shear Modulus (GPa) = 30.02171 41.69130 35.85651
#
# Velocity S-wave (km/s) = 3.35419 3.95268 3.66567
# Velocity P-wave (km/s) = 5.09301 6.55517 5.86980
#
# Compressibility (1/GPa) = 0.03426097
#
# Stress axis : x y z
#
# Youngs Moduli (GPa) = 56.13529 41.94786 257.85996
#
# Poissons Ratio (x) = 0.08550 0.65394
# Poissons Ratio (y) = 0.11442 0.27357
# Poissons Ratio (z) = 0.14236 0.04450
#
# Static dielectric constant tensor:
#      x y z
#    x 2.124740 0.000000 0.000000 
#    y 0.000000 2.226580 0.000000 
#    z 0.000000 0.000000 2.203750 
# 
# From -- ./inp_files/180.got.cif
#   From: 2010.05.17/outbox.cif.g08.bks.cpg/sg29_1_cif.got.tgz:180.got - 2010.06.04 01:19:37.
