data_PCOD9340283
_publ_section_title
;
Structure prediction by ZEFSAII (Michael W. Deem and Ramdas Pophale) SiO2 
 PCOD9340283
Probable space group: P C A 21
;
_chemical_formula_sum "Si O2"
_cell_formula_units_Z 20
_cell_length_a 21.604893
_cell_length_b 7.148199
_cell_length_c 5.256481
_cell_angle_alpha 90.000000
_cell_angle_beta 90.000000
_cell_angle_gamma 90.000000
_cell_volume 811.790292
_symmetry_space_group_name_H-M "P C A 21"
_symmetry_group_IT_number 29
_symmetry_cell_setting 'orthorhombic'
loop_
_space_group_symop_operation_xyz
x,y,z
-x,-y,1/2+z
1/2-x,y,1/2+z
1/2+x,-y,z
loop_
_atom_site_type_symbol
_atom_site_label
_atom_site_fract_x
_atom_site_fract_y
_atom_site_fract_z
Si Si1 0.974932 0.754545 0.322720
Si Si2 0.585806 0.420852 0.562777
Si Si3 0.777410 0.339170 0.123703
Si Si4 0.909155 0.808935 0.828285
Si Si5 0.224390 0.090802 0.517648
O O1 0.933238 0.842096 0.545713
O O2 0.044210 0.733804 0.425339
O O3 0.953262 0.536945 0.273374
O O4 0.960275 0.846101 0.049989
O O5 0.649733 0.347575 0.673291
O O6 0.600940 0.585346 0.361823
O O7 0.760813 0.425505 0.852669
O O8 0.758160 0.123843 0.077503
O O9 0.844604 0.900208 0.906924
O O10 0.230848 0.173992 0.800609
#
# Coordination Sequence:
#
# PCOD9340283 Si02
#       5
#     4   4   4   4   4
#     4  10  20  35  57  86 110 146 176 233 283 320
#     4  10  21  37  60  80 119 140 184 229 280 328
#     4  10  24  38  57  81 112 148 188 226 281 330
#     4  10  20  34  57  82 109 141 192 219 276 336
#     4  10  21  40  55  77 114 153 182 233 282 324
#
# _framework density 24.636904999999999
#
# number of rings (size 3 to 8) (size 9 to 14) (size 15 to 20)
#    1.200    0.800    2.000    1.200    2.800    1.600 
#    0.000    2.000    0.000    0.000    0.000    0.000 
#    0.000    0.000    0.000    0.000    0.000    0.000 
#
# Total GULP energy -111651.529364 kJ/mol
# GULP energy per Si atom -5582.576468 kJ/mol
# Density = 2.458083 g / cm^3
# Si number density = 24.636905 Si / 1000 Ang^3
#
#
#
# Elastic Constant Matrix: (Units=GPa)
#
#
# Indices 1 2 3 4 5 6 
#
# 1 104.1818 -20.8259 28.7351 0.0000 0.0000 0.0000
# 2 -20.8259 51.2373 19.5125 0.0000 0.0000 0.0000
# 3 28.7351 19.5125 122.1989 0.0000 0.0000 0.0000
# 4 0.0000 0.0000 0.0000 -7.3311 0.0000 0.0000
# 5 0.0000 0.0000 0.0000 0.0000 35.8664 0.0000
# 6 0.0000 0.0000 0.0000 0.0000 0.0000 33.7708
#
#
#
# Elastic Compliance Matrix: (Units=1/GPa)
#
#
# Indices 1 2 3 4 5 6 
#
# 1 0.011904 0.006287 -0.003803 0.000000 0.000000 0.000000
# 2 0.006287 0.024101 -0.005327 0.000000 0.000000 0.000000
# 3 -0.003803 -0.005327 0.009928 0.000000 0.000000 0.000000
# 4 0.000000 0.000000 0.000000 -0.136406 0.000000 0.000000
# 5 0.000000 0.000000 0.000000 0.000000 0.027881 0.000000
# 6 0.000000 0.000000 0.000000 0.000000 0.000000 0.029611
#
#
# Mechanical properties :
#
#
# Convention : Reuss Voigt Hill
#
# Bulk Modulus (GPa) = 24.84613 36.94015 30.89314
# Shear Modulus (GPa) = -360.29889 29.14097 -165.57896
#
# Velocity S-wave (km/s) = -12.10624 3.44294 -8.20692
# Velocity P-wave (km/s) = 13.61278 5.55261 8.78853
#
# Compressibility (1/GPa) = 0.04024771
#
# Stress axis : x y z
#
# Youngs Moduli (GPa) = 84.00270 41.49195 100.72234
#
# Poissons Ratio (x) = -0.26086 0.38307
# Poissons Ratio (y) = -0.52813 0.53653
# Poissons Ratio (z) = 0.31948 0.22102
#
# Static dielectric constant tensor:
#      x y z
#    x 1.887120 0.000000 0.000000 
#    y 0.000000 2.005400 0.000000 
#    z 0.000000 0.000000 1.993970 
# 
# From -- ./inp_files/501.got.cif
#   From: 2010.05.17/outbox.cif.g08.bks.cpg/sg29_1_cif.got.tgz:501.got - 2010.06.04 01:19:37.
