data_PCOD9340636
_publ_section_title
;
Structure prediction by ZEFSAII (Michael W. Deem and Ramdas Pophale) SiO2 
 PCOD9340636
Probable space group: P C A 21
;
_chemical_formula_sum "Si O2"
_cell_formula_units_Z 32
_cell_length_a 10.925472
_cell_length_b 5.453375
_cell_length_c 21.370114
_cell_angle_alpha 90.000000
_cell_angle_beta 90.000000
_cell_angle_gamma 90.000000
_cell_volume 1273.246263
_symmetry_space_group_name_H-M "P C A 21"
_symmetry_group_IT_number 29
_symmetry_cell_setting 'orthorhombic'
loop_
_space_group_symop_operation_xyz
x,y,z
-x,-y,1/2+z
1/2-x,y,1/2+z
1/2+x,-y,z
loop_
_atom_site_type_symbol
_atom_site_label
_atom_site_fract_x
_atom_site_fract_y
_atom_site_fract_z
Si Si1 0.649345 0.490784 0.560450
Si Si2 0.074587 0.284002 0.779423
Si Si3 0.806784 0.718152 0.704825
Si Si4 0.604616 0.512956 0.980388
Si Si5 0.504798 0.785621 0.318066
Si Si6 0.080021 0.018308 0.581319
Si Si7 0.494426 0.980073 0.441286
Si Si8 0.378479 0.787671 0.668266
O O1 0.515667 0.494239 0.526024
O O2 0.765166 0.508144 0.515000
O O3 0.650775 0.737588 0.600273
O O4 0.640913 0.237997 0.597602
O O5 0.193329 0.379893 0.744152
O O6 0.038394 0.504636 0.826079
O O7 0.971755 0.244210 0.726402
O O8 0.091091 0.009374 0.806983
O O9 0.915267 0.753762 0.755837
O O10 0.844552 0.497345 0.657539
O O11 0.783597 0.002413 0.687801
O O12 0.596064 0.252416 0.945968
O O13 0.580246 0.766081 0.943654
O O14 0.570348 0.903223 0.379484
O O15 0.948315 0.070897 0.611663
O O16 0.073014 0.014978 0.505401
#
# Coordination Sequence:
#
# PCOD9340636 Si02
#       8
#     4   4   4   4   4   4   4   4
#     4  10  21  40  61  86 129 171 212 258 309 386
#     4  10  21  40  62  95 116 162 214 269 329 376
#     4  10  21  40  65  90 124 161 217 266 326 384
#     4  10  21  40  61  86 129 170 211 258 310 384
#     4  10  21  40  63  87 126 160 210 270 319 391
#     4  10  21  40  62  93 128 169 215 260 329 401
#     4  10  21  40  61  91 126 169 213 261 329 402
#     4  10  21  40  63  90 128 162 210 270 319 392
#
# _framework density 25.132608000000001
#
# number of rings (size 3 to 8) (size 9 to 14) (size 15 to 20)
#    0.000    2.000    0.000    3.000    0.000    0.000 
#   27.000    0.000    0.000    0.000    0.000    0.000 
#    0.000    0.000    0.000    0.000    0.000    0.000 
#
# Total GULP energy -178445.196050 kJ/mol
# GULP energy per Si atom -5576.412377 kJ/mol
# Density = 2.507540 g / cm^3
# Si number density = 25.132608 Si / 1000 Ang^3
#
#
#
# Elastic Constant Matrix: (Units=GPa)
#
#
# Indices 1 2 3 4 5 6 
#
# 1 57.4873 39.7564 11.3752 0.0000 0.0000 0.0000
# 2 39.7564 231.7482 57.6834 0.0000 0.0000 0.0000
# 3 11.3752 57.6834 66.9502 0.0000 0.0000 0.0000
# 4 0.0000 0.0000 0.0000 18.8301 0.0000 0.0000
# 5 0.0000 0.0000 0.0000 0.0000 13.5062 0.0000
# 6 0.0000 0.0000 0.0000 0.0000 0.0000 24.7498
#
#
#
# Elastic Compliance Matrix: (Units=1/GPa)
#
#
# Indices 1 2 3 4 5 6 
#
# 1 0.019753 -0.003250 -0.000556 0.000000 0.000000 0.000000
# 2 -0.003250 0.006028 -0.004641 0.000000 0.000000 0.000000
# 3 -0.000556 -0.004641 0.019030 0.000000 0.000000 0.000000
# 4 0.000000 0.000000 0.000000 0.053106 0.000000 0.000000
# 5 0.000000 0.000000 0.000000 0.000000 0.074040 0.000000
# 6 0.000000 0.000000 0.000000 0.000000 0.000000 0.040404
#
#
# Mechanical properties :
#
#
# Convention : Reuss Voigt Hill
#
# Bulk Modulus (GPa) = 35.82179 63.75728 49.78953
# Shear Modulus (GPa) = 20.95895 27.90859 24.43377
#
# Velocity S-wave (km/s) = 2.89093 3.33596 3.12139
# Velocity P-wave (km/s) = 5.04255 6.34520 5.73101
#
# Compressibility (1/GPa) = 0.02791597
#
# Stress axis : x y z
#
# Youngs Moduli (GPa) = 50.62544 165.89652 52.54928
#
# Poissons Ratio (x) = 0.53921 0.02920
# Poissons Ratio (y) = 0.16455 0.24390
# Poissons Ratio (z) = 0.02813 0.76997
#
# Static dielectric constant tensor:
#      x y z
#    x 1.983240 0.000000 0.000000 
#    y 0.000000 2.055480 0.000000 
#    z 0.000000 0.000000 2.128650 
# 
# From -- ./inp_files/5706.got.cif
#   From: 2010.05.17/outbox.cif.g08.bks.cpg/sg29_3_cif.got.tgz:5706.got - 2010.06.04 01:19:37.
