data_PCOD9340260
_publ_section_title
;
Structure prediction by ZEFSAII (Michael W. Deem and Ramdas Pophale) SiO2 
 PCOD9340260
Probable space group: P C A 21
;
_chemical_formula_sum "Si O2"
_cell_formula_units_Z 20
_cell_length_a 19.517806
_cell_length_b 5.195901
_cell_length_c 7.728479
_cell_angle_alpha 90.000000
_cell_angle_beta 90.000000
_cell_angle_gamma 90.000000
_cell_volume 783.765054
_symmetry_space_group_name_H-M "P C A 21"
_symmetry_group_IT_number 29
_symmetry_cell_setting 'orthorhombic'
loop_
_space_group_symop_operation_xyz
x,y,z
-x,-y,1/2+z
1/2-x,y,1/2+z
1/2+x,-y,z
loop_
_atom_site_type_symbol
_atom_site_label
_atom_site_fract_x
_atom_site_fract_y
_atom_site_fract_z
Si Si1 0.341701 0.585330 0.471630
Si Si2 0.305706 0.675577 0.091436
Si Si3 0.433472 0.255494 0.303590
Si Si4 0.537494 0.642964 0.152948
Si Si5 0.878349 0.851705 0.966600
O O1 0.328422 0.729705 0.290100
O O2 0.275044 0.617599 0.585244
O O3 0.358213 0.303963 0.387689
O O4 0.411163 0.591543 0.586879
O O5 0.342738 0.421174 0.015244
O O6 0.324971 0.916425 0.970660
O O7 0.470794 0.514848 0.233835
O O8 0.475143 0.201256 0.476107
O O9 0.425604 0.092916 0.134360
O O10 0.579157 0.804004 0.293617
#
# Coordination Sequence:
#
# PCOD9340260 Si02
#       5
#     4   4   4   4   4
#     4   9  22  40  66 106 144 192 245 303 375 445
#     4  11  24  44  68 105 145 192 242 304 374 446
#     4   9  20  40  76 104 147 188 255 296 385 436
#     4  10  19  43  76 108 148 196 248 312 376 446
#     4  11  23  45  70 105 144 188 240 305 368 449
#
# _framework density 25.517851
#
# number of rings (size 3 to 8) (size 9 to 14) (size 15 to 20)
#    1.200    0.800    2.000    1.200    0.000    4.800 
#    7.200    6.000    0.000    0.000    0.000    0.000 
#    0.000    0.000    0.000    0.000    0.000    0.000 
#
# Total GULP energy -111437.876143 kJ/mol
# GULP energy per Si atom -5571.893807 kJ/mol
# Density = 2.545977 g / cm^3
# Si number density = 25.517851 Si / 1000 Ang^3
#
#
#
# Elastic Constant Matrix: (Units=GPa)
#
#
# Indices 1 2 3 4 5 6 
#
# 1 120.6498 43.9565 47.3941 0.0000 0.0000 0.0000
# 2 43.9565 96.1814 24.8101 0.0000 0.0000 0.0000
# 3 47.3941 24.8101 154.3182 0.0000 0.0000 0.0000
# 4 0.0000 0.0000 0.0000 27.2758 0.0000 0.0000
# 5 0.0000 0.0000 0.0000 0.0000 36.9769 0.0000
# 6 0.0000 0.0000 0.0000 0.0000 0.0000 36.8172
#
#
#
# Elastic Compliance Matrix: (Units=1/GPa)
#
#
# Indices 1 2 3 4 5 6 
#
# 1 0.010897 -0.004295 -0.002656 0.000000 0.000000 0.000000
# 2 -0.004295 0.012540 -0.000697 0.000000 0.000000 0.000000
# 3 -0.002656 -0.000697 0.007408 0.000000 0.000000 0.000000
# 4 0.000000 0.000000 0.000000 0.036663 0.000000 0.000000
# 5 0.000000 0.000000 0.000000 0.000000 0.027044 0.000000
# 6 0.000000 0.000000 0.000000 0.000000 0.000000 0.027161
#
#
# Mechanical properties :
#
#
# Convention : Reuss Voigt Hill
#
# Bulk Modulus (GPa) = 64.31546 67.05232 65.68389
# Shear Modulus (GPa) = 35.16418 37.21324 36.18871
#
# Velocity S-wave (km/s) = 3.71620 3.82294 3.76995
# Velocity P-wave (km/s) = 6.60851 6.76906 6.68926
#
# Compressibility (1/GPa) = 0.01554836
#
# Stress axis : x y z
#
# Youngs Moduli (GPa) = 91.77225 79.74732 134.99099
#
# Poissons Ratio (x) = 0.34250 0.35854
# Poissons Ratio (y) = 0.39414 0.09409
# Poissons Ratio (z) = 0.24375 0.05558
#
# Static dielectric constant tensor:
#      x y z
#    x 2.042980 0.000000 0.000000 
#    y 0.000000 2.047980 0.000000 
#    z 0.000000 0.000000 2.045080 
# 
# From -- ./inp_files/2208.got.cif
#   From: 2010.05.17/outbox.cif.g08.bks.cpg/sg29_2_cif.got.tgz:2208.got - 2010.06.04 01:19:37.
