data_PCOD9340679
_publ_section_title
;
Structure prediction by ZEFSAII (Michael W. Deem and Ramdas Pophale) SiO2 
 PCOD9340679
Probable space group: P C A 21
;
_chemical_formula_sum "Si O2"
_cell_formula_units_Z 20
_cell_length_a 9.053535
_cell_length_b 10.763131
_cell_length_c 8.412120
_cell_angle_alpha 90.000000
_cell_angle_beta 90.000000
_cell_angle_gamma 90.000000
_cell_volume 819.713845
_symmetry_space_group_name_H-M "P C A 21"
_symmetry_group_IT_number 29
_symmetry_cell_setting 'orthorhombic'
loop_
_space_group_symop_operation_xyz
x,y,z
-x,-y,1/2+z
1/2-x,y,1/2+z
1/2+x,-y,z
loop_
_atom_site_type_symbol
_atom_site_label
_atom_site_fract_x
_atom_site_fract_y
_atom_site_fract_z
Si Si1 0.811337 0.393704 0.591160
Si Si2 0.594559 0.759707 0.219894
Si Si3 0.250840 0.123084 0.474012
Si Si4 0.428973 0.498402 0.901521
Si Si5 0.408546 0.862055 0.464085
O O1 0.652658 0.455248 0.562518
O O2 0.884522 0.406739 0.763520
O O3 0.822304 0.251611 0.540797
O O4 0.907694 0.471233 0.462463
O O5 0.613810 0.632150 0.315500
O O6 0.442634 0.820981 0.280472
O O7 0.637493 0.770123 0.037826
O O8 0.721569 0.851229 0.287579
O O9 0.326721 0.990327 0.488491
O O10 0.078187 0.131689 0.527750
#
# Coordination Sequence:
#
# PCOD9340679 Si02
#       5
#     4   4   4   4   4
#     4  11  24  44  66 101 127 174 212 273 318 397
#     4   9  22  39  65  89 122 162 210 249 322 370
#     4  10  21  41  62  87 129 157 210 263 302 384
#     4  11  23  44  68  93 137 164 221 263 331 376
#     4   9  24  40  61  96 123 163 219 250 325 375
#
# _framework density 24.398758999999998
#
# number of rings (size 3 to 8) (size 9 to 14) (size 15 to 20)
#    1.200    0.800    0.000    2.400    5.600    1.600 
#   10.800    0.000    0.000    0.000    0.000    0.000 
#    0.000    0.000    0.000    0.000    0.000    0.000 
#
# Total GULP energy -111501.702654 kJ/mol
# GULP energy per Si atom -5575.085133 kJ/mol
# Density = 2.434323 g / cm^3
# Si number density = 24.398759 Si / 1000 Ang^3
#
#
#
# Elastic Constant Matrix: (Units=GPa)
#
#
# Indices 1 2 3 4 5 6 
#
# 1 71.4522 21.6375 2.9175 0.0000 0.0000 0.0000
# 2 21.6375 76.8899 -8.2013 0.0000 0.0000 0.0000
# 3 2.9175 -8.2013 49.1716 0.0000 0.0000 0.0000
# 4 0.0000 0.0000 0.0000 22.6303 0.0000 0.0000
# 5 0.0000 0.0000 0.0000 0.0000 36.2982 0.0000
# 6 0.0000 0.0000 0.0000 0.0000 0.0000 26.8709
#
#
#
# Elastic Compliance Matrix: (Units=1/GPa)
#
#
# Indices 1 2 3 4 5 6 
#
# 1 0.015433 -0.004521 -0.001670 0.000000 0.000000 0.000000
# 2 -0.004521 0.014566 0.002698 0.000000 0.000000 0.000000
# 3 -0.001670 0.002698 0.020886 0.000000 0.000000 0.000000
# 4 0.000000 0.000000 0.000000 0.044188 0.000000 0.000000
# 5 0.000000 0.000000 0.000000 0.000000 0.027550 0.000000
# 6 0.000000 0.000000 0.000000 0.000000 0.000000 0.037215
#
#
# Mechanical properties :
#
#
# Convention : Reuss Voigt Hill
#
# Bulk Modulus (GPa) = 22.78005 25.58011 24.18008
# Shear Modulus (GPa) = 27.55489 29.23722 28.39605
#
# Velocity S-wave (km/s) = 3.36424 3.46541 3.41520
# Velocity P-wave (km/s) = 4.94445 5.14967 5.04810
#
# Compressibility (1/GPa) = 0.04389806
#
# Stress axis : x y z
#
# Youngs Moduli (GPa) = 64.79786 68.65495 47.87905
#
# Poissons Ratio (x) = 0.31039 0.07994
# Poissons Ratio (y) = 0.29295 -0.12916
# Poissons Ratio (z) = 0.10819 -0.18521
#
# Static dielectric constant tensor:
#      x y z
#    x 1.928320 0.000000 0.000000 
#    y 0.000000 1.907820 0.000000 
#    z 0.000000 0.000000 2.009370 
# 
# From -- ./inp_files/1112.got.cif
#   From: 2010.05.17/outbox.cif.g08.bks.cpg/sg29_1_cif.got.tgz:1112.got - 2010.06.04 01:19:37.
