data_PCOD9340755
_publ_section_title
;
Structure prediction by ZEFSAII (Michael W. Deem and Ramdas Pophale) SiO2 
 PCOD9340755
Probable space group: P C A 21
;
_chemical_formula_sum "Si O2"
_cell_formula_units_Z 32
_cell_length_a 26.050630
_cell_length_b 6.426969
_cell_length_c 8.240691
_cell_angle_alpha 90.000000
_cell_angle_beta 90.000000
_cell_angle_gamma 90.000000
_cell_volume 1379.710805
_symmetry_space_group_name_H-M "P C A 21"
_symmetry_group_IT_number 29
_symmetry_cell_setting 'orthorhombic'
loop_
_space_group_symop_operation_xyz
x,y,z
-x,-y,1/2+z
1/2-x,y,1/2+z
1/2+x,-y,z
loop_
_atom_site_type_symbol
_atom_site_label
_atom_site_fract_x
_atom_site_fract_y
_atom_site_fract_z
Si Si1 0.608380 0.565753 0.719690
Si Si2 0.400461 0.833027 0.653861
Si Si3 0.824625 0.886862 0.432790
Si Si4 0.141491 0.466251 0.355205
Si Si5 0.049897 0.239062 0.233019
Si Si6 0.026180 0.522943 0.952083
Si Si7 0.747773 0.547266 0.510757
Si Si8 0.309203 0.715406 0.286479
O O1 0.641016 0.724902 0.830332
O O2 0.618517 0.593382 0.531009
O O3 0.551838 0.570647 0.789337
O O4 0.631733 0.336207 0.753838
O O5 0.371073 0.698932 0.792156
O O6 0.433817 0.674731 0.544488
O O7 0.360375 0.966599 0.545139
O O8 0.441396 0.993926 0.730705
O O9 0.779570 0.760316 0.523168
O O10 0.799776 0.042021 0.298919
O O11 0.108572 0.326402 0.232894
O O12 0.201891 0.429270 0.378161
O O13 0.020621 0.340629 0.385332
O O14 0.020782 0.329013 0.074752
O O15 0.719380 0.429242 0.656091
O O16 0.790143 0.382292 0.453791
#
# Coordination Sequence:
#
# PCOD9340755 Si02
#       8
#     4   4   4   4   4   4   4   4
#     4  10  21  44  67  96 141 179 231 289 355 420
#     4  11  25  44  73 102 140 191 241 292 363 433
#     4  11  23  44  75  97 139 195 238 288 368 431
#     4  10  25  45  64 101 142 181 237 302 347 423
#     4  11  25  44  71 103 139 190 230 296 367 430
#     4  11  23  44  71 104 141 182 233 302 355 431
#     4  10  25  41  66 101 141 181 241 291 359 421
#     4  10  23  40  65  98 133 185 231 296 338 423
#
# _framework density 23.193266999999999
#
# number of rings (size 3 to 8) (size 9 to 14) (size 15 to 20)
#    0.000    1.500    2.500    0.750    3.500    9.000 
#    2.250    0.000    0.000    0.000    0.000    0.000 
#    0.000    0.000    0.000    0.000    0.000    0.000 
#
# Total GULP energy -178548.697537 kJ/mol
# GULP energy per Si atom -5579.646798 kJ/mol
# Density = 2.314048 g / cm^3
# Si number density = 23.193267 Si / 1000 Ang^3
#
#
#
# Elastic Constant Matrix: (Units=GPa)
#
#
# Indices 1 2 3 4 5 6 
#
# 1 62.5521 4.9578 6.2758 0.0000 0.0000 0.0000
# 2 4.9578 82.0890 8.0712 0.0000 0.0000 0.0000
# 3 6.2758 8.0712 54.0459 0.0000 0.0000 0.0000
# 4 0.0000 0.0000 0.0000 36.9749 0.0000 0.0000
# 5 0.0000 0.0000 0.0000 0.0000 43.7115 0.0000
# 6 0.0000 0.0000 0.0000 0.0000 0.0000 27.6663
#
#
#
# Elastic Compliance Matrix: (Units=1/GPa)
#
#
# Indices 1 2 3 4 5 6 
#
# 1 0.016228 -0.000807 -0.001764 0.000000 0.000000 0.000000
# 2 -0.000807 0.012404 -0.001759 0.000000 0.000000 0.000000
# 3 -0.001764 -0.001759 0.018970 0.000000 0.000000 0.000000
# 4 0.000000 0.000000 0.000000 0.027045 0.000000 0.000000
# 5 0.000000 0.000000 0.000000 0.000000 0.022877 0.000000
# 6 0.000000 0.000000 0.000000 0.000000 0.000000 0.036145
#
#
# Mechanical properties :
#
#
# Convention : Reuss Voigt Hill
#
# Bulk Modulus (GPa) = 25.67856 26.36627 26.02242
# Shear Modulus (GPa) = 32.19399 33.62934 32.91167
#
# Velocity S-wave (km/s) = 3.72973 3.81197 3.77107
# Velocity P-wave (km/s) = 5.44458 5.54685 5.49595
#
# Compressibility (1/GPa) = 0.03894300
#
# Stress axis : x y z
#
# Youngs Moduli (GPa) = 61.62354 80.62219 52.71415
#
# Poissons Ratio (x) = 0.06503 0.09298
# Poissons Ratio (y) = 0.04971 0.09271
# Poissons Ratio (z) = 0.10870 0.14179
#
# Static dielectric constant tensor:
#      x y z
#    x 1.938320 0.000000 0.000000 
#    y 0.000000 1.860510 0.000000 
#    z 0.000000 0.000000 1.957710 
# 
# From -- ./inp_files/2596.got.cif
#   From: 2010.05.17/outbox.cif.g08.bks.cpg/sg29_2_cif.got.tgz:2596.got - 2010.06.04 01:19:37.
