data_PCOD9340165
_publ_section_title
;
Structure prediction by ZEFSAII (Michael W. Deem and Ramdas Pophale) SiO2 
 PCOD9340165
Probable space group: P C A 21
;
_chemical_formula_sum "Si O2"
_cell_formula_units_Z 28
_cell_length_a 18.200460
_cell_length_b 9.162826
_cell_length_c 6.962857
_cell_angle_alpha 90.000000
_cell_angle_beta 90.000000
_cell_angle_gamma 90.000000
_cell_volume 1161.179286
_symmetry_space_group_name_H-M "P C A 21"
_symmetry_group_IT_number 29
_symmetry_cell_setting 'orthorhombic'
loop_
_space_group_symop_operation_xyz
x,y,z
-x,-y,1/2+z
1/2-x,y,1/2+z
1/2+x,-y,z
loop_
_atom_site_type_symbol
_atom_site_label
_atom_site_fract_x
_atom_site_fract_y
_atom_site_fract_z
Si Si1 0.045539 0.680289 0.301100
Si Si2 0.628906 0.581629 0.232400
Si Si3 0.182904 0.128822 0.134367
Si Si4 0.889055 0.528886 0.305374
Si Si5 0.438282 0.003350 0.892865
Si Si6 0.973655 0.267456 0.343156
Si Si7 0.844504 0.826517 0.191559
O O1 0.114320 0.572115 0.335166
O O2 0.046812 0.833171 0.409244
O O3 0.970049 0.596776 0.346050
O O4 0.039574 0.706369 0.071016
O O5 0.681515 0.720059 0.259001
O O6 0.549524 0.660466 0.265721
O O7 0.648157 0.534898 0.013567
O O8 0.268873 0.098180 0.124674
O O9 0.127980 0.019166 0.238514
O O10 0.152197 0.152631 0.920876
O O11 0.852040 0.649573 0.167921
O O12 0.907657 0.362173 0.250374
O O13 0.508924 0.096488 0.825056
O O14 0.407795 0.093467 0.074137
#
# Coordination Sequence:
#
# PCOD9340165 Si02
#       7
#     4   4   4   4   4   4   4
#     4  10  19  35  57  85 128 148 191 247 311 372
#     4   8  18  35  59  86 112 153 199 254 298 347
#     4  10  21  38  64  82 111 157 218 249 297 358
#     4   9  18  35  59  86 113 153 200 256 301 357
#     4  11  22  36  61  88 124 164 193 249 311 373
#     4   9  18  35  57  84 118 152 195 248 303 361
#     4  11  20  38  63  87 114 161 210 253 299 362
#
# _framework density 24.113416999999998
#
# number of rings (size 3 to 8) (size 9 to 14) (size 15 to 20)
#    0.000    2.286    2.857    0.000    0.000    3.429 
#    2.571    0.000    9.429    0.000    0.000    0.000 
#    0.000    0.000    0.000    0.000    0.000    0.000 
#
# Total GULP energy -156222.736198 kJ/mol
# GULP energy per Si atom -5579.383436 kJ/mol
# Density = 2.405853 g / cm^3
# Si number density = 24.113417 Si / 1000 Ang^3
#
#
#
# Elastic Constant Matrix: (Units=GPa)
#
#
# Indices 1 2 3 4 5 6 
#
# 1 35.3946 -1.9749 2.0092 0.0000 0.0000 0.0000
# 2 -1.9749 102.8612 9.9260 0.0000 0.0000 0.0000
# 3 2.0092 9.9260 107.0941 0.0000 0.0000 0.0000
# 4 0.0000 0.0000 0.0000 35.6084 0.0000 0.0000
# 5 0.0000 0.0000 0.0000 0.0000 28.5879 0.0000
# 6 0.0000 0.0000 0.0000 0.0000 0.0000 16.1383
#
#
#
# Elastic Compliance Matrix: (Units=1/GPa)
#
#
# Indices 1 2 3 4 5 6 
#
# 1 0.028320 0.000600 -0.000587 0.000000 0.000000 0.000000
# 2 0.000600 0.009822 -0.000922 0.000000 0.000000 0.000000
# 3 -0.000587 -0.000922 0.009434 0.000000 0.000000 0.000000
# 4 0.000000 0.000000 0.000000 0.028083 0.000000 0.000000
# 5 0.000000 0.000000 0.000000 0.000000 0.034980 0.000000
# 6 0.000000 0.000000 0.000000 0.000000 0.000000 0.061964
#
#
# Mechanical properties :
#
#
# Convention : Reuss Voigt Hill
#
# Bulk Modulus (GPa) = 21.85335 29.47449 25.66392
# Shear Modulus (GPa) = 26.36113 31.75956 29.06034
#
# Velocity S-wave (km/s) = 3.30997 3.63311 3.47530
# Velocity P-wave (km/s) = 4.86726 5.46344 5.17394
#
# Compressibility (1/GPa) = 0.04575958
#
# Stress axis : x y z
#
# Youngs Moduli (GPa) = 35.31112 101.80908 105.99942
#
# Poissons Ratio (x) = -0.06112 0.06222
# Poissons Ratio (y) = -0.02120 0.09769
# Poissons Ratio (z) = 0.02073 0.09383
#
# Static dielectric constant tensor:
#      x y z
#    x 1.925260 0.000000 0.000000 
#    y 0.000000 1.962080 0.000000 
#    z 0.000000 0.000000 2.085810 
# 
# From -- ./inp_files/2098.got.cif
#   From: 2010.05.17/outbox.cif.g08.bks.cpg/sg29_2_cif.got.tgz:2098.got - 2010.06.04 01:19:37.
