data_PCOD9340123
_publ_section_title
;
Structure prediction by ZEFSAII (Michael W. Deem and Ramdas Pophale) SiO2 
 PCOD9340123
Probable space group: P C A 21
;
_chemical_formula_sum "Si O2"
_cell_formula_units_Z 32
_cell_length_a 35.811576
_cell_length_b 7.462953
_cell_length_c 5.202014
_cell_angle_alpha 90.000000
_cell_angle_beta 90.000000
_cell_angle_gamma 90.000000
_cell_volume 1390.290826
_symmetry_space_group_name_H-M "P C A 21"
_symmetry_group_IT_number 29
_symmetry_cell_setting 'orthorhombic'
loop_
_space_group_symop_operation_xyz
x,y,z
-x,-y,1/2+z
1/2-x,y,1/2+z
1/2+x,-y,z
loop_
_atom_site_type_symbol
_atom_site_label
_atom_site_fract_x
_atom_site_fract_y
_atom_site_fract_z
Si Si1 0.010528 0.093018 0.125000
Si Si2 0.354053 0.657994 0.240482
Si Si3 0.729243 0.322622 0.642625
Si Si4 0.595866 0.920234 0.237167
Si Si5 0.727172 0.885204 0.656297
Si Si6 0.982317 0.432366 0.825991
Si Si7 0.600768 0.356431 0.238776
Si Si8 0.641713 0.905774 0.737818
O O1 0.053257 0.135826 0.192286
O O2 0.988983 0.248233 0.976199
O O3 0.989771 0.051218 0.392364
O O4 0.310988 0.607330 0.223857
O O5 0.375265 0.594562 0.491711
O O6 0.355110 0.876210 0.241123
O O7 0.376262 0.597121 0.991508
O O8 0.740705 0.375649 0.356612
O O9 0.727646 0.104383 0.649147
O O10 0.613897 0.860901 0.505181
O O11 0.595456 0.139223 0.235789
O O12 0.622684 0.857635 0.006937
O O13 0.746903 0.827065 0.393411
O O14 0.683736 0.836005 0.693005
O O15 0.994378 0.562488 0.060497
O O16 0.939492 0.445833 0.746797
#
# Coordination Sequence:
#
# PCOD9340123 Si02
#       8
#     4   4   4   4   4   4   4   4
#     4  12  24  40  64  86 112 150 197 241 290 343
#     4   9  17  27  45  67  96 138 183 220 269 325
#     4   9  15  23  36  59  93 132 174 216 258 319
#     4  10  19  32  52  76 100 137 183 240 272 326
#     4   9  15  23  36  56  91 139 176 207 256 330
#     4  12  26  42  60  86 118 152 189 246 302 349
#     4  10  19  34  51  73 102 141 185 231 270 340
#     4   9  17  27  42  69 100 131 181 229 271 314
#
# _framework density 23.016766000000001
#
# number of rings (size 3 to 8) (size 9 to 14) (size 15 to 20)
#    0.000    2.000    1.250    3.750    3.500    6.000 
#    0.000    0.000    0.000    0.000    0.000    0.000 
#    0.000    0.000    0.000   78.750    0.000   35.000 
#
# Total GULP energy -178987.617910 kJ/mol
# GULP energy per Si atom -5593.363060 kJ/mol
# Density = 2.296438 g / cm^3
# Si number density = 23.016766 Si / 1000 Ang^3
#
#
#
# Elastic Constant Matrix: (Units=GPa)
#
#
# Indices 1 2 3 4 5 6 
#
# 1 152.8478 -11.7314 65.0118 0.0000 0.0000 0.0000
# 2 -11.7314 56.3056 1.0437 0.0000 0.0000 0.0000
# 3 65.0118 1.0437 180.7333 0.0000 0.0000 0.0000
# 4 0.0000 0.0000 0.0000 16.2948 0.0000 0.0000
# 5 0.0000 0.0000 0.0000 0.0000 44.4483 0.0000
# 6 0.0000 0.0000 0.0000 0.0000 0.0000 0.5734
#
#
#
# Elastic Compliance Matrix: (Units=1/GPa)
#
#
# Indices 1 2 3 4 5 6 
#
# 1 0.007883 0.001695 -0.002845 0.000000 0.000000 0.000000
# 2 0.001695 0.018127 -0.000714 0.000000 0.000000 0.000000
# 3 -0.002845 -0.000714 0.006561 0.000000 0.000000 0.000000
# 4 0.000000 0.000000 0.000000 0.061369 0.000000 0.000000
# 5 0.000000 0.000000 0.000000 0.000000 0.022498 0.000000
# 6 0.000000 0.000000 0.000000 0.000000 0.000000 1.743851
#
#
# Mechanical properties :
#
#
# Convention : Reuss Voigt Hill
#
# Bulk Modulus (GPa) = 34.67308 55.39278 45.03293
# Shear Modulus (GPa) = 2.66861 34.63414 18.65138
#
# Velocity S-wave (km/s) = 1.07793 3.88330 2.84973
# Velocity P-wave (km/s) = 4.07998 6.65020 5.51686
#
# Compressibility (1/GPa) = 0.02884082
#
# Stress axis : x y z
#
# Youngs Moduli (GPa) = 126.85879 55.16739 152.42431
#
# Poissons Ratio (x) = -0.09352 0.43370
# Poissons Ratio (y) = -0.21504 0.10890
# Poissons Ratio (z) = 0.36095 0.03941
#
# Static dielectric constant tensor:
#      x y z
#    x 1.774660 0.000000 0.000000 
#    y 0.000000 1.940320 0.000000 
#    z 0.000000 0.000000 1.798310 
# 
# From -- ./inp_files/934.got.cif
#   From: 2010.05.17/outbox.cif.g08.bks.cpg/sg29_1_cif.got.tgz:934.got - 2010.06.04 01:19:37.
