data_PCOD9340723
_publ_section_title
;
Structure prediction by ZEFSAII (Michael W. Deem and Ramdas Pophale) SiO2 
 PCOD9340723
Probable space group: P C A 21
;
_chemical_formula_sum "Si O2"
_cell_formula_units_Z 20
_cell_length_a 10.309905
_cell_length_b 7.787318
_cell_length_c 9.147537
_cell_angle_alpha 90.000000
_cell_angle_beta 90.000000
_cell_angle_gamma 90.000000
_cell_volume 734.423810
_symmetry_space_group_name_H-M "P C A 21"
_symmetry_group_IT_number 29
_symmetry_cell_setting 'orthorhombic'
loop_
_space_group_symop_operation_xyz
x,y,z
-x,-y,1/2+z
1/2-x,y,1/2+z
1/2+x,-y,z
loop_
_atom_site_type_symbol
_atom_site_label
_atom_site_fract_x
_atom_site_fract_y
_atom_site_fract_z
Si Si1 0.265975 0.252173 0.978520
Si Si2 0.468847 0.476370 0.120483
Si Si3 0.151099 0.976940 0.798128
Si Si4 0.661063 0.403480 0.898867
Si Si5 0.483513 0.840136 0.022412
O O1 0.246615 0.427801 0.886800
O O2 0.261701 0.103591 0.857444
O O3 0.379189 0.312394 0.085668
O O4 0.133708 0.205037 0.067665
O O5 0.453224 0.546049 0.283310
O O6 0.428303 0.646182 0.025336
O O7 0.607793 0.414069 0.064196
O O8 0.192169 0.789891 0.858222
O O9 0.107453 0.945547 0.631970
O O10 0.022186 0.054480 0.878063
#
# Coordination Sequence:
#
# PCOD9340723 Si02
#       5
#     4   4   4   4   4
#     4   9  21  39  63  95 132 174 223 271 337 402
#     4  10  21  42  66  94 136 172 229 273 337 408
#     4   9  19  39  61  95 127 167 220 268 343 386
#     4  10  22  38  67  92 131 178 214 281 338 396
#     4   8  19  38  67  94 130 175 216 275 341 398
#
# _framework density 27.232230999999999
#
# number of rings (size 3 to 8) (size 9 to 14) (size 15 to 20)
#    1.200    1.600    0.000    0.000    2.800    4.800 
#    3.600    0.000    4.400    0.000    0.000    0.000 
#    0.000    0.000    0.000    0.000    0.000    0.000 
#
# Total GULP energy -111490.251306 kJ/mol
# GULP energy per Si atom -5574.512565 kJ/mol
# Density = 2.717025 g / cm^3
# Si number density = 27.232231 Si / 1000 Ang^3
#
#
#
# Elastic Constant Matrix: (Units=GPa)
#
#
# Indices 1 2 3 4 5 6 
#
# 1 62.3368 34.0790 4.0517 0.0000 0.0000 0.0000
# 2 34.0790 194.9302 46.6854 0.0000 0.0000 0.0000
# 3 4.0517 46.6854 92.3792 0.0000 0.0000 0.0000
# 4 0.0000 0.0000 0.0000 38.5686 0.0000 0.0000
# 5 0.0000 0.0000 0.0000 0.0000 36.8751 0.0000
# 6 0.0000 0.0000 0.0000 0.0000 0.0000 35.9706
#
#
#
# Elastic Compliance Matrix: (Units=1/GPa)
#
#
# Indices 1 2 3 4 5 6 
#
# 1 0.017803 -0.003328 0.000901 0.000000 0.000000 0.000000
# 2 -0.003328 0.006459 -0.003118 0.000000 0.000000 0.000000
# 3 0.000901 -0.003118 0.012361 0.000000 0.000000 0.000000
# 4 0.000000 0.000000 0.000000 0.025928 0.000000 0.000000
# 5 0.000000 0.000000 0.000000 0.000000 0.027119 0.000000
# 6 0.000000 0.000000 0.000000 0.000000 0.000000 0.027800
#
#
# Mechanical properties :
#
#
# Convention : Reuss Voigt Hill
#
# Bulk Modulus (GPa) = 39.16583 57.69762 48.43173
# Shear Modulus (GPa) = 36.47756 39.93820 38.20788
#
# Velocity S-wave (km/s) = 3.66389 3.83375 3.74978
# Velocity P-wave (km/s) = 5.68438 6.38984 6.04741
#
# Compressibility (1/GPa) = 0.02553246
#
# Stress axis : x y z
#
# Youngs Moduli (GPa) = 56.17085 154.83074 80.89853
#
# Poissons Ratio (x) = 0.51531 -0.07290
# Poissons Ratio (y) = 0.18695 0.25224
# Poissons Ratio (z) = -0.05062 0.48277
#
# Static dielectric constant tensor:
#      x y z
#    x 2.251130 0.000000 0.000000 
#    y 0.000000 2.108140 0.000000 
#    z 0.000000 0.000000 2.137930 
# 
# From -- ./inp_files/3065.got.cif
#   From: 2010.05.17/outbox.cif.g08.bks.cpg/sg29_2_cif.got.tgz:3065.got - 2010.06.04 01:19:37.
