data_PCOD9340555
_publ_section_title
;
Structure prediction by ZEFSAII (Michael W. Deem and Ramdas Pophale) SiO2 
 PCOD9340555
Probable space group: P C A 21
;
_chemical_formula_sum "Si O2"
_cell_formula_units_Z 32
_cell_length_a 9.001921
_cell_length_b 16.389961
_cell_length_c 10.864284
_cell_angle_alpha 90.000000
_cell_angle_beta 90.000000
_cell_angle_gamma 90.000000
_cell_volume 1602.928783
_symmetry_space_group_name_H-M "P C A 21"
_symmetry_group_IT_number 29
_symmetry_cell_setting 'orthorhombic'
loop_
_space_group_symop_operation_xyz
x,y,z
-x,-y,1/2+z
1/2-x,y,1/2+z
1/2+x,-y,z
loop_
_atom_site_type_symbol
_atom_site_label
_atom_site_fract_x
_atom_site_fract_y
_atom_site_fract_z
Si Si1 0.967231 0.885321 0.166290
Si Si2 0.073613 0.369734 0.184644
Si Si3 0.905146 0.700081 0.199732
Si Si4 0.174497 0.614251 0.859721
Si Si5 0.431204 0.720384 0.955255
Si Si6 0.367686 0.556938 0.628288
Si Si7 0.550407 0.097340 0.444939
Si Si8 0.288573 0.998781 0.558787
O O1 0.935299 0.789490 0.139227
O O2 0.985696 0.891557 0.311117
O O3 0.123233 0.921694 0.116251
O O4 0.832723 0.945867 0.129271
O O5 0.235606 0.328720 0.187536
O O6 0.080995 0.465866 0.157032
O O7 0.988355 0.360611 0.314447
O O8 0.980731 0.329526 0.074066
O O9 0.950975 0.708467 0.344050
O O10 0.009467 0.628319 0.145113
O O11 0.277133 0.689638 0.898129
O O12 0.248118 0.575238 0.736807
O O13 0.177573 0.560133 0.983961
O O14 0.413312 0.813499 0.993401
O O15 0.693043 0.039085 0.447479
O O16 0.421381 0.058060 0.524569
#
# Coordination Sequence:
#
# PCOD9340555 Si02
#       8
#     4   4   4   4   4   4   4   4
#     4  10  21  41  62  95 130 164 213 265 325 390
#     4  12  25  42  68  93 131 175 225 273 332 385
#     4  10  25  42  64  97 133 169 219 281 327 392
#     4  11  25  45  66  95 128 178 220 276 327 398
#     4  10  24  43  62  94 132 170 222 271 327 398
#     4  11  26  43  69  96 135 175 230 270 337 386
#     4  10  21  39  63  92 129 164 211 266 320 392
#     4  10  21  37  66  92 126 167 210 256 333 391
#
# _framework density 19.963459
#
# number of rings (size 3 to 8) (size 9 to 14) (size 15 to 20)
#    0.000    1.500    1.250    2.250    8.750    1.000 
#    0.000    1.250    0.000    0.000    0.000    0.000 
#    0.000    0.000    0.000    0.000    0.000    0.000 
#
# Total GULP energy -178469.195079 kJ/mol
# GULP energy per Si atom -5577.162346 kJ/mol
# Density = 1.991802 g / cm^3
# Si number density = 19.963459 Si / 1000 Ang^3
#
#
#
# Elastic Constant Matrix: (Units=GPa)
#
#
# Indices 1 2 3 4 5 6 
#
# 1 90.1165 57.0791 29.7570 0.0000 0.0000 0.0000
# 2 57.0791 158.7974 31.8124 0.0000 0.0000 0.0000
# 3 29.7570 31.8124 79.8884 0.0000 0.0000 0.0000
# 4 0.0000 0.0000 0.0000 22.4078 0.0000 0.0000
# 5 0.0000 0.0000 0.0000 0.0000 7.1429 0.0000
# 6 0.0000 0.0000 0.0000 0.0000 0.0000 25.8470
#
#
#
# Elastic Compliance Matrix: (Units=1/GPa)
#
#
# Indices 1 2 3 4 5 6 
#
# 1 0.015377 -0.004759 -0.003832 0.000000 0.000000 0.000000
# 2 -0.004759 0.008316 -0.001539 0.000000 0.000000 0.000000
# 3 -0.003832 -0.001539 0.014558 0.000000 0.000000 0.000000
# 4 0.000000 0.000000 0.000000 0.044627 0.000000 0.000000
# 5 0.000000 0.000000 0.000000 0.000000 0.140000 0.000000
# 6 0.000000 0.000000 0.000000 0.000000 0.000000 0.038689
#
#
# Mechanical properties :
#
#
# Convention : Reuss Voigt Hill
#
# Bulk Modulus (GPa) = 55.58740 62.89990 59.24365
# Shear Modulus (GPa) = 17.37168 25.08978 21.23073
#
# Velocity S-wave (km/s) = 2.95307 3.54896 3.26464
# Velocity P-wave (km/s) = 6.28749 6.95481 6.62955
#
# Compressibility (1/GPa) = 0.01798969
#
# Stress axis : x y z
#
# Youngs Moduli (GPa) = 65.03331 120.24502 68.69200
#
# Poissons Ratio (x) = 0.57229 0.26325
# Poissons Ratio (y) = 0.30952 0.10571
# Poissons Ratio (z) = 0.24923 0.18504
#
# Static dielectric constant tensor:
#      x y z
#    x 1.739310 0.000000 0.000000 
#    y 0.000000 1.713050 0.000000 
#    z 0.000000 0.000000 1.694260 
# 
# From -- ./inp_files/2947.got.cif
#   From: 2010.05.17/outbox.cif.g08.bks.cpg/sg29_2_cif.got.tgz:2947.got - 2010.06.04 01:19:37.
