data_PCOD9340221
_publ_section_title
;
Structure prediction by ZEFSAII (Michael W. Deem and Ramdas Pophale) SiO2 
 PCOD9340221
Probable space group: P C A 21
;
_chemical_formula_sum "Si O2"
_cell_formula_units_Z 32
_cell_length_a 13.269613
_cell_length_b 8.501063
_cell_length_c 13.623080
_cell_angle_alpha 90.000000
_cell_angle_beta 90.000000
_cell_angle_gamma 90.000000
_cell_volume 1536.762657
_symmetry_space_group_name_H-M "P C A 21"
_symmetry_group_IT_number 29
_symmetry_cell_setting 'orthorhombic'
loop_
_space_group_symop_operation_xyz
x,y,z
-x,-y,1/2+z
1/2-x,y,1/2+z
1/2+x,-y,z
loop_
_atom_site_type_symbol
_atom_site_label
_atom_site_fract_x
_atom_site_fract_y
_atom_site_fract_z
Si Si1 0.397326 0.240868 0.687690
Si Si2 0.771024 0.230670 0.362010
Si Si3 0.438900 0.350779 0.331799
Si Si4 0.407389 0.887947 0.745738
Si Si5 0.865765 0.544822 0.875646
Si Si6 0.607835 0.370054 0.697854
Si Si7 0.805533 0.302325 0.573734
Si Si8 0.707079 0.648682 0.008673
O O1 0.362310 0.338598 0.783093
O O2 0.499903 0.327305 0.654528
O O3 0.315342 0.243228 0.601319
O O4 0.425872 0.064115 0.713690
O O5 0.690600 0.111767 0.316790
O O6 0.710138 0.397883 0.358833
O O7 0.866382 0.259795 0.292334
O O8 0.798489 0.202545 0.474270
O O9 0.499267 0.198293 0.296504
O O10 0.523768 0.467900 0.378543
O O11 0.394431 0.453189 0.241394
O O12 0.355779 0.307999 0.411810
O O13 0.375149 0.778117 0.654190
O O14 0.822051 0.627681 0.972655
O O15 0.696305 0.330716 0.622653
O O16 0.835039 0.477777 0.542073
#
# Coordination Sequence:
#
# PCOD9340221 Si02
#       8
#     4   4   4   4   4   4   4   4
#     4  11  24  39  57  92 131 165 195 249 312 384
#     4   9  18  39  66  86 114 157 209 254 302 350
#     4  10  20  40  64  90 119 161 204 265 307 352
#     4  10  23  41  55  88 135 159 196 243 314 382
#     4   9  20  40  63  92 117 151 208 261 302 345
#     4  10  19  38  63  91 118 155 206 261 302 352
#     4  10  20  39  68  91 112 161 211 260 304 361
#     4  11  22  38  68  92 116 157 215 259 301 364
#
# _framework density 20.822994999999999
#
# number of rings (size 3 to 8) (size 9 to 14) (size 15 to 20)
#    0.000    2.000    2.500    3.000    5.250    1.000 
#    6.750    0.000    0.000    0.000    0.000    0.000 
#    0.000    0.000    0.000    0.000    0.000    0.000 
#
# Total GULP energy -178703.399547 kJ/mol
# GULP energy per Si atom -5584.481236 kJ/mol
# Density = 2.077560 g / cm^3
# Si number density = 20.822995 Si / 1000 Ang^3
#
#
#
# Elastic Constant Matrix: (Units=GPa)
#
#
# Indices 1 2 3 4 5 6 
#
# 1 35.2164 -3.3877 8.4710 0.0000 0.0000 0.0000
# 2 -3.3877 48.2443 10.4846 0.0000 0.0000 0.0000
# 3 8.4710 10.4846 81.3001 0.0000 0.0000 0.0000
# 4 0.0000 0.0000 0.0000 12.1612 0.0000 0.0000
# 5 0.0000 0.0000 0.0000 0.0000 28.5879 0.0000
# 6 0.0000 0.0000 0.0000 0.0000 0.0000 6.6876
#
#
#
# Elastic Compliance Matrix: (Units=1/GPa)
#
#
# Indices 1 2 3 4 5 6 
#
# 1 0.029494 0.002818 -0.003436 0.000000 0.000000 0.000000
# 2 0.002818 0.021595 -0.003078 0.000000 0.000000 0.000000
# 3 -0.003436 -0.003078 0.013055 0.000000 0.000000 0.000000
# 4 0.000000 0.000000 0.000000 0.082228 0.000000 0.000000
# 5 0.000000 0.000000 0.000000 0.000000 0.034980 0.000000
# 6 0.000000 0.000000 0.000000 0.000000 0.000000 0.149532
#
#
# Mechanical properties :
#
#
# Convention : Reuss Voigt Hill
#
# Bulk Modulus (GPa) = 17.62139 21.76628 19.69384
# Shear Modulus (GPa) = 13.99800 19.43353 16.71576
#
# Velocity S-wave (km/s) = 2.59557 3.05826 2.83637
# Velocity P-wave (km/s) = 4.17893 4.79023 4.49499
#
# Compressibility (1/GPa) = 0.05674922
#
# Stress axis : x y z
#
# Youngs Moduli (GPa) = 33.90575 46.30761 76.59798
#
# Poissons Ratio (x) = -0.13049 0.26322
# Poissons Ratio (y) = -0.09554 0.23581
# Poissons Ratio (z) = 0.11652 0.14256
#
# Static dielectric constant tensor:
#      x y z
#    x 1.753900 0.000000 0.000000 
#    y 0.000000 1.737670 0.000000 
#    z 0.000000 0.000000 1.787760 
# 
# From -- ./inp_files/4746.got.cif
#   From: 2010.05.17/outbox.cif.g08.bks.cpg/sg29_3_cif.got.tgz:4746.got - 2010.06.04 01:19:37.
