data_PCOD9340786
_publ_section_title
;
Structure prediction by ZEFSAII (Michael W. Deem and Ramdas Pophale) SiO2 
 PCOD9340786
Probable space group: P C A 21
;
_chemical_formula_sum "Si O2"
_cell_formula_units_Z 24
_cell_length_a 21.776412
_cell_length_b 5.397852
_cell_length_c 8.528525
_cell_angle_alpha 90.000000
_cell_angle_beta 90.000000
_cell_angle_gamma 90.000000
_cell_volume 1002.492712
_symmetry_space_group_name_H-M "P C A 21"
_symmetry_group_IT_number 29
_symmetry_cell_setting 'orthorhombic'
loop_
_space_group_symop_operation_xyz
x,y,z
-x,-y,1/2+z
1/2-x,y,1/2+z
1/2+x,-y,z
loop_
_atom_site_type_symbol
_atom_site_label
_atom_site_fract_x
_atom_site_fract_y
_atom_site_fract_z
Si Si1 0.980221 0.797150 0.857290
Si Si2 0.187421 0.391668 0.857241
Si Si3 0.716136 0.238061 0.303930
Si Si4 0.506749 0.702504 0.708844
Si Si5 0.885166 0.560436 0.653858
Si Si6 0.720864 0.906619 0.571874
O O1 0.019910 0.562568 0.791204
O O2 0.918504 0.773965 0.752498
O O3 0.010839 0.061003 0.821847
O O4 0.964250 0.752795 0.038949
O O5 0.131675 0.377786 0.976509
O O6 0.244477 0.272816 0.952460
O O7 0.213715 0.666009 0.827787
O O8 0.180311 0.244760 0.695196
O O9 0.675189 0.457423 0.237782
O O10 0.691463 0.118810 0.463702
O O11 0.724370 0.034138 0.170354
O O12 0.434905 0.659696 0.664112
#
# Coordination Sequence:
#
# PCOD9340786 Si02
#       6
#     4   4   4   4   4   4
#     4  10  23  44  73  97 130 170 221 284 343 399
#     4  11  20  39  58  94 128 171 212 265 314 388
#     4  11  20  39  58  94 128 171 212 265 314 388
#     4  10  23  44  73  97 130 170 221 284 343 399
#     4  10  24  38  70  86 134 172 220 268 340 392
#     4  10  22  32  66  84 140 170 214 260 316 376
#
# _framework density 23.940322999999999
#
# number of rings (size 3 to 8) (size 9 to 14) (size 15 to 20)
#    1.000    0.667    3.333    1.000    2.333    0.000 
#    0.000    6.667    3.667    0.000    0.000    0.000 
#    0.000    0.000    0.000    0.000    0.000    0.000 
#
# Total GULP energy -134016.856481 kJ/mol
# GULP energy per Si atom -5584.035687 kJ/mol
# Density = 2.388583 g / cm^3
# Si number density = 23.940323 Si / 1000 Ang^3
#
#
#
# Elastic Constant Matrix: (Units=GPa)
#
#
# Indices 1 2 3 4 5 6 
#
# 1 42.6436 -0.3475 13.3731 0.0000 0.0000 0.0000
# 2 -0.3475 102.6705 27.5661 0.0000 0.0000 0.0000
# 3 13.3731 27.5661 109.3533 0.0000 0.0000 0.0000
# 4 0.0000 0.0000 0.0000 47.5344 0.0000 0.0000
# 5 0.0000 0.0000 0.0000 0.0000 43.5695 0.0000
# 6 0.0000 0.0000 0.0000 0.0000 0.0000 14.5771
#
#
#
# Elastic Compliance Matrix: (Units=1/GPa)
#
#
# Indices 1 2 3 4 5 6 
#
# 1 0.024472 0.000951 -0.003232 0.000000 0.000000 0.000000
# 2 0.000951 0.010484 -0.002759 0.000000 0.000000 0.000000
# 3 -0.003232 -0.002759 0.010235 0.000000 0.000000 0.000000
# 4 0.000000 0.000000 0.000000 0.021037 0.000000 0.000000
# 5 0.000000 0.000000 0.000000 0.000000 0.022952 0.000000
# 6 0.000000 0.000000 0.000000 0.000000 0.000000 0.068601
#
#
# Mechanical properties :
#
#
# Convention : Reuss Voigt Hill
#
# Bulk Modulus (GPa) = 28.48231 37.31675 32.89953
# Shear Modulus (GPa) = 27.84501 35.40793 31.62647
#
# Velocity S-wave (km/s) = 3.41413 3.84996 3.63857
# Velocity P-wave (km/s) = 5.24068 5.94846 5.60575
#
# Compressibility (1/GPa) = 0.03510951
#
# Stress axis : x y z
#
# Youngs Moduli (GPa) = 40.86372 95.38436 97.69941
#
# Poissons Ratio (x) = -0.09068 0.31580
# Poissons Ratio (y) = -0.03885 0.26956
# Poissons Ratio (z) = 0.13209 0.26317
#
# Static dielectric constant tensor:
#      x y z
#    x 1.945670 0.000000 0.000000 
#    y 0.000000 1.936550 0.000000 
#    z 0.000000 0.000000 1.898820 
# 
# From -- ./inp_files/2388.got.cif
#   From: 2010.05.17/outbox.cif.g08.bks.cpg/sg29_2_cif.got.tgz:2388.got - 2010.06.04 01:19:37.
