data_PCOD9340831
_publ_section_title
;
Structure prediction by ZEFSAII (Michael W. Deem and Ramdas Pophale) SiO2 
 PCOD9340831
Probable space group: P C A 21
;
_chemical_formula_sum "Si O2"
_cell_formula_units_Z 24
_cell_length_a 14.858768
_cell_length_b 6.972194
_cell_length_c 9.556651
_cell_angle_alpha 90.000000
_cell_angle_beta 90.000000
_cell_angle_gamma 90.000000
_cell_volume 990.051967
_symmetry_space_group_name_H-M "P C A 21"
_symmetry_group_IT_number 29
_symmetry_cell_setting 'orthorhombic'
loop_
_space_group_symop_operation_xyz
x,y,z
-x,-y,1/2+z
1/2-x,y,1/2+z
1/2+x,-y,z
loop_
_atom_site_type_symbol
_atom_site_label
_atom_site_fract_x
_atom_site_fract_y
_atom_site_fract_z
Si Si1 0.295618 0.400013 0.872310
Si Si2 0.612151 0.502440 0.931403
Si Si3 0.466719 0.582693 0.729544
Si Si4 0.100807 0.069866 0.040604
Si Si5 0.466356 0.986563 0.263604
Si Si6 0.714517 0.874544 0.630605
O O1 0.383274 0.508330 0.819999
O O2 0.255433 0.273882 0.744246
O O3 0.216711 0.548915 0.916606
O O4 0.316653 0.254137 0.999042
O O5 0.559034 0.436126 0.067964
O O6 0.620368 0.732258 0.959788
O O7 0.555981 0.478074 0.789276
O O8 0.485284 0.805628 0.758963
O O9 0.198488 0.999041 0.088344
O O10 0.051464 0.939215 0.925424
O O11 0.036053 0.127154 0.167900
O O12 0.369275 0.008916 0.190836
#
# Coordination Sequence:
#
# PCOD9340831 Si02
#       6
#     4   4   4   4   4   4
#     4  11  20  38  66  89 122 167 209 252 316 393
#     4  10  22  39  60  94 118 166 210 251 326 381
#     4  11  21  38  63  93 126 154 211 267 313 373
#     4  10  23  40  62  90 124 170 214 255 316 383
#     4  11  24  41  63  96 125 163 220 262 314 375
#     4  11  20  42  66  88 123 174 208 249 321 397
#
# _framework density 24.241150999999999
#
# number of rings (size 3 to 8) (size 9 to 14) (size 15 to 20)
#    0.000    1.333    8.333    1.000    2.333    1.333 
#    0.000    6.667    0.000    0.000    0.000    0.000 
#    0.000    0.000    0.000    0.000    0.000    0.000 
#
# Total GULP energy -134230.909849 kJ/mol
# GULP energy per Si atom -5592.954577 kJ/mol
# Density = 2.418598 g / cm^3
# Si number density = 24.241151 Si / 1000 Ang^3
#
#
#
# Elastic Constant Matrix: (Units=GPa)
#
#
# Indices 1 2 3 4 5 6 
#
# 1 146.0171 15.9821 22.4333 0.0000 0.0000 0.0000
# 2 15.9821 20.7546 13.6771 0.0000 0.0000 0.0000
# 3 22.4333 13.6771 104.6644 0.0000 0.0000 0.0000
# 4 0.0000 0.0000 0.0000 29.4883 0.0000 0.0000
# 5 0.0000 0.0000 0.0000 0.0000 48.6794 0.0000
# 6 0.0000 0.0000 0.0000 0.0000 0.0000 26.8393
#
#
#
# Elastic Compliance Matrix: (Units=1/GPa)
#
#
# Indices 1 2 3 4 5 6 
#
# 1 0.007563 -0.005203 -0.000941 0.000000 0.000000 0.000000
# 2 -0.005203 0.056302 -0.006242 0.000000 0.000000 0.000000
# 3 -0.000941 -0.006242 0.010572 0.000000 0.000000 0.000000
# 4 0.000000 0.000000 0.000000 0.033912 0.000000 0.000000
# 5 0.000000 0.000000 0.000000 0.000000 0.020543 0.000000
# 6 0.000000 0.000000 0.000000 0.000000 0.000000 0.037259
#
#
# Mechanical properties :
#
#
# Convention : Reuss Voigt Hill
#
# Bulk Modulus (GPa) = 20.13544 41.73567 30.93555
# Shear Modulus (GPa) = 24.09900 35.62431 29.86166
#
# Velocity S-wave (km/s) = 3.15641 3.83767 3.51359
# Velocity P-wave (km/s) = 4.64847 6.07381 5.40830
#
# Compressibility (1/GPa) = 0.04966369
#
# Stress axis : x y z
#
# Youngs Moduli (GPa) = 132.22936 17.76123 94.59206
#
# Poissons Ratio (x) = 0.09242 0.08901
# Poissons Ratio (y) = 0.68806 0.59045
# Poissons Ratio (z) = 0.12442 0.11087
#
# Static dielectric constant tensor:
#      x y z
#    x 1.954190 0.000000 0.000000 
#    y 0.000000 2.056040 0.000000 
#    z 0.000000 0.000000 1.977790 
# 
# From -- ./inp_files/1668.got.cif
#   From: 2010.05.17/outbox.cif.g08.bks.cpg/sg29_1_cif.got.tgz:1668.got - 2010.06.04 01:19:37.
