data_PCOD9340306
_publ_section_title
;
Structure prediction by ZEFSAII (Michael W. Deem and Ramdas Pophale) SiO2 
 PCOD9340306
Probable space group: P C A 21
;
_chemical_formula_sum "Si O2"
_cell_formula_units_Z 32
_cell_length_a 30.347765
_cell_length_b 8.570156
_cell_length_c 5.443125
_cell_angle_alpha 90.000000
_cell_angle_beta 90.000000
_cell_angle_gamma 90.000000
_cell_volume 1415.675603
_symmetry_space_group_name_H-M "P C A 21"
_symmetry_group_IT_number 29
_symmetry_cell_setting 'orthorhombic'
loop_
_space_group_symop_operation_xyz
x,y,z
-x,-y,1/2+z
1/2-x,y,1/2+z
1/2+x,-y,z
loop_
_atom_site_type_symbol
_atom_site_label
_atom_site_fract_x
_atom_site_fract_y
_atom_site_fract_z
Si Si1 0.380722 0.909208 0.486100
Si Si2 0.602763 0.519375 0.300322
Si Si3 0.145589 0.754960 0.493627
Si Si4 0.741257 0.265043 0.310934
Si Si5 0.954603 0.307727 0.467533
Si Si6 0.042030 0.385919 0.675010
Si Si7 0.225677 0.382342 0.768114
Si Si8 0.867375 0.727307 0.423310
O O1 0.352469 0.827212 0.265195
O O2 0.430782 0.855449 0.410024
O O3 0.369610 0.089609 0.460628
O O4 0.373571 0.865335 0.775287
O O5 0.618759 0.405703 0.514574
O O6 0.585303 0.398618 0.100278
O O7 0.561973 0.614869 0.401862
O O8 0.637481 0.632618 0.178356
O O9 0.190836 0.701212 0.369184
O O10 0.756724 0.177404 0.554018
O O11 0.768215 0.427563 0.285227
O O12 0.967680 0.435293 0.260337
O O13 0.995776 0.296801 0.653739
O O14 0.083414 0.318069 0.826730
O O15 0.250689 0.329158 0.521225
O O16 0.174938 0.327488 0.768026
#
# Coordination Sequence:
#
# PCOD9340306 Si02
#       8
#     4   4   4   4   4   4   4   4
#     4  11  26  46  67  99 147 186 223 289 356 436
#     4  10  21  38  69  94 130 175 237 288 330 411
#     4  11  23  43  69  95 133 180 229 282 351 405
#     4  10  20  35  63  98 124 160 220 286 331 400
#     4  10  21  41  64 101 133 178 235 291 345 391
#     4  11  21  39  69  96 135 177 240 293 334 420
#     4  10  23  41  68  97 134 171 227 292 337 413
#     4  11  27  43  67 104 138 191 231 283 368 428
#
# _framework density 22.604050000000001
#
# number of rings (size 3 to 8) (size 9 to 14) (size 15 to 20)
#    0.000    1.500    2.500    2.250    7.000    0.000 
#    2.250    3.750    0.000    0.000    0.000    0.000 
#    0.000    0.000    0.000    0.000    0.000    0.000 
#
# Total GULP energy -178269.509559 kJ/mol
# GULP energy per Si atom -5570.922174 kJ/mol
# Density = 2.255260 g / cm^3
# Si number density = 22.604050 Si / 1000 Ang^3
#
#
#
# Elastic Constant Matrix: (Units=GPa)
#
#
# Indices 1 2 3 4 5 6 
#
# 1 89.2175 32.4245 20.1362 0.0000 0.0000 0.0000
# 2 32.4245 70.9750 16.2330 0.0000 0.0000 0.0000
# 3 20.1362 16.2330 122.1697 0.0000 0.0000 0.0000
# 4 0.0000 0.0000 0.0000 11.3714 0.0000 0.0000
# 5 0.0000 0.0000 0.0000 0.0000 40.0216 0.0000
# 6 0.0000 0.0000 0.0000 0.0000 0.0000 15.9293
#
#
#
# Elastic Compliance Matrix: (Units=1/GPa)
#
#
# Indices 1 2 3 4 5 6 
#
# 1 0.013691 -0.005919 -0.001470 0.000000 0.000000 0.000000
# 2 -0.005919 0.017090 -0.001295 0.000000 0.000000 0.000000
# 3 -0.001470 -0.001295 0.008600 0.000000 0.000000 0.000000
# 4 0.000000 0.000000 0.000000 0.087940 0.000000 0.000000
# 5 0.000000 0.000000 0.000000 0.000000 0.024987 0.000000
# 6 0.000000 0.000000 0.000000 0.000000 0.000000 0.062777
#
#
# Mechanical properties :
#
#
# Convention : Reuss Voigt Hill
#
# Bulk Modulus (GPa) = 45.42837 46.66108 46.04473
# Shear Modulus (GPa) = 20.85160 27.70236 24.27698
#
# Velocity S-wave (km/s) = 3.04052 3.50458 3.28076
# Velocity P-wave (km/s) = 5.69802 6.08800 5.89623
#
# Compressibility (1/GPa) = 0.02201268
#
# Stress axis : x y z
#
# Youngs Moduli (GPa) = 73.03863 58.51522 116.28232
#
# Poissons Ratio (x) = 0.34633 0.17096
# Poissons Ratio (y) = 0.43228 0.15061
# Poissons Ratio (z) = 0.10738 0.07579
#
# Static dielectric constant tensor:
#      x y z
#    x 2.024130 0.000000 0.000000 
#    y 0.000000 1.820700 0.000000 
#    z 0.000000 0.000000 1.959700 
# 
# From -- ./inp_files/924.got.cif
#   From: 2010.05.17/outbox.cif.g08.bks.cpg/sg29_1_cif.got.tgz:924.got - 2010.06.04 01:19:37.
