data_PCOD9340545
_publ_section_title
;
Structure prediction by ZEFSAII (Michael W. Deem and Ramdas Pophale) SiO2 
 PCOD9340545
Probable space group: P C A 21
;
_chemical_formula_sum "Si O2"
_cell_formula_units_Z 32
_cell_length_a 8.536958
_cell_length_b 21.166399
_cell_length_c 7.809094
_cell_angle_alpha 90.000000
_cell_angle_beta 90.000000
_cell_angle_gamma 90.000000
_cell_volume 1411.077198
_symmetry_space_group_name_H-M "P C A 21"
_symmetry_group_IT_number 29
_symmetry_cell_setting 'orthorhombic'
loop_
_space_group_symop_operation_xyz
x,y,z
-x,-y,1/2+z
1/2-x,y,1/2+z
1/2+x,-y,z
loop_
_atom_site_type_symbol
_atom_site_label
_atom_site_fract_x
_atom_site_fract_y
_atom_site_fract_z
Si Si1 0.329175 0.816600 0.576020
Si Si2 0.498281 0.439222 0.997487
Si Si3 0.501718 0.939223 0.468088
Si Si4 0.670824 0.316600 0.889552
Si Si5 0.672708 0.940975 0.834738
Si Si6 0.501081 0.318401 0.521803
Si Si7 0.672707 0.559025 0.130836
Si Si8 0.501081 0.181599 0.443769
O O1 0.406695 0.874470 0.475703
O O2 0.355508 0.750000 0.482785
O O3 0.407122 0.814540 0.762367
O O4 0.142292 0.828061 0.578191
O O5 0.593303 0.374469 0.989871
O O6 0.408466 0.444090 0.815963
O O7 0.613069 0.497351 0.030967
O O8 0.359695 0.440165 0.135943
O O9 0.591534 0.944090 0.649611
O O10 0.640304 0.940165 0.329632
O O11 0.386932 0.997352 0.434609
O O12 0.592877 0.314540 0.703205
O O13 0.857707 0.328061 0.887382
O O14 0.615020 0.876809 0.927198
O O15 0.384981 0.376810 0.538375
O O16 0.426343 0.250000 0.482785
#
# Coordination Sequence:
#
# PCOD9340545 Si02
#       8
#     4   4   4   4   4   4   4   4
#     4  10  21  37  59  86 115 150 190 233 283 339
#     4  11  24  40  60  86 116 152 193 238 288 342
#     4  11  24  40  60  86 116 152 193 238 288 342
#     4  10  21  37  59  86 115 150 190 233 283 339
#     4  11  24  40  60  86 116 152 193 238 288 342
#     4  10  21  37  59  86 115 150 190 233 283 339
#     4  11  24  40  60  86 116 152 193 238 288 342
#     4  10  21  37  59  86 115 150 190 233 283 339
#
# _framework density 22.677713000000001
#
# number of rings (size 3 to 8) (size 9 to 14) (size 15 to 20)
#    0.000    1.500    0.000    6.000    0.000   13.000 
#    0.000    5.000    0.000    0.000    0.000    0.000 
#    0.000    0.000    0.000    0.000    0.000    0.000 
#
# Total GULP energy -179200.016178 kJ/mol
# GULP energy per Si atom -5600.000506 kJ/mol
# Density = 2.262610 g / cm^3
# Si number density = 22.677713 Si / 1000 Ang^3
#
#
#
# Elastic Constant Matrix: (Units=GPa)
#
#
# Indices 1 2 3 4 5 6 
#
# 1 52.7429 42.0904 -17.2402 0.0000 0.0000 0.0000
# 2 42.0904 127.8821 18.4954 0.0000 0.0000 0.0000
# 3 -17.2402 18.4954 64.6107 0.0000 0.0000 0.0000
# 4 0.0000 0.0000 0.0000 23.2388 0.0000 0.0000
# 5 0.0000 0.0000 0.0000 0.0000 30.7703 0.0000
# 6 0.0000 0.0000 0.0000 0.0000 0.0000 39.9557
#
#
#
# Elastic Compliance Matrix: (Units=1/GPa)
#
#
# Indices 1 2 3 4 5 6 
#
# 1 0.033219 -0.012743 0.012512 0.000000 0.000000 0.000000
# 2 -0.012743 0.013046 -0.007135 0.000000 0.000000 0.000000
# 3 0.012512 -0.007135 0.020858 0.000000 0.000000 0.000000
# 4 0.000000 0.000000 0.000000 0.043031 0.000000 0.000000
# 5 0.000000 0.000000 0.000000 0.000000 0.032499 0.000000
# 6 0.000000 0.000000 0.000000 0.000000 0.000000 0.025028
#
#
# Mechanical properties :
#
#
# Convention : Reuss Voigt Hill
#
# Bulk Modulus (GPa) = 19.08731 36.88076 27.98403
# Shear Modulus (GPa) = 25.01543 32.25232 28.63387
#
# Velocity S-wave (km/s) = 3.32487 3.77530 3.55722
# Velocity P-wave (km/s) = 4.81402 5.94156 5.40726
#
# Compressibility (1/GPa) = 0.05239083
#
# Stress axis : x y z
#
# Youngs Moduli (GPa) = 30.10326 76.65326 47.94274
#
# Poissons Ratio (x) = 0.97680 -0.59985
# Poissons Ratio (y) = 0.38361 0.34206
# Poissons Ratio (z) = -0.37664 0.54690
#
# Static dielectric constant tensor:
#      x y z
#    x 1.788330 0.000000 0.000000 
#    y 0.000000 1.795200 0.000000 
#    z 0.000000 0.000000 1.902680 
# 
# From -- ./inp_files/1280.got.cif
#   From: 2010.05.17/outbox.cif.g08.bks.cpg/sg29_1_cif.got.tgz:1280.got - 2010.06.04 01:19:37.
