data_PCOD9340826
_publ_section_title
;
Structure prediction by ZEFSAII (Michael W. Deem and Ramdas Pophale) SiO2 
 PCOD9340826
Probable space group: P C A 21
;
_chemical_formula_sum "Si O2"
_cell_formula_units_Z 28
_cell_length_a 5.167363
_cell_length_b 15.636711
_cell_length_c 15.146040
_cell_angle_alpha 90.000000
_cell_angle_beta 90.000000
_cell_angle_gamma 90.000000
_cell_volume 1223.808542
_symmetry_space_group_name_H-M "P C A 21"
_symmetry_group_IT_number 29
_symmetry_cell_setting 'orthorhombic'
loop_
_space_group_symop_operation_xyz
x,y,z
-x,-y,1/2+z
1/2-x,y,1/2+z
1/2+x,-y,z
loop_
_atom_site_type_symbol
_atom_site_label
_atom_site_fract_x
_atom_site_fract_y
_atom_site_fract_z
Si Si1 0.132671 0.835415 0.294850
Si Si2 0.928173 0.946165 0.455992
Si Si3 0.593182 0.441365 0.455992
Si Si4 0.577794 0.321258 0.052110
Si Si5 0.077792 0.678743 0.859876
Si Si6 0.749997 0.699419 0.705993
Si Si7 0.132666 0.835415 0.617135
O O1 0.937353 0.763586 0.258849
O O2 0.999952 0.894236 0.367405
O O3 0.350651 0.777109 0.341450
O O4 0.250002 0.878521 0.205992
O O5 0.999951 0.894236 0.544579
O O6 0.130446 0.025322 0.455992
O O7 0.321871 0.487785 0.455991
O O8 0.667014 0.379087 0.374414
O O9 0.667013 0.379089 0.537570
O O10 0.413493 0.352062 0.134460
O O11 0.649354 0.222893 0.070536
O O12 0.444617 0.324589 0.955993
O O13 0.913490 0.647939 0.777526
O O14 0.937346 0.763587 0.653136
#
# Coordination Sequence:
#
# PCOD9340826 Si02
#       7
#     4   4   4   4   4   4   4
#     4  10  23  43  67  96 124 172 227 272 318 388
#     4  12  29  43  68  98 138 174 210 262 341 398
#     4  10  23  39  64  98 138 178 212 266 337 388
#     4   9  21  38  69  92 127 173 227 265 320 387
#     4   9  21  38  69  92 127 173 227 265 320 387
#     4  10  22  38  70  94 124 164 238 272 318 372
#     4  10  23  43  67  96 124 172 227 272 318 388
#
# _framework density 22.879397999999998
#
# number of rings (size 3 to 8) (size 9 to 14) (size 15 to 20)
#    0.857    1.143    1.429    0.000   14.000    1.143 
#    0.000    1.429    0.000    0.000    0.000    0.000 
#    0.000    0.000    0.000    0.000    0.000    0.000 
#
# Total GULP energy -156283.508946 kJ/mol
# GULP energy per Si atom -5581.553891 kJ/mol
# Density = 2.282732 g / cm^3
# Si number density = 22.879398 Si / 1000 Ang^3
#
#
#
# Elastic Constant Matrix: (Units=GPa)
#
#
# Indices 1 2 3 4 5 6 
#
# 1 47.8861 -3.8284 17.3630 0.0000 0.0000 0.0000
# 2 -3.8284 37.8651 35.6767 0.0000 0.0000 0.0000
# 3 17.3630 35.6767 132.8933 0.0000 0.0000 0.0000
# 4 0.0000 0.0000 0.0000 3.6386 0.0000 0.0000
# 5 0.0000 0.0000 0.0000 0.0000 18.6725 0.0000
# 6 0.0000 0.0000 0.0000 0.0000 0.0000 35.0173
#
#
#
# Elastic Compliance Matrix: (Units=1/GPa)
#
#
# Indices 1 2 3 4 5 6 
#
# 1 0.023218 0.006968 -0.004904 0.000000 0.000000 0.000000
# 2 0.006968 0.037443 -0.010962 0.000000 0.000000 0.000000
# 3 -0.004904 -0.010962 0.011109 0.000000 0.000000 0.000000
# 4 0.000000 0.000000 0.000000 0.274829 0.000000 0.000000
# 5 0.000000 0.000000 0.000000 0.000000 0.053555 0.000000
# 6 0.000000 0.000000 0.000000 0.000000 0.000000 0.028557
#
#
# Mechanical properties :
#
#
# Convention : Reuss Voigt Hill
#
# Bulk Modulus (GPa) = 18.52773 35.22966 26.87870
# Shear Modulus (GPa) = 10.76430 22.76123 16.76277
#
# Velocity S-wave (km/s) = 2.17141 3.15752 2.70970
# Velocity P-wave (km/s) = 3.79503 5.35954 4.64365
#
# Compressibility (1/GPa) = 0.05397314
#
# Stress axis : x y z
#
# Youngs Moduli (GPa) = 43.06957 26.70728 90.02046
#
# Poissons Ratio (x) = -0.18611 0.44149
# Poissons Ratio (y) = -0.30013 0.98684
# Poissons Ratio (z) = 0.21123 0.29278
#
# Static dielectric constant tensor:
#      x y z
#    x 1.943610 0.000000 0.000000 
#    y 0.000000 1.828760 0.000000 
#    z 0.000000 0.000000 1.888350 
# 
# From -- ./inp_files/4091.got.cif
#   From: 2010.05.17/outbox.cif.g08.bks.cpg/sg29_3_cif.got.tgz:4091.got - 2010.06.04 01:19:37.
