data_PCOD9340352
_publ_section_title
;
Structure prediction by ZEFSAII (Michael W. Deem and Ramdas Pophale) SiO2 
 PCOD9340352
Probable space group: P C A 21
;
_chemical_formula_sum "Si O2"
_cell_formula_units_Z 32
_cell_length_a 6.893455
_cell_length_b 11.977942
_cell_length_c 15.523184
_cell_angle_alpha 90.000000
_cell_angle_beta 90.000000
_cell_angle_gamma 90.000000
_cell_volume 1281.740054
_symmetry_space_group_name_H-M "P C A 21"
_symmetry_group_IT_number 29
_symmetry_cell_setting 'orthorhombic'
loop_
_space_group_symop_operation_xyz
x,y,z
-x,-y,1/2+z
1/2-x,y,1/2+z
1/2+x,-y,z
loop_
_atom_site_type_symbol
_atom_site_label
_atom_site_fract_x
_atom_site_fract_y
_atom_site_fract_z
Si Si1 0.596168 0.398383 0.958090
Si Si2 0.123008 0.994014 0.019871
Si Si3 0.615156 0.242464 0.099185
Si Si4 0.076371 0.215110 0.117389
Si Si5 0.381329 0.010594 0.886223
Si Si6 0.533674 0.744910 0.309521
Si Si7 0.916196 0.212836 0.788348
Si Si8 0.548919 0.658547 0.945406
O O1 0.452757 0.346336 0.886340
O O2 0.608400 0.529921 0.946885
O O3 0.813296 0.347992 0.953871
O O4 0.543816 0.354899 0.053390
O O5 0.132283 0.086020 0.097047
O O6 0.079713 0.864336 0.040019
O O7 0.132309 0.014442 0.911146
O O8 0.873332 0.018040 0.995788
O O9 0.844432 0.232814 0.114797
O O10 0.518943 0.224277 0.190873
O O11 0.121212 0.260857 0.213127
O O12 0.135002 0.277350 0.028185
O O13 0.412886 0.134732 0.848953
O O14 0.379724 0.914244 0.814832
O O15 0.299995 0.736697 0.294683
O O16 0.059124 0.273252 0.856004
#
# Coordination Sequence:
#
# PCOD9340352 Si02
#       8
#     4   4   4   4   4   4   4   4
#     4  10  21  39  60  81 111 154 196 244 297 345
#     4  12  20  36  61  86 121 156 190 234 292 351
#     4  10  20  37  59  85 118 157 195 237 295 354
#     4  10  21  38  60  86 117 155 196 241 294 353
#     4  12  20  36  61  86 121 156 190 234 292 351
#     4  10  21  38  60  86 117 155 196 241 294 353
#     4  10  20  37  59  85 118 157 195 237 295 354
#     4  10  21  39  60  81 111 154 196 244 297 345
#
# _framework density 24.966061
#
# number of rings (size 3 to 8) (size 9 to 14) (size 15 to 20)
#    0.000    1.500    5.000    1.500    0.000    2.000 
#    0.000    0.000    0.000    0.000    0.000    0.000 
#    0.000    0.000    0.000    0.000    0.000    0.000 
#
# Total GULP energy -178612.535786 kJ/mol
# GULP energy per Si atom -5581.641743 kJ/mol
# Density = 2.490924 g / cm^3
# Si number density = 24.966061 Si / 1000 Ang^3
#
#
#
# Elastic Constant Matrix: (Units=GPa)
#
#
# Indices 1 2 3 4 5 6 
#
# 1 118.7086 -22.9402 0.2828 0.0000 0.0000 0.0000
# 2 -22.9402 123.9831 64.9019 0.0000 0.0000 0.0000
# 3 0.2828 64.9019 183.5919 0.0000 0.0000 0.0000
# 4 0.0000 0.0000 0.0000 14.4659 0.0000 0.0000
# 5 0.0000 0.0000 0.0000 0.0000 13.2879 0.0000
# 6 0.0000 0.0000 0.0000 0.0000 0.0000 25.1319
#
#
#
# Elastic Compliance Matrix: (Units=1/GPa)
#
#
# Indices 1 2 3 4 5 6 
#
# 1 0.008814 0.002010 -0.000724 0.000000 0.000000 0.000000
# 2 0.002010 0.010355 -0.003664 0.000000 0.000000 0.000000
# 3 -0.000724 -0.003664 0.006743 0.000000 0.000000 0.000000
# 4 0.000000 0.000000 0.000000 0.069128 0.000000 0.000000
# 5 0.000000 0.000000 0.000000 0.000000 0.075257 0.000000
# 6 0.000000 0.000000 0.000000 0.000000 0.000000 0.039790
#
#
# Mechanical properties :
#
#
# Convention : Reuss Voigt Hill
#
# Bulk Modulus (GPa) = 47.26653 56.75250 52.00952
# Shear Modulus (GPa) = 22.53312 36.17975 29.35643
#
# Velocity S-wave (km/s) = 3.00751 3.81091 3.43279
# Velocity P-wave (km/s) = 5.57078 6.49194 6.04892
#
# Compressibility (1/GPa) = 0.02115662
#
# Stress axis : x y z
#
# Youngs Moduli (GPa) = 113.45432 96.56764 148.29762
#
# Poissons Ratio (x) = -0.19409 0.10738
# Poissons Ratio (y) = -0.22803 0.54334
# Poissons Ratio (z) = 0.08215 0.35381
#
# Static dielectric constant tensor:
#      x y z
#    x 2.278050 0.000000 0.000000 
#    y 0.000000 1.838580 0.000000 
#    z 0.000000 0.000000 1.991490 
# 
# From -- ./inp_files/4274.got.cif
#   From: 2010.05.17/outbox.cif.g08.bks.cpg/sg29_3_cif.got.tgz:4274.got - 2010.06.04 01:19:37.
