data_PCOD9340641
_publ_section_title
;
Structure prediction by ZEFSAII (Michael W. Deem and Ramdas Pophale) SiO2 
 PCOD9340641
Probable space group: P C A 21
;
_chemical_formula_sum "Si O2"
_cell_formula_units_Z 24
_cell_length_a 15.644694
_cell_length_b 8.940396
_cell_length_c 8.971779
_cell_angle_alpha 90.000000
_cell_angle_beta 90.000000
_cell_angle_gamma 90.000000
_cell_volume 1254.880572
_symmetry_space_group_name_H-M "P C A 21"
_symmetry_group_IT_number 29
_symmetry_cell_setting 'orthorhombic'
loop_
_space_group_symop_operation_xyz
x,y,z
-x,-y,1/2+z
1/2-x,y,1/2+z
1/2+x,-y,z
loop_
_atom_site_type_symbol
_atom_site_label
_atom_site_fract_x
_atom_site_fract_y
_atom_site_fract_z
Si Si1 0.666650 0.173804 0.206800
Si Si2 0.666040 0.821102 0.196206
Si Si3 0.323148 0.324188 0.020680
Si Si4 0.492134 0.339097 0.562018
Si Si5 0.503175 0.658758 0.702599
Si Si6 0.317740 0.678551 0.025320
O O1 0.570527 0.222547 0.164741
O O2 0.678088 0.224418 0.376716
O O3 0.736949 0.266960 0.117022
O O4 0.679950 0.998068 0.189523
O O5 0.665947 0.761986 0.365524
O O6 0.741147 0.737442 0.107318
O O7 0.576297 0.777858 0.120949
O O8 0.407081 0.305898 0.123706
O O9 0.312530 0.501653 0.990832
O O10 0.473352 0.498715 0.638004
O O11 0.487973 0.351234 0.382016
O O12 0.590075 0.300209 0.603809
#
# Coordination Sequence:
#
# PCOD9340641 Si02
#       6
#     4   4   4   4   4   4
#     4  11  24  39  60  90 124 157 195 252 312 362
#     4  12  24  39  61  91 125 157 198 254 312 363
#     4  11  23  41  65  89 118 163 209 251 296 364
#     4  10  21  40  62  89 119 158 207 253 297 360
#     4  10  22  40  63  89 119 160 207 251 300 359
#     4  10  22  41  63  86 117 159 206 245 293 360
#
# _framework density 19.125326000000001
#
# number of rings (size 3 to 8) (size 9 to 14) (size 15 to 20)
#    0.000    1.333    0.000    7.000    0.000    9.333 
#    0.000    0.000    0.000    0.000    0.000    0.000 
#    0.000    0.000    0.000    0.000    0.000    0.000 
#
# Total GULP energy -134163.180700 kJ/mol
# GULP energy per Si atom -5590.132529 kJ/mol
# Density = 1.908180 g / cm^3
# Si number density = 19.125326 Si / 1000 Ang^3
#
#
#
# Elastic Constant Matrix: (Units=GPa)
#
#
# Indices 1 2 3 4 5 6 
#
# 1 79.5584 34.7404 23.0394 0.0000 0.0000 0.0000
# 2 34.7404 68.5379 8.0182 0.0000 0.0000 0.0000
# 3 23.0394 8.0182 68.6582 0.0000 0.0000 0.0000
# 4 0.0000 0.0000 0.0000 35.7820 0.0000 0.0000
# 5 0.0000 0.0000 0.0000 0.0000 29.7232 0.0000
# 6 0.0000 0.0000 0.0000 0.0000 0.0000 3.1448
#
#
#
# Elastic Compliance Matrix: (Units=1/GPa)
#
#
# Indices 1 2 3 4 5 6 
#
# 1 0.017658 -0.008371 -0.004948 0.000000 0.000000 0.000000
# 2 -0.008371 0.018761 0.000618 0.000000 0.000000 0.000000
# 3 -0.004948 0.000618 0.016153 0.000000 0.000000 0.000000
# 4 0.000000 0.000000 0.000000 0.027947 0.000000 0.000000
# 5 0.000000 0.000000 0.000000 0.000000 0.033644 0.000000
# 6 0.000000 0.000000 0.000000 0.000000 0.000000 0.317984
#
#
# Mechanical properties :
#
#
# Convention : Reuss Voigt Hill
#
# Bulk Modulus (GPa) = 36.80510 38.70559 37.75535
# Shear Modulus (GPa) = 10.71567 23.79377 17.25472
#
# Velocity S-wave (km/s) = 2.36961 3.53100 3.00691
# Velocity P-wave (km/s) = 5.17423 6.07501 5.64263
#
# Compressibility (1/GPa) = 0.02717015
#
# Stress axis : x y z
#
# Youngs Moduli (GPa) = 56.63243 53.30068 61.90802
#
# Poissons Ratio (x) = 0.44621 0.30630
# Poissons Ratio (y) = 0.47410 -0.03827
# Poissons Ratio (z) = 0.28020 -0.03295
#
# Static dielectric constant tensor:
#      x y z
#    x 1.668330 0.000000 0.000000 
#    y 0.000000 1.619270 0.000000 
#    z 0.000000 0.000000 1.637940 
# 
# From -- ./inp_files/1669.got.cif
#   From: 2010.05.17/outbox.cif.g08.bks.cpg/sg29_1_cif.got.tgz:1669.got - 2010.06.04 01:19:37.
