data_PCOD9340193
_publ_section_title
;
Structure prediction by ZEFSAII (Michael W. Deem and Ramdas Pophale) SiO2 
 PCOD9340193
Probable space group: P C A 21
;
_chemical_formula_sum "Si O2"
_cell_formula_units_Z 32
_cell_length_a 5.630342
_cell_length_b 17.130796
_cell_length_c 12.852613
_cell_angle_alpha 90.000000
_cell_angle_beta 90.000000
_cell_angle_gamma 90.000000
_cell_volume 1239.663316
_symmetry_space_group_name_H-M "P C A 21"
_symmetry_group_IT_number 29
_symmetry_cell_setting 'orthorhombic'
loop_
_space_group_symop_operation_xyz
x,y,z
-x,-y,1/2+z
1/2-x,y,1/2+z
1/2+x,-y,z
loop_
_atom_site_type_symbol
_atom_site_label
_atom_site_fract_x
_atom_site_fract_y
_atom_site_fract_z
Si Si1 0.489909 0.205497 0.562890
Si Si2 0.879861 0.013643 0.292785
Si Si3 0.909267 0.470910 0.483530
Si Si4 0.630794 0.462754 0.233900
Si Si5 0.650544 0.280348 0.205425
Si Si6 0.293520 0.816926 0.373570
Si Si7 0.107559 0.300351 0.485036
Si Si8 0.158194 0.041964 0.025007
O O1 0.600511 0.243726 0.664578
O O2 0.691089 0.169888 0.488429
O O3 0.379345 0.277991 0.499797
O O4 0.322505 0.130046 0.570503
O O5 0.884222 0.103063 0.328068
O O6 0.627418 0.003633 0.238173
O O7 0.857708 0.959989 0.396850
O O8 0.130016 0.527577 0.451021
O O9 0.030841 0.387627 0.462511
O O10 0.883372 0.479093 0.608989
O O11 0.374918 0.495818 0.271116
O O12 0.656608 0.369334 0.243903
O O13 0.595841 0.221025 0.298109
O O14 0.491715 0.281436 0.101603
O O15 0.494985 0.753558 0.397065
O O16 0.402927 0.997192 0.048900
#
# Coordination Sequence:
#
# PCOD9340193 Si02
#       8
#     4   4   4   4   4   4   4   4
#     4  11  23  40  68  94 130 176 218 277 340 392
#     4  10  19  37  64  89 123 172 219 257 321 398
#     4   9  19  34  61  91 126 167 216 269 325 402
#     4   9  19  38  64  88 126 180 217 266 336 398
#     4  10  25  41  63 101 132 167 228 279 328 401
#     4  11  23  42  65  95 132 175 217 278 334 395
#     4  10  23  40  65  93 129 172 219 270 341 393
#     4  10  19  36  64  91 122 171 220 258 321 401
#
# _framework density 25.813459999999999
#
# number of rings (size 3 to 8) (size 9 to 14) (size 15 to 20)
#    0.000    2.000    2.500    1.500   12.250    1.000 
#    0.000    2.500    0.000    0.000    0.000    0.000 
#    0.000    0.000    0.000    0.000    0.000    0.000 
#
# Total GULP energy -178842.743404 kJ/mol
# GULP energy per Si atom -5588.835731 kJ/mol
# Density = 2.575471 g / cm^3
# Si number density = 25.813460 Si / 1000 Ang^3
#
#
#
# Elastic Constant Matrix: (Units=GPa)
#
#
# Indices 1 2 3 4 5 6 
#
# 1 146.5380 50.3157 25.4807 0.0000 0.0000 0.0000
# 2 50.3157 130.7891 8.9906 0.0000 0.0000 0.0000
# 3 25.4807 8.9906 62.5073 0.0000 0.0000 0.0000
# 4 0.0000 0.0000 0.0000 17.0588 0.0000 0.0000
# 5 0.0000 0.0000 0.0000 0.0000 46.7690 0.0000
# 6 0.0000 0.0000 0.0000 0.0000 0.0000 35.2631
#
#
#
# Elastic Compliance Matrix: (Units=1/GPa)
#
#
# Indices 1 2 3 4 5 6 
#
# 1 0.008379 -0.003019 -0.002982 0.000000 0.000000 0.000000
# 2 -0.003019 0.008810 -0.000037 0.000000 0.000000 0.000000
# 3 -0.002982 -0.000037 0.017219 0.000000 0.000000 0.000000
# 4 0.000000 0.000000 0.000000 0.058621 0.000000 0.000000
# 5 0.000000 0.000000 0.000000 0.000000 0.021382 0.000000
# 6 0.000000 0.000000 0.000000 0.000000 0.000000 0.028358
#
#
# Mechanical properties :
#
#
# Convention : Reuss Voigt Hill
#
# Bulk Modulus (GPa) = 44.77445 56.60093 50.68769
# Shear Modulus (GPa) = 30.80972 36.82133 33.81553
#
# Velocity S-wave (km/s) = 3.45853 3.78092 3.62331
# Velocity P-wave (km/s) = 5.77336 6.40586 6.09781
#
# Compressibility (1/GPa) = 0.02233417
#
# Stress axis : x y z
#
# Youngs Moduli (GPa) = 119.34506 113.51158 58.07612
#
# Poissons Ratio (x) = 0.34264 0.17315
# Poissons Ratio (y) = 0.36025 0.00213
# Poissons Ratio (z) = 0.35583 0.00416
#
# Static dielectric constant tensor:
#      x y z
#    x 2.069380 0.000000 0.000000 
#    y 0.000000 1.976940 0.000000 
#    z 0.000000 0.000000 2.159710 
# 
# From -- ./inp_files/4105.got.cif
#   From: 2010.05.17/outbox.cif.g08.bks.cpg/sg29_3_cif.got.tgz:4105.got - 2010.06.04 01:19:37.
