data_PCOD9340926
_publ_section_title
;
Structure prediction by ZEFSAII (Michael W. Deem and Ramdas Pophale) SiO2 
 PCOD9340926
Probable space group: P C A 21
;
_chemical_formula_sum "Si O2"
_cell_formula_units_Z 16
_cell_length_a 10.886127
_cell_length_b 4.796336
_cell_length_c 11.220375
_cell_angle_alpha 90.000000
_cell_angle_beta 90.000000
_cell_angle_gamma 90.000000
_cell_volume 585.855306
_symmetry_space_group_name_H-M "P C A 21"
_symmetry_group_IT_number 29
_symmetry_cell_setting 'orthorhombic'
loop_
_space_group_symop_operation_xyz
x,y,z
-x,-y,1/2+z
1/2-x,y,1/2+z
1/2+x,-y,z
loop_
_atom_site_type_symbol
_atom_site_label
_atom_site_fract_x
_atom_site_fract_y
_atom_site_fract_z
Si Si1 0.446109 0.990440 0.486550
Si Si2 0.289183 0.234133 0.298875
Si Si3 0.587462 0.464378 0.419194
Si Si4 0.877959 0.269963 0.156419
O O1 0.321035 0.091819 0.426924
O O2 0.537028 0.157625 0.394355
O O3 0.673339 0.408759 0.535578
O O4 0.483334 0.671217 0.472891
O O5 0.162810 0.395385 0.315965
O O6 0.379776 0.480916 0.251408
O O7 0.297386 0.980474 0.207343
O O8 0.495733 0.125017 0.609013
#
# Coordination Sequence:
#
# PCOD9340926 Si02
#       4
#     4   4   4   4
#     4  10  22  44  60  94 134 155 221 265 298 401
#     4  12  22  42  70  86 132 179 193 273 340 344
#     4  10  22  44  59  97 128 159 222 264 298 404
#     4  10  22  42  61  97 128 159 224 262 300 407
#
# _framework density 27.310497000000002
#
# number of rings (size 3 to 8) (size 9 to 14) (size 15 to 20)
#    1.500    0.000    2.500    3.000    0.000    0.000 
#   13.500    0.000    0.000    0.000    0.000    0.000 
#    0.000    0.000    0.000    0.000    0.000    0.000 
#
# Total GULP energy -89294.161486 kJ/mol
# GULP energy per Si atom -5580.885093 kJ/mol
# Density = 2.724834 g / cm^3
# Si number density = 27.310497 Si / 1000 Ang^3
#
#
#
# Elastic Constant Matrix: (Units=GPa)
#
#
# Indices 1 2 3 4 5 6 
#
# 1 36.6187 -0.1972 3.5730 0.0000 0.0000 0.0000
# 2 -0.1972 144.5790 25.1468 0.0000 0.0000 0.0000
# 3 3.5730 25.1468 77.2349 0.0000 0.0000 0.0000
# 4 0.0000 0.0000 0.0000 73.4741 0.0000 0.0000
# 5 0.0000 0.0000 0.0000 0.0000 30.5008 0.0000
# 6 0.0000 0.0000 0.0000 0.0000 0.0000 40.4402
#
#
#
# Elastic Compliance Matrix: (Units=1/GPa)
#
#
# Indices 1 2 3 4 5 6 
#
# 1 0.027443 0.000274 -0.001359 0.000000 0.000000 0.000000
# 2 0.000274 0.007335 -0.002401 0.000000 0.000000 0.000000
# 3 -0.001359 -0.002401 0.013792 0.000000 0.000000 0.000000
# 4 0.000000 0.000000 0.000000 0.013610 0.000000 0.000000
# 5 0.000000 0.000000 0.000000 0.000000 0.032786 0.000000
# 6 0.000000 0.000000 0.000000 0.000000 0.000000 0.024728
#
#
# Mechanical properties :
#
#
# Convention : Reuss Voigt Hill
#
# Bulk Modulus (GPa) = 24.03970 35.05307 29.54638
# Shear Modulus (GPa) = 35.57949 44.21036 39.89493
#
# Velocity S-wave (km/s) = 3.61332 4.02780 3.82618
# Velocity P-wave (km/s) = 5.12148 5.87314 5.51014
#
# Compressibility (1/GPa) = 0.04159786
#
# Stress axis : x y z
#
# Youngs Moduli (GPa) = 36.43980 136.34070 72.50575
#
# Poissons Ratio (x) = -0.03732 0.09851
# Poissons Ratio (y) = -0.00998 0.17407
# Poissons Ratio (z) = 0.04951 0.32731
#
# Static dielectric constant tensor:
#      x y z
#    x 2.365190 0.000000 0.000000 
#    y 0.000000 2.001120 0.000000 
#    z 0.000000 0.000000 2.177770 
# 
# From -- ./inp_files/2989.got.cif
#   From: 2010.05.17/outbox.cif.g08.bks.cpg/sg29_2_cif.got.tgz:2989.got - 2010.06.04 01:19:37.
