data_PCOD9340726
_publ_section_title
;
Structure prediction by ZEFSAII (Michael W. Deem and Ramdas Pophale) SiO2 
 PCOD9340726
Probable space group: P C A 21
;
_chemical_formula_sum "Si O2"
_cell_formula_units_Z 28
_cell_length_a 19.232086
_cell_length_b 6.278622
_cell_length_c 10.162804
_cell_angle_alpha 90.000000
_cell_angle_beta 90.000000
_cell_angle_gamma 90.000000
_cell_volume 1227.168728
_symmetry_space_group_name_H-M "P C A 21"
_symmetry_group_IT_number 29
_symmetry_cell_setting 'orthorhombic'
loop_
_space_group_symop_operation_xyz
x,y,z
-x,-y,1/2+z
1/2-x,y,1/2+z
1/2+x,-y,z
loop_
_atom_site_type_symbol
_atom_site_label
_atom_site_fract_x
_atom_site_fract_y
_atom_site_fract_z
Si Si1 0.922100 0.182390 0.960420
Si Si2 0.817109 0.446110 0.856717
Si Si3 0.386646 0.266898 0.675586
Si Si4 0.563412 0.053622 0.962172
Si Si5 0.995263 0.571076 0.094529
Si Si6 0.257824 0.425811 0.126956
Si Si7 0.879156 0.889778 0.198522
O O1 0.868524 0.245961 0.847400
O O2 0.988944 0.047246 0.920537
O O3 0.948696 0.410106 0.011258
O O4 0.887937 0.060050 0.082146
O O5 0.852651 0.676327 0.817951
O O6 0.756379 0.422557 0.750898
O O7 0.790394 0.460736 0.003117
O O8 0.412465 0.059460 0.598329
O O9 0.453287 0.421120 0.676084
O O10 0.319815 0.345226 0.590566
O O11 0.613184 0.000293 0.840594
O O12 0.545233 0.293860 0.998674
O O13 0.943849 0.724588 0.175371
O O14 0.308269 0.239037 0.176308
#
# Coordination Sequence:
#
# PCOD9340726 Si02
#       7
#     4   4   4   4   4   4   4
#     4  10  22  41  66 102 135 184 231 292 355 413
#     4  10  21  44  67  97 134 181 226 287 344 421
#     4   9  22  41  68  97 134 179 232 283 356 412
#     4  10  22  40  69 102 135 182 235 295 353 423
#     4  10  21  42  67 100 136 181 230 293 345 421
#     4  10  22  43  70  95 141 184 230 287 353 416
#     4  11  22  41  69 103 141 181 238 295 354 418
#
# _framework density 22.816748
#
# number of rings (size 3 to 8) (size 9 to 14) (size 15 to 20)
#    0.857    1.143    1.429    1.714    0.000    5.714 
#    7.714    1.429    0.000    0.000    0.000    0.000 
#    0.000    0.000    0.000    0.000    0.000    0.000 
#
# Total GULP energy -156222.577540 kJ/mol
# GULP energy per Si atom -5579.377769 kJ/mol
# Density = 2.276482 g / cm^3
# Si number density = 22.816748 Si / 1000 Ang^3
#
#
#
# Elastic Constant Matrix: (Units=GPa)
#
#
# Indices 1 2 3 4 5 6 
#
# 1 79.9893 9.3927 20.1996 0.0000 0.0000 0.0000
# 2 9.3927 37.9928 29.5251 0.0000 0.0000 0.0000
# 3 20.1996 29.5251 93.4350 0.0000 0.0000 0.0000
# 4 0.0000 0.0000 0.0000 18.4224 0.0000 0.0000
# 5 0.0000 0.0000 0.0000 0.0000 29.3212 0.0000
# 6 0.0000 0.0000 0.0000 0.0000 0.0000 18.6279
#
#
#
# Elastic Compliance Matrix: (Units=1/GPa)
#
#
# Indices 1 2 3 4 5 6 
#
# 1 0.013279 -0.001394 -0.002430 0.000000 0.000000 0.000000
# 2 -0.001394 0.035035 -0.010769 0.000000 0.000000 0.000000
# 3 -0.002430 -0.010769 0.014631 0.000000 0.000000 0.000000
# 4 0.000000 0.000000 0.000000 0.054282 0.000000 0.000000
# 5 0.000000 0.000000 0.000000 0.000000 0.034105 0.000000
# 6 0.000000 0.000000 0.000000 0.000000 0.000000 0.053683
#
#
# Mechanical properties :
#
#
# Convention : Reuss Voigt Hill
#
# Bulk Modulus (GPa) = 29.62347 36.62799 33.12573
# Shear Modulus (GPa) = 20.37037 23.42761 21.89899
#
# Velocity S-wave (km/s) = 2.99119 3.20781 3.10139
# Velocity P-wave (km/s) = 4.99410 5.45967 5.23206
#
# Compressibility (1/GPa) = 0.03375701
#
# Stress axis : x y z
#
# Youngs Moduli (GPa) = 75.30635 28.54320 68.34766
#
# Poissons Ratio (x) = 0.03980 0.16610
# Poissons Ratio (y) = 0.10500 0.73606
# Poissons Ratio (z) = 0.18301 0.30739
#
# Static dielectric constant tensor:
#      x y z
#    x 1.916240 0.000000 0.000000 
#    y 0.000000 1.867880 0.000000 
#    z 0.000000 0.000000 1.865590 
# 
# From -- ./inp_files/3783.got.cif
#   From: 2010.05.17/outbox.cif.g08.bks.cpg/sg29_2_cif.got.tgz:3783.got - 2010.06.04 01:19:37.
