data_PCOD9340706
_publ_section_title
;
Structure prediction by ZEFSAII (Michael W. Deem and Ramdas Pophale) SiO2 
 PCOD9340706
Probable space group: P C A 21
;
_chemical_formula_sum "Si O2"
_cell_formula_units_Z 32
_cell_length_a 27.510357
_cell_length_b 8.968696
_cell_length_c 5.235468
_cell_angle_alpha 90.000000
_cell_angle_beta 90.000000
_cell_angle_gamma 90.000000
_cell_volume 1291.757641
_symmetry_space_group_name_H-M "P C A 21"
_symmetry_group_IT_number 29
_symmetry_cell_setting 'orthorhombic'
loop_
_space_group_symop_operation_xyz
x,y,z
-x,-y,1/2+z
1/2-x,y,1/2+z
1/2+x,-y,z
loop_
_atom_site_type_symbol
_atom_site_label
_atom_site_fract_x
_atom_site_fract_y
_atom_site_fract_z
Si Si1 0.117559 0.651431 0.958300
Si Si2 0.360931 0.176525 0.937100
Si Si3 0.019327 0.658076 0.291533
Si Si4 0.524538 0.027124 0.266040
Si Si5 0.779586 0.464253 0.620838
Si Si6 0.425949 0.423880 0.088962
Si Si7 0.742036 0.796691 0.603581
Si Si8 0.878445 0.995085 0.459154
O O1 0.164211 0.584845 0.108670
O O2 0.110440 0.542499 0.715195
O O3 0.063173 0.646259 0.081693
O O4 0.128571 0.827412 0.928188
O O5 0.398674 0.310575 0.904985
O O6 0.378022 0.072518 0.174769
O O7 0.313202 0.250711 0.060141
O O8 0.346765 0.090924 0.676176
O O9 0.033768 0.817168 0.412279
O O10 0.031017 0.516445 0.460575
O O11 0.960627 0.667751 0.278749
O O12 0.507039 0.931702 0.509270
O O13 0.571382 0.971137 0.117034
O O14 0.750437 0.412683 0.871168
O O15 0.773678 0.645582 0.609378
O O16 0.743948 0.888341 0.858226
#
# Coordination Sequence:
#
# PCOD9340706 Si02
#       8
#     4   4   4   4   4   4   4   4
#     4  11  27  46  74 102 152 189 237 308 363 437
#     4  12  27  47  75 104 146 193 243 301 362 437
#     4  11  26  40  70 106 146 186 246 299 361 418
#     4  11  24  44  70  96 144 197 243 291 350 435
#     4  10  23  43  71 104 133 180 238 290 362 433
#     4  12  25  44  71 108 147 194 243 311 355 431
#     4  10  21  41  70 103 134 171 237 293 357 430
#     4  11  27  47  69 107 144 196 241 289 372 441
#
# _framework density 24.772449000000002
#
# number of rings (size 3 to 8) (size 9 to 14) (size 15 to 20)
#    0.000    1.000    1.250    4.500   14.000    1.000 
#    0.000    3.750    0.000    0.000    0.000    0.000 
#    0.000    0.000    0.000    0.000    0.000    0.000 
#
# Total GULP energy -178323.586382 kJ/mol
# GULP energy per Si atom -5572.612074 kJ/mol
# Density = 2.471607 g / cm^3
# Si number density = 24.772449 Si / 1000 Ang^3
#
#
#
# Elastic Constant Matrix: (Units=GPa)
#
#
# Indices 1 2 3 4 5 6 
#
# 1 82.2344 35.3519 30.6270 0.0000 0.0000 0.0000
# 2 35.3519 83.6412 26.5920 0.0000 0.0000 0.0000
# 3 30.6270 26.5920 126.2035 0.0000 0.0000 0.0000
# 4 0.0000 0.0000 0.0000 27.9010 0.0000 0.0000
# 5 0.0000 0.0000 0.0000 0.0000 36.0735 0.0000
# 6 0.0000 0.0000 0.0000 0.0000 0.0000 23.4878
#
#
#
# Elastic Compliance Matrix: (Units=1/GPa)
#
#
# Indices 1 2 3 4 5 6 
#
# 1 0.015601 -0.005777 -0.002569 0.000000 0.000000 0.000000
# 2 -0.005777 0.014954 -0.001749 0.000000 0.000000 0.000000
# 3 -0.002569 -0.001749 0.008916 0.000000 0.000000 0.000000
# 4 0.000000 0.000000 0.000000 0.035841 0.000000 0.000000
# 5 0.000000 0.000000 0.000000 0.000000 0.027721 0.000000
# 6 0.000000 0.000000 0.000000 0.000000 0.000000 0.042575
#
#
# Mechanical properties :
#
#
# Convention : Reuss Voigt Hill
#
# Bulk Modulus (GPa) = 51.86585 53.02454 52.44520
# Shear Modulus (GPa) = 29.03208 30.79300 29.91254
#
# Velocity S-wave (km/s) = 3.42709 3.52949 3.47867
# Velocity P-wave (km/s) = 6.05329 6.16935 6.11159
#
# Compressibility (1/GPa) = 0.01928051
#
# Stress axis : x y z
#
# Youngs Moduli (GPa) = 64.10038 66.87354 112.16334
#
# Poissons Ratio (x) = 0.38633 0.28811
# Poissons Ratio (y) = 0.37031 0.19616
# Poissons Ratio (z) = 0.16465 0.11695
#
# Static dielectric constant tensor:
#      x y z
#    x 2.139660 0.000000 0.000000 
#    y 0.000000 1.965200 0.000000 
#    z 0.000000 0.000000 2.237110 
# 
# From -- ./inp_files/943.got.cif
#   From: 2010.05.17/outbox.cif.g08.bks.cpg/sg29_1_cif.got.tgz:943.got - 2010.06.04 01:19:37.
