data_PCOD9340263
_publ_section_title
;
Structure prediction by ZEFSAII (Michael W. Deem and Ramdas Pophale) SiO2 
 PCOD9340263
Probable space group: P C A 21
;
_chemical_formula_sum "Si O2"
_cell_formula_units_Z 20
_cell_length_a 10.635042
_cell_length_b 8.515792
_cell_length_c 7.801164
_cell_angle_alpha 90.000000
_cell_angle_beta 90.000000
_cell_angle_gamma 90.000000
_cell_volume 706.518702
_symmetry_space_group_name_H-M "P C A 21"
_symmetry_group_IT_number 29
_symmetry_cell_setting 'orthorhombic'
loop_
_space_group_symop_operation_xyz
x,y,z
-x,-y,1/2+z
1/2-x,y,1/2+z
1/2+x,-y,z
loop_
_atom_site_type_symbol
_atom_site_label
_atom_site_fract_x
_atom_site_fract_y
_atom_site_fract_z
Si Si1 0.868940 0.366761 0.570800
Si Si2 0.724226 0.796382 0.355097
Si Si3 0.637772 0.590277 0.644371
Si Si4 0.462821 0.820025 0.243190
Si Si5 0.615709 0.105828 0.365123
O O1 0.742095 0.464783 0.592867
O O2 0.891032 0.286894 0.384166
O O3 0.872431 0.235035 0.719408
O O4 0.997316 0.462529 0.609820
O O5 0.658483 0.746839 0.531142
O O6 0.833823 0.671305 0.325504
O O7 0.608779 0.761504 0.223892
O O8 0.732673 0.983380 0.355382
O O9 0.400490 0.833867 0.057715
O O10 0.498095 0.992246 0.320125
#
# Coordination Sequence:
#
# PCOD9340263 Si02
#       5
#     4   4   4   4   4
#     4  11  25  48  83 118 170 219 277 347 420 515
#     4   9  23  45  75 113 159 219 264 354 409 497
#     4  11  25  49  75 120 167 219 267 345 427 501
#     4   9  18  41  77 117 150 204 276 343 406 490
#     4  10  19  45  82 118 148 215 288 349 412 487
#
# _framework density 28.307815000000002
#
# number of rings (size 3 to 8) (size 9 to 14) (size 15 to 20)
#    1.200    0.800    2.000    0.000    2.800    3.200 
#    7.200    4.000    0.000    0.000    0.000    0.000 
#    0.000    0.000    0.000    0.000    0.000    0.000 
#
# Total GULP energy -112036.106419 kJ/mol
# GULP energy per Si atom -5601.805321 kJ/mol
# Density = 2.824339 g / cm^3
# Si number density = 28.307815 Si / 1000 Ang^3
#
#
#
# Elastic Constant Matrix: (Units=GPa)
#
#
# Indices 1 2 3 4 5 6 
#
# 1 202.7359 94.2668 48.6491 0.0000 0.0000 0.0000
# 2 94.2668 140.4986 59.0224 0.0000 0.0000 0.0000
# 3 48.6491 59.0224 168.7216 0.0000 0.0000 0.0000
# 4 0.0000 0.0000 0.0000 58.6403 0.0000 0.0000
# 5 0.0000 0.0000 0.0000 0.0000 25.2210 0.0000
# 6 0.0000 0.0000 0.0000 0.0000 0.0000 48.5403
#
#
#
# Elastic Compliance Matrix: (Units=1/GPa)
#
#
# Indices 1 2 3 4 5 6 
#
# 1 0.007198 -0.004640 -0.000453 0.000000 0.000000 0.000000
# 2 -0.004640 0.011334 -0.002627 0.000000 0.000000 0.000000
# 3 -0.000453 -0.002627 0.006976 0.000000 0.000000 0.000000
# 4 0.000000 0.000000 0.000000 0.017053 0.000000 0.000000
# 5 0.000000 0.000000 0.000000 0.000000 0.039650 0.000000
# 6 0.000000 0.000000 0.000000 0.000000 0.000000 0.020601
#
#
# Mechanical properties :
#
#
# Convention : Reuss Voigt Hill
#
# Bulk Modulus (GPa) = 99.30143 101.75917 100.53030
# Shear Modulus (GPa) = 41.11557 47.14816 44.13186
#
# Velocity S-wave (km/s) = 3.81523 4.08555 3.95270
# Velocity P-wave (km/s) = 7.38670 7.63420 7.51147
#
# Compressibility (1/GPa) = 0.01007035
#
# Stress axis : x y z
#
# Youngs Moduli (GPa) = 138.91930 88.22952 143.33977
#
# Poissons Ratio (x) = 0.40935 0.06487
# Poissons Ratio (y) = 0.64453 0.37657
# Poissons Ratio (z) = 0.06287 0.23179
#
# Static dielectric constant tensor:
#      x y z
#    x 2.352480 0.000000 0.000000 
#    y 0.000000 2.204080 0.000000 
#    z 0.000000 0.000000 2.287140 
# 
# From -- ./inp_files/2765.got.cif
#   From: 2010.05.17/outbox.cif.g08.bks.cpg/sg29_2_cif.got.tgz:2765.got - 2010.06.04 01:19:37.
