data_PCOD9340921
_publ_section_title
;
Structure prediction by ZEFSAII (Michael W. Deem and Ramdas Pophale) SiO2 
 PCOD9340921
Probable space group: P C A 21
;
_chemical_formula_sum "Si O2"
_cell_formula_units_Z 28
_cell_length_a 12.980242
_cell_length_b 16.042660
_cell_length_c 5.287944
_cell_angle_alpha 90.000000
_cell_angle_beta 90.000000
_cell_angle_gamma 90.000000
_cell_volume 1101.148816
_symmetry_space_group_name_H-M "P C A 21"
_symmetry_group_IT_number 29
_symmetry_cell_setting 'orthorhombic'
loop_
_space_group_symop_operation_xyz
x,y,z
-x,-y,1/2+z
1/2-x,y,1/2+z
1/2+x,-y,z
loop_
_atom_site_type_symbol
_atom_site_label
_atom_site_fract_x
_atom_site_fract_y
_atom_site_fract_z
Si Si1 0.600143 0.428546 0.276920
Si Si2 0.691936 0.259706 0.234821
Si Si3 0.536484 0.601674 0.279936
Si Si4 0.714501 0.844190 0.609238
Si Si5 0.140625 0.993798 0.099853
Si Si6 0.922415 0.089753 0.099238
Si Si7 0.511330 0.780420 0.434228
O O1 0.689869 0.360637 0.265193
O O2 0.620328 0.527632 0.293982
O O3 0.526257 0.403148 0.514750
O O4 0.541074 0.419522 0.010232
O O5 0.633466 0.068136 0.338187
O O6 0.763632 0.230950 0.002733
O O7 0.576871 0.237812 0.139815
O O8 0.566841 0.695847 0.347183
O O9 0.770738 0.800983 0.376023
O O10 0.594374 0.845655 0.544268
O O11 0.775904 0.932074 0.628643
O O12 0.142646 0.944233 0.837214
O O13 0.030289 0.039952 0.088698
O O14 0.958945 0.180339 0.188056
#
# Coordination Sequence:
#
# PCOD9340921 Si02
#       7
#     4   4   4   4   4   4   4
#     4   9  18  38  64  96 139 188 240 292 351 430
#     4  11  24  43  68 101 146 200 257 302 356 426
#     4   9  19  36  66 103 137 183 235 288 365 435
#     4  12  26  44  71 106 146 186 233 294 381 452
#     4  10  22  43  65  97 128 186 232 277 350 465
#     4  10  22  41  71  94 133 181 238 284 355 431
#     4  11  25  45  75 109 149 192 239 317 378 419
#
# _framework density 25.427989
#
# number of rings (size 3 to 8) (size 9 to 14) (size 15 to 20)
#    0.000    1.714    1.429    2.571    4.000    6.857 
#    0.000    5.714    0.000    0.000    0.000    0.000 
#    0.000    0.000    0.000    0.000    0.000    0.000 
#
# Total GULP energy -156613.096551 kJ/mol
# GULP energy per Si atom -5593.324877 kJ/mol
# Density = 2.537011 g / cm^3
# Si number density = 25.427989 Si / 1000 Ang^3
#
#
#
# Elastic Constant Matrix: (Units=GPa)
#
#
# Indices 1 2 3 4 5 6 
#
# 1 111.2678 51.5092 36.5037 0.0000 0.0000 0.0000
# 2 51.5092 119.2188 24.6681 0.0000 0.0000 0.0000
# 3 36.5037 24.6681 205.6865 0.0000 0.0000 0.0000
# 4 0.0000 0.0000 0.0000 40.0567 0.0000 0.0000
# 5 0.0000 0.0000 0.0000 0.0000 29.6697 0.0000
# 6 0.0000 0.0000 0.0000 0.0000 0.0000 46.2361
#
#
#
# Elastic Compliance Matrix: (Units=1/GPa)
#
#
# Indices 1 2 3 4 5 6 
#
# 1 0.011671 -0.004731 -0.001504 0.000000 0.000000 0.000000
# 2 -0.004731 0.010519 -0.000422 0.000000 0.000000 0.000000
# 3 -0.001504 -0.000422 0.005179 0.000000 0.000000 0.000000
# 4 0.000000 0.000000 0.000000 0.024965 0.000000 0.000000
# 5 0.000000 0.000000 0.000000 0.000000 0.033704 0.000000
# 6 0.000000 0.000000 0.000000 0.000000 0.000000 0.021628
#
#
# Mechanical properties :
#
#
# Convention : Reuss Voigt Hill
#
# Bulk Modulus (GPa) = 71.14672 73.50389 72.32531
# Shear Modulus (GPa) = 39.78793 44.75864 42.27328
#
# Velocity S-wave (km/s) = 3.95996 4.20004 4.08176
# Velocity P-wave (km/s) = 6.99634 7.24499 7.12175
#
# Compressibility (1/GPa) = 0.01405546
#
# Stress axis : x y z
#
# Youngs Moduli (GPa) = 85.68262 95.06200 193.07780
#
# Poissons Ratio (x) = 0.44977 0.29036
# Poissons Ratio (y) = 0.40539 0.08146
# Poissons Ratio (z) = 0.12885 0.04011
#
# Static dielectric constant tensor:
#      x y z
#    x 1.951210 0.000000 0.000000 
#    y 0.000000 2.061010 0.000000 
#    z 0.000000 0.000000 2.043330 
# 
# From -- ./inp_files/419.got.cif
#   From: 2010.05.17/outbox.cif.g08.bks.cpg/sg29_1_cif.got.tgz:419.got - 2010.06.04 01:19:37.
