data_PCOD9340479
_publ_section_title
;
Structure prediction by ZEFSAII (Michael W. Deem and Ramdas Pophale) SiO2 
 PCOD9340479
Probable space group: P C A 21
;
_chemical_formula_sum "Si O2"
_cell_formula_units_Z 32
_cell_length_a 21.966976
_cell_length_b 6.332293
_cell_length_c 10.078914
_cell_angle_alpha 90.000000
_cell_angle_beta 90.000000
_cell_angle_gamma 90.000000
_cell_volume 1401.990326
_symmetry_space_group_name_H-M "P C A 21"
_symmetry_group_IT_number 29
_symmetry_cell_setting 'orthorhombic'
loop_
_space_group_symop_operation_xyz
x,y,z
-x,-y,1/2+z
1/2-x,y,1/2+z
1/2+x,-y,z
loop_
_atom_site_type_symbol
_atom_site_label
_atom_site_fract_x
_atom_site_fract_y
_atom_site_fract_z
Si Si1 0.060060 0.844829 0.056860
Si Si2 0.846195 0.334813 0.937136
Si Si3 0.630913 0.058383 0.677816
Si Si4 0.746881 0.275014 0.757943
Si Si5 0.091452 0.445352 0.195202
Si Si6 0.179223 0.076910 0.089115
Si Si7 0.502728 0.900659 0.291233
Si Si8 0.290753 0.322708 0.103597
O O1 0.071425 0.594588 0.073122
O O2 0.124238 0.954541 0.017680
O O3 0.008455 0.906834 0.949692
O O4 0.040999 0.933109 0.202568
O O5 0.776285 0.281929 0.901698
O O6 0.880133 0.397046 0.803782
O O7 0.871213 0.147081 0.026443
O O8 0.839188 0.550412 0.017078
O O9 0.677009 0.213494 0.752389
O O10 0.564754 0.070467 0.735389
O O11 0.667120 0.839286 0.683439
O O12 0.745393 0.505368 0.691113
O O13 0.787583 0.098895 0.681694
O O14 0.140870 0.265139 0.160055
O O15 0.033696 0.322076 0.254477
O O16 0.238024 0.193290 0.025271
#
# Coordination Sequence:
#
# PCOD9340479 Si02
#       8
#     4   4   4   4   4   4   4   4
#     4  11  26  46  71 102 140 190 247 305 359 439
#     4  11  23  39  71 100 138 181 234 289 365 437
#     4  10  26  41  65 105 143 183 236 298 355 435
#     4  10  21  41  65 101 140 180 229 286 360 437
#     4  11  25  43  74  97 139 190 240 298 363 430
#     4  10  20  42  66 101 136 179 230 284 361 428
#     4  11  29  46  71 103 143 196 246 306 363 434
#     4  10  22  38  65 103 139 179 222 290 364 434
#
# _framework density 22.824695999999999
#
# number of rings (size 3 to 8) (size 9 to 14) (size 15 to 20)
#    0.000    1.500    2.500    0.000    7.000    7.000 
#    0.000    0.000    0.000    0.000    0.000    0.000 
#    0.000    0.000    0.000    0.000    0.000    0.000 
#
# Total GULP energy -178538.658223 kJ/mol
# GULP energy per Si atom -5579.333069 kJ/mol
# Density = 2.277275 g / cm^3
# Si number density = 22.824696 Si / 1000 Ang^3
#
#
#
# Elastic Constant Matrix: (Units=GPa)
#
#
# Indices 1 2 3 4 5 6 
#
# 1 110.3201 41.9557 10.2987 0.0000 0.0000 0.0000
# 2 41.9557 112.7512 27.5296 0.0000 0.0000 0.0000
# 3 10.2987 27.5296 57.8166 0.0000 0.0000 0.0000
# 4 0.0000 0.0000 0.0000 16.9217 0.0000 0.0000
# 5 0.0000 0.0000 0.0000 0.0000 36.3755 0.0000
# 6 0.0000 0.0000 0.0000 0.0000 0.0000 31.0565
#
#
#
# Elastic Compliance Matrix: (Units=1/GPa)
#
#
# Indices 1 2 3 4 5 6 
#
# 1 0.010559 -0.003926 -0.000011 0.000000 0.000000 0.000000
# 2 -0.003926 0.011496 -0.004774 0.000000 0.000000 0.000000
# 3 -0.000011 -0.004774 0.019571 0.000000 0.000000 0.000000
# 4 0.000000 0.000000 0.000000 0.059096 0.000000 0.000000
# 5 0.000000 0.000000 0.000000 0.000000 0.027491 0.000000
# 6 0.000000 0.000000 0.000000 0.000000 0.000000 0.032199
#
#
# Mechanical properties :
#
#
# Convention : Reuss Voigt Hill
#
# Bulk Modulus (GPa) = 41.31871 48.93953 45.12912
# Shear Modulus (GPa) = 26.89569 30.27767 28.58668
#
# Velocity S-wave (km/s) = 3.43645 3.64611 3.54283
# Velocity P-wave (km/s) = 5.82130 6.26207 6.04570
#
# Compressibility (1/GPa) = 0.02420211
#
# Stress axis : x y z
#
# Youngs Moduli (GPa) = 94.70794 86.98817 51.09483
#
# Poissons Ratio (x) = 0.34154 0.00058
# Poissons Ratio (y) = 0.37185 0.24395
# Poissons Ratio (z) = 0.00107 0.41532
#
# Static dielectric constant tensor:
#      x y z
#    x 1.823850 0.000000 0.000000 
#    y 0.000000 1.884010 0.000000 
#    z 0.000000 0.000000 1.921740 
# 
# From -- ./inp_files/3824.got.cif
#   From: 2010.05.17/outbox.cif.g08.bks.cpg/sg29_2_cif.got.tgz:3824.got - 2010.06.04 01:19:37.
