data_PCOD9340057
_publ_section_title
;
Structure prediction by ZEFSAII (Michael W. Deem and Ramdas Pophale) SiO2 
 PCOD9340057
Probable space group: P C A 21
;
_chemical_formula_sum "Si O2"
_cell_formula_units_Z 28
_cell_length_a 16.327670
_cell_length_b 5.516246
_cell_length_c 11.832056
_cell_angle_alpha 90.000000
_cell_angle_beta 90.000000
_cell_angle_gamma 90.000000
_cell_volume 1065.683045
_symmetry_space_group_name_H-M "P C A 21"
_symmetry_group_IT_number 29
_symmetry_cell_setting 'orthorhombic'
loop_
_space_group_symop_operation_xyz
x,y,z
-x,-y,1/2+z
1/2-x,y,1/2+z
1/2+x,-y,z
loop_
_atom_site_type_symbol
_atom_site_label
_atom_site_fract_x
_atom_site_fract_y
_atom_site_fract_z
Si Si1 0.127919 0.166409 0.754650
Si Si2 0.864656 0.342699 0.761171
Si Si3 0.658636 0.327640 0.501519
Si Si4 0.972264 0.137169 0.592677
Si Si5 0.077896 0.359571 0.065240
Si Si6 0.759328 0.826017 0.042493
Si Si7 0.167151 0.666888 0.765693
O O1 0.206873 0.166629 0.671098
O O2 0.131416 0.421556 0.816348
O O3 0.049781 0.165266 0.673837
O O4 0.136250 0.915432 0.820118
O O5 0.892277 0.134681 0.674012
O O6 0.909745 0.568125 0.699588
O O7 0.765858 0.352592 0.761703
O O8 0.892738 0.293219 0.887711
O O9 0.689983 0.605206 0.485667
O O10 0.635461 0.325596 0.634415
O O11 0.721447 0.095960 0.497063
O O12 0.959895 0.384887 0.523419
O O13 0.976380 0.873969 0.539269
O O14 0.168887 0.276384 0.035326
#
# Coordination Sequence:
#
# PCOD9340057 Si02
#       7
#     4   4   4   4   4   4   4
#     4  10  18  34  55  79 108 141 179 222 277 327
#     4  10  22  34  60  80 111 145 189 229 277 325
#     4  10  20  32  57  84 107 141 186 233 268 328
#     4  10  20  31  55  84 104 143 181 223 279 329
#     4  10  19  35  55  83 108 140 186 227 274 323
#     4  10  19  36  55  81 109 139 188 226 271 332
#     4  10  20  36  57  81 107 145 185 226 272 332
#
# _framework density 26.274229999999999
#
# number of rings (size 3 to 8) (size 9 to 14) (size 15 to 20)
#    0.857    1.143    2.857    3.429    2.000    0.000 
#    0.000    0.000    0.000   27.429    0.000    0.000 
#    0.000    0.000    0.000    0.000    0.000    0.000 
#
# Total GULP energy -156243.811969 kJ/mol
# GULP energy per Si atom -5580.136142 kJ/mol
# Density = 2.621443 g / cm^3
# Si number density = 26.274230 Si / 1000 Ang^3
#
#
#
# Elastic Constant Matrix: (Units=GPa)
#
#
# Indices 1 2 3 4 5 6 
#
# 1 47.4374 31.5071 -20.8038 0.0000 0.0000 0.0000
# 2 31.5071 245.8450 15.2194 0.0000 0.0000 0.0000
# 3 -20.8038 15.2194 87.4104 0.0000 0.0000 0.0000
# 4 0.0000 0.0000 0.0000 19.5670 0.0000 0.0000
# 5 0.0000 0.0000 0.0000 0.0000 26.6899 0.0000
# 6 0.0000 0.0000 0.0000 0.0000 0.0000 21.0405
#
#
#
# Elastic Compliance Matrix: (Units=1/GPa)
#
#
# Indices 1 2 3 4 5 6 
#
# 1 0.026730 -0.003861 0.007034 0.000000 0.000000 0.000000
# 2 -0.003861 0.004670 -0.001732 0.000000 0.000000 0.000000
# 3 0.007034 -0.001732 0.013416 0.000000 0.000000 0.000000
# 4 0.000000 0.000000 0.000000 0.051106 0.000000 0.000000
# 5 0.000000 0.000000 0.000000 0.000000 0.037467 0.000000
# 6 0.000000 0.000000 0.000000 0.000000 0.000000 0.047527
#
#
# Mechanical properties :
#
#
# Convention : Reuss Voigt Hill
#
# Bulk Modulus (GPa) = 20.96565 48.05979 34.51272
# Shear Modulus (GPa) = 25.78200 37.11082 31.44641
#
# Velocity S-wave (km/s) = 3.13591 3.76232 3.46331
# Velocity P-wave (km/s) = 4.59443 6.09957 5.39970
#
# Compressibility (1/GPa) = 0.04769707
#
# Stress axis : x y z
#
# Youngs Moduli (GPa) = 37.41162 214.14856 74.53817
#
# Poissons Ratio (x) = 0.82684 -0.52430
# Poissons Ratio (y) = 0.14445 0.12910
# Poissons Ratio (z) = -0.26315 0.37090
#
# Static dielectric constant tensor:
#      x y z
#    x 2.120970 0.000000 0.000000 
#    y 0.000000 2.171820 0.000000 
#    z 0.000000 0.000000 2.034070 
# 
# From -- ./inp_files/4755.got.cif
#   From: 2010.05.17/outbox.cif.g08.bks.cpg/sg29_3_cif.got.tgz:4755.got - 2010.06.04 01:19:37.
