data_PCOD9340498
_publ_section_title
;
Structure prediction by ZEFSAII (Michael W. Deem and Ramdas Pophale) SiO2 
 PCOD9340498
Probable space group: P C A 21
;
_chemical_formula_sum "Si O2"
_cell_formula_units_Z 28
_cell_length_a 5.491982
_cell_length_b 14.530897
_cell_length_c 14.188396
_cell_angle_alpha 90.000000
_cell_angle_beta 90.000000
_cell_angle_gamma 90.000000
_cell_volume 1132.282593
_symmetry_space_group_name_H-M "P C A 21"
_symmetry_group_IT_number 29
_symmetry_cell_setting 'orthorhombic'
loop_
_space_group_symop_operation_xyz
x,y,z
-x,-y,1/2+z
1/2-x,y,1/2+z
1/2+x,-y,z
loop_
_atom_site_type_symbol
_atom_site_label
_atom_site_fract_x
_atom_site_fract_y
_atom_site_fract_z
Si Si1 0.482079 0.298501 0.353880
Si Si2 0.703667 0.777202 0.512870
Si Si3 0.154490 0.845659 0.872052
Si Si4 0.593214 0.728308 0.214252
Si Si5 0.294515 0.555844 0.153483
Si Si6 0.270097 0.548926 0.429056
Si Si7 0.649627 0.980817 0.001858
O O1 0.332113 0.301018 0.451525
O O2 0.590492 0.196749 0.339334
O O3 0.297319 0.325002 0.273560
O O4 0.713290 0.361633 0.368852
O O5 0.435978 0.792837 0.468699
O O6 0.765130 0.761387 0.620713
O O7 0.827709 0.873668 0.484173
O O8 0.152678 0.950867 0.910148
O O9 0.984785 0.811705 0.785238
O O10 0.375013 0.659434 0.184551
O O11 0.034449 0.507009 0.178872
O O12 0.258074 0.563838 0.040489
O O13 0.536839 0.513929 0.405937
O O14 0.398636 0.996428 0.054950
#
# Coordination Sequence:
#
# PCOD9340498 Si02
#       7
#     4   4   4   4   4   4   4
#     4  11  23  42  68  98 138 184 235 293 354 427
#     4  10  22  44  70  96 139 190 229 290 363 427
#     4  10  24  42  70 101 141 185 236 301 358 428
#     4  11  25  42  68 109 139 189 243 296 363 435
#     4  10  23  42  65  99 142 187 238 299 353 429
#     4  10  23  41  68  96 134 189 239 285 355 430
#     4  10  20  43  71  95 133 182 228 284 354 414
#
# _framework density 24.728807
#
# number of rings (size 3 to 8) (size 9 to 14) (size 15 to 20)
#    0.000    1.714    2.857    0.000    6.000    3.429 
#    0.000    8.571    0.000    0.000    0.000    0.000 
#    0.000    0.000    0.000    0.000    0.000    0.000 
#
# Total GULP energy -156237.091351 kJ/mol
# GULP energy per Si atom -5579.896120 kJ/mol
# Density = 2.467252 g / cm^3
# Si number density = 24.728807 Si / 1000 Ang^3
#
#
#
# Elastic Constant Matrix: (Units=GPa)
#
#
# Indices 1 2 3 4 5 6 
#
# 1 108.6577 13.6596 25.2226 0.0000 0.0000 0.0000
# 2 13.6596 90.5450 40.0773 0.0000 0.0000 0.0000
# 3 25.2226 40.0773 134.1118 0.0000 0.0000 0.0000
# 4 0.0000 0.0000 0.0000 24.1692 0.0000 0.0000
# 5 0.0000 0.0000 0.0000 0.0000 26.7853 0.0000
# 6 0.0000 0.0000 0.0000 0.0000 0.0000 50.4462
#
#
#
# Elastic Compliance Matrix: (Units=1/GPa)
#
#
# Indices 1 2 3 4 5 6 
#
# 1 0.009668 -0.000753 -0.001593 0.000000 0.000000 0.000000
# 2 -0.000753 0.012786 -0.003679 0.000000 0.000000 0.000000
# 3 -0.001593 -0.003679 0.008856 0.000000 0.000000 0.000000
# 4 0.000000 0.000000 0.000000 0.041375 0.000000 0.000000
# 5 0.000000 0.000000 0.000000 0.000000 0.037334 0.000000
# 6 0.000000 0.000000 0.000000 0.000000 0.000000 0.019823
#
#
# Mechanical properties :
#
#
# Convention : Reuss Voigt Hill
#
# Bulk Modulus (GPa) = 51.92593 54.58150 53.25371
# Shear Modulus (GPa) = 33.71254 37.23714 35.47484
#
# Velocity S-wave (km/s) = 3.69628 3.88470 3.79166
# Velocity P-wave (km/s) = 6.26581 6.49932 6.38363
#
# Compressibility (1/GPa) = 0.01925820
#
# Stress axis : x y z
#
# Youngs Moduli (GPa) = 103.43706 78.20776 112.92284
#
# Poissons Ratio (x) = 0.05892 0.17990
# Poissons Ratio (y) = 0.07792 0.41548
# Poissons Ratio (z) = 0.16479 0.28775
#
# Static dielectric constant tensor:
#      x y z
#    x 2.069750 0.000000 0.000000 
#    y 0.000000 2.163670 0.000000 
#    z 0.000000 0.000000 1.920070 
# 
# From -- ./inp_files/4065.got.cif
#   From: 2010.05.17/outbox.cif.g08.bks.cpg/sg29_3_cif.got.tgz:4065.got - 2010.06.04 01:19:37.
