data_PCOD9340507
_publ_section_title
;
Structure prediction by ZEFSAII (Michael W. Deem and Ramdas Pophale) SiO2 
 PCOD9340507
Probable space group: P C A 21
;
_chemical_formula_sum "Si O2"
_cell_formula_units_Z 20
_cell_length_a 7.564749
_cell_length_b 9.988923
_cell_length_c 13.296636
_cell_angle_alpha 90.000000
_cell_angle_beta 90.000000
_cell_angle_gamma 90.000000
_cell_volume 1004.742951
_symmetry_space_group_name_H-M "P C A 21"
_symmetry_group_IT_number 29
_symmetry_cell_setting 'orthorhombic'
loop_
_space_group_symop_operation_xyz
x,y,z
-x,-y,1/2+z
1/2-x,y,1/2+z
1/2+x,-y,z
loop_
_atom_site_type_symbol
_atom_site_label
_atom_site_fract_x
_atom_site_fract_y
_atom_site_fract_z
Si Si1 0.280795 0.671779 0.268150
Si Si2 0.237615 0.179950 0.072302
Si Si3 0.932431 0.594739 0.175507
Si Si4 0.942987 0.290836 0.483012
Si Si5 0.342063 0.879763 0.102659
O O1 0.363045 0.547780 0.207263
O O2 0.359225 0.667820 0.379041
O O3 0.328553 0.808564 0.210921
O O4 0.070750 0.650188 0.257211
O O5 0.280102 0.295614 0.154196
O O6 0.031256 0.159602 0.056383
O O7 0.315353 0.038066 0.108470
O O8 0.860278 0.773021 0.978838
O O9 0.033410 0.593371 0.067271
O O10 0.813738 0.183610 0.535646
#
# Coordination Sequence:
#
# PCOD9340507 Si02
#       5
#     4   4   4   4   4
#     4  11  21  42  64  97 128 172 217 262 321 397
#     4  10  20  45  62  91 128 172 202 274 327 372
#     4   9  22  40  61  90 130 166 210 270 317 372
#     4   9  23  41  63  97 125 168 218 254 329 380
#     4  11  20  42  68  89 135 162 211 274 320 379
#
# _framework density 19.905588000000002
#
# number of rings (size 3 to 8) (size 9 to 14) (size 15 to 20)
#    1.200    0.800    2.000    1.200    0.000    3.200 
#   14.400    0.000    0.000    0.000    0.000    0.000 
#    0.000    0.000    0.000    0.000    0.000    0.000 
#
# Total GULP energy -111480.587424 kJ/mol
# GULP energy per Si atom -5574.029371 kJ/mol
# Density = 1.986028 g / cm^3
# Si number density = 19.905588 Si / 1000 Ang^3
#
#
#
# Elastic Constant Matrix: (Units=GPa)
#
#
# Indices 1 2 3 4 5 6 
#
# 1 72.7105 -20.7784 -15.8562 0.0000 0.0000 0.0000
# 2 -20.7784 71.2707 25.5931 0.0000 0.0000 0.0000
# 3 -15.8562 25.5931 55.0922 0.0000 0.0000 0.0000
# 4 0.0000 0.0000 0.0000 6.4073 0.0000 0.0000
# 5 0.0000 0.0000 0.0000 0.0000 11.5476 0.0000
# 6 0.0000 0.0000 0.0000 0.0000 0.0000 27.2880
#
#
#
# Elastic Compliance Matrix: (Units=1/GPa)
#
#
# Indices 1 2 3 4 5 6 
#
# 1 0.015357 0.003469 0.002809 0.000000 0.000000 0.000000
# 2 0.003469 0.017624 -0.007189 0.000000 0.000000 0.000000
# 3 0.002809 -0.007189 0.022299 0.000000 0.000000 0.000000
# 4 0.000000 0.000000 0.000000 0.156073 0.000000 0.000000
# 5 0.000000 0.000000 0.000000 0.000000 0.086598 0.000000
# 6 0.000000 0.000000 0.000000 0.000000 0.000000 0.036646
#
#
# Mechanical properties :
#
#
# Convention : Reuss Voigt Hill
#
# Bulk Modulus (GPa) = 18.70677 19.66561 19.18619
# Shear Modulus (GPa) = 14.11476 23.05624 18.58550
#
# Velocity S-wave (km/s) = 2.66575 3.40704 3.05894
# Velocity P-wave (km/s) = 4.34662 5.03767 4.70485
#
# Compressibility (1/GPa) = 0.05345660
#
# Stress axis : x y z
#
# Youngs Moduli (GPa) = 65.11744 56.74169 44.84452
#
# Poissons Ratio (x) = -0.19682 -0.12595
# Poissons Ratio (y) = -0.22587 0.32238
# Poissons Ratio (z) = -0.18288 0.40790
#
# Static dielectric constant tensor:
#      x y z
#    x 1.755590 0.000000 0.000000 
#    y 0.000000 1.687020 0.000000 
#    z 0.000000 0.000000 1.680510 
# 
# From -- ./inp_files/2787.got.cif
#   From: 2010.05.17/outbox.cif.g08.bks.cpg/sg29_2_cif.got.tgz:2787.got - 2010.06.04 01:19:37.
