data_PCOD9340827
_publ_section_title
;
Structure prediction by ZEFSAII (Michael W. Deem and Ramdas Pophale) SiO2 
 PCOD9340827
Probable space group: P C A 21
;
_chemical_formula_sum "Si O2"
_cell_formula_units_Z 24
_cell_length_a 13.871687
_cell_length_b 7.446927
_cell_length_c 9.645427
_cell_angle_alpha 90.000000
_cell_angle_beta 90.000000
_cell_angle_gamma 90.000000
_cell_volume 996.386503
_symmetry_space_group_name_H-M "P C A 21"
_symmetry_group_IT_number 29
_symmetry_cell_setting 'orthorhombic'
loop_
_space_group_symop_operation_xyz
x,y,z
-x,-y,1/2+z
1/2-x,y,1/2+z
1/2+x,-y,z
loop_
_atom_site_type_symbol
_atom_site_label
_atom_site_fract_x
_atom_site_fract_y
_atom_site_fract_z
Si Si1 0.722884 0.339075 0.785320
Si Si2 0.557082 0.811984 0.099353
Si Si3 0.863228 0.369750 0.005808
Si Si4 0.247529 0.248043 0.264740
Si Si5 0.552094 0.084175 0.872070
Si Si6 0.863123 0.799518 0.018898
O O1 0.824625 0.300862 0.858664
O O2 0.711810 0.301966 0.622445
O O3 0.710464 0.555687 0.801787
O O4 0.636094 0.229631 0.854188
O O5 0.651412 0.722816 0.168810
O O6 0.506754 0.923880 0.226261
O O7 0.469773 0.685535 0.049799
O O8 0.587251 0.911876 0.957963
O O9 0.858775 0.584056 0.010183
O O10 0.207845 0.141345 0.395893
O O11 0.322992 0.144887 0.167731
O O12 0.469417 0.148232 0.978853
#
# Coordination Sequence:
#
# PCOD9340827 Si02
#       6
#     4   4   4   4   4   4
#     4   9  19  37  59  84 115 155 204 255 303 363
#     4  10  22  39  58  87 125 162 202 251 313 376
#     4   9  19  36  59  85 114 153 202 252 302 361
#     4   9  19  37  59  84 115 155 204 255 303 363
#     4  10  22  39  58  87 125 162 202 251 313 376
#     4   9  19  36  59  85 114 153 202 252 302 361
#
# _framework density 24.087036999999999
#
# number of rings (size 3 to 8) (size 9 to 14) (size 15 to 20)
#    0.000    2.667    0.000    0.000    0.000    8.000 
#    0.000   15.000    0.000    0.000    0.000    0.000 
#    0.000    0.000    0.000    0.000    0.000    0.000 
#
# Total GULP energy -134043.714656 kJ/mol
# GULP energy per Si atom -5585.154777 kJ/mol
# Density = 2.403221 g / cm^3
# Si number density = 24.087037 Si / 1000 Ang^3
#
#
#
# Elastic Constant Matrix: (Units=GPa)
#
#
# Indices 1 2 3 4 5 6 
#
# 1 85.5685 10.4010 18.4396 0.0000 0.0000 0.0000
# 2 10.4010 50.9412 16.1040 0.0000 0.0000 0.0000
# 3 18.4396 16.1040 72.2122 0.0000 0.0000 0.0000
# 4 0.0000 0.0000 0.0000 25.4060 0.0000 0.0000
# 5 0.0000 0.0000 0.0000 0.0000 48.6519 0.0000
# 6 0.0000 0.0000 0.0000 0.0000 0.0000 24.7055
#
#
#
# Elastic Compliance Matrix: (Units=1/GPa)
#
#
# Indices 1 2 3 4 5 6 
#
# 1 0.012496 -0.001660 -0.002821 0.000000 0.000000 0.000000
# 2 -0.001660 0.021340 -0.004335 0.000000 0.000000 0.000000
# 3 -0.002821 -0.004335 0.015535 0.000000 0.000000 0.000000
# 4 0.000000 0.000000 0.000000 0.039361 0.000000 0.000000
# 5 0.000000 0.000000 0.000000 0.000000 0.020554 0.000000
# 6 0.000000 0.000000 0.000000 0.000000 0.000000 0.040477
#
#
# Mechanical properties :
#
#
# Convention : Reuss Voigt Hill
#
# Bulk Modulus (GPa) = 31.50615 33.17899 32.34257
# Shear Modulus (GPa) = 28.09394 30.67115 29.38255
#
# Velocity S-wave (km/s) = 3.41889 3.57227 3.49642
# Velocity P-wave (km/s) = 5.35664 5.55152 5.45495
#
# Compressibility (1/GPa) = 0.03173983
#
# Stress axis : x y z
#
# Youngs Moduli (GPa) = 80.02463 46.86071 64.37005
#
# Poissons Ratio (x) = 0.07777 0.18158
# Poissons Ratio (y) = 0.13281 0.27906
# Poissons Ratio (z) = 0.22573 0.20315
#
# Static dielectric constant tensor:
#      x y z
#    x 1.916780 0.000000 0.000000 
#    y 0.000000 1.965880 0.000000 
#    z 0.000000 0.000000 1.979020 
# 
# From -- ./inp_files/1739.got.cif
#   From: 2010.05.17/outbox.cif.g08.bks.cpg/sg29_1_cif.got.tgz:1739.got - 2010.06.04 01:19:37.
