data_PCOD9340973
_publ_section_title
;
Structure prediction by ZEFSAII (Michael W. Deem and Ramdas Pophale) SiO2 
 PCOD9340973
Probable space group: P C A 21
;
_chemical_formula_sum "Si O2"
_cell_formula_units_Z 32
_cell_length_a 13.464533
_cell_length_b 10.936503
_cell_length_c 8.942972
_cell_angle_alpha 90.000000
_cell_angle_beta 90.000000
_cell_angle_gamma 90.000000
_cell_volume 1316.896497
_symmetry_space_group_name_H-M "P C A 21"
_symmetry_group_IT_number 29
_symmetry_cell_setting 'orthorhombic'
loop_
_space_group_symop_operation_xyz
x,y,z
-x,-y,1/2+z
1/2-x,y,1/2+z
1/2+x,-y,z
loop_
_atom_site_type_symbol
_atom_site_label
_atom_site_fract_x
_atom_site_fract_y
_atom_site_fract_z
Si Si1 0.300379 0.220430 0.837290
Si Si2 0.970262 0.539211 0.428312
Si Si3 0.096334 0.095315 0.730054
Si Si4 0.589774 0.010015 0.409189
Si Si5 0.974139 0.329010 0.628923
Si Si6 0.769355 0.604950 0.579340
Si Si7 0.848011 0.359140 0.083429
Si Si8 0.214285 0.765544 0.283759
O O1 0.199737 0.144293 0.797039
O O2 0.313971 0.332343 0.724979
O O3 0.386647 0.121776 0.839371
O O4 0.285794 0.285160 0.995731
O O5 0.000057 0.575891 0.262218
O O6 0.038280 0.623870 0.535814
O O7 0.989553 0.399676 0.475143
O O8 0.856775 0.564076 0.468854
O O9 0.020911 0.048469 0.859157
O O10 0.039153 0.211550 0.661296
O O11 0.105585 0.003859 0.588090
O O12 0.669957 0.104799 0.337546
O O13 0.861895 0.286105 0.658775
O O14 0.699386 0.491407 0.619529
O O15 0.820618 0.260792 0.210141
O O16 0.797731 0.317413 0.928901
#
# Coordination Sequence:
#
# PCOD9340973 Si02
#       8
#     4   4   4   4   4   4   4   4
#     4  12  26  46  74 103 144 186 242 301 356 432
#     4  11  24  39  70 100 143 184 236 284 367 430
#     4  11  25  49  72 101 146 188 245 299 355 429
#     4  11  28  47  74 105 140 192 245 298 363 426
#     4  10  22  43  65 102 138 184 229 296 345 432
#     4  12  25  45  72 107 141 189 237 296 367 430
#     4  11  24  43  68 102 141 187 227 292 360 428
#     4  10  24  44  65  98 141 176 237 286 349 425
#
# _framework density 24.299558000000001
#
# number of rings (size 3 to 8) (size 9 to 14) (size 15 to 20)
#    0.000    1.000    3.750    1.500    7.000    0.000 
#    2.250    0.000    0.000    0.000    0.000    0.000 
#    0.000    0.000    0.000    0.000    0.000    0.000 
#
# Total GULP energy -179139.129203 kJ/mol
# GULP energy per Si atom -5598.097788 kJ/mol
# Density = 2.424425 g / cm^3
# Si number density = 24.299558 Si / 1000 Ang^3
#
#
#
# Elastic Constant Matrix: (Units=GPa)
#
#
# Indices 1 2 3 4 5 6 
#
# 1 54.0291 13.1310 2.5640 0.0000 0.0000 0.0000
# 2 13.1310 100.0659 33.4814 0.0000 0.0000 0.0000
# 3 2.5640 33.4814 50.6373 0.0000 0.0000 0.0000
# 4 0.0000 0.0000 0.0000 46.2863 0.0000 0.0000
# 5 0.0000 0.0000 0.0000 0.0000 32.3752 0.0000
# 6 0.0000 0.0000 0.0000 0.0000 0.0000 24.0335
#
#
#
# Elastic Compliance Matrix: (Units=1/GPa)
#
#
# Indices 1 2 3 4 5 6 
#
# 1 0.019149 -0.002810 0.000888 0.000000 0.000000 0.000000
# 2 -0.002810 0.013245 -0.008615 0.000000 0.000000 0.000000
# 3 0.000888 -0.008615 0.025400 0.000000 0.000000 0.000000
# 4 0.000000 0.000000 0.000000 0.021605 0.000000 0.000000
# 5 0.000000 0.000000 0.000000 0.000000 0.030888 0.000000
# 6 0.000000 0.000000 0.000000 0.000000 0.000000 0.041609
#
#
# Mechanical properties :
#
#
# Convention : Reuss Voigt Hill
#
# Bulk Modulus (GPa) = 27.23307 33.67612 30.45459
# Shear Modulus (GPa) = 26.99663 30.90941 28.95302
#
# Velocity S-wave (km/s) = 3.33677 3.57040 3.45556
# Velocity P-wave (km/s) = 5.10656 5.55750 5.33680
#
# Compressibility (1/GPa) = 0.03672006
#
# Stress axis : x y z
#
# Youngs Moduli (GPa) = 52.22115 75.50179 39.37065
#
# Poissons Ratio (x) = 0.21217 -0.03498
# Poissons Ratio (y) = 0.14675 0.33918
# Poissons Ratio (z) = -0.04639 0.65046
#
# Static dielectric constant tensor:
#      x y z
#    x 1.963870 0.000000 0.000000 
#    y 0.000000 1.935090 0.000000 
#    z 0.000000 0.000000 1.969550 
# 
# From -- ./inp_files/1869.got.cif
#   From: 2010.05.17/outbox.cif.g08.bks.cpg/sg29_1_cif.got.tgz:1869.got - 2010.06.04 01:19:37.
