data_PCOD9340764
_publ_section_title
;
Structure prediction by ZEFSAII (Michael W. Deem and Ramdas Pophale) SiO2 
 PCOD9340764
Probable space group: P C A 21
;
_chemical_formula_sum "Si O2"
_cell_formula_units_Z 28
_cell_length_a 5.469044
_cell_length_b 16.046910
_cell_length_c 13.557378
_cell_angle_alpha 90.000000
_cell_angle_beta 90.000000
_cell_angle_gamma 90.000000
_cell_volume 1189.812533
_symmetry_space_group_name_H-M "P C A 21"
_symmetry_group_IT_number 29
_symmetry_cell_setting 'orthorhombic'
loop_
_space_group_symop_operation_xyz
x,y,z
-x,-y,1/2+z
1/2-x,y,1/2+z
1/2+x,-y,z
loop_
_atom_site_type_symbol
_atom_site_label
_atom_site_fract_x
_atom_site_fract_y
_atom_site_fract_z
Si Si1 0.948002 0.776318 0.419700
Si Si2 0.345283 0.725853 0.561863
Si Si3 0.811148 0.203547 0.249473
Si Si4 0.347633 0.043421 0.481076
Si Si5 0.062096 0.329708 0.367072
Si Si6 0.615701 0.956623 0.218342
Si Si7 0.025629 0.548753 0.029578
O O1 0.841915 0.696399 0.359825
O O2 0.074617 0.735754 0.516164
O O3 0.145269 0.813060 0.342938
O O4 0.818381 0.860863 0.452197
O O5 0.349161 0.791099 0.650069
O O6 0.505833 0.731911 0.462160
O O7 0.418832 0.632348 0.592252
O O8 0.027338 0.136746 0.242760
O O9 0.925793 0.294748 0.272558
O O10 0.366072 0.038853 0.599802
O O11 0.107059 0.994305 0.448047
O O12 0.984242 0.416315 0.415487
O O13 0.884986 0.985736 0.250915
O O14 0.257712 0.489311 0.045836
#
# Coordination Sequence:
#
# PCOD9340764 Si02
#       7
#     4   4   4   4   4   4   4
#     4  11  22  41  64  96 131 177 231 275 340 403
#     4   9  22  41  67  92 130 172 220 266 337 404
#     4  11  23  41  64 100 132 174 229 285 326 417
#     4  10  23  39  64  90 129 178 230 280 341 393
#     4   9  24  39  67  99 129 177 221 266 350 399
#     4  10  23  41  61  93 131 181 228 282 339 386
#     4  10  21  44  73  96 134 175 215 272 341 416
#
# _framework density 23.533118000000002
#
# number of rings (size 3 to 8) (size 9 to 14) (size 15 to 20)
#    0.857    1.143    1.429    0.857    6.000    3.429 
#    0.000    1.429    0.000    0.000    0.000    0.000 
#    0.000    0.000    0.000    0.000    0.000    0.000 
#
# Total GULP energy -155969.146922 kJ/mol
# GULP energy per Si atom -5570.326676 kJ/mol
# Density = 2.347956 g / cm^3
# Si number density = 23.533118 Si / 1000 Ang^3
#
#
#
# Elastic Constant Matrix: (Units=GPa)
#
#
# Indices 1 2 3 4 5 6 
#
# 1 79.6085 39.5741 22.9376 0.0000 0.0000 0.0000
# 2 39.5741 61.3382 0.1788 0.0000 0.0000 0.0000
# 3 22.9376 0.1788 63.3882 0.0000 0.0000 0.0000
# 4 0.0000 0.0000 0.0000 25.8479 0.0000 0.0000
# 5 0.0000 0.0000 0.0000 0.0000 29.4445 0.0000
# 6 0.0000 0.0000 0.0000 0.0000 0.0000 44.2691
#
#
#
# Elastic Compliance Matrix: (Units=1/GPa)
#
#
# Indices 1 2 3 4 5 6 
#
# 1 0.021806 -0.014046 -0.007851 0.000000 0.000000 0.000000
# 2 -0.014046 0.025351 0.005011 0.000000 0.000000 0.000000
# 3 -0.007851 0.005011 0.018603 0.000000 0.000000 0.000000
# 4 0.000000 0.000000 0.000000 0.038688 0.000000 0.000000
# 5 0.000000 0.000000 0.000000 0.000000 0.033962 0.000000
# 6 0.000000 0.000000 0.000000 0.000000 0.000000 0.022589
#
#
# Mechanical properties :
#
#
# Convention : Reuss Voigt Hill
#
# Bulk Modulus (GPa) = 31.26220 36.63512 33.94866
# Shear Modulus (GPa) = 24.33892 29.35525 26.84708
#
# Velocity S-wave (km/s) = 3.21945 3.53569 3.38127
# Velocity P-wave (km/s) = 5.20893 5.68062 5.44988
#
# Compressibility (1/GPa) = 0.03198752
#
# Stress axis : x y z
#
# Youngs Moduli (GPa) = 45.85916 39.44694 53.75578
#
# Poissons Ratio (x) = 0.55406 0.42204
# Poissons Ratio (y) = 0.64413 -0.26938
# Poissons Ratio (z) = 0.36004 -0.19767
#
# Static dielectric constant tensor:
#      x y z
#    x 2.175560 0.000000 0.000000 
#    y 0.000000 1.906780 0.000000 
#    z 0.000000 0.000000 1.916530 
# 
# From -- ./inp_files/4093.got.cif
#   From: 2010.05.17/outbox.cif.g08.bks.cpg/sg29_3_cif.got.tgz:4093.got - 2010.06.04 01:19:37.
