data_PCOD9340512
_publ_section_title
;
Structure prediction by ZEFSAII (Michael W. Deem and Ramdas Pophale) SiO2 
 PCOD9340512
Probable space group: P C A 21
;
_chemical_formula_sum "Si O2"
_cell_formula_units_Z 20
_cell_length_a 18.024149
_cell_length_b 9.903035
_cell_length_c 5.210174
_cell_angle_alpha 90.000000
_cell_angle_beta 90.000000
_cell_angle_gamma 90.000000
_cell_volume 929.983643
_symmetry_space_group_name_H-M "P C A 21"
_symmetry_group_IT_number 29
_symmetry_cell_setting 'orthorhombic'
loop_
_space_group_symop_operation_xyz
x,y,z
-x,-y,1/2+z
1/2-x,y,1/2+z
1/2+x,-y,z
loop_
_atom_site_type_symbol
_atom_site_label
_atom_site_fract_x
_atom_site_fract_y
_atom_site_fract_z
Si Si1 0.209091 0.546033 0.443180
Si Si2 0.270842 0.844244 0.362195
Si Si3 0.972273 0.826486 0.335465
Si Si4 0.565105 0.125726 0.838916
Si Si5 0.452803 0.463658 0.139939
O O1 0.264797 0.492841 0.665202
O O2 0.224882 0.706556 0.406959
O O3 0.124794 0.521820 0.531665
O O4 0.236233 0.922287 0.126834
O O5 0.355428 0.808830 0.314863
O O6 0.936931 0.686442 0.249140
O O7 0.008831 0.825351 0.617934
O O8 0.925574 0.963752 0.310771
O O9 0.036177 0.847117 0.123160
O O10 0.491215 0.533858 0.391731
#
# Coordination Sequence:
#
# PCOD9340512 Si02
#       5
#     4   4   4   4   4
#     4  10  23  40  59  90 130 172 211 271 320 391
#     4  10  21  34  61  90 124 158 217 262 317 378
#     4  10  23  39  64  90 129 163 216 268 324 381
#     4  10  21  41  63  92 123 169 212 271 319 385
#     4  12  26  40  65  98 134 174 220 270 336 393
#
# _framework density 21.505754
#
# number of rings (size 3 to 8) (size 9 to 14) (size 15 to 20)
#    0.000    1.600    0.000    3.600   16.800    0.000 
#    0.000    2.000    0.000    0.000    0.000    0.000 
#    0.000    0.000    0.000    0.000    0.000    0.000 
#
# Total GULP energy -111535.586498 kJ/mol
# GULP energy per Si atom -5576.779325 kJ/mol
# Density = 2.145681 g / cm^3
# Si number density = 21.505754 Si / 1000 Ang^3
#
#
#
# Elastic Constant Matrix: (Units=GPa)
#
#
# Indices 1 2 3 4 5 6 
#
# 1 65.5404 -6.6770 0.8166 0.0000 0.0000 0.0000
# 2 -6.6770 45.6279 -4.0941 0.0000 0.0000 0.0000
# 3 0.8166 -4.0941 128.3807 0.0000 0.0000 0.0000
# 4 0.0000 0.0000 0.0000 15.5541 0.0000 0.0000
# 5 0.0000 0.0000 0.0000 0.0000 26.0993 0.0000
# 6 0.0000 0.0000 0.0000 0.0000 0.0000 16.5607
#
#
#
# Elastic Compliance Matrix: (Units=1/GPa)
#
#
# Indices 1 2 3 4 5 6 
#
# 1 0.015489 0.002264 -0.000026 0.000000 0.000000 0.000000
# 2 0.002264 0.022310 0.000697 0.000000 0.000000 0.000000
# 3 -0.000026 0.000697 0.007812 0.000000 0.000000 0.000000
# 4 0.000000 0.000000 0.000000 0.064292 0.000000 0.000000
# 5 0.000000 0.000000 0.000000 0.000000 0.038315 0.000000
# 6 0.000000 0.000000 0.000000 0.000000 0.000000 0.060384
#
#
# Mechanical properties :
#
#
# Convention : Reuss Voigt Hill
#
# Bulk Modulus (GPa) = 19.42474 24.40443 21.91459
# Shear Modulus (GPa) = 22.73842 28.27638 25.50740
#
# Velocity S-wave (km/s) = 3.25517 3.62999 3.44768
# Velocity P-wave (km/s) = 4.81457 5.37974 5.10498
#
# Compressibility (1/GPa) = 0.05148074
#
# Stress axis : x y z
#
# Youngs Moduli (GPa) = 64.56295 44.82236 128.01260
#
# Poissons Ratio (x) = -0.10149 0.00337
# Poissons Ratio (y) = -0.14618 -0.08923
# Poissons Ratio (z) = 0.00170 -0.03124
#
# Static dielectric constant tensor:
#      x y z
#    x 1.773800 0.000000 0.000000 
#    y 0.000000 1.836720 0.000000 
#    z 0.000000 0.000000 1.941890 
# 
# From -- ./inp_files/345.got.cif
#   From: 2010.05.17/outbox.cif.g08.bks.cpg/sg29_1_cif.got.tgz:345.got - 2010.06.04 01:19:37.
