data_PCOD9340167
_publ_section_title
;
Structure prediction by ZEFSAII (Michael W. Deem and Ramdas Pophale) SiO2 
 PCOD9340167
Probable space group: P C A 21
;
_chemical_formula_sum "Si O2"
_cell_formula_units_Z 28
_cell_length_a 15.818873
_cell_length_b 18.043051
_cell_length_c 5.070735
_cell_angle_alpha 90.000000
_cell_angle_beta 90.000000
_cell_angle_gamma 90.000000
_cell_volume 1447.292897
_symmetry_space_group_name_H-M "P C A 21"
_symmetry_group_IT_number 29
_symmetry_cell_setting 'orthorhombic'
loop_
_space_group_symop_operation_xyz
x,y,z
-x,-y,1/2+z
1/2-x,y,1/2+z
1/2+x,-y,z
loop_
_atom_site_type_symbol
_atom_site_label
_atom_site_fract_x
_atom_site_fract_y
_atom_site_fract_z
Si Si1 0.692998 0.972693 0.486500
Si Si2 0.191304 0.189290 0.572656
Si Si3 0.539774 0.699266 0.556289
Si Si4 0.949167 0.524870 0.095123
Si Si5 0.424845 0.726358 0.049167
Si Si6 0.194504 0.586491 0.432328
Si Si7 0.690014 0.130646 0.615874
O O1 0.773935 0.973645 0.686410
O O2 0.651627 0.893170 0.539142
O O3 0.648822 0.049772 0.561782
O O4 0.233003 0.194592 0.860385
O O5 0.123275 0.252193 0.519326
O O6 0.560708 0.612987 0.599193
O O7 0.490285 0.729256 0.809901
O O8 0.477205 0.706668 0.309530
O O9 0.865596 0.482286 0.001927
O O10 0.020527 0.503470 0.880013
O O11 0.358999 0.660641 0.986050
O O12 0.374220 0.802434 0.081586
O O13 0.273034 0.585445 0.633598
O O14 0.734875 0.135404 0.899480
#
# Coordination Sequence:
#
# PCOD9340167 Si02
#       7
#     4   4   4   4   4   4   4
#     4   8  16  32  56  82 114 153 193 239 293 334
#     4  10  21  39  62  88 115 150 202 252 286 341
#     4  12  24  40  63  85 119 159 192 235 310 360
#     4  12  23  44  62  82 117 161 192 236 302 360
#     4  12  23  39  58  89 124 157 189 237 298 357
#     4  12  24  39  63  90 113 147 200 245 282 339
#     4  10  19  35  58  86 118 159 200 238 281 345
#
# _framework density 19.346464999999998
#
# number of rings (size 3 to 8) (size 9 to 14) (size 15 to 20)
#    0.000    1.143    2.857    4.286    0.000    1.143 
#    0.000    1.429    0.000    0.000    0.000    0.000 
#    0.000    0.000    0.000    0.000    0.000    0.000 
#
# Total GULP energy -156478.696344 kJ/mol
# GULP energy per Si atom -5588.524869 kJ/mol
# Density = 1.930243 g / cm^3
# Si number density = 19.346465 Si / 1000 Ang^3
#
#
#
# Elastic Constant Matrix: (Units=GPa)
#
#
# Indices 1 2 3 4 5 6 
#
# 1 38.6281 29.2870 -11.9127 0.0000 0.0000 0.0000
# 2 29.2870 168.0407 -23.6169 0.0000 0.0000 0.0000
# 3 -11.9127 -23.6169 66.8255 0.0000 0.0000 0.0000
# 4 0.0000 0.0000 0.0000 25.1394 0.0000 0.0000
# 5 0.0000 0.0000 0.0000 0.0000 32.6418 0.0000
# 6 0.0000 0.0000 0.0000 0.0000 0.0000 20.4883
#
#
#
# Elastic Compliance Matrix: (Units=1/GPa)
#
#
# Indices 1 2 3 4 5 6 
#
# 1 0.030706 -0.004822 0.003770 0.000000 0.000000 0.000000
# 2 -0.004822 0.007019 0.001621 0.000000 0.000000 0.000000
# 3 0.003770 0.001621 0.016209 0.000000 0.000000 0.000000
# 4 0.000000 0.000000 0.000000 0.039778 0.000000 0.000000
# 5 0.000000 0.000000 0.000000 0.000000 0.030636 0.000000
# 6 0.000000 0.000000 0.000000 0.000000 0.000000 0.048808
#
#
# Mechanical properties :
#
#
# Convention : Reuss Voigt Hill
#
# Bulk Modulus (GPa) = 18.15781 29.00101 23.57941
# Shear Modulus (GPa) = 26.26378 34.30304 30.28341
#
# Velocity S-wave (km/s) = 3.68849 4.21538 3.96070
# Velocity P-wave (km/s) = 5.24842 6.22217 5.75592
#
# Compressibility (1/GPa) = 0.05507272
#
# Stress axis : x y z
#
# Youngs Moduli (GPa) = 32.56666 142.46747 61.69306
#
# Poissons Ratio (x) = 0.68695 -0.23257
# Poissons Ratio (y) = 0.15703 -0.10001
# Poissons Ratio (z) = -0.12277 -0.23095
#
# Static dielectric constant tensor:
#      x y z
#    x 1.640020 0.000000 0.000000 
#    y 0.000000 1.690540 0.000000 
#    z 0.000000 0.000000 1.655670 
# 
# From -- ./inp_files/104.got.cif
#   From: 2010.05.17/outbox.cif.g08.bks.cpg/sg29_1_cif.got.tgz:104.got - 2010.06.04 01:19:37.
