data_PCOD9340576
_publ_section_title
;
Structure prediction by ZEFSAII (Michael W. Deem and Ramdas Pophale) SiO2 
 PCOD9340576
Probable space group: P C A 21
;
_chemical_formula_sum "Si O2"
_cell_formula_units_Z 28
_cell_length_a 29.619823
_cell_length_b 8.372277
_cell_length_c 5.263483
_cell_angle_alpha 90.000000
_cell_angle_beta 90.000000
_cell_angle_gamma 90.000000
_cell_volume 1305.266742
_symmetry_space_group_name_H-M "P C A 21"
_symmetry_group_IT_number 29
_symmetry_cell_setting 'orthorhombic'
loop_
_space_group_symop_operation_xyz
x,y,z
-x,-y,1/2+z
1/2-x,y,1/2+z
1/2+x,-y,z
loop_
_atom_site_type_symbol
_atom_site_label
_atom_site_fract_x
_atom_site_fract_y
_atom_site_fract_z
Si Si1 0.776857 0.942064 0.823800
Si Si2 0.598783 0.375471 0.637467
Si Si3 0.998902 0.396303 0.306385
Si Si4 0.225532 0.443193 0.330838
Si Si5 0.873021 0.103489 0.808211
Si Si6 0.471905 0.053507 0.771585
Si Si7 0.369452 0.563949 0.631477
O O1 0.748483 0.997726 0.578794
O O2 0.775801 0.749124 0.827774
O O3 0.828751 0.996238 0.809010
O O4 0.550628 0.326078 0.742920
O O5 0.625912 0.217604 0.556900
O O6 0.595387 0.462507 0.362056
O O7 0.619422 0.492251 0.849556
O O8 0.996352 0.471450 0.585915
O O9 0.031284 0.245389 0.280787
O O10 0.239038 0.495768 0.613423
O O11 0.177530 0.505455 0.239598
O O12 0.868826 0.243916 0.599895
O O13 0.921452 0.019359 0.782162
O O14 0.498585 0.001503 0.516237
#
# Coordination Sequence:
#
# PCOD9340576 Si02
#       7
#     4   4   4   4   4   4   4
#     4  10  24  41  61  91 129 162 213 270 324 393
#     4  10  22  41  59  93 128 159 216 271 320 383
#     4  12  25  43  66  99 135 176 222 279 333 403
#     4  10  21  40  61  88 124 167 208 267 333 391
#     4  10  25  40  69  93 127 171 219 270 333 387
#     4  12  24  45  71  99 136 180 223 280 338 404
#     4  10  21  38  63  87 121 163 209 267 319 393
#
# _framework density 21.451554000000002
#
# number of rings (size 3 to 8) (size 9 to 14) (size 15 to 20)
#    0.857    0.571    1.429    3.429    2.000    3.429 
#    0.000    0.000    0.000    0.000    0.000    0.000 
#    0.000    0.000    0.000    0.000    0.000    0.000 
#
# Total GULP energy -156167.169411 kJ/mol
# GULP energy per Si atom -5577.398908 kJ/mol
# Density = 2.140273 g / cm^3
# Si number density = 21.451554 Si / 1000 Ang^3
#
#
#
# Elastic Constant Matrix: (Units=GPa)
#
#
# Indices 1 2 3 4 5 6 
#
# 1 96.7791 5.2902 22.8059 0.0000 0.0000 0.0000
# 2 5.2902 40.5801 9.5616 0.0000 0.0000 0.0000
# 3 22.8059 9.5616 99.0039 0.0000 0.0000 0.0000
# 4 0.0000 0.0000 0.0000 19.4458 0.0000 0.0000
# 5 0.0000 0.0000 0.0000 0.0000 31.0836 0.0000
# 6 0.0000 0.0000 0.0000 0.0000 0.0000 16.0030
#
#
#
# Elastic Compliance Matrix: (Units=1/GPa)
#
#
# Indices 1 2 3 4 5 6 
#
# 1 0.010955 -0.000853 -0.002441 0.000000 0.000000 0.000000
# 2 -0.000853 0.025283 -0.002245 0.000000 0.000000 0.000000
# 3 -0.002441 -0.002245 0.010880 0.000000 0.000000 0.000000
# 4 0.000000 0.000000 0.000000 0.051425 0.000000 0.000000
# 5 0.000000 0.000000 0.000000 0.000000 0.032171 0.000000
# 6 0.000000 0.000000 0.000000 0.000000 0.000000 0.062488
#
#
# Mechanical properties :
#
#
# Convention : Reuss Voigt Hill
#
# Bulk Modulus (GPa) = 27.74795 34.63095 31.18945
# Shear Modulus (GPa) = 23.11675 26.55351 24.83513
#
# Velocity S-wave (km/s) = 3.28628 3.52211 3.40624
# Velocity P-wave (km/s) = 5.23095 5.72007 5.48096
#
# Compressibility (1/GPa) = 0.03603869
#
# Stress axis : x y z
#
# Youngs Moduli (GPa) = 91.28524 39.55250 91.91372
#
# Poissons Ratio (x) = 0.03374 0.22437
# Poissons Ratio (y) = 0.07786 0.20637
# Poissons Ratio (z) = 0.22283 0.08881
#
# Static dielectric constant tensor:
#      x y z
#    x 1.854430 0.000000 0.000000 
#    y 0.000000 1.780180 0.000000 
#    z 0.000000 0.000000 1.933390 
# 
# From -- ./inp_files/804.got.cif
#   From: 2010.05.17/outbox.cif.g08.bks.cpg/sg29_1_cif.got.tgz:804.got - 2010.06.04 01:19:37.
