data_PCOD9340341
_publ_section_title
;
Structure prediction by ZEFSAII (Michael W. Deem and Ramdas Pophale) SiO2 
 PCOD9340341
Probable space group: P C A 21
;
_chemical_formula_sum "Si O2"
_cell_formula_units_Z 32
_cell_length_a 20.741663
_cell_length_b 7.523697
_cell_length_c 8.642551
_cell_angle_alpha 90.000000
_cell_angle_beta 90.000000
_cell_angle_gamma 90.000000
_cell_volume 1348.704547
_symmetry_space_group_name_H-M "P C A 21"
_symmetry_group_IT_number 29
_symmetry_cell_setting 'orthorhombic'
loop_
_space_group_symop_operation_xyz
x,y,z
-x,-y,1/2+z
1/2-x,y,1/2+z
1/2+x,-y,z
loop_
_atom_site_type_symbol
_atom_site_label
_atom_site_fract_x
_atom_site_fract_y
_atom_site_fract_z
Si Si1 0.374886 0.139674 0.600580
Si Si2 0.997261 0.729765 0.086396
Si Si3 0.618092 0.248478 0.255163
Si Si4 0.044388 0.993501 0.840508
Si Si5 0.275859 0.378265 0.420748
Si Si6 0.249996 0.620241 0.168536
Si Si7 0.628746 0.731994 0.440499
Si Si8 0.635015 0.127308 0.579543
O O1 0.430468 0.125085 0.473603
O O2 0.315579 0.219526 0.500064
O O3 0.387228 0.249724 0.757008
O O4 0.368985 0.937637 0.663916
O O5 0.063913 0.647114 0.152899
O O6 0.989645 0.882647 0.216257
O O7 0.927884 0.642384 0.045637
O O8 0.007292 0.839161 0.928543
O O9 0.690660 0.320195 0.274154
O O10 0.598360 0.221048 0.435150
O O11 0.098391 0.893368 0.741032
O O12 0.285621 0.450103 0.247362
O O13 0.289521 0.551756 0.521340
O O14 0.200040 0.345503 0.435667
O O15 0.299118 0.772767 0.121364
O O16 0.639996 0.926933 0.514842
#
# Coordination Sequence:
#
# PCOD9340341 Si02
#       8
#     4   4   4   4   4   4   4   4
#     4  10  22  39  64  95 124 161 212 262 319 369
#     4  10  20  36  64  90 124 158 210 258 306 368
#     4  10  22  41  64  92 128 161 212 263 314 376
#     4  10  20  36  64  94 122 160 210 260 312 360
#     4  12  25  41  64  91 130 167 206 259 324 378
#     4  12  25  41  64  91 130 167 206 259 324 378
#     4  10  22  41  64  92 128 161 212 263 314 376
#     4  10  22  39  64  95 124 161 212 262 319 369
#
# _framework density 23.726472000000001
#
# number of rings (size 3 to 8) (size 9 to 14) (size 15 to 20)
#    0.000    1.500    2.500    3.750    7.000    2.000 
#    0.000    0.000    5.500    0.000    0.000    0.000 
#    0.000    0.000    0.000    0.000    0.000    0.000 
#
# Total GULP energy -178329.295515 kJ/mol
# GULP energy per Si atom -5572.790485 kJ/mol
# Density = 2.367247 g / cm^3
# Si number density = 23.726472 Si / 1000 Ang^3
#
#
#
# Elastic Constant Matrix: (Units=GPa)
#
#
# Indices 1 2 3 4 5 6 
#
# 1 113.7919 29.5970 29.2897 0.0000 0.0000 0.0000
# 2 29.5970 50.4336 18.8150 0.0000 0.0000 0.0000
# 3 29.2897 18.8150 115.2149 0.0000 0.0000 0.0000
# 4 0.0000 0.0000 0.0000 23.6469 0.0000 0.0000
# 5 0.0000 0.0000 0.0000 0.0000 38.4664 0.0000
# 6 0.0000 0.0000 0.0000 0.0000 0.0000 -19.0800
#
#
#
# Elastic Compliance Matrix: (Units=1/GPa)
#
#
# Indices 1 2 3 4 5 6 
#
# 1 0.010713 -0.005613 -0.001807 0.000000 0.000000 0.000000
# 2 -0.005613 0.024055 -0.002501 0.000000 0.000000 0.000000
# 3 -0.001807 -0.002501 0.009547 0.000000 0.000000 0.000000
# 4 0.000000 0.000000 0.000000 0.042289 0.000000 0.000000
# 5 0.000000 0.000000 0.000000 0.000000 0.025997 0.000000
# 6 0.000000 0.000000 0.000000 0.000000 0.000000 -0.052411
#
#
# Mechanical properties :
#
#
# Convention : Reuss Voigt Hill
#
# Bulk Modulus (GPa) = 40.86104 48.31597 44.58851
# Shear Modulus (GPa) = 56.69582 22.05591 39.37586
#
# Velocity S-wave (km/s) = 4.89362 3.05223 4.07821
# Velocity P-wave (km/s) = 7.01349 5.72969 6.40384
#
# Compressibility (1/GPa) = 0.02447319
#
# Stress axis : x y z
#
# Youngs Moduli (GPa) = 93.34521 41.57119 104.74228
#
# Poissons Ratio (x) = 0.23333 0.18925
# Poissons Ratio (y) = 0.52393 0.26200
# Poissons Ratio (z) = 0.16866 0.10399
#
# Static dielectric constant tensor:
#      x y z
#    x 2.001190 0.000000 0.000000 
#    y 0.000000 1.967840 0.000000 
#    z 0.000000 0.000000 1.917000 
# 
# From -- ./inp_files/2324.got.cif
#   From: 2010.05.17/outbox.cif.g08.bks.cpg/sg29_2_cif.got.tgz:2324.got - 2010.06.04 01:19:37.
