data_PCOD9340222
_publ_section_title
;
Structure prediction by ZEFSAII (Michael W. Deem and Ramdas Pophale) SiO2 
 PCOD9340222
Probable space group: P C A 21
;
_chemical_formula_sum "Si O2"
_cell_formula_units_Z 28
_cell_length_a 7.275978
_cell_length_b 15.658848
_cell_length_c 9.075634
_cell_angle_alpha 90.000000
_cell_angle_beta 90.000000
_cell_angle_gamma 90.000000
_cell_volume 1034.018143
_symmetry_space_group_name_H-M "P C A 21"
_symmetry_group_IT_number 29
_symmetry_cell_setting 'orthorhombic'
loop_
_space_group_symop_operation_xyz
x,y,z
-x,-y,1/2+z
1/2-x,y,1/2+z
1/2+x,-y,z
loop_
_atom_site_type_symbol
_atom_site_label
_atom_site_fract_x
_atom_site_fract_y
_atom_site_fract_z
Si Si1 0.853673 0.937443 0.181360
Si Si2 0.361283 0.566939 0.121012
Si Si3 0.051842 0.712453 0.843917
Si Si4 0.121730 0.902868 0.904711
Si Si5 0.937384 0.625635 0.119350
Si Si6 0.985320 0.313335 0.910563
Si Si7 0.536517 0.862246 0.987042
O O1 0.855844 0.025169 0.277993
O O2 0.898448 0.873725 0.316712
O O3 0.165548 0.086737 0.098205
O O4 0.993874 0.928198 0.043561
O O5 0.459961 0.630513 0.235463
O O6 0.153986 0.601042 0.115481
O O7 0.347106 0.466339 0.137182
O O8 0.471518 0.591003 0.973028
O O9 0.040164 0.815570 0.833812
O O10 0.272128 0.708969 0.879064
O O11 0.918918 0.682731 0.975842
O O12 0.323456 0.889377 0.975897
O O13 0.904383 0.682785 0.260890
O O14 0.044867 0.238709 0.019483
#
# Coordination Sequence:
#
# PCOD9340222 Si02
#       7
#     4   4   4   4   4   4   4
#     4  12  31  50  82 122 150 211 280 330 416 510
#     4  10  20  36  64 100 141 191 248 301 384 467
#     4   9  20  42  70  99 138 200 248 296 398 473
#     4  11  29  54  82 113 165 213 265 347 411 482
#     4  10  19  38  64 101 140 190 249 303 383 468
#     4   9  20  42  68  95 143 195 243 311 384 469
#     4  11  29  54  80 114 161 208 275 340 410 489
#
# _framework density 27.07883
#
# number of rings (size 3 to 8) (size 9 to 14) (size 15 to 20)
#    0.000    1.714    0.000    1.714    4.000    8.000 
#    7.714    0.000    0.000    0.000    0.000    0.000 
#    0.000    0.000    0.000    0.000    0.000    0.000 
#
# Total GULP energy -156615.457032 kJ/mol
# GULP energy per Si atom -5593.409180 kJ/mol
# Density = 2.701720 g / cm^3
# Si number density = 27.078830 Si / 1000 Ang^3
#
#
#
# Elastic Constant Matrix: (Units=GPa)
#
#
# Indices 1 2 3 4 5 6 
#
# 1 130.1494 39.8950 51.5301 0.0000 0.0000 0.0000
# 2 39.8950 196.1325 34.9613 0.0000 0.0000 0.0000
# 3 51.5301 34.9613 90.7879 0.0000 0.0000 0.0000
# 4 0.0000 0.0000 0.0000 41.1499 0.0000 0.0000
# 5 0.0000 0.0000 0.0000 0.0000 53.7532 0.0000
# 6 0.0000 0.0000 0.0000 0.0000 0.0000 35.6448
#
#
#
# Elastic Compliance Matrix: (Units=1/GPa)
#
#
# Indices 1 2 3 4 5 6 
#
# 1 0.010132 -0.001112 -0.005322 0.000000 0.000000 0.000000
# 2 -0.001112 0.005596 -0.001524 0.000000 0.000000 0.000000
# 3 -0.005322 -0.001524 0.014622 0.000000 0.000000 0.000000
# 4 0.000000 0.000000 0.000000 0.024301 0.000000 0.000000
# 5 0.000000 0.000000 0.000000 0.000000 0.018604 0.000000
# 6 0.000000 0.000000 0.000000 0.000000 0.000000 0.028055
#
#
# Mechanical properties :
#
#
# Convention : Reuss Voigt Hill
#
# Bulk Modulus (GPa) = 69.28188 74.42697 71.85443
# Shear Modulus (GPa) = 40.97084 45.48847 43.22965
#
# Velocity S-wave (km/s) = 3.89398 4.10305 3.99988
# Velocity P-wave (km/s) = 6.77187 7.07048 6.92278
#
# Compressibility (1/GPa) = 0.01443379
#
# Stress axis : x y z
#
# Youngs Moduli (GPa) = 98.70047 178.68464 68.38819
#
# Poissons Ratio (x) = 0.19872 0.36399
# Poissons Ratio (y) = 0.10977 0.10422
# Poissons Ratio (z) = 0.52532 0.27230
#
# Static dielectric constant tensor:
#      x y z
#    x 2.149340 0.000000 0.000000 
#    y 0.000000 2.081620 0.000000 
#    z 0.000000 0.000000 2.192010 
# 
# From -- ./inp_files/1512.got.cif
#   From: 2010.05.17/outbox.cif.g08.bks.cpg/sg29_1_cif.got.tgz:1512.got - 2010.06.04 01:19:37.
