data_PCOD9340085
_publ_section_title
;
Structure prediction by ZEFSAII (Michael W. Deem and Ramdas Pophale) SiO2 
 PCOD9340085
Probable space group: P C A 21
;
_chemical_formula_sum "Si O2"
_cell_formula_units_Z 28
_cell_length_a 16.740048
_cell_length_b 7.671380
_cell_length_c 9.524835
_cell_angle_alpha 90.000000
_cell_angle_beta 90.000000
_cell_angle_gamma 90.000000
_cell_volume 1223.172352
_symmetry_space_group_name_H-M "P C A 21"
_symmetry_group_IT_number 29
_symmetry_cell_setting 'orthorhombic'
loop_
_space_group_symop_operation_xyz
x,y,z
-x,-y,1/2+z
1/2-x,y,1/2+z
1/2+x,-y,z
loop_
_atom_site_type_symbol
_atom_site_label
_atom_site_fract_x
_atom_site_fract_y
_atom_site_fract_z
Si Si1 0.157390 0.964453 0.079840
Si Si2 0.101917 0.465201 0.223954
Si Si3 0.247208 0.992423 0.336947
Si Si4 0.492286 0.817874 0.720981
Si Si5 0.878045 0.768474 0.979833
Si Si6 0.895350 0.701896 0.446608
Si Si7 0.784739 0.622556 0.216106
O O1 0.216084 0.895761 0.200047
O O2 0.072284 0.946811 0.153899
O O3 0.188432 0.891538 0.931166
O O4 0.162325 0.169028 0.036555
O O5 0.059522 0.645971 0.254040
O O6 0.085407 0.321315 0.342679
O O7 0.199113 0.469284 0.220991
O O8 0.068627 0.411308 0.071190
O O9 0.172947 0.061832 0.432481
O O10 0.276352 0.174423 0.266863
O O11 0.556303 0.803609 0.596485
O O12 0.545132 0.831004 0.862263
O O13 0.819769 0.630900 0.059501
O O14 0.851341 0.576315 0.333953
#
# Coordination Sequence:
#
# PCOD9340085 Si02
#       7
#     4   4   4   4   4   4   4
#     4  11  22  40  60  89 120 155 204 251 295 359
#     4  11  19  38  61  86 118 157 202 246 292 356
#     4  10  18  37  62  84 111 156 204 239 284 358
#     4  11  26  37  55  95 128 148 189 260 315 344
#     4  10  19  37  63  85 114 159 204 237 287 367
#     4  10  21  38  64  84 117 162 206 236 299 370
#     4   9  17  35  63  87 106 155 213 241 268 358
#
# _framework density 22.891296000000001
#
# number of rings (size 3 to 8) (size 9 to 14) (size 15 to 20)
#    0.000    1.714    4.286    2.571    2.000    0.000 
#    5.143    1.429    0.000    0.000    0.000    0.000 
#    0.000    0.000    0.000    0.000    0.000    0.000 
#
# Total GULP energy -155885.351183 kJ/mol
# GULP energy per Si atom -5567.333971 kJ/mol
# Density = 2.283919 g / cm^3
# Si number density = 22.891296 Si / 1000 Ang^3
#
#
#
# Elastic Constant Matrix: (Units=GPa)
#
#
# Indices 1 2 3 4 5 6 
#
# 1 72.5939 6.3468 42.4656 0.0000 0.0000 0.0000
# 2 6.3468 21.5264 15.9595 0.0000 0.0000 0.0000
# 3 42.4656 15.9595 154.1364 0.0000 0.0000 0.0000
# 4 0.0000 0.0000 0.0000 6.7832 0.0000 0.0000
# 5 0.0000 0.0000 0.0000 0.0000 35.8516 0.0000
# 6 0.0000 0.0000 0.0000 0.0000 0.0000 -87.6779
#
#
#
# Elastic Compliance Matrix: (Units=1/GPa)
#
#
# Indices 1 2 3 4 5 6 
#
# 1 0.016474 -0.001616 -0.004371 0.000000 0.000000 0.000000
# 2 -0.001616 0.050476 -0.004781 0.000000 0.000000 0.000000
# 3 -0.004371 -0.004781 0.008187 0.000000 0.000000 0.000000
# 4 0.000000 0.000000 0.000000 0.147423 0.000000 0.000000
# 5 0.000000 0.000000 0.000000 0.000000 0.027893 0.000000
# 6 0.000000 0.000000 0.000000 0.000000 0.000000 -0.011405
#
#
# Mechanical properties :
#
#
# Convention : Reuss Voigt Hill
#
# Bulk Modulus (GPa) = 18.65694 41.97784 30.31739
# Shear Modulus (GPa) = 17.95650 3.22369 10.59010
#
# Velocity S-wave (km/s) = 2.80380 1.18799 2.15321
# Velocity P-wave (km/s) = 4.31852 4.50105 4.41073
#
# Compressibility (1/GPa) = 0.05359937
#
# Stress axis : x y z
#
# Youngs Moduli (GPa) = 60.70303 19.81149 122.14329
#
# Poissons Ratio (x) = 0.03202 0.53392
# Poissons Ratio (y) = 0.09811 0.58397
# Poissons Ratio (z) = 0.26535 0.09472
#
# Static dielectric constant tensor:
#      x y z
#    x 2.039780 0.000000 0.000000 
#    y 0.000000 1.906090 0.000000 
#    z 0.000000 0.000000 1.967520 
# 
# From -- ./inp_files/2054.got.cif
#   From: 2010.05.17/outbox.cif.g08.bks.cpg/sg29_2_cif.got.tgz:2054.got - 2010.06.04 01:19:37.
