data_PCOD9340523
_publ_section_title
;
Structure prediction by ZEFSAII (Michael W. Deem and Ramdas Pophale) SiO2 
 PCOD9340523
Probable space group: P C A 21
;
_chemical_formula_sum "Si O2"
_cell_formula_units_Z 32
_cell_length_a 13.421739
_cell_length_b 4.911899
_cell_length_c 23.894193
_cell_angle_alpha 90.000000
_cell_angle_beta 90.000000
_cell_angle_gamma 90.000000
_cell_volume 1575.253977
_symmetry_space_group_name_H-M "P C A 21"
_symmetry_group_IT_number 29
_symmetry_cell_setting 'orthorhombic'
loop_
_space_group_symop_operation_xyz
x,y,z
-x,-y,1/2+z
1/2-x,y,1/2+z
1/2+x,-y,z
loop_
_atom_site_type_symbol
_atom_site_label
_atom_site_fract_x
_atom_site_fract_y
_atom_site_fract_z
Si Si1 0.405899 0.780764 0.705730
Si Si2 0.003777 0.281444 0.151551
Si Si3 0.176443 0.704834 0.971884
Si Si4 0.406025 0.780823 0.996621
Si Si5 0.676305 0.295274 0.730424
Si Si6 0.084434 0.186283 0.915338
Si Si7 0.503627 0.718522 0.550779
Si Si8 0.415675 0.186213 0.286985
O O1 0.434548 0.467749 0.694791
O O2 0.289152 0.777513 0.716390
O O3 0.476437 0.853999 0.758113
O O4 0.440244 0.988994 0.655492
O O5 0.893668 0.238365 0.176469
O O6 0.000111 0.499969 0.101162
O O7 0.289284 0.777596 0.985940
O O8 0.148883 0.401473 0.951718
O O9 0.139508 0.900839 0.922677
O O10 0.106455 0.761709 0.025835
O O11 0.476580 0.854042 0.944244
O O12 0.434659 0.467799 0.007561
O O13 0.440369 0.989050 0.046859
O O14 0.648762 0.598662 0.750581
O O15 0.639346 0.099299 0.779631
O O16 0.076202 0.269931 0.851162
#
# Coordination Sequence:
#
# PCOD9340523 Si02
#       8
#     4   4   4   4   4   4   4   4
#     4  10  21  38  58  83 115 149 189 238 287 341
#     4  10  21  38  59  85 115 148 191 238 288 346
#     4  10  21  38  57  83 117 150 190 240 289 345
#     4  10  21  38  58  83 115 149 189 238 287 341
#     4  10  21  38  57  83 117 150 190 240 289 345
#     4  10  21  36  56  83 114 149 191 236 284 344
#     4  10  21  38  59  85 115 148 191 238 288 346
#     4  10  21  36  56  83 114 149 191 236 284 344
#
# _framework density 20.314185999999999
#
# number of rings (size 3 to 8) (size 9 to 14) (size 15 to 20)
#    0.000    2.000    0.000    3.000    0.000    3.000 
#    0.000    2.500    0.000    0.000    0.000    0.000 
#    0.000    0.000    0.000    0.000    0.000    0.000 
#
# Total GULP energy -178260.874078 kJ/mol
# GULP energy per Si atom -5570.652315 kJ/mol
# Density = 2.026795 g / cm^3
# Si number density = 20.314186 Si / 1000 Ang^3
#
#
#
# Elastic Constant Matrix: (Units=GPa)
#
#
# Indices 1 2 3 4 5 6 
#
# 1 187.0935 33.9068 42.0032 0.0000 0.0000 0.0000
# 2 33.9068 108.7838 4.6018 0.0000 0.0000 0.0000
# 3 42.0032 4.6018 60.4958 0.0000 0.0000 0.0000
# 4 0.0000 0.0000 0.0000 30.1856 0.0000 0.0000
# 5 0.0000 0.0000 0.0000 0.0000 5.3140 0.0000
# 6 0.0000 0.0000 0.0000 0.0000 0.0000 16.5010
#
#
#
# Elastic Compliance Matrix: (Units=1/GPa)
#
#
# Indices 1 2 3 4 5 6 
#
# 1 0.006701 -0.001898 -0.004508 0.000000 0.000000 0.000000
# 2 -0.001898 0.009760 0.000575 0.000000 0.000000 0.000000
# 3 -0.004508 0.000575 0.019616 0.000000 0.000000 0.000000
# 4 0.000000 0.000000 0.000000 0.033128 0.000000 0.000000
# 5 0.000000 0.000000 0.000000 0.000000 0.188184 0.000000
# 6 0.000000 0.000000 0.000000 0.000000 0.000000 0.060602
#
#
# Mechanical properties :
#
#
# Convention : Reuss Voigt Hill
#
# Bulk Modulus (GPa) = 40.95743 57.48851 49.22297
# Shear Modulus (GPa) = 14.80201 28.79087 21.79644
#
# Velocity S-wave (km/s) = 2.70229 3.76876 3.27917
# Velocity P-wave (km/s) = 5.47195 6.87744 6.21456
#
# Compressibility (1/GPa) = 0.02441559
#
# Stress axis : x y z
#
# Youngs Moduli (GPa) = 149.23154 102.46139 50.97766
#
# Poissons Ratio (x) = 0.19446 0.22982
# Poissons Ratio (y) = 0.28323 -0.02933
# Poissons Ratio (z) = 0.67277 -0.05895
#
# Static dielectric constant tensor:
#      x y z
#    x 1.689690 0.000000 0.000000 
#    y 0.000000 1.707010 0.000000 
#    z 0.000000 0.000000 1.772260 
# 
# From -- ./inp_files/5708.got.cif
#   From: 2010.05.17/outbox.cif.g08.bks.cpg/sg29_3_cif.got.tgz:5708.got - 2010.06.04 01:19:37.
