data_PCOD9340965
_publ_section_title
;
Structure prediction by ZEFSAII (Michael W. Deem and Ramdas Pophale) SiO2 
 PCOD9340965
Probable space group: P C A 21
;
_chemical_formula_sum "Si O2"
_cell_formula_units_Z 32
_cell_length_a 13.295025
_cell_length_b 5.599790
_cell_length_c 18.184195
_cell_angle_alpha 90.000000
_cell_angle_beta 90.000000
_cell_angle_gamma 90.000000
_cell_volume 1353.801462
_symmetry_space_group_name_H-M "P C A 21"
_symmetry_group_IT_number 29
_symmetry_cell_setting 'orthorhombic'
loop_
_space_group_symop_operation_xyz
x,y,z
-x,-y,1/2+z
1/2-x,y,1/2+z
1/2+x,-y,z
loop_
_atom_site_type_symbol
_atom_site_label
_atom_site_fract_x
_atom_site_fract_y
_atom_site_fract_z
Si Si1 0.329646 0.169032 0.408530
Si Si2 0.036856 0.902058 0.018915
Si Si3 0.697681 0.094843 0.294110
Si Si4 0.169864 0.163308 0.144723
Si Si5 0.405131 0.768916 0.222954
Si Si6 0.325935 0.528656 0.536690
Si Si7 0.481758 0.284525 0.285901
Si Si8 0.158724 0.891973 0.569750
O O1 0.405012 0.982405 0.446365
O O2 0.239969 0.045715 0.364396
O O3 0.298167 0.332624 0.476713
O O4 0.400943 0.304745 0.351424
O O5 0.091331 0.020113 0.091586
O O6 0.923880 0.987553 0.019497
O O7 0.061954 0.624137 0.022020
O O8 0.667098 0.911436 0.228586
O O9 0.794451 0.236832 0.261367
O O10 0.597596 0.246135 0.308882
O O11 0.279152 0.087516 0.115057
O O12 0.166313 0.435886 0.120159
O O13 0.469298 0.537777 0.245401
O O14 0.448368 0.034276 0.244622
O O15 0.393498 0.747937 0.135394
O O16 0.241938 0.730985 0.531020
#
# Coordination Sequence:
#
# PCOD9340965 Si02
#       8
#     4   4   4   4   4   4   4   4
#     4  10  25  44  69 104 152 190 256 309 364 464
#     4  10  22  45  64 101 148 184 251 304 372 448
#     4  10  23  48  74 105 150 194 247 312 386 441
#     4   9  21  43  67 107 135 187 244 311 370 440
#     4  10  25  46  73 113 145 187 257 316 364 464
#     4  10  23  43  73 102 143 197 245 314 375 451
#     4  11  25  47  73 109 150 199 248 309 387 441
#     4  10  22  42  71 103 145 190 240 311 382 437
#
# _framework density 23.637141
#
# number of rings (size 3 to 8) (size 9 to 14) (size 15 to 20)
#    0.000    2.000    0.000    0.750    8.750    7.000 
#   22.500    0.000    0.000    0.000    0.000    0.000 
#    0.000    0.000    0.000    0.000    0.000    0.000 
#
# Total GULP energy -178777.597032 kJ/mol
# GULP energy per Si atom -5586.799907 kJ/mol
# Density = 2.358334 g / cm^3
# Si number density = 23.637141 Si / 1000 Ang^3
#
#
#
# Elastic Constant Matrix: (Units=GPa)
#
#
# Indices 1 2 3 4 5 6 
#
# 1 115.8714 30.8515 16.6132 0.0000 0.0000 0.0000
# 2 30.8515 78.1896 12.8581 0.0000 0.0000 0.0000
# 3 16.6132 12.8581 73.4919 0.0000 0.0000 0.0000
# 4 0.0000 0.0000 0.0000 21.5400 0.0000 0.0000
# 5 0.0000 0.0000 0.0000 0.0000 25.4458 0.0000
# 6 0.0000 0.0000 0.0000 0.0000 0.0000 19.7695
#
#
#
# Elastic Compliance Matrix: (Units=1/GPa)
#
#
# Indices 1 2 3 4 5 6 
#
# 1 0.009820 -0.003614 -0.001588 0.000000 0.000000 0.000000
# 2 -0.003614 0.014498 -0.001720 0.000000 0.000000 0.000000
# 3 -0.001588 -0.001720 0.014267 0.000000 0.000000 0.000000
# 4 0.000000 0.000000 0.000000 0.046425 0.000000 0.000000
# 5 0.000000 0.000000 0.000000 0.000000 0.039299 0.000000
# 6 0.000000 0.000000 0.000000 0.000000 0.000000 0.050583
#
#
# Mechanical properties :
#
#
# Convention : Reuss Voigt Hill
#
# Bulk Modulus (GPa) = 40.41564 43.13317 41.77441
# Shear Modulus (GPa) = 25.38304 27.16638 26.27471
#
# Velocity S-wave (km/s) = 3.28054 3.39382 3.33766
# Velocity P-wave (km/s) = 5.61113 5.80044 5.70657
#
# Compressibility (1/GPa) = 0.02474290
#
# Stress axis : x y z
#
# Youngs Moduli (GPa) = 101.83261 68.97470 70.09319
#
# Poissons Ratio (x) = 0.24925 0.11128
# Poissons Ratio (y) = 0.36799 0.12054
# Poissons Ratio (z) = 0.16167 0.11862
#
# Static dielectric constant tensor:
#      x y z
#    x 1.918080 0.000000 0.000000 
#    y 0.000000 1.978910 0.000000 
#    z 0.000000 0.000000 1.935040 
# 
# From -- ./inp_files/5267.got.cif
#   From: 2010.05.17/outbox.cif.g08.bks.cpg/sg29_3_cif.got.tgz:5267.got - 2010.06.04 01:19:37.
