data_PCOD9340241
_publ_section_title
;
Structure prediction by ZEFSAII (Michael W. Deem and Ramdas Pophale) SiO2 
 PCOD9340241
Probable space group: P C A 21
;
_chemical_formula_sum "Si O2"
_cell_formula_units_Z 28
_cell_length_a 18.371133
_cell_length_b 5.333248
_cell_length_c 10.619535
_cell_angle_alpha 90.000000
_cell_angle_beta 90.000000
_cell_angle_gamma 90.000000
_cell_volume 1040.478765
_symmetry_space_group_name_H-M "P C A 21"
_symmetry_group_IT_number 29
_symmetry_cell_setting 'orthorhombic'
loop_
_space_group_symop_operation_xyz
x,y,z
-x,-y,1/2+z
1/2-x,y,1/2+z
1/2+x,-y,z
loop_
_atom_site_type_symbol
_atom_site_label
_atom_site_fract_x
_atom_site_fract_y
_atom_site_fract_z
Si Si1 0.716999 0.211617 0.126320
Si Si2 0.673580 0.550023 0.501190
Si Si3 0.584705 0.465320 0.066032
Si Si4 0.354924 0.055773 0.188834
Si Si5 0.037527 0.700261 0.405215
Si Si6 0.028116 0.782620 0.821550
Si Si7 0.693050 0.806044 0.930458
O O1 0.774949 0.435008 0.108524
O O2 0.634871 0.290325 0.160435
O O3 0.770110 0.023816 0.201056
O O4 0.712727 0.075188 0.988721
O O5 0.631532 0.781932 0.565616
O O6 0.619651 0.347366 0.447045
O O7 0.732313 0.659386 0.405292
O O8 0.512610 0.632156 0.029251
O O9 0.570847 0.267457 0.951880
O O10 0.647442 0.668604 0.039160
O O11 0.362136 0.218008 0.314878
O O12 0.412768 0.839922 0.214850
O O13 0.018232 0.472803 0.305808
O O14 0.019507 0.969111 0.346611
#
# Coordination Sequence:
#
# PCOD9340241 Si02
#       7
#     4   4   4   4   4   4   4
#     4  10  21  34  63  95 126 163 220 273 315 386
#     4  10  25  36  64  95 133 167 218 275 326 391
#     4   9  18  37  65  86 122 173 207 259 326 380
#     4  11  21  38  65  96 122 173 228 266 323 397
#     4  10  21  40  63  90 124 174 211 257 335 393
#     4  10  21  37  71  84 127 171 216 252 332 388
#     4  10  19  40  59  92 126 169 212 268 331 377
#
# _framework density 26.910689999999999
#
# number of rings (size 3 to 8) (size 9 to 14) (size 15 to 20)
#    0.857    1.143    2.857    0.000    8.000    0.000 
#    0.000    1.429   12.571    0.000    0.000    0.000 
#    0.000    0.000    0.000    0.000    0.000    0.000 
#
# Total GULP energy -156008.676108 kJ/mol
# GULP energy per Si atom -5571.738432 kJ/mol
# Density = 2.684944 g / cm^3
# Si number density = 26.910690 Si / 1000 Ang^3
#
#
#
# Elastic Constant Matrix: (Units=GPa)
#
#
# Indices 1 2 3 4 5 6 
#
# 1 107.0291 30.7303 -11.3881 0.0000 0.0000 0.0000
# 2 30.7303 122.7195 7.4711 0.0000 0.0000 0.0000
# 3 -11.3881 7.4711 26.4007 0.0000 0.0000 0.0000
# 4 0.0000 0.0000 0.0000 25.6391 0.0000 0.0000
# 5 0.0000 0.0000 0.0000 0.0000 26.7469 0.0000
# 6 0.0000 0.0000 0.0000 0.0000 0.0000 50.5740
#
#
#
# Elastic Compliance Matrix: (Units=1/GPa)
#
#
# Indices 1 2 3 4 5 6 
#
# 1 0.010804 -0.003042 0.005521 0.000000 0.000000 0.000000
# 2 -0.003042 0.009148 -0.003901 0.000000 0.000000 0.000000
# 3 0.005521 -0.003901 0.041363 0.000000 0.000000 0.000000
# 4 0.000000 0.000000 0.000000 0.039003 0.000000 0.000000
# 5 0.000000 0.000000 0.000000 0.000000 0.037387 0.000000
# 6 0.000000 0.000000 0.000000 0.000000 0.000000 0.019773
#
#
# Mechanical properties :
#
#
# Convention : Reuss Voigt Hill
#
# Bulk Modulus (GPa) = 17.10205 34.41955 25.76080
# Shear Modulus (GPa) = 27.80690 35.88107 31.84399
#
# Velocity S-wave (km/s) = 3.21799 3.65545 3.44368
# Velocity P-wave (km/s) = 4.49179 5.53484 5.04037
#
# Compressibility (1/GPa) = 0.05847252
#
# Stress axis : x y z
#
# Youngs Moduli (GPa) = 92.55832 109.31615 24.17613
#
# Poissons Ratio (x) = 0.33249 -0.13348
# Poissons Ratio (y) = 0.28152 0.09430
# Poissons Ratio (z) = -0.51102 0.42641
#
# Static dielectric constant tensor:
#      x y z
#    x 2.093890 0.000000 0.000000 
#    y 0.000000 2.255610 0.000000 
#    z 0.000000 0.000000 2.382530 
# 
# From -- ./inp_files/3798.got.cif
#   From: 2010.05.17/outbox.cif.g08.bks.cpg/sg29_2_cif.got.tgz:3798.got - 2010.06.04 01:19:37.
