data_PCOD9340859
_publ_section_title
;
Structure prediction by ZEFSAII (Michael W. Deem and Ramdas Pophale) SiO2 
 PCOD9340859
Probable space group: P C A 21
;
_chemical_formula_sum "Si O2"
_cell_formula_units_Z 28
_cell_length_a 13.241626
_cell_length_b 4.943431
_cell_length_c 17.124471
_cell_angle_alpha 90.000000
_cell_angle_beta 90.000000
_cell_angle_gamma 90.000000
_cell_volume 1120.951851
_symmetry_space_group_name_H-M "P C A 21"
_symmetry_group_IT_number 29
_symmetry_cell_setting 'orthorhombic'
loop_
_space_group_symop_operation_xyz
x,y,z
-x,-y,1/2+z
1/2-x,y,1/2+z
1/2+x,-y,z
loop_
_atom_site_type_symbol
_atom_site_label
_atom_site_fract_x
_atom_site_fract_y
_atom_site_fract_z
Si Si1 0.245383 0.759432 0.004100
Si Si2 0.892769 0.747053 0.487172
Si Si3 0.357823 0.387525 0.326075
Si Si4 0.691183 0.112552 0.166560
Si Si5 0.823656 0.001918 0.842201
Si Si6 0.544680 0.098796 0.778523
Si Si7 0.943708 0.610557 0.641262
O O1 0.203767 0.454889 0.997949
O O2 0.269891 0.813481 0.096765
O O3 0.146342 0.951257 0.996843
O O4 0.308887 0.850472 0.926804
O O5 0.972441 0.663251 0.551977
O O6 0.925265 0.705598 0.399693
O O7 0.379345 0.702637 0.323691
O O8 0.246947 0.267165 0.341056
O O9 0.404901 0.190020 0.260712
O O10 0.707303 0.149035 0.259450
O O11 0.594909 0.308599 0.152289
O O12 0.655385 0.803452 0.154960
O O13 0.939089 0.924373 0.824224
O O14 0.521561 0.270038 0.701473
#
# Coordination Sequence:
#
# PCOD9340859 Si02
#       7
#     4   4   4   4   4   4   4
#     4   9  18  33  57  85 112 153 200 238 296 364
#     4   9  18  35  57  81 114 153 192 242 298 351
#     4  11  23  38  59  89 118 155 206 248 301 374
#     4   9  18  33  57  85 112 153 200 238 296 364
#     4  10  22  40  62  84 124 162 194 258 314 348
#     4  11  23  38  59  89 118 155 206 248 301 374
#     4   9  18  35  57  81 114 153 192 242 298 351
#
# _framework density 24.978773
#
# number of rings (size 3 to 8) (size 9 to 14) (size 15 to 20)
#    0.000    2.286    0.000    3.429    0.000   10.286 
#    0.000    2.857    0.000    0.000    0.000    2.000 
#    0.000    0.000    0.000    0.000    0.000    0.000 
#
# Total GULP energy -156049.978001 kJ/mol
# GULP energy per Si atom -5573.213500 kJ/mol
# Density = 2.492192 g / cm^3
# Si number density = 24.978773 Si / 1000 Ang^3
#
#
#
# Elastic Constant Matrix: (Units=GPa)
#
#
# Indices 1 2 3 4 5 6 
#
# 1 72.4696 23.9615 12.7517 0.0000 0.0000 0.0000
# 2 23.9615 96.7192 12.5516 0.0000 0.0000 0.0000
# 3 12.7517 12.5516 106.9328 0.0000 0.0000 0.0000
# 4 0.0000 0.0000 0.0000 39.8699 0.0000 0.0000
# 5 0.0000 0.0000 0.0000 0.0000 23.7535 0.0000
# 6 0.0000 0.0000 0.0000 0.0000 0.0000 21.2172
#
#
#
# Elastic Compliance Matrix: (Units=1/GPa)
#
#
# Indices 1 2 3 4 5 6 
#
# 1 0.015232 -0.003593 -0.001395 0.000000 0.000000 0.000000
# 2 -0.003593 0.011347 -0.000903 0.000000 0.000000 0.000000
# 3 -0.001395 -0.000903 0.009624 0.000000 0.000000 0.000000
# 4 0.000000 0.000000 0.000000 0.025082 0.000000 0.000000
# 5 0.000000 0.000000 0.000000 0.000000 0.042099 0.000000
# 6 0.000000 0.000000 0.000000 0.000000 0.000000 0.047132
#
#
# Mechanical properties :
#
#
# Convention : Reuss Voigt Hill
#
# Bulk Modulus (GPa) = 40.94819 41.62791 41.28805
# Shear Modulus (GPa) = 29.33636 32.09191 30.71414
#
# Velocity S-wave (km/s) = 3.43075 3.58825 3.51038
# Velocity P-wave (km/s) = 5.66764 5.81970 5.74417
#
# Compressibility (1/GPa) = 0.02442110
#
# Stress axis : x y z
#
# Youngs Moduli (GPa) = 65.65046 88.13289 103.90654
#
# Poissons Ratio (x) = 0.31663 0.14492
# Poissons Ratio (y) = 0.23586 0.09387
# Poissons Ratio (z) = 0.09156 0.07962
#
# Static dielectric constant tensor:
#      x y z
#    x 2.002990 0.000000 0.000000 
#    y 0.000000 1.992630 0.000000 
#    z 0.000000 0.000000 2.180760 
# 
# From -- ./inp_files/5204.got.cif
#   From: 2010.05.17/outbox.cif.g08.bks.cpg/sg29_3_cif.got.tgz:5204.got - 2010.06.04 01:19:37.
