data_PCOD9340007
_publ_section_title
;
Structure prediction by ZEFSAII (Michael W. Deem and Ramdas Pophale) SiO2 
 PCOD9340007
Probable space group: P C A 21
;
_chemical_formula_sum "Si O2"
_cell_formula_units_Z 32
_cell_length_a 13.507909
_cell_length_b 5.233179
_cell_length_c 16.002870
_cell_angle_alpha 90.000000
_cell_angle_beta 90.000000
_cell_angle_gamma 90.000000
_cell_volume 1131.231770
_symmetry_space_group_name_H-M "P C A 21"
_symmetry_group_IT_number 29
_symmetry_cell_setting 'orthorhombic'
loop_
_space_group_symop_operation_xyz
x,y,z
-x,-y,1/2+z
1/2-x,y,1/2+z
1/2+x,-y,z
loop_
_atom_site_type_symbol
_atom_site_label
_atom_site_fract_x
_atom_site_fract_y
_atom_site_fract_z
Si Si1 0.124312 0.195233 0.061090
Si Si2 0.841640 0.810284 0.296904
Si Si3 0.232590 0.546251 0.185617
Si Si4 0.441917 0.659650 0.131005
Si Si5 0.274734 0.948194 0.953040
Si Si6 0.456144 0.648138 0.781980
Si Si7 0.146455 0.569533 0.926335
Si Si8 0.948399 0.663078 0.958131
O O1 0.166825 0.444773 0.108987
O O2 0.021385 0.121308 0.104556
O O3 0.215958 0.020262 0.037472
O O4 0.104484 0.320776 0.971437
O O5 0.773531 0.731227 0.219441
O O6 0.782042 0.968218 0.366838
O O7 0.848943 0.517616 0.332589
O O8 0.958817 0.871427 0.287197
O O9 0.329807 0.705484 0.159896
O O10 0.155054 0.690456 0.246715
O O11 0.494996 0.523727 0.208937
O O12 0.434955 0.482024 0.047160
O O13 0.376057 0.095512 0.952767
O O14 0.257035 0.645498 0.950840
O O15 0.442583 0.505501 0.871708
O O16 0.061959 0.764421 0.952629
#
# Coordination Sequence:
#
# PCOD9340007 Si02
#       8
#     4   4   4   4   4   4   4   4
#     4   9  19  35  57  82 112 150 194 244 296 351
#     4   9  19  35  57  82 112 150 194 244 296 351
#     4  10  16  32  58  84 112 150 194 236 300 358
#     4   9  18  32  58  87 115 153 195 246 294 353
#     4  11  19  37  59  84 114 158 201 241 297 367
#     4   9  18  32  58  87 115 153 195 246 294 353
#     4   9  21  37  51  84 118 142 199 251 283 351
#     4  10  18  36  58  84 122 158 200 248 302 358
#
# _framework density 28.287749999999999
#
# number of rings (size 3 to 8) (size 9 to 14) (size 15 to 20)
#    0.000    2.500    2.500    0.750    0.000    0.000 
#    4.500    1.250    0.000   13.500    0.000    0.000 
#    0.000    0.000    0.000    0.000    0.000    0.000 
#
# Total GULP energy -178501.041173 kJ/mol
# GULP energy per Si atom -5578.157537 kJ/mol
# Density = 2.822337 g / cm^3
# Si number density = 28.287750 Si / 1000 Ang^3
#
#
#
# Elastic Constant Matrix: (Units=GPa)
#
#
# Indices 1 2 3 4 5 6 
#
# 1 181.0041 23.3002 50.5596 0.0000 0.0000 0.0000
# 2 23.3002 47.5711 23.6136 0.0000 0.0000 0.0000
# 3 50.5596 23.6136 145.1651 0.0000 0.0000 0.0000
# 4 0.0000 0.0000 0.0000 26.2652 0.0000 0.0000
# 5 0.0000 0.0000 0.0000 0.0000 67.5321 0.0000
# 6 0.0000 0.0000 0.0000 0.0000 0.0000 31.6182
#
#
#
# Elastic Compliance Matrix: (Units=1/GPa)
#
#
# Indices 1 2 3 4 5 6 
#
# 1 0.006321 -0.002179 -0.001847 0.000000 0.000000 0.000000
# 2 -0.002179 0.023619 -0.003083 0.000000 0.000000 0.000000
# 3 -0.001847 -0.003083 0.008034 0.000000 0.000000 0.000000
# 4 0.000000 0.000000 0.000000 0.038073 0.000000 0.000000
# 5 0.000000 0.000000 0.000000 0.000000 0.014808 0.000000
# 6 0.000000 0.000000 0.000000 0.000000 0.000000 0.031627
#
#
# Mechanical properties :
#
#
# Convention : Reuss Voigt Hill
#
# Bulk Modulus (GPa) = 42.09652 63.18745 52.64199
# Shear Modulus (GPa) = 34.57359 43.50088 39.03724
#
# Velocity S-wave (km/s) = 3.49981 3.92573 3.71887
# Velocity P-wave (km/s) = 5.58976 6.55243 6.09015
#
# Compressibility (1/GPa) = 0.02375493
#
# Stress axis : x y z
#
# Youngs Moduli (GPa) = 158.19726 42.33896 124.47794
#
# Poissons Ratio (x) = 0.09227 0.22993
# Poissons Ratio (y) = 0.34475 0.38377
# Poissons Ratio (z) = 0.29221 0.13053
#
# Static dielectric constant tensor:
#      x y z
#    x 2.367600 0.000000 0.000000 
#    y 0.000000 2.321960 0.000000 
#    z 0.000000 0.000000 2.192760 
# 
# From -- ./inp_files/5240.got.cif
#   From: 2010.05.17/outbox.cif.g08.bks.cpg/sg29_3_cif.got.tgz:5240.got - 2010.06.04 01:19:37.
