data_PCOD9340046
_publ_section_title
;
Structure prediction by ZEFSAII (Michael W. Deem and Ramdas Pophale) SiO2 
 PCOD9340046
Probable space group: P C A 21
;
_chemical_formula_sum "Si O2"
_cell_formula_units_Z 24
_cell_length_a 20.855581
_cell_length_b 10.953269
_cell_length_c 5.234654
_cell_angle_alpha 90.000000
_cell_angle_beta 90.000000
_cell_angle_gamma 90.000000
_cell_volume 1195.787550
_symmetry_space_group_name_H-M "P C A 21"
_symmetry_group_IT_number 29
_symmetry_cell_setting 'orthorhombic'
loop_
_space_group_symop_operation_xyz
x,y,z
-x,-y,1/2+z
1/2-x,y,1/2+z
1/2+x,-y,z
loop_
_atom_site_type_symbol
_atom_site_label
_atom_site_fract_x
_atom_site_fract_y
_atom_site_fract_z
Si Si1 0.582360 0.036656 0.788540
Si Si2 0.291331 0.811191 0.393518
Si Si3 0.848601 0.706228 0.556005
Si Si4 0.792036 0.469266 0.362217
Si Si5 0.268378 0.144093 0.235445
Si Si6 0.553321 0.875819 0.286832
O O1 0.650977 0.099665 0.816533
O O2 0.573930 0.950355 0.539892
O O3 0.523612 0.133622 0.782973
O O4 0.570837 0.961044 0.046651
O O5 0.264250 0.823036 0.680204
O O6 0.314963 0.670010 0.378529
O O7 0.239438 0.073984 0.475188
O O8 0.843518 0.570631 0.449569
O O9 0.783505 0.744575 0.709458
O O10 0.834996 0.796594 0.313555
O O11 0.907642 0.752104 0.724227
O O12 0.735544 0.485059 0.575630
#
# Coordination Sequence:
#
# PCOD9340046 Si02
#       6
#     4   4   4   4   4   4
#     4  10  22  44  52  86 106 160 197 228 289 358
#     4  10  21  38  60  82 112 153 192 238 278 339
#     4  10  18  32  51  86 106 147 177 229 289 337
#     4  10  18  32  54  80 116 144 176 227 286 339
#     4   8  16  26  42  70 114 127 161 218 265 329
#     4  10  23  36  65  72 120 151 189 242 293 342
#
# _framework density 20.070454999999999
#
# number of rings (size 3 to 8) (size 9 to 14) (size 15 to 20)
#    1.000    1.333    1.667    1.000    2.333    0.000 
#    9.000    0.000    0.000   12.000    0.000    0.000 
#    0.000    0.000    0.000    0.000    0.000    0.000 
#
# Total GULP energy -133683.333336 kJ/mol
# GULP energy per Si atom -5570.138889 kJ/mol
# Density = 2.002477 g / cm^3
# Si number density = 20.070455 Si / 1000 Ang^3
#
#
#
# Elastic Constant Matrix: (Units=GPa)
#
#
# Indices 1 2 3 4 5 6 
#
# 1 91.2010 17.3836 16.6801 0.0000 0.0000 0.0000
# 2 17.3836 71.0145 17.0512 0.0000 0.0000 0.0000
# 3 16.6801 17.0512 139.6982 0.0000 0.0000 0.0000
# 4 0.0000 0.0000 0.0000 22.9348 0.0000 0.0000
# 5 0.0000 0.0000 0.0000 0.0000 24.0521 0.0000
# 6 0.0000 0.0000 0.0000 0.0000 0.0000 19.7206
#
#
#
# Elastic Compliance Matrix: (Units=1/GPa)
#
#
# Indices 1 2 3 4 5 6 
#
# 1 0.011656 -0.002595 -0.001075 0.000000 0.000000 0.000000
# 2 -0.002595 0.015085 -0.001531 0.000000 0.000000 0.000000
# 3 -0.001075 -0.001531 0.007474 0.000000 0.000000 0.000000
# 4 0.000000 0.000000 0.000000 0.043602 0.000000 0.000000
# 5 0.000000 0.000000 0.000000 0.000000 0.041576 0.000000
# 6 0.000000 0.000000 0.000000 0.000000 0.000000 0.050708
#
#
# Mechanical properties :
#
#
# Convention : Reuss Voigt Hill
#
# Bulk Modulus (GPa) = 41.99696 44.90484 43.45090
# Shear Modulus (GPa) = 26.53352 30.06142 28.29747
#
# Velocity S-wave (km/s) = 3.63990 3.87433 3.75895
# Velocity P-wave (km/s) = 6.21574 6.51430 6.36677
#
# Compressibility (1/GPa) = 0.02381125
#
# Stress axis : x y z
#
# Youngs Moduli (GPa) = 85.79231 66.29284 133.80518
#
# Poissons Ratio (x) = 0.17204 0.14384
# Poissons Ratio (y) = 0.22265 0.20490
# Poissons Ratio (z) = 0.09223 0.10152
#
# Static dielectric constant tensor:
#      x y z
#    x 1.749690 0.000000 0.000000 
#    y 0.000000 1.756680 0.000000 
#    z 0.000000 0.000000 1.792900 
# 
# From -- ./inp_files/676.got.cif
#   From: 2010.05.17/outbox.cif.g08.bks.cpg/sg29_1_cif.got.tgz:676.got - 2010.06.04 01:19:37.
