data_PCOD9340559
_publ_section_title
;
Structure prediction by ZEFSAII (Michael W. Deem and Ramdas Pophale) SiO2 
 PCOD9340559
Probable space group: P C A 21
;
_chemical_formula_sum "Si O2"
_cell_formula_units_Z 24
_cell_length_a 18.526181
_cell_length_b 10.615812
_cell_length_c 5.395220
_cell_angle_alpha 90.000000
_cell_angle_beta 90.000000
_cell_angle_gamma 90.000000
_cell_volume 1061.080370
_symmetry_space_group_name_H-M "P C A 21"
_symmetry_group_IT_number 29
_symmetry_cell_setting 'orthorhombic'
loop_
_space_group_symop_operation_xyz
x,y,z
-x,-y,1/2+z
1/2-x,y,1/2+z
1/2+x,-y,z
loop_
_atom_site_type_symbol
_atom_site_label
_atom_site_fract_x
_atom_site_fract_y
_atom_site_fract_z
Si Si1 0.715875 0.458596 0.902630
Si Si2 0.033077 0.149734 0.661730
Si Si3 0.559815 0.118319 0.657028
Si Si4 0.423606 0.374229 0.868476
Si Si5 0.415885 0.614375 0.166870
Si Si6 0.225857 0.260085 0.295286
O O1 0.748915 0.405024 0.648627
O O2 0.630639 0.436970 0.895886
O O3 0.734534 0.606472 0.861664
O O4 0.062825 0.289073 0.615342
O O5 0.977984 0.133505 0.427556
O O6 0.084360 0.026736 0.639866
O O7 0.995601 0.137019 0.927399
O O8 0.608276 0.241850 0.625876
O O9 0.401198 0.513174 0.953197
O O10 0.498647 0.384077 0.722589
O O11 0.357574 0.297144 0.749649
O O12 0.238589 0.194261 0.559875
#
# Coordination Sequence:
#
# PCOD9340559 Si02
#       6
#     4   4   4   4   4   4
#     4  10  21  38  53  75 114 159 178 216 289 349
#     4   9  19  36  54  79 115 149 178 226 292 338
#     4   9  19  36  54  79 115 149 178 226 292 338
#     4  11  22  33  59  91 114 141 193 246 272 326
#     4  11  22  33  59  91 114 141 193 246 272 326
#     4  10  21  38  53  75 114 159 178 216 289 349
#
# _framework density 22.618458
#
# number of rings (size 3 to 8) (size 9 to 14) (size 15 to 20)
#    0.000    2.000    3.333    1.000    4.667    5.333 
#    0.000    0.000    0.000    2.000    0.000    0.000 
#    0.000    0.000    0.000    0.000    0.000    0.000 
#
# Total GULP energy -133721.286690 kJ/mol
# GULP energy per Si atom -5571.720279 kJ/mol
# Density = 2.256698 g / cm^3
# Si number density = 22.618458 Si / 1000 Ang^3
#
#
#
# Elastic Constant Matrix: (Units=GPa)
#
#
# Indices 1 2 3 4 5 6 
#
# 1 88.2254 -18.7382 33.4055 0.0000 0.0000 0.0000
# 2 -18.7382 78.4294 0.1442 0.0000 0.0000 0.0000
# 3 33.4055 0.1442 140.7572 0.0000 0.0000 0.0000
# 4 0.0000 0.0000 0.0000 167.2829 0.0000 0.0000
# 5 0.0000 0.0000 0.0000 0.0000 -13.1392 0.0000
# 6 0.0000 0.0000 0.0000 0.0000 0.0000 11.2784
#
#
#
# Elastic Compliance Matrix: (Units=1/GPa)
#
#
# Indices 1 2 3 4 5 6 
#
# 1 0.013192 0.003158 -0.003134 0.000000 0.000000 0.000000
# 2 0.003158 0.013506 -0.000763 0.000000 0.000000 0.000000
# 3 -0.003134 -0.000763 0.007849 0.000000 0.000000 0.000000
# 4 0.000000 0.000000 0.000000 0.005978 0.000000 0.000000
# 5 0.000000 0.000000 0.000000 0.000000 -0.076108 0.000000
# 6 0.000000 0.000000 0.000000 0.000000 0.000000 0.088665
#
#
# Mechanical properties :
#
#
# Convention : Reuss Voigt Hill
#
# Bulk Modulus (GPa) = 30.24105 37.44834 33.84469
# Shear Modulus (GPa) = 76.23891 52.59112 64.41501
#
# Velocity S-wave (km/s) = 5.81203 4.82720 5.34236
# Velocity P-wave (km/s) = 7.64452 6.90374 7.28355
#
# Compressibility (1/GPa) = 0.03306764
#
# Stress axis : x y z
#
# Youngs Moduli (GPa) = 75.80403 74.04053 127.40463
#
# Poissons Ratio (x) = -0.23379 0.39929
# Poissons Ratio (y) = -0.23935 0.09724
# Poissons Ratio (z) = 0.23757 0.05651
#
# Static dielectric constant tensor:
#      x y z
#    x 1.899200 0.000000 0.000000 
#    y 0.000000 1.856990 0.000000 
#    z 0.000000 0.000000 1.951610 
# 
# From -- ./inp_files/376.got.cif
#   From: 2010.05.17/outbox.cif.g08.bks.cpg/sg29_1_cif.got.tgz:376.got - 2010.06.04 01:19:37.
