data_PCOD9340216
_publ_section_title
;
Structure prediction by ZEFSAII (Michael W. Deem and Ramdas Pophale) SiO2 
 PCOD9340216
Probable space group: P C A 21
;
_chemical_formula_sum "Si O2"
_cell_formula_units_Z 32
_cell_length_a 13.598428
_cell_length_b 12.260447
_cell_length_c 7.909911
_cell_angle_alpha 90.000000
_cell_angle_beta 90.000000
_cell_angle_gamma 90.000000
_cell_volume 1318.762555
_symmetry_space_group_name_H-M "P C A 21"
_symmetry_group_IT_number 29
_symmetry_cell_setting 'orthorhombic'
loop_
_space_group_symop_operation_xyz
x,y,z
-x,-y,1/2+z
1/2-x,y,1/2+z
1/2+x,-y,z
loop_
_atom_site_type_symbol
_atom_site_label
_atom_site_fract_x
_atom_site_fract_y
_atom_site_fract_z
Si Si1 0.091500 0.575047 0.804520
Si Si2 0.405823 0.334878 0.332248
Si Si3 0.951511 0.775407 0.822787
Si Si4 0.287185 0.596462 0.654690
Si Si5 0.602093 0.086115 0.964514
Si Si6 0.790864 0.650199 0.687167
Si Si7 0.009639 0.868352 0.467782
Si Si8 0.200831 0.840206 0.295587
O O1 0.048171 0.453702 0.807555
O O2 0.006436 0.661288 0.797290
O O3 0.167693 0.593043 0.650479
O O4 0.156235 0.593878 0.975602
O O5 0.324879 0.326720 0.186132
O O6 0.342208 0.340156 0.505660
O O7 0.477496 0.235806 0.357956
O O8 0.006928 0.834754 0.973963
O O9 0.839270 0.741305 0.807320
O O10 0.979559 0.847627 0.660548
O O11 0.306012 0.477161 0.739715
O O12 0.308579 0.712172 0.744285
O O13 0.686728 0.133763 0.842111
O O14 0.555344 0.971374 0.912718
O O15 0.657733 0.088044 0.142751
O O16 0.126831 0.872609 0.446649
#
# Coordination Sequence:
#
# PCOD9340216 Si02
#       8
#     4   4   4   4   4   4   4   4
#     4  10  20  37  64  92 130 163 209 267 322 383
#     4   9  21  42  59  94 129 170 214 261 326 381
#     4  11  22  42  64  95 132 172 218 268 330 385
#     4  10  19  38  61  97 127 164 212 258 322 381
#     4  12  26  45  66  97 129 173 219 275 323 383
#     4   9  21  38  64  91 133 171 207 266 324 392
#     4  11  27  43  66  95 132 173 225 264 323 394
#     4  12  24  43  68  95 124 168 218 273 324 385
#
# _framework density 24.265170000000001
#
# number of rings (size 3 to 8) (size 9 to 14) (size 15 to 20)
#    0.000    1.500    2.500    1.500    3.500    4.000 
#    0.000    0.000    0.000    0.000    0.000    0.000 
#    0.000    0.000    0.000    0.000    0.000    0.000 
#
# Total GULP energy -178887.609604 kJ/mol
# GULP energy per Si atom -5590.237800 kJ/mol
# Density = 2.420994 g / cm^3
# Si number density = 24.265170 Si / 1000 Ang^3
#
#
#
# Elastic Constant Matrix: (Units=GPa)
#
#
# Indices 1 2 3 4 5 6 
#
# 1 35.6127 23.6728 -10.7661 0.0000 0.0000 0.0000
# 2 23.6728 99.5523 5.2489 0.0000 0.0000 0.0000
# 3 -10.7661 5.2489 63.1084 0.0000 0.0000 0.0000
# 4 0.0000 0.0000 0.0000 31.9827 0.0000 0.0000
# 5 0.0000 0.0000 0.0000 0.0000 25.8804 0.0000
# 6 0.0000 0.0000 0.0000 0.0000 0.0000 32.0608
#
#
#
# Elastic Compliance Matrix: (Units=1/GPa)
#
#
# Indices 1 2 3 4 5 6 
#
# 1 0.036119 -0.008953 0.006906 0.000000 0.000000 0.000000
# 2 -0.008953 0.012308 -0.002551 0.000000 0.000000 0.000000
# 3 0.006906 -0.002551 0.017236 0.000000 0.000000 0.000000
# 4 0.000000 0.000000 0.000000 0.031267 0.000000 0.000000
# 5 0.000000 0.000000 0.000000 0.000000 0.038639 0.000000
# 6 0.000000 0.000000 0.000000 0.000000 0.000000 0.031191
#
#
# Mechanical properties :
#
#
# Convention : Reuss Voigt Hill
#
# Bulk Modulus (GPa) = 17.70903 26.06496 21.88700
# Shear Modulus (GPa) = 25.67017 29.99263 27.83140
#
# Velocity S-wave (km/s) = 3.25607 3.51955 3.39037
# Velocity P-wave (km/s) = 4.63141 5.22315 4.93616
#
# Compressibility (1/GPa) = 0.05646837
#
# Stress axis : x y z
#
# Youngs Moduli (GPa) = 27.68623 81.24511 58.01758
#
# Poissons Ratio (x) = 0.72739 -0.40069
# Poissons Ratio (y) = 0.24787 0.14801
# Poissons Ratio (z) = -0.19121 0.20726
#
# Static dielectric constant tensor:
#      x y z
#    x 1.908020 0.000000 0.000000 
#    y 0.000000 1.910650 0.000000 
#    z 0.000000 0.000000 2.011700 
# 
# From -- ./inp_files/1815.got.cif
#   From: 2010.05.17/outbox.cif.g08.bks.cpg/sg29_1_cif.got.tgz:1815.got - 2010.06.04 01:19:37.
