data_PCOD9340348
_publ_section_title
;
Structure prediction by ZEFSAII (Michael W. Deem and Ramdas Pophale) SiO2 
 PCOD9340348
Probable space group: P C A 21
;
_chemical_formula_sum "Si O2"
_cell_formula_units_Z 20
_cell_length_a 13.982183
_cell_length_b 5.171347
_cell_length_c 10.265756
_cell_angle_alpha 90.000000
_cell_angle_beta 90.000000
_cell_angle_gamma 90.000000
_cell_volume 742.283146
_symmetry_space_group_name_H-M "P C A 21"
_symmetry_group_IT_number 29
_symmetry_cell_setting 'orthorhombic'
loop_
_space_group_symop_operation_xyz
x,y,z
-x,-y,1/2+z
1/2-x,y,1/2+z
1/2+x,-y,z
loop_
_atom_site_type_symbol
_atom_site_label
_atom_site_fract_x
_atom_site_fract_y
_atom_site_fract_z
Si Si1 0.547385 0.114026 0.220250
Si Si2 0.770738 0.502467 0.003429
Si Si3 0.229418 0.021143 0.341048
Si Si4 0.940842 0.391280 0.187244
Si Si5 0.590307 0.706597 0.910924
O O1 0.495597 0.869338 0.157965
O O2 0.659973 0.069187 0.226106
O O3 0.509318 0.368998 0.149788
O O4 0.509740 0.156892 0.371150
O O5 0.761307 0.231126 0.929977
O O6 0.666854 0.637674 0.023599
O O7 0.817536 0.726315 0.911253
O O8 0.839357 0.437602 0.121787
O O9 0.336086 0.127522 0.316567
O O10 0.927566 0.432112 0.340933
#
# Coordination Sequence:
#
# PCOD9340348 Si02
#       5
#     4   4   4   4   4
#     4  10  20  37  61  80 117 156 191 235 290 342
#     4  10  20  37  58  85 116 151 193 241 284 338
#     4  10  20  37  61  80 117 156 191 235 290 342
#     4  10  20  37  58  85 116 151 193 241 284 338
#     4   8  22  34  62  84 114 160 184 246 282 346
#
# _framework density 26.943898000000001
#
# number of rings (size 3 to 8) (size 9 to 14) (size 15 to 20)
#    2.400    0.000    0.000    3.600    0.000    0.000 
#    0.000    4.000    0.000    0.000    0.000    0.000 
#    0.000    0.000    0.000    0.000    0.000    0.000 
#
# Total GULP energy -111397.344640 kJ/mol
# GULP energy per Si atom -5569.867232 kJ/mol
# Density = 2.688257 g / cm^3
# Si number density = 26.943898 Si / 1000 Ang^3
#
#
#
# Elastic Constant Matrix: (Units=GPa)
#
#
# Indices 1 2 3 4 5 6 
#
# 1 120.1390 21.5230 11.8699 0.0000 0.0000 0.0000
# 2 21.5230 167.3813 11.6746 0.0000 0.0000 0.0000
# 3 11.8699 11.6746 35.4989 0.0000 0.0000 0.0000
# 4 0.0000 0.0000 0.0000 30.7555 0.0000 0.0000
# 5 0.0000 0.0000 0.0000 0.0000 29.3318 0.0000
# 6 0.0000 0.0000 0.0000 0.0000 0.0000 35.4898
#
#
#
# Elastic Compliance Matrix: (Units=1/GPa)
#
#
# Indices 1 2 3 4 5 6 
#
# 1 0.008751 -0.000943 -0.002616 0.000000 0.000000 0.000000
# 2 -0.000943 0.006216 -0.001729 0.000000 0.000000 0.000000
# 3 -0.002616 -0.001729 0.029613 0.000000 0.000000 0.000000
# 4 0.000000 0.000000 0.000000 0.032514 0.000000 0.000000
# 5 0.000000 0.000000 0.000000 0.000000 0.034093 0.000000
# 6 0.000000 0.000000 0.000000 0.000000 0.000000 0.028177
#
#
# Mechanical properties :
#
#
# Convention : Reuss Voigt Hill
#
# Bulk Modulus (GPa) = 29.40778 45.90604 37.65691
# Shear Modulus (GPa) = 31.00283 37.64555 34.32419
#
# Velocity S-wave (km/s) = 3.39579 3.74195 3.57306
# Velocity P-wave (km/s) = 5.12966 5.97864 5.57035
#
# Compressibility (1/GPa) = 0.03400460
#
# Stress axis : x y z
#
# Youngs Moduli (GPa) = 114.27178 160.86959 33.76867
#
# Poissons Ratio (x) = 0.15167 0.08834
# Poissons Ratio (y) = 0.10774 0.05839
# Poissons Ratio (z) = 0.29894 0.27816
#
# Static dielectric constant tensor:
#      x y z
#    x 2.093800 0.000000 0.000000 
#    y 0.000000 2.067050 0.000000 
#    z 0.000000 0.000000 2.350990 
# 
# From -- ./inp_files/4747.got.cif
#   From: 2010.05.17/outbox.cif.g08.bks.cpg/sg29_3_cif.got.tgz:4747.got - 2010.06.04 01:19:37.
