data_PCOD9340474
_publ_section_title
;
Structure prediction by ZEFSAII (Michael W. Deem and Ramdas Pophale) SiO2 
 PCOD9340474
Probable space group: P C A 21
;
_chemical_formula_sum "Si O2"
_cell_formula_units_Z 28
_cell_length_a 11.448370
_cell_length_b 12.424265
_cell_length_c 8.512344
_cell_angle_alpha 90.000000
_cell_angle_beta 90.000000
_cell_angle_gamma 90.000000
_cell_volume 1210.775234
_symmetry_space_group_name_H-M "P C A 21"
_symmetry_group_IT_number 29
_symmetry_cell_setting 'orthorhombic'
loop_
_space_group_symop_operation_xyz
x,y,z
-x,-y,1/2+z
1/2-x,y,1/2+z
1/2+x,-y,z
loop_
_atom_site_type_symbol
_atom_site_label
_atom_site_fract_x
_atom_site_fract_y
_atom_site_fract_z
Si Si1 0.840919 0.714972 0.071810
Si Si2 0.909715 0.493589 0.985282
Si Si3 0.675763 0.230153 0.043330
Si Si4 0.767277 0.388183 0.267978
Si Si5 0.066185 0.867623 0.571796
Si Si6 0.595428 0.682614 0.929763
Si Si7 0.971632 0.903175 0.924589
O O1 0.865212 0.718774 0.256569
O O2 0.924157 0.619714 0.008560
O O3 0.709018 0.678754 0.039328
O O4 0.867003 0.823526 0.975468
O O5 0.805728 0.477018 0.860062
O O6 0.024986 0.429786 0.934633
O O7 0.856880 0.437632 0.142913
O O8 0.675886 0.303799 0.887755
O O9 0.576818 0.141860 0.032442
O O10 0.669067 0.316051 0.181991
O O11 0.800393 0.172711 0.068596
O O12 0.990999 0.772266 0.497590
O O13 0.015523 0.890989 0.745835
O O14 0.056382 0.975264 0.469078
#
# Coordination Sequence:
#
# PCOD9340474 Si02
#       7
#     4   4   4   4   4   4   4
#     4  12  29  47  76 109 154 202 245 308 380 444
#     4  11  24  46  75 110 150 192 246 302 372 442
#     4  11  22  45  73 106 140 184 247 303 370 439
#     4  10  20  41  74 105 138 185 239 294 357 442
#     4  12  27  48  75 106 145 196 249 315 376 446
#     4  12  26  51  72 108 156 195 253 309 374 445
#     4  12  28  46  75 106 147 194 253 309 377 448
#
# _framework density 23.125678000000001
#
# number of rings (size 3 to 8) (size 9 to 14) (size 15 to 20)
#    0.000    0.571    4.286    3.429    4.000    6.857 
#    0.000    0.000    0.000    0.000    0.000    0.000 
#    0.000    0.000    0.000    0.000    0.000    0.000 
#
# Total GULP energy -156955.194995 kJ/mol
# GULP energy per Si atom -5605.542678 kJ/mol
# Density = 2.307304 g / cm^3
# Si number density = 23.125678 Si / 1000 Ang^3
#
#
#
# Elastic Constant Matrix: (Units=GPa)
#
#
# Indices 1 2 3 4 5 6 
#
# 1 87.2462 -10.5195 -0.4702 0.0000 0.0000 0.0000
# 2 -10.5195 80.8080 -2.0876 0.0000 0.0000 0.0000
# 3 -0.4702 -2.0876 81.4482 0.0000 0.0000 0.0000
# 4 0.0000 0.0000 0.0000 37.3646 0.0000 0.0000
# 5 0.0000 0.0000 0.0000 0.0000 22.1379 0.0000
# 6 0.0000 0.0000 0.0000 0.0000 0.0000 23.3255
#
#
#
# Elastic Compliance Matrix: (Units=1/GPa)
#
#
# Indices 1 2 3 4 5 6 
#
# 1 0.011646 0.001519 0.000106 0.000000 0.000000 0.000000
# 2 0.001519 0.012581 0.000331 0.000000 0.000000 0.000000
# 3 0.000106 0.000331 0.012287 0.000000 0.000000 0.000000
# 4 0.000000 0.000000 0.000000 0.026763 0.000000 0.000000
# 5 0.000000 0.000000 0.000000 0.000000 0.045171 0.000000
# 6 0.000000 0.000000 0.000000 0.000000 0.000000 0.042872
#
#
# Mechanical properties :
#
#
# Convention : Reuss Voigt Hill
#
# Bulk Modulus (GPa) = 24.73663 24.81644 24.77654
# Shear Modulus (GPa) = 31.07849 34.07090 32.57469
#
# Velocity S-wave (km/s) = 3.66989 3.84251 3.75720
# Velocity P-wave (km/s) = 5.35512 5.51733 5.43683
#
# Compressibility (1/GPa) = 0.04042587
#
# Stress axis : x y z
#
# Youngs Moduli (GPa) = 85.87002 79.48323 81.38785
#
# Poissons Ratio (x) = -0.12071 -0.00864
# Poissons Ratio (y) = -0.13041 -0.02696
# Poissons Ratio (z) = -0.00912 -0.02633
#
# Static dielectric constant tensor:
#      x y z
#    x 1.852600 0.000000 0.000000 
#    y 0.000000 1.831320 0.000000 
#    z 0.000000 0.000000 1.898060 
# 
# From -- ./inp_files/1495.got.cif
#   From: 2010.05.17/outbox.cif.g08.bks.cpg/sg29_1_cif.got.tgz:1495.got - 2010.06.04 01:19:37.
