data_PCOD9340553
_publ_section_title
;
Structure prediction by ZEFSAII (Michael W. Deem and Ramdas Pophale) SiO2 
 PCOD9340553
Probable space group: P C A 21
;
_chemical_formula_sum "Si O2"
_cell_formula_units_Z 28
_cell_length_a 21.992461
_cell_length_b 7.720872
_cell_length_c 7.860427
_cell_angle_alpha 90.000000
_cell_angle_beta 90.000000
_cell_angle_gamma 90.000000
_cell_volume 1334.708179
_symmetry_space_group_name_H-M "P C A 21"
_symmetry_group_IT_number 29
_symmetry_cell_setting 'orthorhombic'
loop_
_space_group_symop_operation_xyz
x,y,z
-x,-y,1/2+z
1/2-x,y,1/2+z
1/2+x,-y,z
loop_
_atom_site_type_symbol
_atom_site_label
_atom_site_fract_x
_atom_site_fract_y
_atom_site_fract_z
Si Si1 0.673954 0.253167 0.430010
Si Si2 0.658002 0.879720 0.543812
Si Si3 0.198571 0.792018 0.039021
Si Si4 0.436435 0.537805 0.811386
Si Si5 0.046197 0.339418 0.641472
Si Si6 0.124626 0.464075 0.964328
Si Si7 0.776815 0.822445 0.393418
O O1 0.737377 0.305916 0.511586
O O2 0.687386 0.193743 0.238201
O O3 0.622766 0.394361 0.409461
O O4 0.652408 0.084942 0.529438
O O5 0.591197 0.807826 0.573392
O O6 0.703329 0.807390 0.397984
O O7 0.700206 0.830760 0.701793
O O8 0.148167 0.663057 0.963790
O O9 0.205891 0.985774 0.966398
O O10 0.481905 0.684772 0.737602
O O11 0.413155 0.440374 0.641045
O O12 0.469118 0.436852 0.964374
O O13 0.086957 0.428993 0.791042
O O14 0.182247 0.332165 0.970440
#
# Coordination Sequence:
#
# PCOD9340553 Si02
#       7
#     4   4   4   4   4   4   4
#     4  10  22  38  62  95 124 163 208 255 326 382
#     4  10  22  38  62  95 124 163 208 255 326 382
#     4  10  21  37  62  93 136 156 200 259 322 379
#     4  11  24  42  64  86 126 168 219 265 311 368
#     4  11  24  42  64  86 126 168 219 265 311 368
#     4  10  24  40  62 100 120 168 214 254 322 388
#     4  10  21  37  62  93 136 156 200 259 322 379
#
# _framework density 20.978370000000002
#
# number of rings (size 3 to 8) (size 9 to 14) (size 15 to 20)
#    0.000    1.714    1.429    3.429   10.000    2.286 
#    0.000    7.143    0.000    0.000    0.000    0.000 
#    0.000    0.000    0.000    0.000    0.000    0.000 
#
# Total GULP energy -155999.102712 kJ/mol
# GULP energy per Si atom -5571.396525 kJ/mol
# Density = 2.093062 g / cm^3
# Si number density = 20.978370 Si / 1000 Ang^3
#
#
#
# Elastic Constant Matrix: (Units=GPa)
#
#
# Indices 1 2 3 4 5 6 
#
# 1 23.0246 4.6186 -1.4278 0.0000 0.0000 0.0000
# 2 4.6186 37.4306 12.4574 0.0000 0.0000 0.0000
# 3 -1.4278 12.4574 48.1504 0.0000 0.0000 0.0000
# 4 0.0000 0.0000 0.0000 17.1880 0.0000 0.0000
# 5 0.0000 0.0000 0.0000 0.0000 44.7507 0.0000
# 6 0.0000 0.0000 0.0000 0.0000 0.0000 18.5721
#
#
#
# Elastic Compliance Matrix: (Units=1/GPa)
#
#
# Indices 1 2 3 4 5 6 
#
# 1 0.044934 -0.006552 0.003028 0.000000 0.000000 0.000000
# 2 -0.006552 0.030189 -0.008005 0.000000 0.000000 0.000000
# 3 0.003028 -0.008005 0.022929 0.000000 0.000000 0.000000
# 4 0.000000 0.000000 0.000000 0.058180 0.000000 0.000000
# 5 0.000000 0.000000 0.000000 0.000000 0.022346 0.000000
# 6 0.000000 0.000000 0.000000 0.000000 0.000000 0.053844
#
#
# Mechanical properties :
#
#
# Convention : Reuss Voigt Hill
#
# Bulk Modulus (GPa) = 13.33451 15.54464 14.43957
# Shear Modulus (GPa) = 17.82670 22.29931 20.06300
#
# Velocity S-wave (km/s) = 2.91824 3.26385 3.09587
# Velocity P-wave (km/s) = 4.21010 4.65076 4.43590
#
# Compressibility (1/GPa) = 0.07499340
#
# Stress axis : x y z
#
# Youngs Moduli (GPa) = 22.25489 33.12502 43.61284
#
# Poissons Ratio (x) = 0.21704 -0.13204
# Poissons Ratio (y) = 0.14581 0.34911
# Poissons Ratio (z) = -0.06738 0.26516
#
# Static dielectric constant tensor:
#      x y z
#    x 1.809970 0.000000 0.000000 
#    y 0.000000 1.769220 0.000000 
#    z 0.000000 0.000000 1.804310 
# 
# From -- ./inp_files/2453.got.cif
#   From: 2010.05.17/outbox.cif.g08.bks.cpg/sg29_2_cif.got.tgz:2453.got - 2010.06.04 01:19:37.
