data_PCOD9340128
_publ_section_title
;
Structure prediction by ZEFSAII (Michael W. Deem and Ramdas Pophale) SiO2 
 PCOD9340128
Probable space group: P C A 21
;
_chemical_formula_sum "Si O2"
_cell_formula_units_Z 28
_cell_length_a 16.930097
_cell_length_b 5.408672
_cell_length_c 11.599543
_cell_angle_alpha 90.000000
_cell_angle_beta 90.000000
_cell_angle_gamma 90.000000
_cell_volume 1062.162515
_symmetry_space_group_name_H-M "P C A 21"
_symmetry_group_IT_number 29
_symmetry_cell_setting 'orthorhombic'
loop_
_space_group_symop_operation_xyz
x,y,z
-x,-y,1/2+z
1/2-x,y,1/2+z
1/2+x,-y,z
loop_
_atom_site_type_symbol
_atom_site_label
_atom_site_fract_x
_atom_site_fract_y
_atom_site_fract_z
Si Si1 0.986611 0.183239 0.481540
Si Si2 0.927127 0.837076 0.207247
Si Si3 0.882345 0.335496 0.247363
Si Si4 0.922511 0.325695 0.970951
Si Si5 0.253284 0.139229 0.095705
Si Si6 0.300118 0.797031 0.775100
Si Si7 0.318217 0.639584 0.534609
O O1 0.001493 0.192305 0.621302
O O2 0.045464 0.401284 0.439325
O O3 0.898192 0.290553 0.471061
O O4 0.013846 0.898639 0.462930
O O5 0.914396 0.598910 0.283443
O O6 0.844540 0.847744 0.133354
O O7 0.932844 0.092771 0.274845
O O8 0.791090 0.297215 0.281638
O O9 0.893242 0.341501 0.105218
O O10 0.854894 0.243674 0.882938
O O11 0.224898 0.375928 0.022948
O O12 0.208375 0.071247 0.217139
O O13 0.233825 0.889773 0.025757
O O14 0.335501 0.635151 0.671405
#
# Coordination Sequence:
#
# PCOD9340128 Si02
#       7
#     4   4   4   4   4   4   4
#     4  10  21  33  51  82 108 141 183 234 273 330
#     4   9  15  31  49  76 104 133 180 212 277 320
#     4   9  17  31  51  80 106 138 181 228 270 323
#     4  10  21  33  55  83 112 145 188 229 280 337
#     4   9  17  30  54  78  97 142 184 224 269 332
#     4   9  20  32  59  78 111 145 191 222 282 331
#     4  10  19  32  53  79 104 144 187 225 275 325
#
# _framework density 26.361314
#
# number of rings (size 3 to 8) (size 9 to 14) (size 15 to 20)
#    0.857    1.714    1.429    0.857    2.000    0.000 
#    0.000    0.000    0.000    8.571    0.000    0.000 
#    0.000    0.000    0.000    0.000    0.000    0.000 
#
# Total GULP energy -156340.407795 kJ/mol
# GULP energy per Si atom -5583.585993 kJ/mol
# Density = 2.630131 g / cm^3
# Si number density = 26.361314 Si / 1000 Ang^3
#
#
#
# Elastic Constant Matrix: (Units=GPa)
#
#
# Indices 1 2 3 4 5 6 
#
# 1 58.7277 29.1864 7.5867 0.0000 0.0000 0.0000
# 2 29.1864 228.6504 7.0498 0.0000 0.0000 0.0000
# 3 7.5867 7.0498 40.0440 0.0000 0.0000 0.0000
# 4 0.0000 0.0000 0.0000 8.1002 0.0000 0.0000
# 5 0.0000 0.0000 0.0000 0.0000 36.3241 0.0000
# 6 0.0000 0.0000 0.0000 0.0000 0.0000 30.8194
#
#
#
# Elastic Compliance Matrix: (Units=1/GPa)
#
#
# Indices 1 2 3 4 5 6 
#
# 1 0.018560 -0.002273 -0.003116 0.000000 0.000000 0.000000
# 2 -0.002273 0.004676 -0.000393 0.000000 0.000000 0.000000
# 3 -0.003116 -0.000393 0.025632 0.000000 0.000000 0.000000
# 4 0.000000 0.000000 0.000000 0.123453 0.000000 0.000000
# 5 0.000000 0.000000 0.000000 0.000000 0.027530 0.000000
# 6 0.000000 0.000000 0.000000 0.000000 0.000000 0.032447
#
#
# Mechanical properties :
#
#
# Convention : Reuss Voigt Hill
#
# Bulk Modulus (GPa) = 26.80658 46.11863 36.46261
# Shear Modulus (GPa) = 19.50867 33.95538 26.73202
#
# Velocity S-wave (km/s) = 2.72334 3.59287 3.18789
# Velocity P-wave (km/s) = 4.48104 5.89444 5.23565
#
# Compressibility (1/GPa) = 0.03730427
#
# Stress axis : x y z
#
# Youngs Moduli (GPa) = 53.87947 213.87014 39.01368
#
# Poissons Ratio (x) = 0.48613 0.12157
# Poissons Ratio (y) = 0.12247 0.01531
# Poissons Ratio (z) = 0.16790 0.08395
#
# Static dielectric constant tensor:
#      x y z
#    x 2.044260 0.000000 0.000000 
#    y 0.000000 2.072380 0.000000 
#    z 0.000000 0.000000 2.331240 
# 
# From -- ./inp_files/4845.got.cif
#   From: 2010.05.17/outbox.cif.g08.bks.cpg/sg29_3_cif.got.tgz:4845.got - 2010.06.04 01:19:37.
