data_PCOD9340361
_publ_section_title
;
Structure prediction by ZEFSAII (Michael W. Deem and Ramdas Pophale) SiO2 
 PCOD9340361
Probable space group: P C A 21
;
_chemical_formula_sum "Si O2"
_cell_formula_units_Z 20
_cell_length_a 8.013404
_cell_length_b 10.212537
_cell_length_c 9.269090
_cell_angle_alpha 90.000000
_cell_angle_beta 90.000000
_cell_angle_gamma 90.000000
_cell_volume 758.556232
_symmetry_space_group_name_H-M "P C A 21"
_symmetry_group_IT_number 29
_symmetry_cell_setting 'orthorhombic'
loop_
_space_group_symop_operation_xyz
x,y,z
-x,-y,1/2+z
1/2-x,y,1/2+z
1/2+x,-y,z
loop_
_atom_site_type_symbol
_atom_site_label
_atom_site_fract_x
_atom_site_fract_y
_atom_site_fract_z
Si Si1 0.904864 0.531689 0.652980
Si Si2 0.702055 0.671295 0.410127
Si Si3 0.493467 0.150895 0.421441
Si Si4 0.770517 0.292830 0.096293
Si Si5 0.982135 0.117505 0.251741
O O1 0.773109 0.618406 0.561040
O O2 0.851011 0.544464 0.818602
O O3 0.891148 0.382753 0.598851
O O4 0.080896 0.604323 0.636804
O O5 0.867748 0.745109 0.353560
O O6 0.565228 0.780379 0.364733
O O7 0.665490 0.227090 0.450846
O O8 0.434979 0.117152 0.589247
O O9 0.488420 0.020916 0.328451
O O10 0.800520 0.170084 0.201429
#
# Coordination Sequence:
#
# PCOD9340361 Si02
#       5
#     4   4   4   4   4
#     4  10  20  37  62  82 126 151 204 242 308 374
#     4  10  20  38  60  84 118 164 188 256 320 352
#     4   9  20  37  59  86 115 157 204 249 299 360
#     4   8  20  39  60  92 112 163 196 248 308 354
#     4   9  20  37  59  86 115 157 204 249 299 360
#
# _framework density 26.365876
#
# number of rings (size 3 to 8) (size 9 to 14) (size 15 to 20)
#    1.200    1.600    2.000    0.000    2.800    6.400 
#    0.000    6.000    4.400    0.000    0.000    0.000 
#    0.000    0.000    0.000    0.000    0.000    0.000 
#
# Total GULP energy -111503.770161 kJ/mol
# GULP energy per Si atom -5575.188508 kJ/mol
# Density = 2.630587 g / cm^3
# Si number density = 26.365876 Si / 1000 Ang^3
#
#
#
# Elastic Constant Matrix: (Units=GPa)
#
#
# Indices 1 2 3 4 5 6 
#
# 1 22.9587 14.2560 10.2980 0.0000 0.0000 0.0000
# 2 14.2560 138.0094 9.1180 0.0000 0.0000 0.0000
# 3 10.2980 9.1180 53.5308 0.0000 0.0000 0.0000
# 4 0.0000 0.0000 0.0000 61.0889 0.0000 0.0000
# 5 0.0000 0.0000 0.0000 0.0000 35.6056 0.0000
# 6 0.0000 0.0000 0.0000 0.0000 0.0000 14.4982
#
#
#
# Elastic Compliance Matrix: (Units=1/GPa)
#
#
# Indices 1 2 3 4 5 6 
#
# 1 0.050423 -0.004620 -0.008913 0.000000 0.000000 0.000000
# 2 -0.004620 0.007752 -0.000432 0.000000 0.000000 0.000000
# 3 -0.008913 -0.000432 0.020469 0.000000 0.000000 0.000000
# 4 0.000000 0.000000 0.000000 0.016370 0.000000 0.000000
# 5 0.000000 0.000000 0.000000 0.000000 0.028086 0.000000
# 6 0.000000 0.000000 0.000000 0.000000 0.000000 0.068974
#
#
# Mechanical properties :
#
#
# Convention : Reuss Voigt Hill
#
# Bulk Modulus (GPa) = 19.71821 31.31589 25.51705
# Shear Modulus (GPa) = 21.10532 34.29365 27.69949
#
# Velocity S-wave (km/s) = 2.83234 3.61041 3.24478
# Velocity P-wave (km/s) = 4.26511 5.41141 4.87209
#
# Compressibility (1/GPa) = 0.05071455
#
# Stress axis : x y z
#
# Youngs Moduli (GPa) = 19.83215 129.00552 48.85425
#
# Poissons Ratio (x) = 0.59597 0.43545
# Poissons Ratio (y) = 0.09162 0.02109
# Poissons Ratio (z) = 0.17677 0.05568
#
# Static dielectric constant tensor:
#      x y z
#    x 2.142670 0.000000 0.000000 
#    y 0.000000 2.055390 0.000000 
#    z 0.000000 0.000000 2.061700 
# 
# From -- ./inp_files/1408.got.cif
#   From: 2010.05.17/outbox.cif.g08.bks.cpg/sg29_1_cif.got.tgz:1408.got - 2010.06.04 01:19:37.
