data_PCOD9340234
_publ_section_title
;
Structure prediction by ZEFSAII (Michael W. Deem and Ramdas Pophale) SiO2 
 PCOD9340234
Probable space group: P C A 21
;
_chemical_formula_sum "Si O2"
_cell_formula_units_Z 24
_cell_length_a 12.558637
_cell_length_b 11.908828
_cell_length_c 5.511608
_cell_angle_alpha 90.000000
_cell_angle_beta 90.000000
_cell_angle_gamma 90.000000
_cell_volume 824.308640
_symmetry_space_group_name_H-M "P C A 21"
_symmetry_group_IT_number 29
_symmetry_cell_setting 'orthorhombic'
loop_
_space_group_symop_operation_xyz
x,y,z
-x,-y,1/2+z
1/2-x,y,1/2+z
1/2+x,-y,z
loop_
_atom_site_type_symbol
_atom_site_label
_atom_site_fract_x
_atom_site_fract_y
_atom_site_fract_z
Si Si1 0.097519 0.361496 0.956180
Si Si2 0.675709 0.769375 0.355560
Si Si3 0.860591 0.974528 0.526810
Si Si4 0.819171 0.402035 0.402048
Si Si5 0.197117 0.824179 0.771787
Si Si6 0.006286 0.829152 0.233514
O O1 0.209972 0.297772 0.876061
O O2 0.999262 0.297439 0.833277
O O3 0.105445 0.330516 0.236922
O O4 0.106005 0.490065 0.891382
O O5 0.589899 0.826091 0.537228
O O6 0.698551 0.874696 0.171328
O O7 0.820539 0.042273 0.288620
O O8 0.898619 0.091350 0.647707
O O9 0.964519 0.903961 0.458569
O O10 0.740199 0.409695 0.165303
O O11 0.875290 0.280582 0.361321
O O12 0.284564 0.803632 0.986698
#
# Coordination Sequence:
#
# PCOD9340234 Si02
#       6
#     4   4   4   4   4   4
#     4  11  21  34  65  89 116 153 211 263 307 367
#     4  11  21  35  57  91 113 156 203 258 306 367
#     4  11  25  38  58  86 130 165 206 248 324 379
#     4  10  19  39  63  93 122 154 204 263 314 355
#     4  10  25  41  67  93 124 168 210 259 309 380
#     4  11  23  39  56  86 125 164 198 259 318 374
#
# _framework density 29.115310000000001
#
# number of rings (size 3 to 8) (size 9 to 14) (size 15 to 20)
#    0.000    1.333    5.000    0.000    7.000    0.000 
#    0.000    0.000    3.667    0.000    0.000    0.000 
#    0.000    0.000    0.000    0.000    0.000    0.000 
#
# Total GULP energy -133675.364723 kJ/mol
# GULP energy per Si atom -5569.806863 kJ/mol
# Density = 2.904904 g / cm^3
# Si number density = 29.115310 Si / 1000 Ang^3
#
#
#
# Elastic Constant Matrix: (Units=GPa)
#
#
# Indices 1 2 3 4 5 6 
#
# 1 51.5388 -7.3839 -8.4478 0.0000 0.0000 0.0000
# 2 -7.3839 217.1292 -7.8218 0.0000 0.0000 0.0000
# 3 -8.4478 -7.8218 49.6785 0.0000 0.0000 0.0000
# 4 0.0000 0.0000 0.0000 39.3564 0.0000 0.0000
# 5 0.0000 0.0000 0.0000 0.0000 36.9617 0.0000
# 6 0.0000 0.0000 0.0000 0.0000 0.0000 30.3684
#
#
#
# Elastic Compliance Matrix: (Units=1/GPa)
#
#
# Indices 1 2 3 4 5 6 
#
# 1 0.020100 0.000811 0.003546 0.000000 0.000000 0.000000
# 2 0.000811 0.004665 0.000872 0.000000 0.000000 0.000000
# 3 0.003546 0.000872 0.020870 0.000000 0.000000 0.000000
# 4 0.000000 0.000000 0.000000 0.025409 0.000000 0.000000
# 5 0.000000 0.000000 0.000000 0.000000 0.027055 0.000000
# 6 0.000000 0.000000 0.000000 0.000000 0.000000 0.032929
#
#
# Mechanical properties :
#
#
# Convention : Reuss Voigt Hill
#
# Bulk Modulus (GPa) = 17.82740 30.11552 23.97146
# Shear Modulus (GPa) = 35.90243 44.13730 40.01987
#
# Velocity S-wave (km/s) = 3.51538 3.89774 3.71149
# Velocity P-wave (km/s) = 4.75537 5.53376 5.15926
#
# Compressibility (1/GPa) = 0.05609342
#
# Stress axis : x y z
#
# Youngs Moduli (GPa) = 49.75056 214.38208 47.91630
#
# Poissons Ratio (x) = -0.17392 -0.16990
# Poissons Ratio (y) = -0.04036 -0.04180
# Poissons Ratio (z) = -0.17640 -0.18702
#
# Static dielectric constant tensor:
#      x y z
#    x 2.390430 0.000000 0.000000 
#    y 0.000000 2.175760 0.000000 
#    z 0.000000 0.000000 3.251010 
# 
# From -- ./inp_files/373.got.cif
#   From: 2010.05.17/outbox.cif.g08.bks.cpg/sg29_1_cif.got.tgz:373.got - 2010.06.04 01:19:37.
