data_PCOD9340602
_publ_section_title
;
Structure prediction by ZEFSAII (Michael W. Deem and Ramdas Pophale) SiO2 
 PCOD9340602
Probable space group: P C A 21
;
_chemical_formula_sum "Si O2"
_cell_formula_units_Z 32
_cell_length_a 8.709351
_cell_length_b 12.656666
_cell_length_c 10.821170
_cell_angle_alpha 90.000000
_cell_angle_beta 90.000000
_cell_angle_gamma 90.000000
_cell_volume 1192.832142
_symmetry_space_group_name_H-M "P C A 21"
_symmetry_group_IT_number 29
_symmetry_cell_setting 'orthorhombic'
loop_
_space_group_symop_operation_xyz
x,y,z
-x,-y,1/2+z
1/2-x,y,1/2+z
1/2+x,-y,z
loop_
_atom_site_type_symbol
_atom_site_label
_atom_site_fract_x
_atom_site_fract_y
_atom_site_fract_z
Si Si1 0.908408 0.573586 0.510640
Si Si2 0.628270 0.927771 0.046405
Si Si3 0.429754 0.642032 0.615938
Si Si4 0.375177 0.958447 0.891958
Si Si5 0.735289 0.736968 0.691125
Si Si6 0.990192 0.687278 0.845762
Si Si7 0.850696 0.462390 0.843409
Si Si8 0.910516 0.104571 0.255209
O O1 0.988599 0.474631 0.579095
O O2 0.823402 0.651773 0.603051
O O3 0.782105 0.516639 0.423257
O O4 0.048560 0.615487 0.428882
O O5 0.517022 0.885264 0.935356
O O6 0.728894 0.845971 0.123847
O O7 0.491175 0.954694 0.141608
O O8 0.742401 0.013418 0.990335
O O9 0.559322 0.706932 0.686366
O O10 0.425030 0.695769 0.479159
O O11 0.307638 0.602437 0.719648
O O12 0.266182 0.921483 0.780268
O O13 0.472384 0.064228 0.862186
O O14 0.813821 0.729339 0.825981
O O15 0.961347 0.563992 0.817530
O O16 0.072111 0.768998 0.752693
#
# Coordination Sequence:
#
# PCOD9340602 Si02
#       8
#     4   4   4   4   4   4   4   4
#     4  11  22  39  61  91 125 170 228 277 335 404
#     4  10  22  40  71 100 137 182 224 286 347 421
#     4  11  23  40  64  93 133 173 232 282 340 410
#     4  10  21  40  67 102 137 181 225 280 359 415
#     4  11  21  41  66  97 133 178 231 281 344 409
#     4  10  21  39  63  94 129 175 223 282 332 404
#     4  11  23  39  63  89 126 177 226 279 341 397
#     4  10  21  40  67  98 140 174 231 283 346 418
#
# _framework density 26.826910000000002
#
# number of rings (size 3 to 8) (size 9 to 14) (size 15 to 20)
#    0.000    1.500    3.750    2.250    0.000    0.000 
#    4.500    2.500    5.500    0.000    0.000    0.000 
#    0.000    0.000    0.000    0.000    0.000    0.000 
#
# Total GULP energy -178225.736641 kJ/mol
# GULP energy per Si atom -5569.554270 kJ/mol
# Density = 2.676585 g / cm^3
# Si number density = 26.826910 Si / 1000 Ang^3
#
#
#
# Elastic Constant Matrix: (Units=GPa)
#
#
# Indices 1 2 3 4 5 6 
#
# 1 99.8285 36.9288 19.2215 0.0000 0.0000 0.0000
# 2 36.9288 57.3664 -1.5591 0.0000 0.0000 0.0000
# 3 19.2215 -1.5591 81.4373 0.0000 0.0000 0.0000
# 4 0.0000 0.0000 0.0000 29.6221 0.0000 0.0000
# 5 0.0000 0.0000 0.0000 0.0000 39.8374 0.0000
# 6 0.0000 0.0000 0.0000 0.0000 0.0000 40.1583
#
#
#
# Elastic Compliance Matrix: (Units=1/GPa)
#
#
# Indices 1 2 3 4 5 6 
#
# 1 0.014078 -0.009158 -0.003498 0.000000 0.000000 0.000000
# 2 -0.009158 0.023398 0.002609 0.000000 0.000000 0.000000
# 3 -0.003498 0.002609 0.013155 0.000000 0.000000 0.000000
# 4 0.000000 0.000000 0.000000 0.033759 0.000000 0.000000
# 5 0.000000 0.000000 0.000000 0.000000 0.025102 0.000000
# 6 0.000000 0.000000 0.000000 0.000000 0.000000 0.024901
#
#
# Mechanical properties :
#
#
# Convention : Reuss Voigt Hill
#
# Bulk Modulus (GPa) = 32.74591 38.64607 35.69599
# Shear Modulus (GPa) = 30.36446 34.19297 32.27872
#
# Velocity S-wave (km/s) = 3.36797 3.57400 3.47251
# Velocity P-wave (km/s) = 5.23041 5.60966 5.42335
#
# Compressibility (1/GPa) = 0.03053816
#
# Stress axis : x y z
#
# Youngs Moduli (GPa) = 71.03054 42.73871 76.01655
#
# Poissons Ratio (x) = 0.39140 0.26592
# Poissons Ratio (y) = 0.65049 -0.19836
# Poissons Ratio (z) = 0.24848 -0.11152
#
# Static dielectric constant tensor:
#      x y z
#    x 2.131700 0.000000 0.000000 
#    y 0.000000 2.115240 0.000000 
#    z 0.000000 0.000000 2.371930 
# 
# From -- ./inp_files/2946.got.cif
#   From: 2010.05.17/outbox.cif.g08.bks.cpg/sg29_2_cif.got.tgz:2946.got - 2010.06.04 01:19:37.
