data_PCOD9340712
_publ_section_title
;
Structure prediction by ZEFSAII (Michael W. Deem and Ramdas Pophale) SiO2 
 PCOD9340712
Probable space group: P C A 21
;
_chemical_formula_sum "Si O2"
_cell_formula_units_Z 32
_cell_length_a 8.898375
_cell_length_b 12.940629
_cell_length_c 13.720844
_cell_angle_alpha 90.000000
_cell_angle_beta 90.000000
_cell_angle_gamma 90.000000
_cell_volume 1579.963002
_symmetry_space_group_name_H-M "P C A 21"
_symmetry_group_IT_number 29
_symmetry_cell_setting 'orthorhombic'
loop_
_space_group_symop_operation_xyz
x,y,z
-x,-y,1/2+z
1/2-x,y,1/2+z
1/2+x,-y,z
loop_
_atom_site_type_symbol
_atom_site_label
_atom_site_fract_x
_atom_site_fract_y
_atom_site_fract_z
Si Si1 0.892858 0.452430 0.604770
Si Si2 0.701308 0.838394 0.311976
Si Si3 0.280830 0.200089 0.027363
Si Si4 0.278675 0.741377 0.196866
Si Si5 0.317198 0.425497 0.983117
Si Si6 0.066588 0.376672 0.274487
Si Si7 0.484919 0.135633 0.192779
Si Si8 0.486452 0.094021 0.640256
O O1 0.806424 0.352411 0.644022
O O2 0.802831 0.488587 0.508875
O O3 0.903254 0.542571 0.687335
O O4 0.059766 0.432931 0.567886
O O5 0.666981 0.846888 0.425196
O O6 0.680960 0.720267 0.274464
O O7 0.580108 0.899250 0.249485
O O8 0.866669 0.873478 0.280879
O O9 0.407939 0.206518 0.109745
O O10 0.144395 0.134931 0.070639
O O11 0.235087 0.315577 0.996623
O O12 0.403349 0.680449 0.263385
O O13 0.140899 0.815792 0.230633
O O14 0.378318 0.823610 0.134887
O O15 0.398418 0.429233 0.878553
O O16 0.486063 0.027171 0.133848
#
# Coordination Sequence:
#
# PCOD9340712 Si02
#       8
#     4   4   4   4   4   4   4   4
#     4  12  23  40  63  90 131 167 210 259 315 381
#     4   9  21  41  63  84 126 167 204 256 319 377
#     4  10  21  42  62  88 124 167 205 260 321 373
#     4  11  22  40  63  93 127 164 208 268 308 378
#     4  11  24  41  63  93 127 170 213 258 317 386
#     4  10  24  43  62  92 131 169 207 260 321 387
#     4  11  21  40  67  92 119 164 218 260 320 377
#     4  10  22  41  63  90 125 162 209 265 323 375
#
# _framework density 20.253637000000001
#
# number of rings (size 3 to 8) (size 9 to 14) (size 15 to 20)
#    0.000    1.500    2.500    3.750    1.750    1.000 
#    4.500    1.250    0.000    0.000    0.000    0.000 
#    0.000    0.000    0.000    0.000    0.000    0.000 
#
# Total GULP energy -178255.205703 kJ/mol
# GULP energy per Si atom -5570.475178 kJ/mol
# Density = 2.020754 g / cm^3
# Si number density = 20.253637 Si / 1000 Ang^3
#
#
#
# Elastic Constant Matrix: (Units=GPa)
#
#
# Indices 1 2 3 4 5 6 
#
# 1 79.4230 22.5682 4.5970 0.0000 0.0000 0.0000
# 2 22.5682 58.2031 -0.8094 0.0000 0.0000 0.0000
# 3 4.5970 -0.8094 70.6163 0.0000 0.0000 0.0000
# 4 0.0000 0.0000 0.0000 19.0827 0.0000 0.0000
# 5 0.0000 0.0000 0.0000 0.0000 11.0033 0.0000
# 6 0.0000 0.0000 0.0000 0.0000 0.0000 26.3988
#
#
#
# Elastic Compliance Matrix: (Units=1/GPa)
#
#
# Indices 1 2 3 4 5 6 
#
# 1 0.014219 -0.005527 -0.000989 0.000000 0.000000 0.000000
# 2 -0.005527 0.019332 0.000581 0.000000 0.000000 0.000000
# 3 -0.000989 0.000581 0.014232 0.000000 0.000000 0.000000
# 4 0.000000 0.000000 0.000000 0.052403 0.000000 0.000000
# 5 0.000000 0.000000 0.000000 0.000000 0.090882 0.000000
# 6 0.000000 0.000000 0.000000 0.000000 0.000000 0.037880
#
#
# Mechanical properties :
#
#
# Convention : Reuss Voigt Hill
#
# Bulk Modulus (GPa) = 27.84438 28.99490 28.41964
# Shear Modulus (GPa) = 19.77933 23.42273 21.60103
#
# Velocity S-wave (km/s) = 3.12842 3.40438 3.26931
# Velocity P-wave (km/s) = 5.17948 5.45894 5.32105
#
# Compressibility (1/GPa) = 0.03591389
#
# Stress axis : x y z
#
# Youngs Moduli (GPa) = 70.33056 51.72664 70.26377
#
# Poissons Ratio (x) = 0.28589 0.06949
# Poissons Ratio (y) = 0.38872 -0.04085
# Poissons Ratio (z) = 0.06955 -0.03007
#
# Static dielectric constant tensor:
#      x y z
#    x 1.723910 0.000000 0.000000 
#    y 0.000000 1.765040 0.000000 
#    z 0.000000 0.000000 1.713100 
# 
# From -- ./inp_files/4294.got.cif
#   From: 2010.05.17/outbox.cif.g08.bks.cpg/sg29_3_cif.got.tgz:4294.got - 2010.06.04 01:19:37.
