data_PCOD9340357
_publ_section_title
;
Structure prediction by ZEFSAII (Michael W. Deem and Ramdas Pophale) SiO2 
 PCOD9340357
Probable space group: P C A 21
;
_chemical_formula_sum "Si O2"
_cell_formula_units_Z 32
_cell_length_a 16.176848
_cell_length_b 15.503716
_cell_length_c 5.437717
_cell_angle_alpha 90.000000
_cell_angle_beta 90.000000
_cell_angle_gamma 90.000000
_cell_volume 1363.786260
_symmetry_space_group_name_H-M "P C A 21"
_symmetry_group_IT_number 29
_symmetry_cell_setting 'orthorhombic'
loop_
_space_group_symop_operation_xyz
x,y,z
-x,-y,1/2+z
1/2-x,y,1/2+z
1/2+x,-y,z
loop_
_atom_site_type_symbol
_atom_site_label
_atom_site_fract_x
_atom_site_fract_y
_atom_site_fract_z
Si Si1 0.767987 0.310708 0.116510
Si Si2 0.944602 0.592527 0.382453
Si Si3 0.436032 0.080977 0.274152
Si Si4 0.551909 0.304118 0.726472
Si Si5 0.721396 0.833009 0.596467
Si Si6 0.536506 0.104199 0.774218
Si Si7 0.287892 0.369334 0.089911
Si Si8 0.391706 0.574492 0.637128
O O1 0.757447 0.261489 0.372489
O O2 0.863249 0.336980 0.096127
O O3 0.701967 0.388900 0.152286
O O4 0.884117 0.625687 0.167051
O O5 0.892602 0.512184 0.481518
O O6 0.970300 0.666672 0.579024
O O7 0.036084 0.553506 0.332640
O O8 0.365391 0.149333 0.224501
O O9 0.473990 0.092697 0.543758
O O10 0.406444 0.981088 0.251241
O O11 0.498706 0.096458 0.047787
O O12 0.564041 0.202215 0.742981
O O13 0.560405 0.348367 0.990772
O O14 0.720200 0.868682 0.316880
O O15 0.736372 0.731454 0.567170
O O16 0.234848 0.405704 0.321378
#
# Coordination Sequence:
#
# PCOD9340357 Si02
#       8
#     4   4   4   4   4   4   4   4
#     4  10  22  42  63  90 132 173 212 273 338 383
#     4  12  24  43  67  93 130 173 231 273 335 403
#     4  10  21  42  62  98 133 168 214 270 328 386
#     4  11  24  41  68  98 129 179 224 275 331 405
#     4  10  20  37  61  89 127 166 208 259 325 388
#     4  10  23  38  67  97 131 168 217 270 325 394
#     4  10  25  41  62  96 129 167 216 274 335 395
#     4  11  25  42  64  95 131 172 228 278 333 396
#
# _framework density 23.464088
#
# number of rings (size 3 to 8) (size 9 to 14) (size 15 to 20)
#    0.000    1.500    2.500    1.500    5.250    3.000 
#    0.000    2.500    0.000    0.000    0.000    0.000 
#    0.000    0.000    0.000    0.000    0.000    0.000 
#
# Total GULP energy -178219.347993 kJ/mol
# GULP energy per Si atom -5569.354625 kJ/mol
# Density = 2.341068 g / cm^3
# Si number density = 23.464088 Si / 1000 Ang^3
#
#
#
# Elastic Constant Matrix: (Units=GPa)
#
#
# Indices 1 2 3 4 5 6 
#
# 1 88.5789 23.5609 11.8859 0.0000 0.0000 0.0000
# 2 23.5609 73.3345 24.9348 0.0000 0.0000 0.0000
# 3 11.8859 24.9348 84.8975 0.0000 0.0000 0.0000
# 4 0.0000 0.0000 0.0000 26.8332 0.0000 0.0000
# 5 0.0000 0.0000 0.0000 0.0000 41.6456 0.0000
# 6 0.0000 0.0000 0.0000 0.0000 0.0000 12.5827
#
#
#
# Elastic Compliance Matrix: (Units=1/GPa)
#
#
# Indices 1 2 3 4 5 6 
#
# 1 0.012374 -0.003762 -0.000627 0.000000 0.000000 0.000000
# 2 -0.003762 0.016293 -0.004259 0.000000 0.000000 0.000000
# 3 -0.000627 -0.004259 0.013118 0.000000 0.000000 0.000000
# 4 0.000000 0.000000 0.000000 0.037267 0.000000 0.000000
# 5 0.000000 0.000000 0.000000 0.000000 0.024012 0.000000
# 6 0.000000 0.000000 0.000000 0.000000 0.000000 0.079474
#
#
# Mechanical properties :
#
#
# Convention : Reuss Voigt Hill
#
# Bulk Modulus (GPa) = 40.83612 40.84155 40.83884
# Shear Modulus (GPa) = 24.03877 28.64093 26.33985
#
# Velocity S-wave (km/s) = 3.20424 3.49754 3.35410
# Velocity P-wave (km/s) = 5.57952 5.80983 5.69584
#
# Compressibility (1/GPa) = 0.02448812
#
# Stress axis : x y z
#
# Youngs Moduli (GPa) = 80.81280 61.37656 76.23400
#
# Poissons Ratio (x) = 0.23091 0.04783
# Poissons Ratio (y) = 0.30404 0.32465
# Poissons Ratio (z) = 0.05071 0.26138
#
# Static dielectric constant tensor:
#      x y z
#    x 1.939970 0.000000 0.000000 
#    y 0.000000 1.857430 0.000000 
#    z 0.000000 0.000000 2.155730 
# 
# From -- ./inp_files/442.got.cif
#   From: 2010.05.17/outbox.cif.g08.bks.cpg/sg29_1_cif.got.tgz:442.got - 2010.06.04 01:19:37.
