data_PCOD9340612
_publ_section_title
;
Structure prediction by ZEFSAII (Michael W. Deem and Ramdas Pophale) SiO2 
 PCOD9340612
Probable space group: P C A 21
;
_chemical_formula_sum "Si O2"
_cell_formula_units_Z 20
_cell_length_a 13.166181
_cell_length_b 12.351219
_cell_length_c 5.300102
_cell_angle_alpha 90.000000
_cell_angle_beta 90.000000
_cell_angle_gamma 90.000000
_cell_volume 861.894027
_symmetry_space_group_name_H-M "P C A 21"
_symmetry_group_IT_number 29
_symmetry_cell_setting 'orthorhombic'
loop_
_space_group_symop_operation_xyz
x,y,z
-x,-y,1/2+z
1/2-x,y,1/2+z
1/2+x,-y,z
loop_
_atom_site_type_symbol
_atom_site_label
_atom_site_fract_x
_atom_site_fract_y
_atom_site_fract_z
Si Si1 0.319848 0.250000 0.779000
Si Si2 0.508102 0.568444 0.275460
Si Si3 0.211289 0.627175 0.927257
Si Si4 0.008102 0.068444 0.275459
Si Si5 0.711289 0.127175 0.927256
O O1 0.249862 0.250000 0.529168
O O2 0.395493 0.353183 0.778336
O O3 0.395493 0.146817 0.778336
O O4 0.513036 0.477408 0.494943
O O5 0.405838 0.629879 0.359226
O O6 0.268840 0.572652 0.694962
O O7 0.252152 0.750000 0.959110
O O8 0.905838 0.129879 0.359224
O O9 0.013036 0.977408 0.494942
O O10 0.768841 0.072652 0.694962
#
# Coordination Sequence:
#
# PCOD9340612 Si02
#       5
#     4   4   4   4   4
#     4  12  28  50  72 104 152 198 238 296 368 438
#     4  12  26  44  71 103 139 185 239 290 350 433
#     4  10  21  39  65  93 125 163 213 278 341 394
#     4  12  26  44  71 103 139 185 239 290 350 433
#     4  10  21  39  65  93 125 163 213 278 341 394
#
# _framework density 23.204706999999999
#
# number of rings (size 3 to 8) (size 9 to 14) (size 15 to 20)
#    0.000    0.800    2.000    4.800    0.000    9.600 
#    0.000    0.000    0.000    0.000    0.000    0.000 
#    0.000    0.000    0.000    0.000    0.000    0.000 
#
# Total GULP energy -111848.647643 kJ/mol
# GULP energy per Si atom -5592.432382 kJ/mol
# Density = 2.315189 g / cm^3
# Si number density = 23.204707 Si / 1000 Ang^3
#
#
#
# Elastic Constant Matrix: (Units=GPa)
#
#
# Indices 1 2 3 4 5 6 
#
# 1 170.2313 58.6573 74.8057 0.0000 0.0000 0.0000
# 2 58.6573 75.8169 40.1142 0.0000 0.0000 0.0000
# 3 74.8057 40.1142 190.9294 0.0000 0.0000 0.0000
# 4 0.0000 0.0000 0.0000 20.4743 0.0000 0.0000
# 5 0.0000 0.0000 0.0000 0.0000 53.8632 0.0000
# 6 0.0000 0.0000 0.0000 0.0000 0.0000 30.3956
#
#
#
# Elastic Compliance Matrix: (Units=1/GPa)
#
#
# Indices 1 2 3 4 5 6 
#
# 1 0.008806 -0.005611 -0.002271 0.000000 0.000000 0.000000
# 2 -0.005611 0.018415 -0.001670 0.000000 0.000000 0.000000
# 3 -0.002271 -0.001670 0.006478 0.000000 0.000000 0.000000
# 4 0.000000 0.000000 0.000000 0.048842 0.000000 0.000000
# 5 0.000000 0.000000 0.000000 0.000000 0.018566 0.000000
# 6 0.000000 0.000000 0.000000 0.000000 0.000000 0.032900
#
#
# Mechanical properties :
#
#
# Convention : Reuss Voigt Hill
#
# Bulk Modulus (GPa) = 68.52496 87.12576 77.82536
# Shear Modulus (GPa) = 31.65039 38.50663 35.07851
#
# Velocity S-wave (km/s) = 3.69720 4.07803 3.89227
# Velocity P-wave (km/s) = 6.91523 7.73317 7.33561
#
# Compressibility (1/GPa) = 0.01459322
#
# Stress axis : x y z
#
# Youngs Moduli (GPa) = 113.56058 54.30442 154.35990
#
# Poissons Ratio (x) = 0.30471 0.35058
# Poissons Ratio (y) = 0.63721 0.25786
# Poissons Ratio (z) = 0.25792 0.09072
#
# Static dielectric constant tensor:
#      x y z
#    x 1.833660 0.000000 0.000000 
#    y 0.000000 1.908800 0.000000 
#    z 0.000000 0.000000 1.922230 
# 
# From -- ./inp_files/72.got.cif
#   From: 2010.05.17/outbox.cif.g08.bks.cpg/sg29_1_cif.got.tgz:72.got - 2010.06.04 01:19:37.
