data_PCOD9340719
_publ_section_title
;
Structure prediction by ZEFSAII (Michael W. Deem and Ramdas Pophale) SiO2 
 PCOD9340719
Probable space group: P C A 21
;
_chemical_formula_sum "Si O2"
_cell_formula_units_Z 32
_cell_length_a 8.888982
_cell_length_b 13.345291
_cell_length_c 10.566700
_cell_angle_alpha 90.000000
_cell_angle_beta 90.000000
_cell_angle_gamma 90.000000
_cell_volume 1253.485898
_symmetry_space_group_name_H-M "P C A 21"
_symmetry_group_IT_number 29
_symmetry_cell_setting 'orthorhombic'
loop_
_space_group_symop_operation_xyz
x,y,z
-x,-y,1/2+z
1/2-x,y,1/2+z
1/2+x,-y,z
loop_
_atom_site_type_symbol
_atom_site_label
_atom_site_fract_x
_atom_site_fract_y
_atom_site_fract_z
Si Si1 0.935180 0.329169 0.949150
Si Si2 0.601344 0.957909 0.947276
Si Si3 0.544969 0.519598 0.621994
Si Si4 0.788249 0.473495 0.776124
Si Si5 0.753438 0.956355 0.695448
Si Si6 0.501521 0.159327 0.849245
Si Si7 0.655129 0.156831 0.604522
Si Si8 0.206641 0.332803 0.454223
O O1 0.861184 0.369859 0.821884
O O2 0.823853 0.247383 0.008758
O O3 0.114698 0.301726 0.952813
O O4 0.928228 0.430296 0.027700
O O5 0.627608 0.926928 0.800341
O O6 0.455872 0.913700 0.017838
O O7 0.592614 0.080187 0.936953
O O8 0.730771 0.923148 0.048495
O O9 0.610664 0.479411 0.754913
O O10 0.366911 0.522529 0.638587
O O11 0.632347 0.619978 0.581604
O O12 0.811701 0.575247 0.855644
O O13 0.896173 0.917264 0.770475
O O14 0.756979 0.075658 0.676290
O O15 0.584646 0.209359 0.729691
O O16 0.400100 0.241385 0.915964
#
# Coordination Sequence:
#
# PCOD9340719 Si02
#       8
#     4   4   4   4   4   4   4   4
#     4  11  23  41  67  98 132 179 227 288 346 431
#     4  10  21  42  66  96 136 182 235 297 360 430
#     4  11  23  44  66  97 138 177 227 293 354 417
#     4  11  23  44  66  98 139 178 228 291 355 418
#     4  10  21  42  65  94 139 179 230 303 363 422
#     4  10  22  41  68  96 134 182 233 292 348 437
#     4  10  22  41  64  99 137 178 230 287 360 433
#     4  11  23  41  72 100 133 181 242 281 352 436
#
# _framework density 25.52881
#
# number of rings (size 3 to 8) (size 9 to 14) (size 15 to 20)
#    0.000    1.500    2.500    2.250    0.000    1.000 
#   11.250    1.250    0.000    0.000    0.000    0.000 
#    0.000    0.000    0.000    0.000    0.000    0.000 
#
# Total GULP energy -178199.769167 kJ/mol
# GULP energy per Si atom -5568.742786 kJ/mol
# Density = 2.547070 g / cm^3
# Si number density = 25.528810 Si / 1000 Ang^3
#
#
#
# Elastic Constant Matrix: (Units=GPa)
#
#
# Indices 1 2 3 4 5 6 
#
# 1 47.6086 11.2045 24.7009 0.0000 0.0000 0.0000
# 2 11.2045 83.8830 43.2447 0.0000 0.0000 0.0000
# 3 24.7009 43.2447 95.5486 0.0000 0.0000 0.0000
# 4 0.0000 0.0000 0.0000 37.1052 0.0000 0.0000
# 5 0.0000 0.0000 0.0000 0.0000 21.7795 0.0000
# 6 0.0000 0.0000 0.0000 0.0000 0.0000 38.0674
#
#
#
# Elastic Compliance Matrix: (Units=1/GPa)
#
#
# Indices 1 2 3 4 5 6 
#
# 1 0.024258 -0.000009 -0.006267 0.000000 0.000000 0.000000
# 2 -0.000009 0.015550 -0.007035 0.000000 0.000000 0.000000
# 3 -0.006267 -0.007035 0.015270 0.000000 0.000000 0.000000
# 4 0.000000 0.000000 0.000000 0.026950 0.000000 0.000000
# 5 0.000000 0.000000 0.000000 0.000000 0.045915 0.000000
# 6 0.000000 0.000000 0.000000 0.000000 0.000000 0.026269
#
#
# Mechanical properties :
#
#
# Convention : Reuss Voigt Hill
#
# Bulk Modulus (GPa) = 35.14344 42.81563 38.97954
# Shear Modulus (GPa) = 26.27153 29.24977 27.76065
#
# Velocity S-wave (km/s) = 3.21143 3.38857 3.30119
# Velocity P-wave (km/s) = 5.24853 5.66726 5.46191
#
# Compressibility (1/GPa) = 0.02845481
#
# Stress axis : x y z
#
# Youngs Moduli (GPa) = 41.22300 64.31074 65.48769
#
# Poissons Ratio (x) = 0.00061 0.41040
# Poissons Ratio (y) = 0.00039 0.46072
# Poissons Ratio (z) = 0.25834 0.45244
#
# Static dielectric constant tensor:
#      x y z
#    x 2.098970 0.000000 0.000000 
#    y 0.000000 1.995080 0.000000 
#    z 0.000000 0.000000 2.194120 
# 
# From -- ./inp_files/2914.got.cif
#   From: 2010.05.17/outbox.cif.g08.bks.cpg/sg29_2_cif.got.tgz:2914.got - 2010.06.04 01:19:37.
