data_PCOD9340975
_publ_section_title
;
Structure prediction by ZEFSAII (Michael W. Deem and Ramdas Pophale) SiO2 
 PCOD9340975
Probable space group: P C A 21
;
_chemical_formula_sum "Si O2"
_cell_formula_units_Z 28
_cell_length_a 17.899257
_cell_length_b 5.547138
_cell_length_c 11.854993
_cell_angle_alpha 90.000000
_cell_angle_beta 90.000000
_cell_angle_gamma 90.000000
_cell_volume 1177.078090
_symmetry_space_group_name_H-M "P C A 21"
_symmetry_group_IT_number 29
_symmetry_cell_setting 'orthorhombic'
loop_
_space_group_symop_operation_xyz
x,y,z
-x,-y,1/2+z
1/2-x,y,1/2+z
1/2+x,-y,z
loop_
_atom_site_type_symbol
_atom_site_label
_atom_site_fract_x
_atom_site_fract_y
_atom_site_fract_z
Si Si1 0.001245 0.040208 0.509000
Si Si2 0.293887 0.632557 0.446617
Si Si3 0.410290 0.849492 0.287404
Si Si4 0.239111 0.240382 0.551328
Si Si5 0.856683 0.153768 0.914036
Si Si6 0.593345 0.636307 0.657607
Si Si7 0.358726 0.941978 0.652458
O O1 0.965920 0.105687 0.389900
O O2 0.936001 0.969166 0.596013
O O3 0.066314 0.847028 0.483153
O O4 0.038776 0.283612 0.557272
O O5 0.332860 0.767834 0.345442
O O6 0.301917 0.349777 0.467013
O O7 0.326367 0.743910 0.563127
O O8 0.204962 0.640603 0.426245
O O9 0.432230 0.606256 0.219781
O O10 0.404436 0.105465 0.224422
O O11 0.190314 0.059554 0.475642
O O12 0.178194 0.401244 0.616382
O O13 0.290047 0.126117 0.648501
O O14 0.872729 0.127374 0.781519
#
# Coordination Sequence:
#
# PCOD9340975 Si02
#       7
#     4   4   4   4   4   4   4
#     4  10  24  48  66 106 142 190 240 298 354 446
#     4  10  24  41  68 103 136 184 241 303 348 434
#     4  11  26  46  75 104 146 192 239 296 364 425
#     4  10  24  41  68 103 136 184 241 303 348 434
#     4  10  22  43  66  97 139 183 241 292 365 421
#     4  11  26  46  75 104 146 192 239 296 364 425
#     4  10  22  43  66  97 139 183 241 292 365 421
#
# _framework density 23.787717000000001
#
# number of rings (size 3 to 8) (size 9 to 14) (size 15 to 20)
#    0.000    1.714    0.000    1.714   16.000    1.143 
#   15.429    0.000    0.000    0.000    0.000    0.000 
#    0.000    0.000    0.000    0.000    0.000    0.000 
#
# Total GULP energy -156170.726197 kJ/mol
# GULP energy per Si atom -5577.525936 kJ/mol
# Density = 2.373358 g / cm^3
# Si number density = 23.787717 Si / 1000 Ang^3
#
#
#
# Elastic Constant Matrix: (Units=GPa)
#
#
# Indices 1 2 3 4 5 6 
#
# 1 121.8587 4.1439 42.7924 0.0000 0.0000 0.0000
# 2 4.1439 45.4296 32.2469 0.0000 0.0000 0.0000
# 3 42.7924 32.2469 140.5030 0.0000 0.0000 0.0000
# 4 0.0000 0.0000 0.0000 20.0624 0.0000 0.0000
# 5 0.0000 0.0000 0.0000 0.0000 33.8545 0.0000
# 6 0.0000 0.0000 0.0000 0.0000 0.0000 7.1599
#
#
#
# Elastic Compliance Matrix: (Units=1/GPa)
#
#
# Indices 1 2 3 4 5 6 
#
# 1 0.009261 0.001383 -0.003138 0.000000 0.000000 0.000000
# 2 0.001383 0.026502 -0.006504 0.000000 0.000000 0.000000
# 3 -0.003138 -0.006504 0.009566 0.000000 0.000000 0.000000
# 4 0.000000 0.000000 0.000000 0.049845 0.000000 0.000000
# 5 0.000000 0.000000 0.000000 0.000000 0.029538 0.000000
# 6 0.000000 0.000000 0.000000 0.000000 0.000000 0.139666
#
#
# Mechanical properties :
#
#
# Convention : Reuss Voigt Hill
#
# Bulk Modulus (GPa) = 34.70871 51.79530 43.25201
# Shear Modulus (GPa) = 17.21171 27.45590 22.33381
#
# Velocity S-wave (km/s) = 2.69282 3.40104 3.06744
# Velocity P-wave (km/s) = 4.92859 6.10279 5.54685
#
# Compressibility (1/GPa) = 0.02881121
#
# Stress axis : x y z
#
# Youngs Moduli (GPa) = 107.97802 37.73238 104.54059
#
# Poissons Ratio (x) = -0.05217 0.32804
# Poissons Ratio (y) = -0.14929 0.67990
# Poissons Ratio (z) = 0.33883 0.24540
#
# Static dielectric constant tensor:
#      x y z
#    x 1.966270 0.000000 0.000000 
#    y 0.000000 2.010860 0.000000 
#    z 0.000000 0.000000 1.911650 
# 
# From -- ./inp_files/3592.got.cif
#   From: 2010.05.17/outbox.cif.g08.bks.cpg/sg29_2_cif.got.tgz:3592.got - 2010.06.04 01:19:37.
