data_PCOD9340661
_publ_section_title
;
Structure prediction by ZEFSAII (Michael W. Deem and Ramdas Pophale) SiO2 
 PCOD9340661
Probable space group: P C A 21
;
_chemical_formula_sum "Si O2"
_cell_formula_units_Z 32
_cell_length_a 12.408277
_cell_length_b 13.386197
_cell_length_c 8.660567
_cell_angle_alpha 90.000000
_cell_angle_beta 90.000000
_cell_angle_gamma 90.000000
_cell_volume 1438.517064
_symmetry_space_group_name_H-M "P C A 21"
_symmetry_group_IT_number 29
_symmetry_cell_setting 'orthorhombic'
loop_
_space_group_symop_operation_xyz
x,y,z
-x,-y,1/2+z
1/2-x,y,1/2+z
1/2+x,-y,z
loop_
_atom_site_type_symbol
_atom_site_label
_atom_site_fract_x
_atom_site_fract_y
_atom_site_fract_z
Si Si1 0.097054 0.486035 0.257140
Si Si2 0.406314 0.361822 0.215141
Si Si3 0.775315 0.565500 0.474046
Si Si4 0.132265 0.884736 0.394785
Si Si5 0.696000 0.888695 0.479724
Si Si6 0.967061 0.723883 0.910067
Si Si7 0.353818 0.846626 0.247432
Si Si8 0.104400 0.078347 0.809604
O O1 0.203736 0.505331 0.362234
O O2 0.061605 0.376212 0.315920
O O3 0.994682 0.557234 0.268197
O O4 0.135889 0.486470 0.080360
O O5 0.335579 0.349805 0.371267
O O6 0.311466 0.393446 0.095933
O O7 0.473012 0.293717 0.095095
O O8 0.228329 0.842603 0.291538
O O9 0.131853 0.836246 0.564292
O O10 0.014971 0.880657 0.321594
O O11 0.157877 0.002283 0.421915
O O12 0.628920 0.804471 0.391682
O O13 0.823330 0.888913 0.453674
O O14 0.666245 0.882688 0.659029
O O15 0.075698 0.769252 0.842420
O O16 0.394803 0.958064 0.295026
#
# Coordination Sequence:
#
# PCOD9340661 Si02
#       8
#     4   4   4   4   4   4   4   4
#     4  10  21  40  66  94 128 171 211 281 344 394
#     4  10  21  40  66  95 128 172 209 282 341 397
#     4   9  19  38  64  93 124 162 218 258 336 412
#     4  10  22  42  66  91 145 185 228 279 350 412
#     4  10  23  37  64 101 132 183 228 289 335 406
#     4  11  23  42  65  99 141 173 243 284 338 414
#     4  10  23  41  65  97 137 188 230 284 343 416
#     4  10  22  40  68  96 139 182 231 275 359 397
#
# _framework density 22.24513
#
# number of rings (size 3 to 8) (size 9 to 14) (size 15 to 20)
#    0.000    2.000    1.250    1.500    3.500    6.000 
#    2.250    5.000    0.000    0.000    0.000    0.000 
#    0.000    0.000    0.000    0.000    0.000    0.000 
#
# Total GULP energy -178631.327047 kJ/mol
# GULP energy per Si atom -5582.228970 kJ/mol
# Density = 2.219450 g / cm^3
# Si number density = 22.245130 Si / 1000 Ang^3
#
#
#
# Elastic Constant Matrix: (Units=GPa)
#
#
# Indices 1 2 3 4 5 6 
#
# 1 140.8764 16.0117 43.6162 0.0000 0.0000 0.0000
# 2 16.0117 34.3916 9.5702 0.0000 0.0000 0.0000
# 3 43.6162 9.5702 82.6291 0.0000 0.0000 0.0000
# 4 0.0000 0.0000 0.0000 28.4990 0.0000 0.0000
# 5 0.0000 0.0000 0.0000 0.0000 39.8517 0.0000
# 6 0.0000 0.0000 0.0000 0.0000 0.0000 18.1944
#
#
#
# Elastic Compliance Matrix: (Units=1/GPa)
#
#
# Indices 1 2 3 4 5 6 
#
# 1 0.008753 -0.002882 -0.004287 0.000000 0.000000 0.000000
# 2 -0.002882 0.030994 -0.002068 0.000000 0.000000 0.000000
# 3 -0.004287 -0.002068 0.014605 0.000000 0.000000 0.000000
# 4 0.000000 0.000000 0.000000 0.035089 0.000000 0.000000
# 5 0.000000 0.000000 0.000000 0.000000 0.025093 0.000000
# 6 0.000000 0.000000 0.000000 0.000000 0.000000 0.054962
#
#
# Mechanical properties :
#
#
# Convention : Reuss Voigt Hill
#
# Bulk Modulus (GPa) = 27.87259 44.03258 35.95258
# Shear Modulus (GPa) = 25.00880 29.88896 27.44888
#
# Velocity S-wave (km/s) = 3.35660 3.66952 3.51654
# Velocity P-wave (km/s) = 5.25160 6.14744 5.71709
#
# Compressibility (1/GPa) = 0.03587755
#
# Stress axis : x y z
#
# Youngs Moduli (GPa) = 114.24418 32.26389 68.47190
#
# Poissons Ratio (x) = 0.09300 0.29351
# Poissons Ratio (y) = 0.32930 0.14162
# Poissons Ratio (z) = 0.48972 0.06673
#
# Static dielectric constant tensor:
#      x y z
#    x 1.808140 0.000000 0.000000 
#    y 0.000000 1.886540 0.000000 
#    z 0.000000 0.000000 1.835900 
# 
# From -- ./inp_files/1579.got.cif
#   From: 2010.05.17/outbox.cif.g08.bks.cpg/sg29_1_cif.got.tgz:1579.got - 2010.06.04 01:19:37.
