data_PCOD9340238
_publ_section_title
;
Structure prediction by ZEFSAII (Michael W. Deem and Ramdas Pophale) SiO2 
 PCOD9340238
Probable space group: P C A 21
;
_chemical_formula_sum "Si O2"
_cell_formula_units_Z 32
_cell_length_a 22.891802
_cell_length_b 5.537581
_cell_length_c 10.969398
_cell_angle_alpha 90.000000
_cell_angle_beta 90.000000
_cell_angle_gamma 90.000000
_cell_volume 1390.538017
_symmetry_space_group_name_H-M "P C A 21"
_symmetry_group_IT_number 29
_symmetry_cell_setting 'orthorhombic'
loop_
_space_group_symop_operation_xyz
x,y,z
-x,-y,1/2+z
1/2-x,y,1/2+z
1/2+x,-y,z
loop_
_atom_site_type_symbol
_atom_site_label
_atom_site_fract_x
_atom_site_fract_y
_atom_site_fract_z
Si Si1 0.827185 0.963136 0.651560
Si Si2 0.355423 0.527386 0.051833
Si Si3 0.555379 0.456940 0.752936
Si Si4 0.191727 0.029317 0.658955
Si Si5 0.940605 0.622077 0.649434
Si Si6 0.628851 0.143583 0.904080
Si Si7 0.484521 0.153112 0.411942
Si Si8 0.604933 0.250761 0.323620
O O1 0.759762 0.899684 0.661817
O O2 0.879882 0.768470 0.644488
O O3 0.834803 0.121269 0.527474
O O4 0.842248 0.093914 0.777464
O O5 0.415522 0.567566 0.123231
O O6 0.335577 0.261545 0.091635
O O7 0.317857 0.766994 0.091979
O O8 0.369713 0.542474 0.909658
O O9 0.493911 0.308716 0.743368
O O10 0.536209 0.724142 0.786539
O O11 0.609179 0.394308 0.843387
O O12 0.162104 0.994510 0.793286
O O13 0.970063 0.652229 0.517966
O O14 0.922079 0.362490 0.700262
O O15 0.563344 0.049100 0.934780
O O16 0.553437 0.115687 0.397101
#
# Coordination Sequence:
#
# PCOD9340238 Si02
#       8
#     4   4   4   4   4   4   4   4
#     4  11  26  43  64 103 134 190 242 295 360 426
#     4  11  25  47  72 102 138 190 238 292 362 420
#     4  10  19  40  64  96 133 180 232 289 359 425
#     4  11  27  48  73  98 141 193 242 294 350 434
#     4  10  22  39  65 101 140 181 236 294 365 427
#     4  10  22  42  67  93 137 184 238 293 354 427
#     4  10  19  39  65  99 138 179 232 291 361 423
#     4  11  24  40  68 102 145 181 240 304 361 434
#
# _framework density 23.012674000000001
#
# number of rings (size 3 to 8) (size 9 to 14) (size 15 to 20)
#    0.000    1.500    2.500    1.500    5.250    0.000 
#    0.000    0.000    0.000    0.000    0.000    0.000 
#    0.000    0.000    0.000    0.000    0.000    0.000 
#
# Total GULP energy -178190.880244 kJ/mol
# GULP energy per Si atom -5568.465008 kJ/mol
# Density = 2.296030 g / cm^3
# Si number density = 23.012674 Si / 1000 Ang^3
#
#
#
# Elastic Constant Matrix: (Units=GPa)
#
#
# Indices 1 2 3 4 5 6 
#
# 1 114.3963 8.2651 13.3266 0.0000 0.0000 0.0000
# 2 8.2651 44.5025 1.2597 0.0000 0.0000 0.0000
# 3 13.3266 1.2597 65.9208 0.0000 0.0000 0.0000
# 4 0.0000 0.0000 0.0000 30.5807 0.0000 0.0000
# 5 0.0000 0.0000 0.0000 0.0000 22.8893 0.0000
# 6 0.0000 0.0000 0.0000 0.0000 0.0000 19.7855
#
#
#
# Elastic Compliance Matrix: (Units=1/GPa)
#
#
# Indices 1 2 3 4 5 6 
#
# 1 0.009070 -0.001633 -0.001802 0.000000 0.000000 0.000000
# 2 -0.001633 0.022777 -0.000105 0.000000 0.000000 0.000000
# 3 -0.001802 -0.000105 0.015536 0.000000 0.000000 0.000000
# 4 0.000000 0.000000 0.000000 0.032700 0.000000 0.000000
# 5 0.000000 0.000000 0.000000 0.000000 0.043688 0.000000
# 6 0.000000 0.000000 0.000000 0.000000 0.000000 0.050542
#
#
# Mechanical properties :
#
#
# Convention : Reuss Voigt Hill
#
# Bulk Modulus (GPa) = 24.81320 30.05804 27.43562
# Shear Modulus (GPa) = 25.66359 28.11566 26.88962
#
# Velocity S-wave (km/s) = 3.34307 3.49914 3.42200
# Velocity P-wave (km/s) = 5.07024 5.42358 5.24988
#
# Compressibility (1/GPa) = 0.04030113
#
# Stress axis : x y z
#
# Youngs Moduli (GPa) = 110.25953 43.90403 64.36632
#
# Poissons Ratio (x) = 0.07171 0.11601
# Poissons Ratio (y) = 0.18010 0.00676
# Poissons Ratio (z) = 0.19872 0.00461
#
# Static dielectric constant tensor:
#      x y z
#    x 1.858960 0.000000 0.000000 
#    y 0.000000 1.949940 0.000000 
#    z 0.000000 0.000000 1.916120 
# 
# From -- ./inp_files/3804.got.cif
#   From: 2010.05.17/outbox.cif.g08.bks.cpg/sg29_2_cif.got.tgz:3804.got - 2010.06.04 01:19:37.
