data_PCOD9340934
_publ_section_title
;
Structure prediction by ZEFSAII (Michael W. Deem and Ramdas Pophale) SiO2 
 PCOD9340934
Probable space group: P C A 21
;
_chemical_formula_sum "Si O2"
_cell_formula_units_Z 16
_cell_length_a 10.705457
_cell_length_b 6.314449
_cell_length_c 9.146314
_cell_angle_alpha 90.000000
_cell_angle_beta 90.000000
_cell_angle_gamma 90.000000
_cell_volume 618.282249
_symmetry_space_group_name_H-M "P C A 21"
_symmetry_group_IT_number 29
_symmetry_cell_setting 'orthorhombic'
loop_
_space_group_symop_operation_xyz
x,y,z
-x,-y,1/2+z
1/2-x,y,1/2+z
1/2+x,-y,z
loop_
_atom_site_type_symbol
_atom_site_label
_atom_site_fract_x
_atom_site_fract_y
_atom_site_fract_z
Si Si1 0.584165 0.568345 0.743460
Si Si2 0.748538 0.512712 0.989677
Si Si3 0.434999 0.194481 0.812056
Si Si4 0.102591 0.872925 0.074544
O O1 0.624466 0.601757 0.911035
O O2 0.709472 0.584060 0.648481
O O3 0.540441 0.326541 0.727404
O O4 0.478835 0.712664 0.674562
O O5 0.858266 0.619346 0.894160
O O6 0.716770 0.262126 0.004687
O O7 0.365441 0.050520 0.693537
O O8 0.509313 0.069563 0.940689
#
# Coordination Sequence:
#
# PCOD9340934 Si02
#       4
#     4   4   4   4
#     4  10  22  42  64  94 134 174 224 284 342 408
#     4  10  22  42  66  94 134 180 226 284 346 404
#     4  10  23  42  67  99 136 180 231 285 345 411
#     4  10  23  42  67  99 136 180 231 285 345 411
#
# _framework density 25.878147999999999
#
# number of rings (size 3 to 8) (size 9 to 14) (size 15 to 20)
#    0.000    2.000    0.000    1.500    0.000   12.000 
#    0.000   17.500    0.000    0.000    0.000    3.500 
#    0.000    0.000    0.000    0.000    0.000    0.000 
#
# Total GULP energy -89252.257429 kJ/mol
# GULP energy per Si atom -5578.266089 kJ/mol
# Density = 2.581925 g / cm^3
# Si number density = 25.878148 Si / 1000 Ang^3
#
#
#
# Elastic Constant Matrix: (Units=GPa)
#
#
# Indices 1 2 3 4 5 6 
#
# 1 67.5014 49.1801 34.3247 0.0000 0.0000 0.0000
# 2 49.1801 104.2425 70.8814 0.0000 0.0000 0.0000
# 3 34.3247 70.8814 140.4907 0.0000 0.0000 0.0000
# 4 0.0000 0.0000 0.0000 51.3476 0.0000 0.0000
# 5 0.0000 0.0000 0.0000 0.0000 36.7598 0.0000
# 6 0.0000 0.0000 0.0000 0.0000 0.0000 31.9640
#
#
#
# Elastic Compliance Matrix: (Units=1/GPa)
#
#
# Indices 1 2 3 4 5 6 
#
# 1 0.022578 -0.010505 -0.000216 0.000000 0.000000 0.000000
# 2 -0.010505 0.019490 -0.007267 0.000000 0.000000 0.000000
# 3 -0.000216 -0.007267 0.010837 0.000000 0.000000 0.000000
# 4 0.000000 0.000000 0.000000 0.019475 0.000000 0.000000
# 5 0.000000 0.000000 0.000000 0.000000 0.027204 0.000000
# 6 0.000000 0.000000 0.000000 0.000000 0.000000 0.031285
#
#
# Mechanical properties :
#
#
# Convention : Reuss Voigt Hill
#
# Bulk Modulus (GPa) = 59.06876 69.00078 64.03477
# Shear Modulus (GPa) = 28.98738 34.53751 31.76244
#
# Velocity S-wave (km/s) = 3.35049 3.65721 3.50721
# Velocity P-wave (km/s) = 6.15167 6.67497 6.41865
#
# Compressibility (1/GPa) = 0.01692942
#
# Stress axis : x y z
#
# Youngs Moduli (GPa) = 44.29041 51.30750 92.27618
#
# Poissons Ratio (x) = 0.53899 0.01995
# Poissons Ratio (y) = 0.46527 0.67055
# Poissons Ratio (z) = 0.00958 0.37284
#
# Static dielectric constant tensor:
#      x y z
#    x 2.068480 0.000000 0.000000 
#    y 0.000000 2.086610 0.000000 
#    z 0.000000 0.000000 2.031970 
# 
# From -- ./inp_files/1299.got.cif
#   From: 2010.05.17/outbox.cif.g08.bks.cpg/sg29_1_cif.got.tgz:1299.got - 2010.06.04 01:19:37.
