data_PCOD9340226
_publ_section_title
;
Structure prediction by ZEFSAII (Michael W. Deem and Ramdas Pophale) SiO2 
 PCOD9340226
Probable space group: P C A 21
;
_chemical_formula_sum "Si O2"
_cell_formula_units_Z 28
_cell_length_a 13.345402
_cell_length_b 13.875524
_cell_length_c 5.577849
_cell_angle_alpha 90.000000
_cell_angle_beta 90.000000
_cell_angle_gamma 90.000000
_cell_volume 1032.875097
_symmetry_space_group_name_H-M "P C A 21"
_symmetry_group_IT_number 29
_symmetry_cell_setting 'orthorhombic'
loop_
_space_group_symop_operation_xyz
x,y,z
-x,-y,1/2+z
1/2-x,y,1/2+z
1/2+x,-y,z
loop_
_atom_site_type_symbol
_atom_site_label
_atom_site_fract_x
_atom_site_fract_y
_atom_site_fract_z
Si Si1 0.508459 0.267985 0.494770
Si Si2 0.846949 0.794876 0.878662
Si Si3 0.972438 0.114906 0.637458
Si Si4 0.697136 0.248594 0.993986
Si Si5 0.902070 0.418902 0.309971
Si Si6 0.201540 0.017021 0.180205
Si Si7 0.604295 0.613279 0.586663
O O1 0.426731 0.251133 0.695271
O O2 0.537660 0.163700 0.397499
O O3 0.590989 0.340668 0.595522
O O4 0.459141 0.322323 0.271493
O O5 0.785084 0.867089 0.708744
O O6 0.814958 0.693381 0.999354
O O7 0.915063 0.867179 0.046167
O O8 0.902659 0.183806 0.475883
O O9 0.914650 0.013858 0.644536
O O10 0.758420 0.226633 0.754440
O O11 0.664469 0.360703 0.998051
O O12 0.858146 0.519425 0.224640
O O13 0.017440 0.428488 0.405411
O O14 0.243974 0.982051 0.437348
#
# Coordination Sequence:
#
# PCOD9340226 Si02
#       7
#     4   4   4   4   4   4   4
#     4  10  19  38  68 102 134 167 240 296 343 393
#     4  10  25  44  73 104 134 192 249 311 341 437
#     4  11  24  43  74 101 138 185 246 293 363 430
#     4  12  25  40  62  98 150 180 216 290 370 426
#     4  11  20  36  63 101 135 180 233 289 343 435
#     4  12  31  50  73 106 149 191 237 302 385 440
#     4  10  20  37  69 100 130 181 245 295 345 403
#
# _framework density 27.108795000000001
#
# number of rings (size 3 to 8) (size 9 to 14) (size 15 to 20)
#    0.000    1.143    5.714    1.714    8.000    0.000 
#    0.000    1.429    0.000    0.000    0.000    0.000 
#    0.000    0.000    0.000    0.000    0.000    0.000 
#
# Total GULP energy -156545.323303 kJ/mol
# GULP energy per Si atom -5590.904404 kJ/mol
# Density = 2.704709 g / cm^3
# Si number density = 27.108795 Si / 1000 Ang^3
#
#
#
# Elastic Constant Matrix: (Units=GPa)
#
#
# Indices 1 2 3 4 5 6 
#
# 1 84.6915 30.1066 10.7785 0.0000 0.0000 0.0000
# 2 30.1066 172.2145 26.6144 0.0000 0.0000 0.0000
# 3 10.7785 26.6144 88.5603 0.0000 0.0000 0.0000
# 4 0.0000 0.0000 0.0000 51.4824 0.0000 0.0000
# 5 0.0000 0.0000 0.0000 0.0000 20.5693 0.0000
# 6 0.0000 0.0000 0.0000 0.0000 0.0000 33.6408
#
#
#
# Elastic Compliance Matrix: (Units=1/GPa)
#
#
# Indices 1 2 3 4 5 6 
#
# 1 0.012661 -0.002071 -0.000918 0.000000 0.000000 0.000000
# 2 -0.002071 0.006428 -0.001680 0.000000 0.000000 0.000000
# 3 -0.000918 -0.001680 0.011908 0.000000 0.000000 0.000000
# 4 0.000000 0.000000 0.000000 0.019424 0.000000 0.000000
# 5 0.000000 0.000000 0.000000 0.000000 0.048616 0.000000
# 6 0.000000 0.000000 0.000000 0.000000 0.000000 0.029726
#
#
# Mechanical properties :
#
#
# Convention : Reuss Voigt Hill
#
# Bulk Modulus (GPa) = 46.17162 53.38504 49.77833
# Shear Modulus (GPa) = 34.40626 39.66962 37.03794
#
# Velocity S-wave (km/s) = 3.56644 3.82952 3.70032
# Velocity P-wave (km/s) = 5.83337 6.26812 6.05465
#
# Compressibility (1/GPa) = 0.02165833
#
# Stress axis : x y z
#
# Youngs Moduli (GPa) = 78.98392 155.55882 83.97486
#
# Poissons Ratio (x) = 0.32223 0.07712
# Poissons Ratio (y) = 0.16361 0.14106
# Poissons Ratio (z) = 0.07254 0.26130
#
# Static dielectric constant tensor:
#      x y z
#    x 2.141760 0.000000 0.000000 
#    y 0.000000 2.202620 0.000000 
#    z 0.000000 0.000000 2.226580 
# 
# From -- ./inp_files/230.got.cif
#   From: 2010.05.17/outbox.cif.g08.bks.cpg/sg29_1_cif.got.tgz:230.got - 2010.06.04 01:19:37.
