data_PCOD9340390
_publ_section_title
;
Structure prediction by ZEFSAII (Michael W. Deem and Ramdas Pophale) SiO2 
 PCOD9340390
Probable space group: P C A 21
;
_chemical_formula_sum "Si O2"
_cell_formula_units_Z 24
_cell_length_a 5.424651
_cell_length_b 12.654825
_cell_length_c 13.163258
_cell_angle_alpha 90.000000
_cell_angle_beta 90.000000
_cell_angle_gamma 90.000000
_cell_volume 903.631455
_symmetry_space_group_name_H-M "P C A 21"
_symmetry_group_IT_number 29
_symmetry_cell_setting 'orthorhombic'
loop_
_space_group_symop_operation_xyz
x,y,z
-x,-y,1/2+z
1/2-x,y,1/2+z
1/2+x,-y,z
loop_
_atom_site_type_symbol
_atom_site_label
_atom_site_fract_x
_atom_site_fract_y
_atom_site_fract_z
Si Si1 0.534162 0.034233 0.677070
Si Si2 0.404241 0.447086 0.895266
Si Si3 0.993561 0.864617 0.356882
Si Si4 0.823054 0.476151 0.663842
Si Si5 0.815561 0.241991 0.677568
Si Si6 0.001236 0.794815 0.957091
O O1 0.597845 0.156250 0.692518
O O2 0.275934 0.013285 0.624152
O O3 0.510171 0.965783 0.781503
O O4 0.631852 0.519983 0.933117
O O5 0.376815 0.476798 0.775381
O O6 0.478553 0.325258 0.913531
O O7 0.746148 0.853127 0.420726
O O8 0.012022 0.768148 0.275861
O O9 0.245510 0.850797 0.419661
O O10 0.595579 0.539874 0.617763
O O11 0.716157 0.358053 0.665948
O O12 0.966951 0.212899 0.577653
#
# Coordination Sequence:
#
# PCOD9340390 Si02
#       6
#     4   4   4   4   4   4
#     4  10  23  45  71 100 140 185 232 296 365 431
#     4  10  20  38  63  99 145 188 241 302 361 436
#     4  11  24  48  71 103 151 191 243 317 380 445
#     4  10  21  38  65  99 141 191 238 299 368 428
#     4  11  26  47  76 108 148 197 254 311 374 454
#     4  12  26  44  76 111 145 200 256 307 380 454
#
# _framework density 26.559498000000001
#
# number of rings (size 3 to 8) (size 9 to 14) (size 15 to 20)
#    0.000    1.333    0.000    7.000    0.000    9.333 
#    0.000   20.000    0.000    0.000    0.000    0.000 
#    0.000    0.000    0.000    0.000    0.000    0.000 
#
# Total GULP energy -134357.352043 kJ/mol
# GULP energy per Si atom -5598.223002 kJ/mol
# Density = 2.649905 g / cm^3
# Si number density = 26.559498 Si / 1000 Ang^3
#
#
#
# Elastic Constant Matrix: (Units=GPa)
#
#
# Indices 1 2 3 4 5 6 
#
# 1 232.1015 25.3169 36.3599 0.0000 0.0000 0.0000
# 2 25.3169 120.9180 -23.9919 0.0000 0.0000 0.0000
# 3 36.3599 -23.9919 102.0261 0.0000 0.0000 0.0000
# 4 0.0000 0.0000 0.0000 40.9386 0.0000 0.0000
# 5 0.0000 0.0000 0.0000 0.0000 37.9890 0.0000
# 6 0.0000 0.0000 0.0000 0.0000 0.0000 45.4164
#
#
#
# Elastic Compliance Matrix: (Units=1/GPa)
#
#
# Indices 1 2 3 4 5 6 
#
# 1 0.004780 -0.001404 -0.002034 0.000000 0.000000 0.000000
# 2 -0.001404 0.009087 0.002637 0.000000 0.000000 0.000000
# 3 -0.002034 0.002637 0.011146 0.000000 0.000000 0.000000
# 4 0.000000 0.000000 0.000000 0.024427 0.000000 0.000000
# 5 0.000000 0.000000 0.000000 0.000000 0.026323 0.000000
# 6 0.000000 0.000000 0.000000 0.000000 0.000000 0.022019
#
#
# Mechanical properties :
#
#
# Convention : Reuss Voigt Hill
#
# Bulk Modulus (GPa) = 42.71213 58.93503 50.82358
# Shear Modulus (GPa) = 46.64677 52.69285 49.66981
#
# Velocity S-wave (km/s) = 4.19538 4.45899 4.32920
# Velocity P-wave (km/s) = 6.29166 6.98199 6.64579
#
# Compressibility (1/GPa) = 0.02341255
#
# Stress axis : x y z
#
# Youngs Moduli (GPa) = 209.19381 110.04223 89.71481
#
# Poissons Ratio (x) = 0.15454 0.18246
# Poissons Ratio (y) = 0.29379 -0.23662
# Poissons Ratio (z) = 0.42546 -0.29023
#
# Static dielectric constant tensor:
#      x y z
#    x 2.124210 0.000000 0.000000 
#    y 0.000000 2.049410 0.000000 
#    z 0.000000 0.000000 2.161320 
# 
# From -- ./inp_files/4029.got.cif
#   From: 2010.05.17/outbox.cif.g08.bks.cpg/sg29_3_cif.got.tgz:4029.got - 2010.06.04 01:19:37.
