data_PCOD9340413
_publ_section_title
;
Structure prediction by ZEFSAII (Michael W. Deem and Ramdas Pophale) SiO2 
 PCOD9340413
Probable space group: P C A 21
;
_chemical_formula_sum "Si O2"
_cell_formula_units_Z 32
_cell_length_a 14.451381
_cell_length_b 11.824250
_cell_length_c 8.151555
_cell_angle_alpha 90.000000
_cell_angle_beta 90.000000
_cell_angle_gamma 90.000000
_cell_volume 1392.911159
_symmetry_space_group_name_H-M "P C A 21"
_symmetry_group_IT_number 29
_symmetry_cell_setting 'orthorhombic'
loop_
_space_group_symop_operation_xyz
x,y,z
-x,-y,1/2+z
1/2-x,y,1/2+z
1/2+x,-y,z
loop_
_atom_site_type_symbol
_atom_site_label
_atom_site_fract_x
_atom_site_fract_y
_atom_site_fract_z
Si Si1 0.317495 0.661460 0.714630
Si Si2 0.871574 0.728137 0.580075
Si Si3 0.779125 0.830096 0.264344
Si Si4 0.559305 0.168837 0.639540
Si Si5 0.452117 0.521610 0.542201
Si Si6 0.120859 0.579338 0.678786
Si Si7 0.165498 0.014462 0.484390
Si Si8 0.693058 0.172848 0.933218
O O1 0.407973 0.583896 0.702279
O O2 0.231825 0.576207 0.673353
O O3 0.345968 0.752981 0.578241
O O4 0.267464 0.742489 0.846785
O O5 0.840682 0.789438 0.413598
O O6 0.780078 0.727617 0.690548
O O7 0.911471 0.604977 0.546371
O O8 0.952353 0.804199 0.659639
O O9 0.838391 0.891618 0.125256
O O10 0.700924 0.919317 0.325407
O O11 0.599715 0.294967 0.607697
O O12 0.580798 0.073151 0.503643
O O13 0.616311 0.134911 0.802670
O O14 0.418685 0.572505 0.366559
O O15 0.561868 0.510024 0.574134
O O16 0.252190 0.930255 0.511054
#
# Coordination Sequence:
#
# PCOD9340413 Si02
#       8
#     4   4   4   4   4   4   4   4
#     4  11  21  36  62  92 129 161 206 252 326 388
#     4  10  25  43  61  84 132 170 216 260 297 383
#     4  10  23  42  61  91 120 172 215 250 315 380
#     4  10  20  39  64  91 125 153 203 264 316 369
#     4  11  24  41  62  89 131 169 208 261 306 375
#     4  10  23  39  59  96 123 164 211 253 313 389
#     4  11  19  38  68  89 127 155 201 269 320 366
#     4  11  19  36  65  98 123 158 196 265 333 372
#
# _framework density 22.973469000000001
#
# number of rings (size 3 to 8) (size 9 to 14) (size 15 to 20)
#    0.000    1.500    6.250    0.000    3.500    1.000 
#    2.250    0.000    5.500    0.000    0.000    0.000 
#    0.000    0.000    0.000    0.000    0.000    0.000 
#
# Total GULP energy -178363.437552 kJ/mol
# GULP energy per Si atom -5573.857424 kJ/mol
# Density = 2.292118 g / cm^3
# Si number density = 22.973469 Si / 1000 Ang^3
#
#
#
# Elastic Constant Matrix: (Units=GPa)
#
#
# Indices 1 2 3 4 5 6 
#
# 1 40.5532 -1.6655 13.2322 0.0000 0.0000 0.0000
# 2 -1.6655 53.5271 -2.7943 0.0000 0.0000 0.0000
# 3 13.2322 -2.7943 21.2619 0.0000 0.0000 0.0000
# 4 0.0000 0.0000 0.0000 19.1263 0.0000 0.0000
# 5 0.0000 0.0000 0.0000 0.0000 25.5304 0.0000
# 6 0.0000 0.0000 0.0000 0.0000 0.0000 16.2078
#
#
#
# Elastic Compliance Matrix: (Units=1/GPa)
#
#
# Indices 1 2 3 4 5 6 
#
# 1 0.030942 -0.000043 -0.019262 0.000000 0.000000 0.000000
# 2 -0.000043 0.018811 0.002499 0.000000 0.000000 0.000000
# 3 -0.019262 0.002499 0.059349 0.000000 0.000000 0.000000
# 4 0.000000 0.000000 0.000000 0.052284 0.000000 0.000000
# 5 0.000000 0.000000 0.000000 0.000000 0.039169 0.000000
# 6 0.000000 0.000000 0.000000 0.000000 0.000000 0.061699
#
#
# Mechanical properties :
#
#
# Convention : Reuss Voigt Hill
#
# Bulk Modulus (GPa) = 13.24682 14.76520 14.00601
# Shear Modulus (GPa) = 15.57486 19.27755 17.42621
#
# Velocity S-wave (km/s) = 2.60657 2.89990 2.75714
# Velocity P-wave (km/s) = 3.85196 4.20162 4.03058
#
# Compressibility (1/GPa) = 0.07548984
#
# Stress axis : x y z
#
# Youngs Moduli (GPa) = 32.31810 53.15965 16.84954
#
# Poissons Ratio (x) = 0.00228 0.32456
# Poissons Ratio (y) = 0.00138 -0.04211
# Poissons Ratio (z) = 0.62252 -0.13284
#
# Static dielectric constant tensor:
#      x y z
#    x 1.851180 0.000000 0.000000 
#    y 0.000000 1.876240 0.000000 
#    z 0.000000 0.000000 1.920890 
# 
# From -- ./inp_files/1818.got.cif
#   From: 2010.05.17/outbox.cif.g08.bks.cpg/sg29_1_cif.got.tgz:1818.got - 2010.06.04 01:19:37.
