data_PCOD9340121
_publ_section_title
;
Structure prediction by ZEFSAII (Michael W. Deem and Ramdas Pophale) SiO2 
 PCOD9340121
Probable space group: P C A 21
;
_chemical_formula_sum "Si O2"
_cell_formula_units_Z 32
_cell_length_a 9.136982
_cell_length_b 19.730227
_cell_length_c 8.120732
_cell_angle_alpha 90.000000
_cell_angle_beta 90.000000
_cell_angle_gamma 90.000000
_cell_volume 1463.962760
_symmetry_space_group_name_H-M "P C A 21"
_symmetry_group_IT_number 29
_symmetry_cell_setting 'orthorhombic'
loop_
_space_group_symop_operation_xyz
x,y,z
-x,-y,1/2+z
1/2-x,y,1/2+z
1/2+x,-y,z
loop_
_atom_site_type_symbol
_atom_site_label
_atom_site_fract_x
_atom_site_fract_y
_atom_site_fract_z
Si Si1 0.632889 0.535990 0.742240
Si Si2 0.949290 0.577395 0.869529
Si Si3 0.811374 0.979615 0.295196
Si Si4 0.514951 0.795143 0.007953
Si Si5 0.577690 0.061386 0.500230
Si Si6 0.883048 0.707571 0.012086
Si Si7 0.438355 0.334793 0.388373
Si Si8 0.205280 0.170407 0.682936
O O1 0.803171 0.556130 0.767431
O O2 0.583334 0.551662 0.556044
O O3 0.587888 0.460616 0.793335
O O4 0.545513 0.584976 0.872346
O O5 0.968061 0.659135 0.884776
O O6 0.915473 0.956530 0.442857
O O7 0.678042 0.020837 0.371848
O O8 0.788036 0.910459 0.191786
O O9 0.892990 0.031545 0.177536
O O10 0.403586 0.857534 0.005037
O O11 0.457443 0.719041 0.979522
O O12 0.628352 0.803066 0.159795
O O13 0.618464 0.809523 0.847764
O O14 0.717326 0.682267 0.974605
O O15 0.880245 0.789156 0.036385
O O16 0.925877 0.684655 0.195913
#
# Coordination Sequence:
#
# PCOD9340121 Si02
#       8
#     4   4   4   4   4   4   4   4
#     4  10  19  32  52  76 105 136 171 213 260 314
#     4  10  19  32  51  77 104 136 170 213 263 314
#     4  11  21  35  53  78 104 136 172 213 262 312
#     4   9  17  30  50  74 101 132 168 212 257 304
#     4  11  22  35  54  77 106 138 174 215 258 309
#     4   8  15  27  46  72  97 124 165 212 252 296
#     4   8  15  28  47  71  98 130 167 209 256 302
#     4   9  16  29  49  73  99 128 165 211 254 297
#
# _framework density 21.85848
#
# number of rings (size 3 to 8) (size 9 to 14) (size 15 to 20)
#    0.000    2.500    0.000    3.750    0.000    1.000 
#    0.000    0.000    0.000    9.000    0.000    0.000 
#    0.000    0.000    0.000    0.000    0.000    0.000 
#
# Total GULP energy -178141.838783 kJ/mol
# GULP energy per Si atom -5566.932462 kJ/mol
# Density = 2.180873 g / cm^3
# Si number density = 21.858480 Si / 1000 Ang^3
#
#
#
# Elastic Constant Matrix: (Units=GPa)
#
#
# Indices 1 2 3 4 5 6 
#
# 1 21.3418 -1.7963 5.9656 0.0000 0.0000 0.0000
# 2 -1.7963 62.5982 -8.8099 0.0000 0.0000 0.0000
# 3 5.9656 -8.8099 65.1801 0.0000 0.0000 0.0000
# 4 0.0000 0.0000 0.0000 18.5400 0.0000 0.0000
# 5 0.0000 0.0000 0.0000 0.0000 33.6615 0.0000
# 6 0.0000 0.0000 0.0000 0.0000 0.0000 27.4857
#
#
#
# Elastic Compliance Matrix: (Units=1/GPa)
#
#
# Indices 1 2 3 4 5 6 
#
# 1 0.048124 0.000776 -0.004300 0.000000 0.000000 0.000000
# 2 0.000776 0.016297 0.002132 0.000000 0.000000 0.000000
# 3 -0.004300 0.002132 0.016024 0.000000 0.000000 0.000000
# 4 0.000000 0.000000 0.000000 0.053938 0.000000 0.000000
# 5 0.000000 0.000000 0.000000 0.000000 0.029708 0.000000
# 6 0.000000 0.000000 0.000000 0.000000 0.000000 0.036383
#
#
# Mechanical properties :
#
#
# Convention : Reuss Voigt Hill
#
# Bulk Modulus (GPa) = 12.87657 15.53764 14.20711
# Shear Modulus (GPa) = 21.82041 26.18813 24.00427
#
# Velocity S-wave (km/s) = 3.16295 3.46508 3.31746
# Velocity P-wave (km/s) = 4.38665 4.80965 4.60301
#
# Compressibility (1/GPa) = 0.07766042
#
# Stress axis : x y z
#
# Youngs Moduli (GPa) = 20.77982 61.36026 62.40728
#
# Poissons Ratio (x) = -0.04760 0.26833
# Poissons Ratio (y) = -0.01612 -0.13304
# Poissons Ratio (z) = 0.08935 -0.13081
#
# Static dielectric constant tensor:
#      x y z
#    x 1.750890 0.000000 0.000000 
#    y 0.000000 1.948490 0.000000 
#    z 0.000000 0.000000 1.823370 
# 
# From -- ./inp_files/1270.got.cif
#   From: 2010.05.17/outbox.cif.g08.bks.cpg/sg29_1_cif.got.tgz:1270.got - 2010.06.04 01:19:37.
