data_PCOD9340006
_publ_section_title
;
Structure prediction by ZEFSAII (Michael W. Deem and Ramdas Pophale) SiO2 
 PCOD9340006
Probable space group: P C A 21
;
_chemical_formula_sum "Si O2"
_cell_formula_units_Z 20
_cell_length_a 15.254954
_cell_length_b 11.867019
_cell_length_c 5.144996
_cell_angle_alpha 90.000000
_cell_angle_beta 90.000000
_cell_angle_gamma 90.000000
_cell_volume 931.402891
_symmetry_space_group_name_H-M "P C A 21"
_symmetry_group_IT_number 29
_symmetry_cell_setting 'orthorhombic'
loop_
_space_group_symop_operation_xyz
x,y,z
-x,-y,1/2+z
1/2-x,y,1/2+z
1/2+x,-y,z
loop_
_atom_site_type_symbol
_atom_site_label
_atom_site_fract_x
_atom_site_fract_y
_atom_site_fract_z
Si Si1 0.374360 0.802875 0.564620
Si Si2 0.372477 0.667197 0.075187
Si Si3 0.558672 0.973651 0.082724
Si Si4 0.546598 0.735417 0.293452
Si Si5 0.303965 0.415829 0.039233
O O1 0.356375 0.753776 0.844052
O O2 0.335501 0.724224 0.338225
O O3 0.362988 0.936757 0.538899
O O4 0.478133 0.784864 0.504170
O O5 0.334637 0.545352 0.019040
O O6 0.478461 0.662427 0.119318
O O7 0.506903 0.016399 0.339394
O O8 0.582044 0.843698 0.136681
O O9 0.619278 0.663462 0.435335
O O10 0.224339 0.397116 0.836648
#
# Coordination Sequence:
#
# PCOD9340006 Si02
#       5
#     4   4   4   4   4
#     4   9  18  33  63  95 112 143 202 264 296 351
#     4  10  21  37  62  85 115 159 211 249 298 359
#     4  10  16  32  57 102 118 139 188 272 311 351
#     4   9  23  35  67  87 121 156 208 256 304 368
#     4  12  28  41  57  85 130 167 205 257 317 371
#
# _framework density 21.472987
#
# number of rings (size 3 to 8) (size 9 to 14) (size 15 to 20)
#    1.200    0.800    2.000    1.200    5.600    0.000 
#    0.000    0.000    0.000    7.200    0.000    0.000 
#    0.000    0.000    0.000    0.000    0.000    0.000 
#
# Total GULP energy -111537.953945 kJ/mol
# GULP energy per Si atom -5576.897697 kJ/mol
# Density = 2.142411 g / cm^3
# Si number density = 21.472987 Si / 1000 Ang^3
#
#
#
# Elastic Constant Matrix: (Units=GPa)
#
#
# Indices 1 2 3 4 5 6 
#
# 1 52.7411 37.4283 -2.8260 0.0000 0.0000 0.0000
# 2 37.4283 78.7584 18.9629 0.0000 0.0000 0.0000
# 3 -2.8260 18.9629 92.1910 0.0000 0.0000 0.0000
# 4 0.0000 0.0000 0.0000 39.5795 0.0000 0.0000
# 5 0.0000 0.0000 0.0000 0.0000 429.6382 0.0000
# 6 0.0000 0.0000 0.0000 0.0000 0.0000 -28.9929
#
#
#
# Elastic Compliance Matrix: (Units=1/GPa)
#
#
# Indices 1 2 3 4 5 6 
#
# 1 0.029981 -0.015223 0.004050 0.000000 0.000000 0.000000
# 2 -0.015223 0.021088 -0.004804 0.000000 0.000000 0.000000
# 3 0.004050 -0.004804 0.011959 0.000000 0.000000 0.000000
# 4 0.000000 0.000000 0.000000 0.025266 0.000000 0.000000
# 5 0.000000 0.000000 0.000000 0.000000 0.002328 0.000000
# 6 0.000000 0.000000 0.000000 0.000000 0.000000 -0.034491
#
#
# Mechanical properties :
#
#
# Convention : Reuss Voigt Hill
#
# Bulk Modulus (GPa) = 32.18089 36.75789 34.46939
# Shear Modulus (GPa) = 50.79120 99.38665 75.08893
#
# Velocity S-wave (km/s) = 4.86877 6.81065 5.91988
# Velocity P-wave (km/s) = 6.82830 8.88831 7.92552
#
# Compressibility (1/GPa) = 0.03107434
#
# Stress axis : x y z
#
# Youngs Moduli (GPa) = 33.35481 47.41990 83.61624
#
# Poissons Ratio (x) = 0.72187 -0.33867
# Poissons Ratio (y) = 0.50776 0.40172
# Poissons Ratio (z) = -0.13509 0.22782
#
# Static dielectric constant tensor:
#      x y z
#    x 1.765550 0.000000 0.000000 
#    y 0.000000 1.798140 0.000000 
#    z 0.000000 0.000000 1.768410 
# 
# From -- ./inp_files/158.got.cif
#   From: 2010.05.17/outbox.cif.g08.bks.cpg/sg29_1_cif.got.tgz:158.got - 2010.06.04 01:19:37.
