data_PCOD9340937
_publ_section_title
;
Structure prediction by ZEFSAII (Michael W. Deem and Ramdas Pophale) SiO2 
 PCOD9340937
Probable space group: P C A 21
;
_chemical_formula_sum "Si O2"
_cell_formula_units_Z 24
_cell_length_a 8.322901
_cell_length_b 12.403610
_cell_length_c 8.966844
_cell_angle_alpha 90.000000
_cell_angle_beta 90.000000
_cell_angle_gamma 90.000000
_cell_volume 925.683336
_symmetry_space_group_name_H-M "P C A 21"
_symmetry_group_IT_number 29
_symmetry_cell_setting 'orthorhombic'
loop_
_space_group_symop_operation_xyz
x,y,z
-x,-y,1/2+z
1/2-x,y,1/2+z
1/2+x,-y,z
loop_
_atom_site_type_symbol
_atom_site_label
_atom_site_fract_x
_atom_site_fract_y
_atom_site_fract_z
Si Si1 0.076123 0.552028 0.814130
Si Si2 0.884875 0.035903 0.732982
Si Si3 0.563959 0.762079 0.665604
Si Si4 0.263359 0.660170 0.068392
Si Si5 0.573106 0.115449 0.570977
Si Si6 0.244284 0.346198 0.901612
O O1 0.149460 0.560251 0.648772
O O2 0.107653 0.438200 0.892929
O O3 0.895560 0.595244 0.820283
O O4 0.185829 0.632891 0.910551
O O5 0.710527 0.074022 0.684171
O O6 0.006335 0.116178 0.643879
O O7 0.911667 0.059800 0.908008
O O8 0.915439 0.918970 0.661860
O O9 0.395062 0.697137 0.660519
O O10 0.678341 0.702790 0.548473
O O11 0.661116 0.752220 0.817449
O O12 0.388285 0.758184 0.057758
#
# Coordination Sequence:
#
# PCOD9340937 Si02
#       6
#     4   4   4   4   4   4
#     4  11  23  39  64  93 128 170 217 272 338 407
#     4  11  25  45  70 101 138 185 236 293 356 425
#     4  10  24  43  64  93 129 170 222 276 337 408
#     4  10  22  42  65  93 129 172 219 275 337 404
#     4  11  24  44  70 100 138 182 235 292 354 423
#     4  11  24  41  63  94 128 169 219 274 336 413
#
# _framework density 25.926794000000001
#
# number of rings (size 3 to 8) (size 9 to 14) (size 15 to 20)
#    0.000    1.333    0.000    5.000    0.000   13.333 
#    0.000    0.000    0.000    0.000    0.000    0.000 
#    0.000    0.000    0.000    0.000    0.000    0.000 
#
# Total GULP energy -134398.912024 kJ/mol
# GULP energy per Si atom -5599.954668 kJ/mol
# Density = 2.586778 g / cm^3
# Si number density = 25.926794 Si / 1000 Ang^3
#
#
#
# Elastic Constant Matrix: (Units=GPa)
#
#
# Indices 1 2 3 4 5 6 
#
# 1 62.9402 12.1753 30.2600 0.0000 0.0000 0.0000
# 2 12.1753 56.0423 -1.1004 0.0000 0.0000 0.0000
# 3 30.2600 -1.1004 97.1613 0.0000 0.0000 0.0000
# 4 0.0000 0.0000 0.0000 35.7789 0.0000 0.0000
# 5 0.0000 0.0000 0.0000 0.0000 48.2430 0.0000
# 6 0.0000 0.0000 0.0000 0.0000 0.0000 58.6344
#
#
#
# Elastic Compliance Matrix: (Units=1/GPa)
#
#
# Indices 1 2 3 4 5 6 
#
# 1 0.019716 -0.004405 -0.006190 0.000000 0.000000 0.000000
# 2 -0.004405 0.018832 0.001585 0.000000 0.000000 0.000000
# 3 -0.006190 0.001585 0.012238 0.000000 0.000000 0.000000
# 4 0.000000 0.000000 0.000000 0.027949 0.000000 0.000000
# 5 0.000000 0.000000 0.000000 0.000000 0.020728 0.000000
# 6 0.000000 0.000000 0.000000 0.000000 0.000000 0.017055
#
#
# Mechanical properties :
#
#
# Convention : Reuss Voigt Hill
#
# Bulk Modulus (GPa) = 30.51958 33.20151 31.86054
# Shear Modulus (GPa) = 34.37345 40.18519 37.27932
#
# Velocity S-wave (km/s) = 3.64509 3.94121 3.79604
# Velocity P-wave (km/s) = 5.43255 5.79176 5.61503
#
# Compressibility (1/GPa) = 0.03276585
#
# Stress axis : x y z
#
# Youngs Moduli (GPa) = 50.71926 53.10177 81.71239
#
# Poissons Ratio (x) = 0.23391 0.50583
# Poissons Ratio (y) = 0.22342 -0.12953
# Poissons Ratio (z) = 0.31397 -0.08417
#
# Static dielectric constant tensor:
#      x y z
#    x 1.997350 0.000000 0.000000 
#    y 0.000000 2.043090 0.000000 
#    z 0.000000 0.000000 1.993310 
# 
# From -- ./inp_files/1134.got.cif
#   From: 2010.05.17/outbox.cif.g08.bks.cpg/sg29_1_cif.got.tgz:1134.got - 2010.06.04 01:19:37.
