data_PCOD9340060
_publ_section_title
;
Structure prediction by ZEFSAII (Michael W. Deem and Ramdas Pophale) SiO2 
 PCOD9340060
Probable space group: P C A 21
;
_chemical_formula_sum "Si O2"
_cell_formula_units_Z 28
_cell_length_a 17.946592
_cell_length_b 6.793380
_cell_length_c 8.837949
_cell_angle_alpha 90.000000
_cell_angle_beta 90.000000
_cell_angle_gamma 90.000000
_cell_volume 1077.505236
_symmetry_space_group_name_H-M "P C A 21"
_symmetry_group_IT_number 29
_symmetry_cell_setting 'orthorhombic'
loop_
_space_group_symop_operation_xyz
x,y,z
-x,-y,1/2+z
1/2-x,y,1/2+z
1/2+x,-y,z
loop_
_atom_site_type_symbol
_atom_site_label
_atom_site_fract_x
_atom_site_fract_y
_atom_site_fract_z
Si Si1 0.133594 0.388626 0.978510
Si Si2 0.029289 0.701503 0.027087
Si Si3 0.666548 0.109915 0.759604
Si Si4 0.520530 0.870036 0.824900
Si Si5 0.897933 0.704702 0.815530
Si Si6 0.084458 0.640137 0.527079
Si Si7 0.766444 0.906949 0.972490
O O1 0.075798 0.318555 0.851741
O O2 0.213456 0.286945 0.956865
O O3 0.109555 0.295650 0.138294
O O4 0.111744 0.618102 0.996928
O O5 0.021129 0.853095 0.164057
O O6 0.978385 0.758111 0.883153
O O7 0.980106 0.510200 0.081945
O O8 0.642959 0.295271 0.654940
O O9 0.588238 0.025015 0.820427
O O10 0.723916 0.092003 0.898089
O O11 0.705449 0.959248 0.639644
O O12 0.458464 0.825937 0.953401
O O13 0.881296 0.489307 0.889243
O O14 0.839690 0.856577 0.880615
#
# Coordination Sequence:
#
# PCOD9340060 Si02
#       7
#     4   4   4   4   4   4   4
#     4  10  18  34  60  94 116 156 220 263 323 381
#     4   9  17  37  65  89 116 156 219 282 316 378
#     4  11  22  42  56  92 129 170 216 258 343 401
#     4  10  19  37  65  87 119 163 215 271 325 396
#     4  10  19  37  62  90 117 168 216 274 313 387
#     4   9  21  38  59  90 130 156 213 282 317 389
#     4  11  22  37  65  84 129 181 213 260 331 424
#
# _framework density 25.985952000000001
#
# number of rings (size 3 to 8) (size 9 to 14) (size 15 to 20)
#    0.857    1.143    4.286    0.000    0.000    0.000 
#    7.714    0.000    0.000    0.000    0.000    0.000 
#    0.000    0.000    0.000    0.000    0.000    0.000 
#
# Total GULP energy -156262.199456 kJ/mol
# GULP energy per Si atom -5580.792838 kJ/mol
# Density = 2.592681 g / cm^3
# Si number density = 25.985952 Si / 1000 Ang^3
#
#
#
# Elastic Constant Matrix: (Units=GPa)
#
#
# Indices 1 2 3 4 5 6 
#
# 1 132.8827 46.5340 27.6498 0.0000 0.0000 0.0000
# 2 46.5340 67.9500 12.1870 0.0000 0.0000 0.0000
# 3 27.6498 12.1870 72.5515 0.0000 0.0000 0.0000
# 4 0.0000 0.0000 0.0000 -5.2008 0.0000 0.0000
# 5 0.0000 0.0000 0.0000 0.0000 17.5373 0.0000
# 6 0.0000 0.0000 0.0000 0.0000 0.0000 58.3437
#
#
#
# Elastic Compliance Matrix: (Units=1/GPa)
#
#
# Indices 1 2 3 4 5 6 
#
# 1 0.010447 -0.006641 -0.002866 0.000000 0.000000 0.000000
# 2 -0.006641 0.019395 -0.000727 0.000000 0.000000 0.000000
# 3 -0.002866 -0.000727 0.014998 0.000000 0.000000 0.000000
# 4 0.000000 0.000000 0.000000 -0.192279 0.000000 0.000000
# 5 0.000000 0.000000 0.000000 0.000000 0.057021 0.000000
# 6 0.000000 0.000000 0.000000 0.000000 0.000000 0.017140
#
#
# Mechanical properties :
#
#
# Convention : Reuss Voigt Hill
#
# Bulk Modulus (GPa) = 41.03023 49.56954 45.29988
# Shear Modulus (GPa) = -111.89113 26.60359 -42.64377
#
# Velocity S-wave (km/s) = -6.56900 3.20311 -4.05536
# Velocity P-wave (km/s) = 6.45849 5.72685 2.11131
#
# Compressibility (1/GPa) = 0.02437228
#
# Stress axis : x y z
#
# Youngs Moduli (GPa) = 95.71919 51.56044 66.67684
#
# Poissons Ratio (x) = 0.34239 0.19110
# Poissons Ratio (y) = 0.63562 0.04848
# Poissons Ratio (z) = 0.27433 0.03749
#
# Static dielectric constant tensor:
#      x y z
#    x 1.983570 0.000000 0.000000 
#    y 0.000000 2.344660 0.000000 
#    z 0.000000 0.000000 2.064950 
# 
# From -- ./inp_files/2097.got.cif
#   From: 2010.05.17/outbox.cif.g08.bks.cpg/sg29_2_cif.got.tgz:2097.got - 2010.06.04 01:19:37.
