data_PCOD9340554
_publ_section_title
;
Structure prediction by ZEFSAII (Michael W. Deem and Ramdas Pophale) SiO2 
 PCOD9340554
Probable space group: P C A 21
;
_chemical_formula_sum "Si O2"
_cell_formula_units_Z 24
_cell_length_a 27.229101
_cell_length_b 6.792151
_cell_length_c 5.295689
_cell_angle_alpha 90.000000
_cell_angle_beta 90.000000
_cell_angle_gamma 90.000000
_cell_volume 979.406783
_symmetry_space_group_name_H-M "P C A 21"
_symmetry_group_IT_number 29
_symmetry_cell_setting 'orthorhombic'
loop_
_space_group_symop_operation_xyz
x,y,z
-x,-y,1/2+z
1/2-x,y,1/2+z
1/2+x,-y,z
loop_
_atom_site_type_symbol
_atom_site_label
_atom_site_fract_x
_atom_site_fract_y
_atom_site_fract_z
Si Si1 0.920902 0.593865 0.591810
Si Si2 0.221732 0.943875 0.051187
Si Si3 0.026226 0.067901 0.869566
Si Si4 0.371067 0.409509 0.096006
Si Si5 0.383741 0.790536 0.375872
Si Si6 0.737347 0.625374 0.500711
O O1 0.967203 0.708302 0.474991
O O2 0.879944 0.658538 0.383204
O O3 0.914178 0.360185 0.557945
O O4 0.910421 0.645789 0.881300
O O5 0.240474 0.888981 0.328105
O O6 0.167300 0.867303 0.990939
O O7 0.228445 0.182908 0.035962
O O8 0.078792 0.964588 0.818468
O O9 0.002436 0.955245 0.108415
O O10 0.371783 0.646985 0.137660
O O11 0.319879 0.330519 0.995670
O O12 0.754514 0.512140 0.258137
#
# Coordination Sequence:
#
# PCOD9340554 Si02
#       6
#     4   4   4   4   4   4
#     4  10  25  47  74 102 143 188 237 307 367 445
#     4  10  24  38  65 104 143 193 241 289 345 430
#     4  12  29  49  80 112 139 188 253 313 387 450
#     4  10  23  43  70 101 144 195 236 288 372 425
#     4  10  28  46  75 105 152 192 245 305 373 442
#     4  10  21  37  62  98 143 188 240 288 338 416
#
# _framework density 24.504626999999999
#
# number of rings (size 3 to 8) (size 9 to 14) (size 15 to 20)
#    1.000    0.667    0.000    2.000   14.000    2.667 
#    0.000    0.000    0.000    0.000    0.000    0.000 
#    0.000    0.000    0.000    0.000    0.000    0.000 
#
# Total GULP energy -133827.277074 kJ/mol
# GULP energy per Si atom -5576.136545 kJ/mol
# Density = 2.444885 g / cm^3
# Si number density = 24.504627 Si / 1000 Ang^3
#
#
#
# Elastic Constant Matrix: (Units=GPa)
#
#
# Indices 1 2 3 4 5 6 
#
# 1 70.1451 27.7652 -4.7215 0.0000 0.0000 0.0000
# 2 27.7652 104.4639 -6.9476 0.0000 0.0000 0.0000
# 3 -4.7215 -6.9476 106.5818 0.0000 0.0000 0.0000
# 4 0.0000 0.0000 0.0000 4.8292 0.0000 0.0000
# 5 0.0000 0.0000 0.0000 0.0000 36.9551 0.0000
# 6 0.0000 0.0000 0.0000 0.0000 0.0000 13.2199
#
#
#
# Elastic Compliance Matrix: (Units=1/GPa)
#
#
# Indices 1 2 3 4 5 6 
#
# 1 0.015952 -0.004211 0.000432 0.000000 0.000000 0.000000
# 2 -0.004211 0.010726 0.000513 0.000000 0.000000 0.000000
# 3 0.000432 0.000513 0.009435 0.000000 0.000000 0.000000
# 4 0.000000 0.000000 0.000000 0.207074 0.000000 0.000000
# 5 0.000000 0.000000 0.000000 0.000000 0.027060 0.000000
# 6 0.000000 0.000000 0.000000 0.000000 0.000000 0.075643
#
#
# Mechanical properties :
#
#
# Convention : Reuss Voigt Hill
#
# Bulk Modulus (GPa) = 33.80603 34.82033 34.31318
# Shear Modulus (GPa) = 13.80137 28.67382 21.23759
#
# Velocity S-wave (km/s) = 2.37579 3.42444 2.94713
# Velocity P-wave (km/s) = 4.62077 5.46592 5.06102
#
# Compressibility (1/GPa) = 0.02958052
#
# Stress axis : x y z
#
# Youngs Moduli (GPa) = 62.68755 93.23104 105.98804
#
# Poissons Ratio (x) = 0.39261 -0.04580
# Poissons Ratio (y) = 0.26399 -0.05433
# Poissons Ratio (z) = -0.02709 -0.04779
#
# Static dielectric constant tensor:
#      x y z
#    x 1.944160 0.000000 0.000000 
#    y 0.000000 2.027730 0.000000 
#    z 0.000000 0.000000 2.017560 
# 
# From -- ./inp_files/651.got.cif
#   From: 2010.05.17/outbox.cif.g08.bks.cpg/sg29_1_cif.got.tgz:651.got - 2010.06.04 01:19:37.
