data_PCOD9340299
_publ_section_title
;
Structure prediction by ZEFSAII (Michael W. Deem and Ramdas Pophale) SiO2 
 PCOD9340299
Probable space group: P C A 21
;
_chemical_formula_sum "Si O2"
_cell_formula_units_Z 32
_cell_length_a 25.627922
_cell_length_b 7.049948
_cell_length_c 7.797398
_cell_angle_alpha 90.000000
_cell_angle_beta 90.000000
_cell_angle_gamma 90.000000
_cell_volume 1408.798918
_symmetry_space_group_name_H-M "P C A 21"
_symmetry_group_IT_number 29
_symmetry_cell_setting 'orthorhombic'
loop_
_space_group_symop_operation_xyz
x,y,z
-x,-y,1/2+z
1/2-x,y,1/2+z
1/2+x,-y,z
loop_
_atom_site_type_symbol
_atom_site_label
_atom_site_fract_x
_atom_site_fract_y
_atom_site_fract_z
Si Si1 0.309053 0.075017 0.139440
Si Si2 0.598296 0.180225 0.234536
Si Si3 0.809051 0.924992 0.732772
Si Si4 0.488908 0.278900 0.230078
Si Si5 0.901706 0.180213 0.137678
Si Si6 0.880381 0.608368 0.232039
Si Si7 0.988907 0.721111 0.642135
Si Si8 0.380380 0.391623 0.640173
O O1 0.353940 0.938006 0.215383
O O2 0.250001 0.029447 0.186110
O O3 0.327016 0.285089 0.192402
O O4 0.311980 0.061763 0.936106
O O5 0.539261 0.166151 0.159281
O O6 0.594154 0.134580 0.436105
O O7 0.613822 0.401728 0.220229
O O8 0.646063 0.062010 0.156832
O O9 0.827014 0.714922 0.679803
O O10 0.429173 0.259625 0.169314
O O11 0.500001 0.500007 0.186112
O O12 0.489450 0.257475 0.436106
O O13 0.886180 0.401715 0.151992
O O14 0.960742 0.166134 0.212928
O O15 0.885837 0.586004 0.436107
O O16 0.929171 0.740388 0.702894
#
# Coordination Sequence:
#
# PCOD9340299 Si02
#       8
#     4   4   4   4   4   4   4   4
#     4  11  24  40  57  78 107 145 189 233 273 321
#     4   9  19  37  59  82 111 147 185 226 274 325
#     4  11  24  40  57  78 107 145 189 233 273 321
#     4   8  15  30  53  82 112 141 176 218 268 327
#     4   9  19  37  59  82 111 147 185 226 274 325
#     4  10  20  35  58  86 115 145 178 222 275 330
#     4   8  15  30  53  82 112 141 176 218 268 327
#     4  10  20  35  58  86 115 145 178 222 275 330
#
# _framework density 22.714383999999999
#
# number of rings (size 3 to 8) (size 9 to 14) (size 15 to 20)
#    0.000    2.500    0.000    1.500    0.000    5.000 
#    0.000    2.500    0.000    0.000    0.000    0.000 
#    0.000    0.000    0.000    0.000    0.000    0.000 
#
# Total GULP energy -178601.583610 kJ/mol
# GULP energy per Si atom -5581.299488 kJ/mol
# Density = 2.266268 g / cm^3
# Si number density = 22.714384 Si / 1000 Ang^3
#
#
#
# Elastic Constant Matrix: (Units=GPa)
#
#
# Indices 1 2 3 4 5 6 
#
# 1 146.4696 40.5836 4.9814 0.0000 0.0000 0.0000
# 2 40.5836 56.4735 -6.6909 0.0000 0.0000 0.0000
# 3 4.9814 -6.6909 59.4093 0.0000 0.0000 0.0000
# 4 0.0000 0.0000 0.0000 16.5756 0.0000 0.0000
# 5 0.0000 0.0000 0.0000 0.0000 19.4378 0.0000
# 6 0.0000 0.0000 0.0000 0.0000 0.0000 -14.0861
#
#
#
# Elastic Compliance Matrix: (Units=1/GPa)
#
#
# Indices 1 2 3 4 5 6 
#
# 1 0.008645 -0.006384 -0.001444 0.000000 0.000000 0.000000
# 2 -0.006384 0.022661 0.003087 0.000000 0.000000 0.000000
# 3 -0.001444 0.003087 0.017301 0.000000 0.000000 0.000000
# 4 0.000000 0.000000 0.000000 0.060330 0.000000 0.000000
# 5 0.000000 0.000000 0.000000 0.000000 0.051446 0.000000
# 6 0.000000 0.000000 0.000000 0.000000 0.000000 -0.070992
#
#
# Mechanical properties :
#
#
# Convention : Reuss Voigt Hill
#
# Bulk Modulus (GPa) = 25.55799 37.78896 31.67348
# Shear Modulus (GPa) = 44.67721 19.28401 31.98061
#
# Velocity S-wave (km/s) = 4.43980 2.91688 3.75633
# Velocity P-wave (km/s) = 6.12852 5.29311 5.72607
#
# Compressibility (1/GPa) = 0.03912670
#
# Stress axis : x y z
#
# Youngs Moduli (GPa) = 115.67005 44.12903 57.79959
#
# Poissons Ratio (x) = 0.28171 0.08345
# Poissons Ratio (y) = 0.73842 -0.17845
# Poissons Ratio (z) = 0.16701 -0.13624
#
# Static dielectric constant tensor:
#      x y z
#    x 1.913340 0.000000 0.000000 
#    y 0.000000 1.911480 0.000000 
#    z 0.000000 0.000000 1.837140 
# 
# From -- ./inp_files/2470.got.cif
#   From: 2010.05.17/outbox.cif.g08.bks.cpg/sg29_2_cif.got.tgz:2470.got - 2010.06.04 01:19:37.
