data_PCOD9340748
_publ_section_title
;
Structure prediction by ZEFSAII (Michael W. Deem and Ramdas Pophale) SiO2 
 PCOD9340748
Probable space group: P C A 21
;
_chemical_formula_sum "Si O2"
_cell_formula_units_Z 28
_cell_length_a 18.837870
_cell_length_b 5.274878
_cell_length_c 11.140734
_cell_angle_alpha 90.000000
_cell_angle_beta 90.000000
_cell_angle_gamma 90.000000
_cell_volume 1107.026507
_symmetry_space_group_name_H-M "P C A 21"
_symmetry_group_IT_number 29
_symmetry_cell_setting 'orthorhombic'
loop_
_space_group_symop_operation_xyz
x,y,z
-x,-y,1/2+z
1/2-x,y,1/2+z
1/2+x,-y,z
loop_
_atom_site_type_symbol
_atom_site_label
_atom_site_fract_x
_atom_site_fract_y
_atom_site_fract_z
Si Si1 0.578716 0.993020 0.425830
Si Si2 0.425008 0.213207 0.174927
Si Si3 0.241525 0.181646 0.411085
Si Si4 0.202453 0.520699 0.699515
Si Si5 0.870304 0.138963 0.367151
Si Si6 0.052406 0.494270 0.277619
Si Si7 0.168081 0.547907 0.079992
O O1 0.555010 0.973367 0.564988
O O2 0.661493 0.913936 0.416847
O O3 0.540219 0.766332 0.350471
O O4 0.568674 0.270881 0.368413
O O5 0.347489 0.317194 0.133088
O O6 0.412046 0.092680 0.308249
O O7 0.487537 0.411268 0.195888
O O8 0.253217 0.376028 0.301160
O O9 0.288491 0.940768 0.380510
O O10 0.290187 0.317497 0.514356
O O11 0.260380 0.686349 0.629375
O O12 0.137970 0.668873 0.759141
O O13 0.880992 0.287763 0.490521
O O14 0.117904 0.460350 0.186777
#
# Coordination Sequence:
#
# PCOD9340748 Si02
#       7
#     4   4   4   4   4   4   4
#     4  12  28  50  78 110 153 205 261 320 393 482
#     4  11  28  47  75 106 158 207 260 320 401 487
#     4  10  22  41  70 110 145 193 251 316 391 452
#     4  10  21  43  70 108 145 194 256 316 391 454
#     4  10  25  40  72 107 147 196 253 319 395 457
#     4  12  31  48  78 114 157 205 263 322 398 473
#     4  11  23  43  75 111 153 194 260 329 379 463
#
# _framework density 25.29298
#
# number of rings (size 3 to 8) (size 9 to 14) (size 15 to 20)
#    0.000    1.143    2.857    0.857   12.000    2.286 
#    0.000    0.000    0.000    0.000    0.000    0.000 
#    0.000    0.000    0.000    0.000    0.000    0.000 
#
# Total GULP energy -156232.167372 kJ/mol
# GULP energy per Si atom -5579.720263 kJ/mol
# Density = 2.523541 g / cm^3
# Si number density = 25.292980 Si / 1000 Ang^3
#
#
#
# Elastic Constant Matrix: (Units=GPa)
#
#
# Indices 1 2 3 4 5 6 
#
# 1 122.6322 8.1481 25.2918 0.0000 0.0000 0.0000
# 2 8.1481 52.1289 8.3195 0.0000 0.0000 0.0000
# 3 25.2918 8.3195 89.8130 0.0000 0.0000 0.0000
# 4 0.0000 0.0000 0.0000 24.3470 0.0000 0.0000
# 5 0.0000 0.0000 0.0000 0.0000 28.7308 0.0000
# 6 0.0000 0.0000 0.0000 0.0000 0.0000 133.0895
#
#
#
# Elastic Compliance Matrix: (Units=1/GPa)
#
#
# Indices 1 2 3 4 5 6 
#
# 1 0.008707 -0.000984 -0.002361 0.000000 0.000000 0.000000
# 2 -0.000984 0.019582 -0.001537 0.000000 0.000000 0.000000
# 3 -0.002361 -0.001537 0.011941 0.000000 0.000000 0.000000
# 4 0.000000 0.000000 0.000000 0.041073 0.000000 0.000000
# 5 0.000000 0.000000 0.000000 0.000000 0.034806 0.000000
# 6 0.000000 0.000000 0.000000 0.000000 0.000000 0.007514
#
#
# Mechanical properties :
#
#
# Convention : Reuss Voigt Hill
#
# Bulk Modulus (GPa) = 32.82227 38.67699 35.74963
# Shear Modulus (GPa) = 34.83303 52.08777 43.46040
#
# Velocity S-wave (km/s) = 3.71507 4.54296 4.14971
# Velocity P-wave (km/s) = 5.60422 6.54544 6.09303
#
# Compressibility (1/GPa) = 0.03046712
#
# Stress axis : x y z
#
# Youngs Moduli (GPa) = 114.85374 51.06654 83.74233
#
# Poissons Ratio (x) = 0.05026 0.19769
# Poissons Ratio (y) = 0.11303 0.12869
# Poissons Ratio (z) = 0.27113 0.07848
#
# Static dielectric constant tensor:
#      x y z
#    x 1.970170 0.000000 0.000000 
#    y 0.000000 2.188350 0.000000 
#    z 0.000000 0.000000 2.336600 
# 
# From -- ./inp_files/3731.got.cif
#   From: 2010.05.17/outbox.cif.g08.bks.cpg/sg29_2_cif.got.tgz:3731.got - 2010.06.04 01:19:37.
