data_PCOD9340992
_publ_section_title
;
Structure prediction by ZEFSAII (Michael W. Deem and Ramdas Pophale) SiO2 
 PCOD9340992
Probable space group: P C A 21
;
_chemical_formula_sum "Si O2"
_cell_formula_units_Z 24
_cell_length_a 9.506445
_cell_length_b 9.560034
_cell_length_c 11.024361
_cell_angle_alpha 90.000000
_cell_angle_beta 90.000000
_cell_angle_gamma 90.000000
_cell_volume 1001.915286
_symmetry_space_group_name_H-M "P C A 21"
_symmetry_group_IT_number 29
_symmetry_cell_setting 'orthorhombic'
loop_
_space_group_symop_operation_xyz
x,y,z
-x,-y,1/2+z
1/2-x,y,1/2+z
1/2+x,-y,z
loop_
_atom_site_type_symbol
_atom_site_label
_atom_site_fract_x
_atom_site_fract_y
_atom_site_fract_z
Si Si1 0.431900 0.282516 0.428770
Si Si2 0.167485 0.364758 0.680691
Si Si3 0.896501 0.480332 0.605057
Si Si4 0.255193 0.790857 0.008043
Si Si5 0.621712 0.948945 0.609204
Si Si6 0.073018 0.978000 0.872763
O O1 0.433566 0.347812 0.296797
O O2 0.356653 0.396802 0.510600
O O3 0.586726 0.254324 0.479499
O O4 0.364085 0.129137 0.412610
O O5 0.308952 0.449053 0.715063
O O6 0.181419 0.205062 0.635976
O O7 0.063492 0.461124 0.601593
O O8 0.832321 0.332405 0.568057
O O9 0.265728 0.927115 0.093645
O O10 0.181264 0.850693 0.887129
O O11 0.534797 0.996178 0.731383
O O12 0.539720 0.946589 0.479893
#
# Coordination Sequence:
#
# PCOD9340992 Si02
#       6
#     4   4   4   4   4   4
#     4  10  25  45  66 103 140 186 240 296 363 438
#     4  11  25  44  70  98 144 183 241 298 363 433
#     4  12  24  44  66 103 139 188 235 296 359 437
#     4  11  23  41  72 101 140 187 246 296 370 425
#     4  10  23  43  68 104 138 190 239 306 360 434
#     4  10  22  43  70  99 145 184 247 302 361 433
#
# _framework density 23.954121000000001
#
# number of rings (size 3 to 8) (size 9 to 14) (size 15 to 20)
#    0.000    1.333    3.333    1.000    4.667    1.333 
#    0.000    6.667    0.000    0.000    0.000    0.000 
#    0.000    0.000    0.000    0.000    0.000    0.000 
#
# Total GULP energy -133806.794973 kJ/mol
# GULP energy per Si atom -5575.283124 kJ/mol
# Density = 2.389960 g / cm^3
# Si number density = 23.954121 Si / 1000 Ang^3
#
#
#
# Elastic Constant Matrix: (Units=GPa)
#
#
# Indices 1 2 3 4 5 6 
#
# 1 74.6956 32.1920 -1.0835 0.0000 0.0000 0.0000
# 2 32.1920 114.1165 -9.2133 0.0000 0.0000 0.0000
# 3 -1.0835 -9.2133 39.4566 0.0000 0.0000 0.0000
# 4 0.0000 0.0000 0.0000 20.6159 0.0000 0.0000
# 5 0.0000 0.0000 0.0000 0.0000 23.2848 0.0000
# 6 0.0000 0.0000 0.0000 0.0000 0.0000 43.6567
#
#
#
# Elastic Compliance Matrix: (Units=1/GPa)
#
#
# Indices 1 2 3 4 5 6 
#
# 1 0.015254 -0.004351 -0.000597 0.000000 0.000000 0.000000
# 2 -0.004351 0.010173 0.002256 0.000000 0.000000 0.000000
# 3 -0.000597 0.002256 0.025855 0.000000 0.000000 0.000000
# 4 0.000000 0.000000 0.000000 0.048506 0.000000 0.000000
# 5 0.000000 0.000000 0.000000 0.000000 0.042946 0.000000
# 6 0.000000 0.000000 0.000000 0.000000 0.000000 0.022906
#
#
# Mechanical properties :
#
#
# Convention : Reuss Voigt Hill
#
# Bulk Modulus (GPa) = 21.78833 30.22880 26.00856
# Shear Modulus (GPa) = 26.83489 31.26971 29.05230
#
# Velocity S-wave (km/s) = 3.35066 3.61695 3.48635
# Velocity P-wave (km/s) = 4.90763 5.48543 5.20456
#
# Compressibility (1/GPa) = 0.04589613
#
# Stress axis : x y z
#
# Youngs Moduli (GPa) = 65.55499 98.30296 38.67775
#
# Poissons Ratio (x) = 0.42776 0.02310
# Poissons Ratio (y) = 0.28526 -0.08725
# Poissons Ratio (z) = 0.03915 -0.22176
#
# Static dielectric constant tensor:
#      x y z
#    x 2.369720 0.000000 0.000000 
#    y 0.000000 1.904250 0.000000 
#    z 0.000000 0.000000 2.108940 
# 
# From -- ./inp_files/3080.got.cif
#   From: 2010.05.17/outbox.cif.g08.bks.cpg/sg29_2_cif.got.tgz:3080.got - 2010.06.04 01:19:37.
