data_PCOD9340887
_publ_section_title
;
Structure prediction by ZEFSAII (Michael W. Deem and Ramdas Pophale) SiO2 
 PCOD9340887
Probable space group: P C A 21
;
_chemical_formula_sum "Si O2"
_cell_formula_units_Z 32
_cell_length_a 18.924153
_cell_length_b 5.322502
_cell_length_c 12.775208
_cell_angle_alpha 90.000000
_cell_angle_beta 90.000000
_cell_angle_gamma 90.000000
_cell_volume 1286.768035
_symmetry_space_group_name_H-M "P C A 21"
_symmetry_group_IT_number 29
_symmetry_cell_setting 'orthorhombic'
loop_
_space_group_symop_operation_xyz
x,y,z
-x,-y,1/2+z
1/2-x,y,1/2+z
1/2+x,-y,z
loop_
_atom_site_type_symbol
_atom_site_label
_atom_site_fract_x
_atom_site_fract_y
_atom_site_fract_z
Si Si1 0.827566 0.802863 0.432670
Si Si2 0.855474 0.302449 0.087113
Si Si3 0.318372 0.420257 0.880617
Si Si4 0.616843 0.304575 0.821556
Si Si5 0.481256 0.979892 0.776011
Si Si6 0.998091 0.610659 0.110390
Si Si7 0.929943 0.932293 0.972151
Si Si8 0.367182 0.299961 0.662353
O O1 0.748454 0.759145 0.392239
O O2 0.871843 0.564915 0.384476
O O3 0.826042 0.788232 0.559268
O O4 0.854066 0.069079 0.388762
O O5 0.839319 0.326147 0.210385
O O6 0.932434 0.436597 0.082009
O O7 0.812742 0.392764 0.982849
O O8 0.875395 0.016702 0.059910
O O9 0.390765 0.277056 0.905913
O O10 0.326705 0.453755 0.754631
O O11 0.536977 0.208274 0.792005
O O12 0.452979 0.871167 0.885412
O O13 0.412666 0.069345 0.711188
O O14 0.519402 0.759262 0.715546
O O15 0.070832 0.475494 0.119906
O O16 0.999580 0.827917 0.024307
#
# Coordination Sequence:
#
# PCOD9340887 Si02
#       8
#     4   4   4   4   4   4   4   4
#     4  12  31  50  74 111 152 205 255 309 372 458
#     4  11  23  44  74 105 144 194 247 312 376 454
#     4  10  27  49  72 104 142 209 251 308 370 456
#     4  12  27  47  76 111 149 198 245 317 381 443
#     4  11  23  41  68 108 147 185 242 310 386 444
#     4  11  20  40  67 108 143 188 238 309 380 442
#     4  10  22  40  70 100 141 190 244 302 379 439
#     4  11  25  47  73 105 152 193 254 313 386 452
#
# _framework density 24.868507000000001
#
# number of rings (size 3 to 8) (size 9 to 14) (size 15 to 20)
#    0.000    1.000    2.500    2.250   10.500    0.000 
#    0.000    0.000    0.000    0.000    0.000    0.000 
#    0.000    0.000    0.000    0.000    0.000    0.000 
#
# Total GULP energy -178529.080610 kJ/mol
# GULP energy per Si atom -5579.033769 kJ/mol
# Density = 2.481191 g / cm^3
# Si number density = 24.868507 Si / 1000 Ang^3
#
#
#
# Elastic Constant Matrix: (Units=GPa)
#
#
# Indices 1 2 3 4 5 6 
#
# 1 62.5327 -1.7987 14.7153 0.0000 0.0000 0.0000
# 2 -1.7987 58.3827 32.9145 0.0000 0.0000 0.0000
# 3 14.7153 32.9145 166.0223 0.0000 0.0000 0.0000
# 4 0.0000 0.0000 0.0000 35.1932 0.0000 0.0000
# 5 0.0000 0.0000 0.0000 0.0000 21.9361 0.0000
# 6 0.0000 0.0000 0.0000 0.0000 0.0000 20.8233
#
#
#
# Elastic Compliance Matrix: (Units=1/GPa)
#
#
# Indices 1 2 3 4 5 6 
#
# 1 0.016447 0.001496 -0.001754 0.000000 0.000000 0.000000
# 2 0.001496 0.019420 -0.003983 0.000000 0.000000 0.000000
# 3 -0.001754 -0.003983 0.006968 0.000000 0.000000 0.000000
# 4 0.000000 0.000000 0.000000 0.028415 0.000000 0.000000
# 5 0.000000 0.000000 0.000000 0.000000 0.045587 0.000000
# 6 0.000000 0.000000 0.000000 0.000000 0.000000 0.048023
#
#
# Mechanical properties :
#
#
# Convention : Reuss Voigt Hill
#
# Bulk Modulus (GPa) = 29.10937 42.06666 35.58801
# Shear Modulus (GPa) = 27.05721 31.66430 29.36075
#
# Velocity S-wave (km/s) = 3.30208 3.57216 3.43977
# Velocity P-wave (km/s) = 5.12533 5.82805 5.48795
#
# Compressibility (1/GPa) = 0.03435320
#
# Stress axis : x y z
#
# Youngs Moduli (GPa) = 60.79952 51.49399 143.50594
#
# Poissons Ratio (x) = -0.07702 0.25176
# Poissons Ratio (y) = -0.09094 0.57153
# Poissons Ratio (z) = 0.10666 0.20508
#
# Static dielectric constant tensor:
#      x y z
#    x 1.962270 0.000000 0.000000 
#    y 0.000000 2.115450 0.000000 
#    z 0.000000 0.000000 2.100020 
# 
# From -- ./inp_files/3892.got.cif
#   From: 2010.05.17/outbox.cif.g08.bks.cpg/sg29_2_cif.got.tgz:3892.got - 2010.06.04 01:19:37.
