data_PCOD9340510
_publ_section_title
;
Structure prediction by ZEFSAII (Michael W. Deem and Ramdas Pophale) SiO2 
 PCOD9340510
Probable space group: P C A 21
;
_chemical_formula_sum "Si O2"
_cell_formula_units_Z 32
_cell_length_a 21.876708
_cell_length_b 5.140824
_cell_length_c 10.034596
_cell_angle_alpha 90.000000
_cell_angle_beta 90.000000
_cell_angle_gamma 90.000000
_cell_volume 1128.533870
_symmetry_space_group_name_H-M "P C A 21"
_symmetry_group_IT_number 29
_symmetry_cell_setting 'orthorhombic'
loop_
_space_group_symop_operation_xyz
x,y,z
-x,-y,1/2+z
1/2-x,y,1/2+z
1/2+x,-y,z
loop_
_atom_site_type_symbol
_atom_site_label
_atom_site_fract_x
_atom_site_fract_y
_atom_site_fract_z
Si Si1 0.199072 0.890595 0.147390
Si Si2 0.404688 0.275604 0.933418
Si Si3 0.655825 0.594476 0.018631
Si Si4 0.973182 0.496823 0.523462
Si Si5 0.395756 0.947521 0.208137
Si Si6 0.188784 0.583028 0.563830
Si Si7 0.277888 0.212616 0.296600
Si Si8 0.527712 0.996192 0.211058
O O1 0.163844 0.622216 0.132594
O O2 0.263632 0.823707 0.070358
O O3 0.160575 0.118583 0.079028
O O4 0.223049 0.009354 0.285597
O O5 0.466183 0.451064 0.938170
O O6 0.401035 0.118331 0.072475
O O7 0.344025 0.454035 0.936405
O O8 0.419163 0.073708 0.815268
O O9 0.592040 0.517558 0.950250
O O10 0.712377 0.585901 0.915437
O O11 0.976681 0.765192 0.603508
O O12 0.968742 0.265046 0.631912
O O13 0.341127 0.053285 0.298361
O O14 0.370686 0.676599 0.150711
O O15 0.460725 0.973353 0.279558
O O16 0.220985 0.370696 0.659026
#
# Coordination Sequence:
#
# PCOD9340510 Si02
#       8
#     4   4   4   4   4   4   4   4
#     4  11  25  48  67 104 136 175 253 299 338 435
#     4  10  23  41  71 101 147 189 226 290 365 421
#     4  12  27  47  72 100 146 188 232 299 372 419
#     4  11  26  45  65 107 148 179 239 292 351 452
#     4   9  21  39  68 103 137 172 247 284 328 446
#     4  10  20  46  70 102 134 177 247 289 331 440
#     4  10  24  45  75  99 131 194 238 295 359 418
#     4  11  24  43  66 106 145 186 222 292 368 415
#
# _framework density 28.355374000000001
#
# number of rings (size 3 to 8) (size 9 to 14) (size 15 to 20)
#    0.000    1.500    2.500    0.750    7.000    2.000 
#    6.750    0.000    0.000    0.000    0.000    0.000 
#    0.000    0.000    0.000    0.000    0.000    0.000 
#
# Total GULP energy -179298.198680 kJ/mol
# GULP energy per Si atom -5603.068709 kJ/mol
# Density = 2.829084 g / cm^3
# Si number density = 28.355374 Si / 1000 Ang^3
#
#
#
# Elastic Constant Matrix: (Units=GPa)
#
#
# Indices 1 2 3 4 5 6 
#
# 1 125.4923 23.9072 -8.0026 0.0000 0.0000 0.0000
# 2 23.9072 152.2129 22.3878 0.0000 0.0000 0.0000
# 3 -8.0026 22.3878 87.7940 0.0000 0.0000 0.0000
# 4 0.0000 0.0000 0.0000 37.4261 0.0000 0.0000
# 5 0.0000 0.0000 0.0000 0.0000 28.3610 0.0000
# 6 0.0000 0.0000 0.0000 0.0000 0.0000 49.8638
#
#
#
# Elastic Compliance Matrix: (Units=1/GPa)
#
#
# Indices 1 2 3 4 5 6 
#
# 1 0.008322 -0.001474 0.001134 0.000000 0.000000 0.000000
# 2 -0.001474 0.007087 -0.001942 0.000000 0.000000 0.000000
# 3 0.001134 -0.001942 0.011989 0.000000 0.000000 0.000000
# 4 0.000000 0.000000 0.000000 0.026719 0.000000 0.000000
# 5 0.000000 0.000000 0.000000 0.000000 0.035260 0.000000
# 6 0.000000 0.000000 0.000000 0.000000 0.000000 0.020055
#
#
# Mechanical properties :
#
#
# Convention : Reuss Voigt Hill
#
# Bulk Modulus (GPa) = 43.79182 49.12045 46.45614
# Shear Modulus (GPa) = 41.11681 44.94397 43.03039
#
# Velocity S-wave (km/s) = 3.81209 3.98556 3.89979
# Velocity P-wave (km/s) = 5.90368 6.20808 6.05780
#
# Compressibility (1/GPa) = 0.02283531
#
# Stress axis : x y z
#
# Youngs Moduli (GPa) = 120.16706 141.10736 83.41125
#
# Poissons Ratio (x) = 0.20798 -0.09462
# Poissons Ratio (y) = 0.17711 0.16194
# Poissons Ratio (z) = -0.13632 0.27396
#
# Static dielectric constant tensor:
#      x y z
#    x 2.344790 0.000000 0.000000 
#    y 0.000000 2.198770 0.000000 
#    z 0.000000 0.000000 2.191420 
# 
# From -- ./inp_files/3958.got.cif
#   From: 2010.05.17/outbox.cif.g08.bks.cpg/sg29_2_cif.got.tgz:3958.got - 2010.06.04 01:19:37.
