data_PCOD9340834
_publ_section_title
;
Structure prediction by ZEFSAII (Michael W. Deem and Ramdas Pophale) SiO2 
 PCOD9340834
Probable space group: P C A 21
;
_chemical_formula_sum "Si O2"
_cell_formula_units_Z 20
_cell_length_a 13.968050
_cell_length_b 6.199951
_cell_length_c 8.972586
_cell_angle_alpha 90.000000
_cell_angle_beta 90.000000
_cell_angle_gamma 90.000000
_cell_volume 777.036944
_symmetry_space_group_name_H-M "P C A 21"
_symmetry_group_IT_number 29
_symmetry_cell_setting 'orthorhombic'
loop_
_space_group_symop_operation_xyz
x,y,z
-x,-y,1/2+z
1/2-x,y,1/2+z
1/2+x,-y,z
loop_
_atom_site_type_symbol
_atom_site_label
_atom_site_fract_x
_atom_site_fract_y
_atom_site_fract_z
Si Si1 0.697108 0.602738 0.238190
Si Si2 0.156884 0.774569 0.757052
Si Si3 0.268607 0.021386 0.531606
Si Si4 0.942967 0.217607 0.695079
Si Si5 0.542006 0.852221 0.402483
O O1 0.784285 0.445922 0.283412
O O2 0.730663 0.737992 0.095577
O O3 0.608636 0.444264 0.203660
O O4 0.645252 0.761247 0.355745
O O5 0.046932 0.751880 0.806597
O O6 0.182376 0.870031 0.594172
O O7 0.203206 0.956079 0.864905
O O8 0.362312 0.929517 0.618239
O O9 0.026534 0.206333 0.574293
O O10 0.966794 0.102287 0.850624
#
# Coordination Sequence:
#
# PCOD9340834 Si02
#       5
#     4   4   4   4   4
#     4  10  22  40  63  93 128 165 214 265 320 389
#     4  10  22  39  61  92 128 169 214 264 322 379
#     4   9  21  39  58  86 126 162 207 267 315 376
#     4   9  21  40  59  86 122 160 209 262 314 380
#     4  10  22  40  63  89 124 166 208 264 319 376
#
# _framework density 25.738802
#
# number of rings (size 3 to 8) (size 9 to 14) (size 15 to 20)
#    0.000    2.400    0.000    0.000    0.000   17.600 
#    0.000    0.000    0.000    0.000    0.000    0.000 
#    0.000    0.000    0.000    0.000    0.000    0.000 
#
# Total GULP energy -111810.599180 kJ/mol
# GULP energy per Si atom -5590.529959 kJ/mol
# Density = 2.568022 g / cm^3
# Si number density = 25.738802 Si / 1000 Ang^3
#
#
#
# Elastic Constant Matrix: (Units=GPa)
#
#
# Indices 1 2 3 4 5 6 
#
# 1 141.6454 36.5448 12.0323 0.0000 0.0000 0.0000
# 2 36.5448 101.7663 13.2271 0.0000 0.0000 0.0000
# 3 12.0323 13.2271 79.7640 0.0000 0.0000 0.0000
# 4 0.0000 0.0000 0.0000 20.0273 0.0000 0.0000
# 5 0.0000 0.0000 0.0000 0.0000 49.9842 0.0000
# 6 0.0000 0.0000 0.0000 0.0000 0.0000 45.4692
#
#
#
# Elastic Compliance Matrix: (Units=1/GPa)
#
#
# Indices 1 2 3 4 5 6 
#
# 1 0.007822 -0.002714 -0.000730 0.000000 0.000000 0.000000
# 2 -0.002714 0.010985 -0.001412 0.000000 0.000000 0.000000
# 3 -0.000730 -0.001412 0.012881 0.000000 0.000000 0.000000
# 4 0.000000 0.000000 0.000000 0.049932 0.000000 0.000000
# 5 0.000000 0.000000 0.000000 0.000000 0.020006 0.000000
# 6 0.000000 0.000000 0.000000 0.000000 0.000000 0.021993
#
#
# Mechanical properties :
#
#
# Convention : Reuss Voigt Hill
#
# Bulk Modulus (GPa) = 45.50463 49.64264 47.57363
# Shear Modulus (GPa) = 35.54754 40.52089 38.03421
#
# Velocity S-wave (km/s) = 3.72033 3.97206 3.84826
# Velocity P-wave (km/s) = 6.01434 6.35337 6.18618
#
# Compressibility (1/GPa) = 0.02197579
#
# Stress axis : x y z
#
# Youngs Moduli (GPa) = 127.84245 91.03631 77.63215
#
# Poissons Ratio (x) = 0.24708 0.05666
# Poissons Ratio (y) = 0.34698 0.10963
# Poissons Ratio (z) = 0.09331 0.12856
#
# Static dielectric constant tensor:
#      x y z
#    x 2.053890 0.000000 0.000000 
#    y 0.000000 2.077950 0.000000 
#    z 0.000000 0.000000 2.119390 
# 
# From -- ./inp_files/1945.got.cif
#   From: 2010.05.17/outbox.cif.g08.bks.cpg/sg29_1_cif.got.tgz:1945.got - 2010.06.04 01:19:37.
