data_PCOD9340131
_publ_section_title
;
Structure prediction by ZEFSAII (Michael W. Deem and Ramdas Pophale) SiO2 
 PCOD9340131
Probable space group: P C A 21
;
_chemical_formula_sum "Si O2"
_cell_formula_units_Z 32
_cell_length_a 10.544996
_cell_length_b 6.834508
_cell_length_c 16.746851
_cell_angle_alpha 90.000000
_cell_angle_beta 90.000000
_cell_angle_gamma 90.000000
_cell_volume 1206.943199
_symmetry_space_group_name_H-M "P C A 21"
_symmetry_group_IT_number 29
_symmetry_cell_setting 'orthorhombic'
loop_
_space_group_symop_operation_xyz
x,y,z
-x,-y,1/2+z
1/2-x,y,1/2+z
1/2+x,-y,z
loop_
_atom_site_type_symbol
_atom_site_label
_atom_site_fract_x
_atom_site_fract_y
_atom_site_fract_z
Si Si1 0.281640 0.908531 0.469080
Si Si2 0.958663 0.496378 0.901142
Si Si3 0.040178 0.963192 0.420023
Si Si4 0.707027 0.600181 0.810142
Si Si5 0.138555 0.939933 0.801547
Si Si6 0.192739 0.409383 0.136685
Si Si7 0.801063 0.998300 0.129567
Si Si8 0.046159 0.358323 0.571423
O O1 0.292300 0.832872 0.376065
O O2 0.244271 0.855601 0.559482
O O3 0.076742 0.144694 0.610401
O O4 0.165068 0.056725 0.455335
O O5 0.825094 0.564368 0.867654
O O6 0.941672 0.269151 0.924450
O O7 0.073552 0.494092 0.837631
O O8 0.999441 0.617209 0.979700
O O9 0.006421 0.048201 0.332980
O O10 0.916760 0.992272 0.472796
O O11 0.677859 0.831658 0.807118
O O12 0.753591 0.535639 0.723380
O O13 0.169131 0.889962 0.711494
O O14 0.191412 0.169605 0.138077
O O15 0.310541 0.445499 0.075883
O O16 0.060806 0.516610 0.118193
#
# Coordination Sequence:
#
# PCOD9340131 Si02
#       8
#     4   4   4   4   4   4   4   4
#     4  10  19  42  59  80 109 156 200 239 278 341
#     4  11  20  35  56  86 113 154 182 241 285 359
#     4   9  22  38  59  76 119 147 199 240 287 323
#     4  10  19  34  58  81 115 150 184 222 307 343
#     4   8  19  38  60  80 116 149 187 239 288 343
#     4   9  19  31  51  84 114 146 177 233 281 360
#     4   9  19  36  63  80 113 161 181 235 303 333
#     4  10  19  32  54  85 115 141 190 225 295 350
#
# _framework density 26.513259999999999
#
# number of rings (size 3 to 8) (size 9 to 14) (size 15 to 20)
#    1.500    1.000    0.000    3.000    1.750    0.000 
#    9.000    0.000    2.750    0.000    0.000    0.000 
#    0.000    0.000    0.000    0.000    0.000    0.000 
#
# Total GULP energy -178355.883175 kJ/mol
# GULP energy per Si atom -5573.621349 kJ/mol
# Density = 2.645291 g / cm^3
# Si number density = 26.513260 Si / 1000 Ang^3
#
#
#
# Elastic Constant Matrix: (Units=GPa)
#
#
# Indices 1 2 3 4 5 6 
#
# 1 104.4969 18.1171 -5.4753 0.0000 0.0000 0.0000
# 2 18.1171 109.6437 7.0834 0.0000 0.0000 0.0000
# 3 -5.4753 7.0834 148.9351 0.0000 0.0000 0.0000
# 4 0.0000 0.0000 0.0000 9.4716 0.0000 0.0000
# 5 0.0000 0.0000 0.0000 0.0000 43.7015 0.0000
# 6 0.0000 0.0000 0.0000 0.0000 0.0000 20.8534
#
#
#
# Elastic Compliance Matrix: (Units=1/GPa)
#
#
# Indices 1 2 3 4 5 6 
#
# 1 0.009881 -0.001661 0.000442 0.000000 0.000000 0.000000
# 2 -0.001661 0.009428 -0.000509 0.000000 0.000000 0.000000
# 3 0.000442 -0.000509 0.006755 0.000000 0.000000 0.000000
# 4 0.000000 0.000000 0.000000 0.105579 0.000000 0.000000
# 5 0.000000 0.000000 0.000000 0.000000 0.022882 0.000000
# 6 0.000000 0.000000 0.000000 0.000000 0.000000 0.047954
#
#
# Mechanical properties :
#
#
# Convention : Reuss Voigt Hill
#
# Bulk Modulus (GPa) = 44.23479 44.72511 44.47995
# Shear Modulus (GPa) = 23.42232 37.69534 30.55883
#
# Velocity S-wave (km/s) = 2.97546 3.77471 3.39866
# Velocity P-wave (km/s) = 5.34086 5.99195 5.67575
#
# Compressibility (1/GPa) = 0.02260664
#
# Stress axis : x y z
#
# Youngs Moduli (GPa) = 101.20588 106.06862 148.04234
#
# Poissons Ratio (x) = 0.17621 -0.06547
# Poissons Ratio (y) = 0.16813 0.07542
# Poissons Ratio (z) = -0.04476 0.05404
#
# Static dielectric constant tensor:
#      x y z
#    x 2.134810 0.000000 0.000000 
#    y 0.000000 2.143310 0.000000 
#    z 0.000000 0.000000 2.157690 
# 
# From -- ./inp_files/4561.got.cif
#   From: 2010.05.17/outbox.cif.g08.bks.cpg/sg29_3_cif.got.tgz:4561.got - 2010.06.04 01:19:37.
