data_PCOD9340513
_publ_section_title
;
Structure prediction by ZEFSAII (Michael W. Deem and Ramdas Pophale) SiO2 
 PCOD9340513
Probable space group: P C A 21
;
_chemical_formula_sum "Si O2"
_cell_formula_units_Z 20
_cell_length_a 14.653277
_cell_length_b 9.243626
_cell_length_c 5.479704
_cell_angle_alpha 90.000000
_cell_angle_beta 90.000000
_cell_angle_gamma 90.000000
_cell_volume 742.222686
_symmetry_space_group_name_H-M "P C A 21"
_symmetry_group_IT_number 29
_symmetry_cell_setting 'orthorhombic'
loop_
_space_group_symop_operation_xyz
x,y,z
-x,-y,1/2+z
1/2-x,y,1/2+z
1/2+x,-y,z
loop_
_atom_site_type_symbol
_atom_site_label
_atom_site_fract_x
_atom_site_fract_y
_atom_site_fract_z
Si Si1 0.627688 0.000221 0.292250
Si Si2 0.991243 0.423061 0.297307
Si Si3 0.792683 0.423624 0.160134
Si Si4 0.409348 0.970854 0.287969
Si Si5 0.653340 0.743886 0.559546
O O1 0.632879 0.089585 0.539744
O O2 0.518933 0.955631 0.286434
O O3 0.639047 0.074623 0.035694
O O4 0.704189 0.602269 0.656003
O O5 0.890023 0.368657 0.252891
O O6 0.022456 0.463505 0.022600
O O7 0.067051 0.326023 0.421011
O O8 0.775481 0.384617 0.878657
O O9 0.688620 0.858720 0.352546
O O10 0.387925 0.144090 0.258980
#
# Coordination Sequence:
#
# PCOD9340513 Si02
#       5
#     4   4   4   4   4
#     4   8  15  26  45  75 101 117 154 211 250 290
#     4  10  21  35  53  75  98 133 181 221 249 307
#     4  11  23  36  49  74 108 139 172 219 272 322
#     4   8  15  26  45  75 101 116 155 209 252 288
#     4   9  20  31  56  71 102 135 176 208 265 307
#
# _framework density 26.946092
#
# number of rings (size 3 to 8) (size 9 to 14) (size 15 to 20)
#    1.200    1.600    0.000    2.400    8.400    0.000 
#    0.000    0.000    0.000    0.000    0.000    8.400 
#    0.000    0.000    0.000    0.000    0.000    0.000 
#
# Total GULP energy -111496.472469 kJ/mol
# GULP energy per Si atom -5574.823623 kJ/mol
# Density = 2.688476 g / cm^3
# Si number density = 26.946092 Si / 1000 Ang^3
#
#
#
# Elastic Constant Matrix: (Units=GPa)
#
#
# Indices 1 2 3 4 5 6 
#
# 1 92.8349 2.3503 19.2494 0.0000 0.0000 0.0000
# 2 2.3503 68.5988 17.8789 0.0000 0.0000 0.0000
# 3 19.2494 17.8789 202.3003 0.0000 0.0000 0.0000
# 4 0.0000 0.0000 0.0000 23.9988 0.0000 0.0000
# 5 0.0000 0.0000 0.0000 0.0000 30.6324 0.0000
# 6 0.0000 0.0000 0.0000 0.0000 0.0000 22.6256
#
#
#
# Elastic Compliance Matrix: (Units=1/GPa)
#
#
# Indices 1 2 3 4 5 6 
#
# 1 0.010989 -0.000106 -0.001036 0.000000 0.000000 0.000000
# 2 -0.000106 0.014922 -0.001309 0.000000 0.000000 0.000000
# 3 -0.001036 -0.001309 0.005157 0.000000 0.000000 0.000000
# 4 0.000000 0.000000 0.000000 0.041669 0.000000 0.000000
# 5 0.000000 0.000000 0.000000 0.000000 0.032645 0.000000
# 6 0.000000 0.000000 0.000000 0.000000 0.000000 0.044198
#
#
# Mechanical properties :
#
#
# Convention : Reuss Voigt Hill
#
# Bulk Modulus (GPa) = 38.21711 49.18791 43.70251
# Shear Modulus (GPa) = 30.63626 37.06841 33.85233
#
# Velocity S-wave (km/s) = 3.37552 3.71300 3.54828
# Velocity P-wave (km/s) = 5.42271 6.05604 5.74811
#
# Compressibility (1/GPa) = 0.02616629
#
# Stress axis : x y z
#
# Youngs Moduli (GPa) = 90.99699 67.01408 193.89584
#
# Poissons Ratio (x) = 0.00713 0.20093
# Poissons Ratio (y) = 0.00968 0.25375
# Poissons Ratio (z) = 0.09430 0.08770
#
# Static dielectric constant tensor:
#      x y z
#    x 2.048570 0.000000 0.000000 
#    y 0.000000 2.170010 0.000000 
#    z 0.000000 0.000000 2.157540 
# 
# From -- ./inp_files/152.got.cif
#   From: 2010.05.17/outbox.cif.g08.bks.cpg/sg29_1_cif.got.tgz:152.got - 2010.06.04 01:19:37.
