data_PCOD9340337
_publ_section_title
;
Structure prediction by ZEFSAII (Michael W. Deem and Ramdas Pophale) SiO2 
 PCOD9340337
Probable space group: P C A 21
;
_chemical_formula_sum "Si O2"
_cell_formula_units_Z 32
_cell_length_a 8.282483
_cell_length_b 9.406016
_cell_length_c 18.995996
_cell_angle_alpha 90.000000
_cell_angle_beta 90.000000
_cell_angle_gamma 90.000000
_cell_volume 1479.886252
_symmetry_space_group_name_H-M "P C A 21"
_symmetry_group_IT_number 29
_symmetry_cell_setting 'orthorhombic'
loop_
_space_group_symop_operation_xyz
x,y,z
-x,-y,1/2+z
1/2-x,y,1/2+z
1/2+x,-y,z
loop_
_atom_site_type_symbol
_atom_site_label
_atom_site_fract_x
_atom_site_fract_y
_atom_site_fract_z
Si Si1 0.944045 0.924189 0.216540
Si Si2 0.925357 0.224099 0.070539
Si Si3 0.912903 0.217353 0.909201
Si Si4 0.077647 0.932125 0.071546
Si Si5 0.444582 0.915151 0.411750
Si Si6 0.889668 0.817335 0.776075
Si Si7 0.109963 0.669117 0.266324
Si Si8 0.551603 0.419829 0.704787
O O1 0.960216 0.888988 0.134667
O O2 0.781993 0.874964 0.252869
O O3 0.089323 0.835698 0.251008
O O4 0.980014 0.087674 0.232904
O O5 0.754162 0.138793 0.081413
O O6 0.941745 0.350165 0.127222
O O7 0.066425 0.104488 0.075841
O O8 0.924758 0.272528 0.989112
O O9 0.735591 0.144515 0.900924
O O10 0.930435 0.336174 0.849136
O O11 0.036548 0.084979 0.900496
O O12 0.015909 0.892565 0.993949
O O13 0.563231 0.839549 0.356892
O O14 0.911612 0.658951 0.748883
O O15 0.285788 0.619174 0.245391
O O16 0.988628 0.584460 0.215179
#
# Coordination Sequence:
#
# PCOD9340337 Si02
#       8
#     4   4   4   4   4   4   4   4
#     4  12  22  37  64  96 128 165 215 269 328 385
#     4  10  21  39  64  97 132 168 211 271 334 393
#     4  10  21  39  64  97 132 168 211 271 334 393
#     4  10  20  36  62  97 131 164 210 266 327 384
#     4  10  20  36  62  97 131 164 210 266 327 384
#     4  12  22  37  64  96 128 165 215 269 328 385
#     4  12  25  44  62  89 129 173 221 271 323 387
#     4  12  25  44  62  89 129 173 221 271 323 387
#
# _framework density 21.623283000000001
#
# number of rings (size 3 to 8) (size 9 to 14) (size 15 to 20)
#    0.000    1.000    5.000    3.000    0.000    0.000 
#    0.000    2.500    0.000    0.000    0.000    0.000 
#    0.000    0.000    0.000    0.000    0.000    0.000 
#
# Total GULP energy -178748.260175 kJ/mol
# GULP energy per Si atom -5585.883130 kJ/mol
# Density = 2.157407 g / cm^3
# Si number density = 21.623283 Si / 1000 Ang^3
#
#
#
# Elastic Constant Matrix: (Units=GPa)
#
#
# Indices 1 2 3 4 5 6 
#
# 1 66.9765 8.3373 22.6183 0.0000 0.0000 0.0000
# 2 8.3373 58.8112 35.1628 0.0000 0.0000 0.0000
# 3 22.6183 35.1628 182.7320 0.0000 0.0000 0.0000
# 4 0.0000 0.0000 0.0000 29.9853 0.0000 0.0000
# 5 0.0000 0.0000 0.0000 0.0000 28.0774 0.0000
# 6 0.0000 0.0000 0.0000 0.0000 0.0000 21.1756
#
#
#
# Elastic Compliance Matrix: (Units=1/GPa)
#
#
# Indices 1 2 3 4 5 6 
#
# 1 0.015656 -0.001199 -0.001707 0.000000 0.000000 0.000000
# 2 -0.001199 0.019306 -0.003567 0.000000 0.000000 0.000000
# 3 -0.001707 -0.003567 0.006370 0.000000 0.000000 0.000000
# 4 0.000000 0.000000 0.000000 0.033350 0.000000 0.000000
# 5 0.000000 0.000000 0.000000 0.000000 0.035616 0.000000
# 6 0.000000 0.000000 0.000000 0.000000 0.000000 0.047224
#
#
# Mechanical properties :
#
#
# Convention : Reuss Voigt Hill
#
# Bulk Modulus (GPa) = 35.22710 48.97292 42.10001
# Shear Modulus (GPa) = 27.78863 32.00776 29.89819
#
# Velocity S-wave (km/s) = 3.58875 3.85157 3.72248
# Velocity P-wave (km/s) = 5.78782 6.51743 6.16343
#
# Compressibility (1/GPa) = 0.02838724
#
# Stress axis : x y z
#
# Youngs Moduli (GPa) = 63.87169 51.79745 156.98248
#
# Poissons Ratio (x) = 0.06209 0.26801
# Poissons Ratio (y) = 0.07657 0.55990
# Poissons Ratio (z) = 0.10905 0.18474
#
# Static dielectric constant tensor:
#      x y z
#    x 1.809490 0.000000 0.000000 
#    y 0.000000 1.747240 0.000000 
#    z 0.000000 0.000000 1.851690 
# 
# From -- ./inp_files/5421.got.cif
#   From: 2010.05.17/outbox.cif.g08.bks.cpg/sg29_3_cif.got.tgz:5421.got - 2010.06.04 01:19:37.
