data_PCOD9340863
_publ_section_title
;
Structure prediction by ZEFSAII (Michael W. Deem and Ramdas Pophale) SiO2 
 PCOD9340863
Probable space group: P C A 21
;
_chemical_formula_sum "Si O2"
_cell_formula_units_Z 16
_cell_length_a 15.115971
_cell_length_b 5.770415
_cell_length_c 8.055888
_cell_angle_alpha 90.000000
_cell_angle_beta 90.000000
_cell_angle_gamma 90.000000
_cell_volume 702.678261
_symmetry_space_group_name_H-M "P C A 21"
_symmetry_group_IT_number 29
_symmetry_cell_setting 'orthorhombic'
loop_
_space_group_symop_operation_xyz
x,y,z
-x,-y,1/2+z
1/2-x,y,1/2+z
1/2+x,-y,z
loop_
_atom_site_type_symbol
_atom_site_label
_atom_site_fract_x
_atom_site_fract_y
_atom_site_fract_z
Si Si1 0.586225 0.025724 0.111670
Si Si2 0.685939 0.421891 0.260184
Si Si3 0.640075 0.632156 0.902860
Si Si4 0.025993 0.338398 0.379864
O O1 0.658897 0.154500 0.228320
O O2 0.537759 0.838076 0.226770
O O3 0.512700 0.194904 0.033751
O O4 0.632608 0.902652 0.951755
O O5 0.782747 0.518894 0.294979
O O6 0.619899 0.533108 0.396156
O O7 0.658790 0.524243 0.083197
O O8 0.546239 0.535539 0.843511
#
# Coordination Sequence:
#
# PCOD9340863 Si02
#       4
#     4   4   4   4
#     4  10  22  40  62  90 128 168 204 260 316 360
#     4  10  23  39  60  91 124 164 212 255 308 375
#     4  10  23  39  60  91 124 164 212 255 308 375
#     4  10  22  40  62  90 124 166 214 254 312 378
#
# _framework density 22.770022999999998
#
# number of rings (size 3 to 8) (size 9 to 14) (size 15 to 20)
#    0.000    2.000    0.000    1.500    0.000   20.000 
#    0.000    0.000    0.000    0.000    0.000    0.000 
#    0.000    0.000    0.000    0.000    0.000    0.000 
#
# Total GULP energy -89225.361009 kJ/mol
# GULP energy per Si atom -5576.585063 kJ/mol
# Density = 2.271820 g / cm^3
# Si number density = 22.770023 Si / 1000 Ang^3
#
#
#
# Elastic Constant Matrix: (Units=GPa)
#
#
# Indices 1 2 3 4 5 6 
#
# 1 54.9715 10.3729 17.6722 0.0000 0.0000 0.0000
# 2 10.3729 89.5921 30.2525 0.0000 0.0000 0.0000
# 3 17.6722 30.2525 67.3456 0.0000 0.0000 0.0000
# 4 0.0000 0.0000 0.0000 34.1483 0.0000 0.0000
# 5 0.0000 0.0000 0.0000 0.0000 25.5118 0.0000
# 6 0.0000 0.0000 0.0000 0.0000 0.0000 13.7257
#
#
#
# Elastic Compliance Matrix: (Units=1/GPa)
#
#
# Indices 1 2 3 4 5 6 
#
# 1 0.019898 -0.000637 -0.004935 0.000000 0.000000 0.000000
# 2 -0.000637 0.013178 -0.005752 0.000000 0.000000 0.000000
# 3 -0.004935 -0.005752 0.018728 0.000000 0.000000 0.000000
# 4 0.000000 0.000000 0.000000 0.029284 0.000000 0.000000
# 5 0.000000 0.000000 0.000000 0.000000 0.039198 0.000000
# 6 0.000000 0.000000 0.000000 0.000000 0.000000 0.072856
#
#
# Mechanical properties :
#
#
# Convention : Reuss Voigt Hill
#
# Bulk Modulus (GPa) = 34.30062 36.50048 35.40055
# Shear Modulus (GPa) = 22.17201 24.91791 23.54496
#
# Velocity S-wave (km/s) = 3.12386 3.31165 3.21913
# Velocity P-wave (km/s) = 5.30170 5.53964 5.42197
#
# Compressibility (1/GPa) = 0.02915399
#
# Stress axis : x y z
#
# Youngs Moduli (GPa) = 50.25611 75.88456 53.39632
#
# Poissons Ratio (x) = 0.04836 0.26352
# Poissons Ratio (y) = 0.03203 0.30716
# Poissons Ratio (z) = 0.24802 0.43652
#
# Static dielectric constant tensor:
#      x y z
#    x 1.897680 0.000000 0.000000 
#    y 0.000000 2.064570 0.000000 
#    z 0.000000 0.000000 1.878590 
# 
# From -- ./inp_files/1296.got.cif
#   From: 2010.05.17/outbox.cif.g08.bks.cpg/sg29_1_cif.got.tgz:1296.got - 2010.06.04 01:19:37.
