data_PCOD9340953
_publ_section_title
;
Structure prediction by ZEFSAII (Michael W. Deem and Ramdas Pophale) SiO2 
 PCOD9340953
Probable space group: P C A 21
;
_chemical_formula_sum "Si O2"
_cell_formula_units_Z 32
_cell_length_a 22.118924
_cell_length_b 5.331135
_cell_length_c 12.543976
_cell_angle_alpha 90.000000
_cell_angle_beta 90.000000
_cell_angle_gamma 90.000000
_cell_volume 1479.172728
_symmetry_space_group_name_H-M "P C A 21"
_symmetry_group_IT_number 29
_symmetry_cell_setting 'orthorhombic'
loop_
_space_group_symop_operation_xyz
x,y,z
-x,-y,1/2+z
1/2-x,y,1/2+z
1/2+x,-y,z
loop_
_atom_site_type_symbol
_atom_site_label
_atom_site_fract_x
_atom_site_fract_y
_atom_site_fract_z
Si Si1 0.709590 0.047638 0.171030
Si Si2 0.581852 0.767746 0.895569
Si Si3 0.556577 0.288056 0.337213
Si Si4 0.610599 0.781211 0.275600
Si Si5 0.637485 0.248737 0.975819
Si Si6 0.326433 0.239799 0.204962
Si Si7 0.754866 0.370039 0.348956
Si Si8 0.149923 0.467311 0.481750
O O1 0.665716 0.812896 0.194324
O O2 0.779854 0.969574 0.157537
O O3 0.709323 0.211670 0.277985
O O4 0.676618 0.206011 0.081039
O O5 0.512366 0.710681 0.872877
O O6 0.611047 0.525216 0.954649
O O7 0.617720 0.812664 0.783994
O O8 0.590127 0.023246 0.962725
O O9 0.572582 0.527557 0.263227
O O10 0.600463 0.331383 0.440345
O O11 0.571394 0.031783 0.276648
O O12 0.636831 0.753218 0.396031
O O13 0.688015 0.208514 0.883906
O O14 0.281814 0.406955 0.278473
O O15 0.352107 0.388943 0.103377
O O16 0.718013 0.454924 0.451914
#
# Coordination Sequence:
#
# PCOD9340953 Si02
#       8
#     4   4   4   4   4   4   4   4
#     4  12  23  40  67 102 133 172 225 277 353 402
#     4  11  25  50  62 101 135 179 223 281 331 395
#     4  10  22  45  71  84 141 174 223 279 319 393
#     4  10  22  42  67  98 125 175 219 278 327 395
#     4  11  27  40  71  95 138 174 218 279 341 402
#     4  11  24  40  67 101 134 176 221 275 346 406
#     4  11  22  43  65 100 137 171 215 286 333 411
#     4  10  23  40  68  99 133 177 222 271 340 400
#
# _framework density 21.633714999999999
#
# number of rings (size 3 to 8) (size 9 to 14) (size 15 to 20)
#    0.750    0.500    3.750    1.500    7.000    1.000 
#    4.500    0.000    0.000    0.000    0.000    0.000 
#    0.000    0.000    0.000    0.000    0.000    0.000 
#
# Total GULP energy -178553.566593 kJ/mol
# GULP energy per Si atom -5579.798956 kJ/mol
# Density = 2.158448 g / cm^3
# Si number density = 21.633715 Si / 1000 Ang^3
#
#
#
# Elastic Constant Matrix: (Units=GPa)
#
#
# Indices 1 2 3 4 5 6 
#
# 1 104.9698 26.1215 15.4470 0.0000 0.0000 0.0000
# 2 26.1215 93.3997 5.0418 0.0000 0.0000 0.0000
# 3 15.4470 5.0418 30.3035 0.0000 0.0000 0.0000
# 4 0.0000 0.0000 0.0000 12.2601 0.0000 0.0000
# 5 0.0000 0.0000 0.0000 0.0000 16.2293 0.0000
# 6 0.0000 0.0000 0.0000 0.0000 0.0000 27.4640
#
#
#
# Elastic Compliance Matrix: (Units=1/GPa)
#
#
# Indices 1 2 3 4 5 6 
#
# 1 0.010977 -0.002793 -0.005131 0.000000 0.000000 0.000000
# 2 -0.002793 0.011514 -0.000492 0.000000 0.000000 0.000000
# 3 -0.005131 -0.000492 0.035697 0.000000 0.000000 0.000000
# 4 0.000000 0.000000 0.000000 0.081565 0.000000 0.000000
# 5 0.000000 0.000000 0.000000 0.000000 0.061617 0.000000
# 6 0.000000 0.000000 0.000000 0.000000 0.000000 0.036411
#
#
# Mechanical properties :
#
#
# Convention : Reuss Voigt Hill
#
# Bulk Modulus (GPa) = 24.18003 35.76596 29.97300
# Shear Modulus (GPa) = 18.62909 23.32820 20.97865
#
# Velocity S-wave (km/s) = 2.93766 3.28735 3.11741
# Velocity P-wave (km/s) = 4.76526 5.56573 5.18098
#
# Compressibility (1/GPa) = 0.04135644
#
# Stress axis : x y z
#
# Youngs Moduli (GPa) = 91.10326 86.84822 28.01390
#
# Poissons Ratio (x) = 0.24256 0.14373
# Poissons Ratio (y) = 0.25444 0.01378
# Poissons Ratio (z) = 0.46741 0.04273
#
# Static dielectric constant tensor:
#      x y z
#    x 1.782860 0.000000 0.000000 
#    y 0.000000 1.851590 0.000000 
#    z 0.000000 0.000000 1.784130 
# 
# From -- ./inp_files/3962.got.cif
#   From: 2010.05.17/outbox.cif.g08.bks.cpg/sg29_2_cif.got.tgz:3962.got - 2010.06.04 01:19:37.
