data_PCOD9340466
_publ_section_title
;
Structure prediction by ZEFSAII (Michael W. Deem and Ramdas Pophale) SiO2 
 PCOD9340466
Probable space group: P C A 21
;
_chemical_formula_sum "Si O2"
_cell_formula_units_Z 32
_cell_length_a 10.348126
_cell_length_b 9.311491
_cell_length_c 13.740158
_cell_angle_alpha 90.000000
_cell_angle_beta 90.000000
_cell_angle_gamma 90.000000
_cell_volume 1323.953289
_symmetry_space_group_name_H-M "P C A 21"
_symmetry_group_IT_number 29
_symmetry_cell_setting 'orthorhombic'
loop_
_space_group_symop_operation_xyz
x,y,z
-x,-y,1/2+z
1/2-x,y,1/2+z
1/2+x,-y,z
loop_
_atom_site_type_symbol
_atom_site_label
_atom_site_fract_x
_atom_site_fract_y
_atom_site_fract_z
Si Si1 0.181011 0.638214 0.672020
Si Si2 0.080477 0.462371 0.956899
Si Si3 0.795776 0.088183 0.082752
Si Si4 0.214408 0.193656 0.034136
Si Si5 0.947615 0.651008 0.110799
Si Si6 0.031111 0.933314 0.196955
Si Si7 0.078690 0.217887 0.246782
Si Si8 0.173793 0.503793 0.333425
O O1 0.186201 0.740822 0.576438
O O2 0.136312 0.478594 0.649996
O O3 0.303361 0.606420 0.740525
O O4 0.061376 0.710518 0.729710
O O5 0.199993 0.523381 0.897634
O O6 0.953338 0.461208 0.892661
O O7 0.117373 0.298216 0.980239
O O8 0.057449 0.565389 0.050577
O O9 0.677138 0.090183 0.159601
O O10 0.738556 0.972815 0.006369
O O11 0.927571 0.017291 0.125357
O O12 0.354818 0.267577 0.034174
O O13 0.157780 0.199753 0.144971
O O14 0.974338 0.772925 0.191736
O O15 0.050234 0.053781 0.280778
O O16 0.159069 0.335598 0.305092
#
# Coordination Sequence:
#
# PCOD9340466 Si02
#       8
#     4   4   4   4   4   4   4   4
#     4  11  22  38  70 105 130 178 251 300 342 423
#     4  12  25  40  65 106 148 185 228 301 379 438
#     4   9  21  38  64 100 129 171 228 298 347 399
#     4  10  20  41  66  96 134 181 238 297 348 425
#     4  11  22  38  70 105 131 178 250 305 345 417
#     4   9  21  38  64  99 133 170 232 302 349 398
#     4  10  20  41  66  97 132 184 240 296 350 430
#     4  12  25  40  65 106 149 185 229 301 380 438
#
# _framework density 24.170037000000001
#
# number of rings (size 3 to 8) (size 9 to 14) (size 15 to 20)
#    0.000    1.500    5.000    0.000    3.500    0.000 
#    0.000    0.000    0.000   19.500    0.000    0.000 
#    0.000    0.000    0.000    0.000    0.000    0.000 
#
# Total GULP energy -178290.008733 kJ/mol
# GULP energy per Si atom -5571.562773 kJ/mol
# Density = 2.411503 g / cm^3
# Si number density = 24.170037 Si / 1000 Ang^3
#
#
#
# Elastic Constant Matrix: (Units=GPa)
#
#
# Indices 1 2 3 4 5 6 
#
# 1 110.2093 15.1168 18.3662 0.0000 0.0000 0.0000
# 2 15.1168 175.8805 29.6209 0.0000 0.0000 0.0000
# 3 18.3662 29.6209 39.6464 0.0000 0.0000 0.0000
# 4 0.0000 0.0000 0.0000 17.8881 0.0000 0.0000
# 5 0.0000 0.0000 0.0000 0.0000 32.9275 0.0000
# 6 0.0000 0.0000 0.0000 0.0000 0.0000 38.3995
#
#
#
# Elastic Compliance Matrix: (Units=1/GPa)
#
#
# Indices 1 2 3 4 5 6 
#
# 1 0.009834 -0.000089 -0.004489 0.000000 0.000000 0.000000
# 2 -0.000089 0.006505 -0.004819 0.000000 0.000000 0.000000
# 3 -0.004489 -0.004819 0.030903 0.000000 0.000000 0.000000
# 4 0.000000 0.000000 0.000000 0.055903 0.000000 0.000000
# 5 0.000000 0.000000 0.000000 0.000000 0.030370 0.000000
# 6 0.000000 0.000000 0.000000 0.000000 0.000000 0.026042
#
#
# Mechanical properties :
#
#
# Convention : Reuss Voigt Hill
#
# Bulk Modulus (GPa) = 35.15199 50.21601 42.68400
# Shear Modulus (GPa) = 26.61946 35.35184 30.98565
#
# Velocity S-wave (km/s) = 3.32225 3.82858 3.58437
# Velocity P-wave (km/s) = 5.41217 6.35337 5.90157
#
# Compressibility (1/GPa) = 0.02844789
#
# Stress axis : x y z
#
# Youngs Moduli (GPa) = 101.68853 153.73068 32.35970
#
# Poissons Ratio (x) = 0.01372 0.14526
# Poissons Ratio (y) = 0.00907 0.15593
# Poissons Ratio (z) = 0.45647 0.74077
#
# Static dielectric constant tensor:
#      x y z
#    x 1.975200 0.000000 0.000000 
#    y 0.000000 2.080660 0.000000 
#    z 0.000000 0.000000 2.047640 
# 
# From -- ./inp_files/4580.got.cif
#   From: 2010.05.17/outbox.cif.g08.bks.cpg/sg29_3_cif.got.tgz:4580.got - 2010.06.04 01:19:37.
