data_PCOD9340925
_publ_section_title
;
Structure prediction by ZEFSAII (Michael W. Deem and Ramdas Pophale) SiO2 
 PCOD9340925
Probable space group: P C A 21
;
_chemical_formula_sum "Si O2"
_cell_formula_units_Z 32
_cell_length_a 8.155793
_cell_length_b 14.799785
_cell_length_c 12.790654
_cell_angle_alpha 90.000000
_cell_angle_beta 90.000000
_cell_angle_gamma 90.000000
_cell_volume 1543.882882
_symmetry_space_group_name_H-M "P C A 21"
_symmetry_group_IT_number 29
_symmetry_cell_setting 'orthorhombic'
loop_
_space_group_symop_operation_xyz
x,y,z
-x,-y,1/2+z
1/2-x,y,1/2+z
1/2+x,-y,z
loop_
_atom_site_type_symbol
_atom_site_label
_atom_site_fract_x
_atom_site_fract_y
_atom_site_fract_z
Si Si1 0.201910 0.991799 0.140940
Si Si2 0.446963 0.116214 0.267903
Si Si3 0.629118 0.368378 0.814153
Si Si4 0.953342 0.104418 0.008483
Si Si5 0.346869 0.308766 0.179579
Si Si6 0.531312 0.285009 0.623764
Si Si7 0.154057 0.615145 0.058074
Si Si8 0.668773 0.518143 0.223843
O O1 0.296398 0.954057 0.039713
O O2 0.104987 0.911000 0.197941
O O3 0.314174 0.044046 0.224794
O O4 0.084181 0.066077 0.091051
O O5 0.489753 0.101933 0.389261
O O6 0.383479 0.218309 0.246230
O O7 0.592204 0.278484 0.745721
O O8 0.481849 0.432213 0.776156
O O9 0.789233 0.423869 0.779597
O O10 0.630383 0.365370 0.936973
O O11 0.923292 0.205143 0.046796
O O12 0.509693 0.325475 0.111309
O O13 0.311436 0.406278 0.232679
O O14 0.166653 0.295467 0.124186
O O15 0.656677 0.362492 0.586009
O O16 0.135366 0.513527 0.104373
#
# Coordination Sequence:
#
# PCOD9340925 Si02
#       8
#     4   4   4   4   4   4   4   4
#     4  10  23  43  67 103 136 166 238 278 336 442
#     4  11  23  43  71  98 134 185 214 287 359 402
#     4  10  23  41  64  94 127 179 218 276 333 391
#     4  11  22  43  69  98 137 179 221 286 349 410
#     4  11  23  44  64  98 136 170 226 280 330 413
#     4  10  24  43  62 101 135 166 236 282 318 418
#     4  11  24  43  68  92 135 182 219 280 348 387
#     4  10  22  42  61  94 132 163 236 275 317 413
#
# _framework density 20.726960999999999
#
# number of rings (size 3 to 8) (size 9 to 14) (size 15 to 20)
#    0.000    1.500    2.500    1.500    1.750    5.000 
#    2.250    1.250    0.000    0.000    0.000    0.000 
#    0.000    0.000    0.000    0.000    0.000    0.000 
#
# Total GULP energy -178193.063679 kJ/mol
# GULP energy per Si atom -5568.533240 kJ/mol
# Density = 2.067979 g / cm^3
# Si number density = 20.726961 Si / 1000 Ang^3
#
#
#
# Elastic Constant Matrix: (Units=GPa)
#
#
# Indices 1 2 3 4 5 6 
#
# 1 76.0376 17.4047 36.5190 0.0000 0.0000 0.0000
# 2 17.4047 64.6329 22.5483 0.0000 0.0000 0.0000
# 3 36.5190 22.5483 128.4115 0.0000 0.0000 0.0000
# 4 0.0000 0.0000 0.0000 24.6440 0.0000 0.0000
# 5 0.0000 0.0000 0.0000 0.0000 21.2046 0.0000
# 6 0.0000 0.0000 0.0000 0.0000 0.0000 23.2978
#
#
#
# Elastic Compliance Matrix: (Units=1/GPa)
#
#
# Indices 1 2 3 4 5 6 
#
# 1 0.015708 -0.002846 -0.003968 0.000000 0.000000 0.000000
# 2 -0.002846 0.016997 -0.002175 0.000000 0.000000 0.000000
# 3 -0.003968 -0.002175 0.009298 0.000000 0.000000 0.000000
# 4 0.000000 0.000000 0.000000 0.040578 0.000000 0.000000
# 5 0.000000 0.000000 0.000000 0.000000 0.047160 0.000000
# 6 0.000000 0.000000 0.000000 0.000000 0.000000 0.042923
#
#
# Mechanical properties :
#
#
# Convention : Reuss Voigt Hill
#
# Bulk Modulus (GPa) = 41.62179 46.89179 44.25679
# Shear Modulus (GPa) = 25.16997 26.66993 25.91995
#
# Velocity S-wave (km/s) = 3.48855 3.59099 3.54014
# Velocity P-wave (km/s) = 6.02919 6.31398 6.17323
#
# Compressibility (1/GPa) = 0.02402588
#
# Stress axis : x y z
#
# Youngs Moduli (GPa) = 63.66048 58.83314 107.55265
#
# Poissons Ratio (x) = 0.16743 0.42672
# Poissons Ratio (y) = 0.18117 0.23396
# Poissons Ratio (z) = 0.25258 0.12798
#
# Static dielectric constant tensor:
#      x y z
#    x 1.814870 0.000000 0.000000 
#    y 0.000000 1.816010 0.000000 
#    z 0.000000 0.000000 1.749660 
# 
# From -- ./inp_files/2923.got.cif
#   From: 2010.05.17/outbox.cif.g08.bks.cpg/sg29_2_cif.got.tgz:2923.got - 2010.06.04 01:19:37.
