data_PCOD9340583
_publ_section_title
;
Structure prediction by ZEFSAII (Michael W. Deem and Ramdas Pophale) SiO2 
 PCOD9340583
Probable space group: P C A 21
;
_chemical_formula_sum "Si O2"
_cell_formula_units_Z 32
_cell_length_a 10.058277
_cell_length_b 6.145965
_cell_length_c 21.868515
_cell_angle_alpha 90.000000
_cell_angle_beta 90.000000
_cell_angle_gamma 90.000000
_cell_volume 1351.863889
_symmetry_space_group_name_H-M "P C A 21"
_symmetry_group_IT_number 29
_symmetry_cell_setting 'orthorhombic'
loop_
_space_group_symop_operation_xyz
x,y,z
-x,-y,1/2+z
1/2-x,y,1/2+z
1/2+x,-y,z
loop_
_atom_site_type_symbol
_atom_site_label
_atom_site_fract_x
_atom_site_fract_y
_atom_site_fract_z
Si Si1 0.536727 0.392141 0.268370
Si Si2 0.245450 0.288439 0.735154
Si Si3 0.925913 0.088281 0.445432
Si Si4 0.153291 0.893927 0.164718
Si Si5 0.445397 0.180165 0.560265
Si Si6 0.754114 0.500714 0.104643
Si Si7 0.159690 0.792786 0.389507
Si Si8 0.591139 0.512844 0.490984
O O1 0.612624 0.623264 0.260452
O O2 0.378127 0.363781 0.277196
O O3 0.568595 0.269567 0.205235
O O4 0.613882 0.271806 0.322439
O O5 0.265181 0.041500 0.712781
O O6 0.213153 0.402787 0.670330
O O7 0.805390 0.109076 0.398275
O O8 0.976466 0.323487 0.469653
O O9 0.876579 0.955581 0.505438
O O10 0.049152 0.962478 0.414501
O O11 0.059502 0.035365 0.120505
O O12 0.245956 0.754104 0.119329
O O13 0.389958 0.410393 0.585434
O O14 0.566698 0.276415 0.522221
O O15 0.833181 0.612482 0.048815
O O16 0.161559 0.568165 0.429397
#
# Coordination Sequence:
#
# PCOD9340583 Si02
#       8
#     4   4   4   4   4   4   4   4
#     4  11  27  47  69 103 142 189 242 298 354 442
#     4  10  26  44  72 102 142 181 233 292 366 419
#     4  11  25  46  71 105 139 192 237 302 367 436
#     4  10  23  41  69 102 139 184 232 288 361 435
#     4  10  21  38  65 101 136 176 225 289 353 430
#     4  10  22  40  65 101 140 177 227 288 355 432
#     4  11  27  46  70 100 143 189 251 294 365 431
#     4  11  23  38  71 100 141 182 235 295 361 427
#
# _framework density 23.671022000000001
#
# number of rings (size 3 to 8) (size 9 to 14) (size 15 to 20)
#    0.000    1.500    0.000    3.000   12.250    5.000 
#    0.000    0.000    0.000    0.000    0.000    0.000 
#    0.000    0.000    0.000    0.000    0.000    0.000 
#
# Total GULP energy -178262.575189 kJ/mol
# GULP energy per Si atom -5570.705475 kJ/mol
# Density = 2.361715 g / cm^3
# Si number density = 23.671022 Si / 1000 Ang^3
#
#
#
# Elastic Constant Matrix: (Units=GPa)
#
#
# Indices 1 2 3 4 5 6 
#
# 1 63.3969 26.2244 -5.2282 0.0000 0.0000 0.0000
# 2 26.2244 41.4876 -12.6974 0.0000 0.0000 0.0000
# 3 -5.2282 -12.6974 51.4475 0.0000 0.0000 0.0000
# 4 0.0000 0.0000 0.0000 28.8149 0.0000 0.0000
# 5 0.0000 0.0000 0.0000 0.0000 19.5816 0.0000
# 6 0.0000 0.0000 0.0000 0.0000 0.0000 14.9086
#
#
#
# Elastic Compliance Matrix: (Units=1/GPa)
#
#
# Indices 1 2 3 4 5 6 
#
# 1 0.021434 -0.013934 -0.001261 0.000000 0.000000 0.000000
# 2 -0.013934 0.035132 0.007255 0.000000 0.000000 0.000000
# 3 -0.001261 0.007255 0.021100 0.000000 0.000000 0.000000
# 4 0.000000 0.000000 0.000000 0.034704 0.000000 0.000000
# 5 0.000000 0.000000 0.000000 0.000000 0.051068 0.000000
# 6 0.000000 0.000000 0.000000 0.000000 0.000000 0.067075
#
#
# Mechanical properties :
#
#
# Convention : Reuss Voigt Hill
#
# Bulk Modulus (GPa) = 16.18540 19.21440 17.69990
# Shear Modulus (GPa) = 18.72741 22.52989 20.62865
#
# Velocity S-wave (km/s) = 2.81580 3.08846 2.95527
# Velocity P-wave (km/s) = 4.17422 4.56651 4.37476
#
# Compressibility (1/GPa) = 0.06178408
#
# Stress axis : x y z
#
# Youngs Moduli (GPa) = 46.65578 28.46440 47.39420
#
# Poissons Ratio (x) = 0.39663 0.05976
# Poissons Ratio (y) = 0.65011 -0.34383
# Poissons Ratio (z) = 0.05883 -0.20650
#
# Static dielectric constant tensor:
#      x y z
#    x 2.091540 0.000000 0.000000 
#    y 0.000000 2.012900 0.000000 
#    z 0.000000 0.000000 1.977080 
# 
# From -- ./inp_files/5572.got.cif
#   From: 2010.05.17/outbox.cif.g08.bks.cpg/sg29_3_cif.got.tgz:5572.got - 2010.06.04 01:19:37.
