data_PCOD9340581
_publ_section_title
;
Structure prediction by ZEFSAII (Michael W. Deem and Ramdas Pophale) SiO2 
 PCOD9340581
Probable space group: P C A 21
;
_chemical_formula_sum "Si O2"
_cell_formula_units_Z 32
_cell_length_a 33.581339
_cell_length_b 8.228392
_cell_length_c 4.880682
_cell_angle_alpha 90.000000
_cell_angle_beta 90.000000
_cell_angle_gamma 90.000000
_cell_volume 1348.632106
_symmetry_space_group_name_H-M "P C A 21"
_symmetry_group_IT_number 29
_symmetry_cell_setting 'orthorhombic'
loop_
_space_group_symop_operation_xyz
x,y,z
-x,-y,1/2+z
1/2-x,y,1/2+z
1/2+x,-y,z
loop_
_atom_site_type_symbol
_atom_site_label
_atom_site_fract_x
_atom_site_fract_y
_atom_site_fract_z
Si Si1 0.896210 0.882198 0.743670
Si Si2 0.640994 0.723791 0.735298
Si Si3 0.724595 0.610499 0.913391
Si Si4 0.511970 0.900532 0.274697
Si Si5 0.888932 0.397647 0.947768
Si Si6 0.276434 0.776963 0.334335
Si Si7 0.481635 0.582561 0.969324
Si Si8 0.364179 0.803248 0.457779
O O1 0.884536 0.752815 0.509274
O O2 0.941889 0.863918 0.828174
O O3 0.888539 0.053591 0.598898
O O4 0.869102 0.860401 0.011185
O O5 0.686643 0.711131 0.821917
O O6 0.628680 0.558573 0.583442
O O7 0.762890 0.643275 0.723432
O O8 0.716527 0.418160 0.864258
O O9 0.491800 0.749391 0.123187
O O10 0.491116 0.953417 0.554474
O O11 0.935477 0.421536 0.889900
O O12 0.882957 0.257693 0.175174
O O13 0.866059 0.344645 0.674920
O O14 0.239981 0.815798 0.535787
O O15 0.181470 0.854148 0.908361
O O16 0.492183 0.447400 0.198869
#
# Coordination Sequence:
#
# PCOD9340581 Si02
#       8
#     4   4   4   4   4   4   4   4
#     4  12  26  43  65  96 139 171 211 272 336 389
#     4  12  24  43  64  97 130 171 210 271 331 388
#     4  10  21  38  64  94 123 166 215 263 312 389
#     4  12  24  44  68  93 129 179 224 262 325 397
#     4  12  24  41  69  94 127 169 227 268 320 385
#     4  10  21  38  64  94 123 162 213 270 314 373
#     4  12  24  42  64  97 131 167 216 278 329 381
#     4  12  24  43  64  97 126 169 216 266 319 386
#
# _framework density 23.727744999999999
#
# number of rings (size 3 to 8) (size 9 to 14) (size 15 to 20)
#    0.000    0.500    1.250    8.250    3.500    0.000 
#    0.000    3.750    0.000    0.000    0.000    0.000 
#    0.000    0.000    0.000    0.000    0.000    0.000 
#
# Total GULP energy -179483.618154 kJ/mol
# GULP energy per Si atom -5608.863067 kJ/mol
# Density = 2.367374 g / cm^3
# Si number density = 23.727745 Si / 1000 Ang^3
#
#
#
# Elastic Constant Matrix: (Units=GPa)
#
#
# Indices 1 2 3 4 5 6 
#
# 1 83.6630 0.0818 0.4534 0.0000 0.0000 0.0000
# 2 0.0818 45.6675 -0.1325 0.0000 0.0000 0.0000
# 3 0.4534 -0.1325 86.6180 0.0000 0.0000 0.0000
# 4 0.0000 0.0000 0.0000 34.5687 0.0000 0.0000
# 5 0.0000 0.0000 0.0000 0.0000 22.5675 0.0000
# 6 0.0000 0.0000 0.0000 0.0000 0.0000 -9.8240
#
#
#
# Elastic Compliance Matrix: (Units=1/GPa)
#
#
# Indices 1 2 3 4 5 6 
#
# 1 0.011953 -0.000022 -0.000063 0.000000 0.000000 0.000000
# 2 -0.000022 0.021898 0.000034 0.000000 0.000000 0.000000
# 3 -0.000063 0.000034 0.011545 0.000000 0.000000 0.000000
# 4 0.000000 0.000000 0.000000 0.028928 0.000000 0.000000
# 5 0.000000 0.000000 0.000000 0.000000 0.044311 0.000000
# 6 0.000000 0.000000 0.000000 0.000000 0.000000 -0.101791
#
#
# Mechanical properties :
#
#
# Convention : Reuss Voigt Hill
#
# Bulk Modulus (GPa) = 22.07762 24.08379 23.08071
# Shear Modulus (GPa) = 156.03956 23.83218 89.93587
#
# Velocity S-wave (km/s) = 8.11821 3.17267 6.16324
# Velocity P-wave (km/s) = 9.85893 4.85728 7.77147
#
# Compressibility (1/GPa) = 0.04529473
#
# Stress axis : x y z
#
# Youngs Moduli (GPa) = 83.66049 45.66725 86.61518
#
# Poissons Ratio (x) = 0.00099 0.00542
# Poissons Ratio (y) = 0.00181 -0.00291
# Poissons Ratio (z) = 0.00524 -0.00154
#
# Static dielectric constant tensor:
#      x y z
#    x 1.815360 0.000000 0.000000 
#    y 0.000000 1.970230 0.000000 
#    z 0.000000 0.000000 1.845660 
# 
# From -- ./inp_files/896.got.cif
#   From: 2010.05.17/outbox.cif.g08.bks.cpg/sg29_1_cif.got.tgz:896.got - 2010.06.04 01:19:37.
