data_PCOD9340964
_publ_section_title
;
Structure prediction by ZEFSAII (Michael W. Deem and Ramdas Pophale) SiO2 
 PCOD9340964
Probable space group: P C A 21
;
_chemical_formula_sum "Si O2"
_cell_formula_units_Z 20
_cell_length_a 13.935973
_cell_length_b 5.114967
_cell_length_c 9.875286
_cell_angle_alpha 90.000000
_cell_angle_beta 90.000000
_cell_angle_gamma 90.000000
_cell_volume 703.930551
_symmetry_space_group_name_H-M "P C A 21"
_symmetry_group_IT_number 29
_symmetry_cell_setting 'orthorhombic'
loop_
_space_group_symop_operation_xyz
x,y,z
-x,-y,1/2+z
1/2-x,y,1/2+z
1/2+x,-y,z
loop_
_atom_site_type_symbol
_atom_site_label
_atom_site_fract_x
_atom_site_fract_y
_atom_site_fract_z
Si Si1 0.614116 0.655053 0.264740
Si Si2 0.817296 0.443406 0.001255
Si Si3 0.309835 0.865961 0.640628
Si Si4 0.119585 0.153652 0.714365
Si Si5 0.989297 0.038065 0.951991
O O1 0.692740 0.661000 0.385764
O O2 0.628047 0.367621 0.205031
O O3 0.635789 0.861406 0.146948
O O4 0.528807 0.788517 0.349899
O O5 0.908689 0.268019 0.960479
O O6 0.724965 0.260763 0.002339
O O7 0.835953 0.586715 0.143426
O O8 0.206263 0.944055 0.704105
O O9 0.074741 0.168840 0.863444
O O10 0.037377 0.084570 0.600083
#
# Coordination Sequence:
#
# PCOD9340964 Si02
#       5
#     4   4   4   4   4
#     4  11  22  43  68  97 136 183 235 286 353 414
#     4  10  22  42  70  98 148 182 234 300 356 420
#     4  11  22  43  68  97 136 183 235 286 353 414
#     4  10  23  45  70 103 144 188 237 296 361 428
#     4  10  23  45  70 103 144 188 237 296 361 428
#
# _framework density 28.411892000000002
#
# number of rings (size 3 to 8) (size 9 to 14) (size 15 to 20)
#    0.000    1.600    4.000    0.000    0.000    6.400 
#    7.200    0.000    0.000    0.000    0.000    0.000 
#    0.000    0.000    0.000    0.000    0.000    0.000 
#
# Total GULP energy -111389.791627 kJ/mol
# GULP energy per Si atom -5569.489581 kJ/mol
# Density = 2.834723 g / cm^3
# Si number density = 28.411892 Si / 1000 Ang^3
#
#
#
# Elastic Constant Matrix: (Units=GPa)
#
#
# Indices 1 2 3 4 5 6 
#
# 1 58.2497 40.2337 29.3991 0.0000 0.0000 0.0000
# 2 40.2337 193.7712 35.1211 0.0000 0.0000 0.0000
# 3 29.3991 35.1211 116.7059 0.0000 0.0000 0.0000
# 4 0.0000 0.0000 0.0000 46.5267 0.0000 0.0000
# 5 0.0000 0.0000 0.0000 0.0000 43.2075 0.0000
# 6 0.0000 0.0000 0.0000 0.0000 0.0000 30.1531
#
#
#
# Elastic Compliance Matrix: (Units=1/GPa)
#
#
# Indices 1 2 3 4 5 6 
#
# 1 0.021994 -0.003768 -0.004407 0.000000 0.000000 0.000000
# 2 -0.003768 0.006104 -0.000888 0.000000 0.000000 0.000000
# 3 -0.004407 -0.000888 0.009946 0.000000 0.000000 0.000000
# 4 0.000000 0.000000 0.000000 0.021493 0.000000 0.000000
# 5 0.000000 0.000000 0.000000 0.000000 0.023144 0.000000
# 6 0.000000 0.000000 0.000000 0.000000 0.000000 0.033164
#
#
# Mechanical properties :
#
#
# Convention : Reuss Voigt Hill
#
# Bulk Modulus (GPa) = 50.20274 64.24830 57.22552
# Shear Modulus (GPa) = 35.55944 41.57563 38.56754
#
# Velocity S-wave (km/s) = 3.54159 3.82948 3.68835
# Velocity P-wave (km/s) = 5.86786 6.49735 6.19061
#
# Compressibility (1/GPa) = 0.01991923
#
# Stress axis : x y z
#
# Youngs Moduli (GPa) = 45.46661 163.82680 100.54558
#
# Poissons Ratio (x) = 0.61731 0.44306
# Poissons Ratio (y) = 0.17132 0.08926
# Poissons Ratio (z) = 0.20035 0.14543
#
# Static dielectric constant tensor:
#      x y z
#    x 2.661360 0.000000 0.000000 
#    y 0.000000 2.280860 0.000000 
#    z 0.000000 0.000000 2.412400 
# 
# From -- ./inp_files/1948.got.cif
#   From: 2010.05.17/outbox.cif.g08.bks.cpg/sg29_1_cif.got.tgz:1948.got - 2010.06.04 01:19:37.
