data_PCOD9340138
_publ_section_title
;
Structure prediction by ZEFSAII (Michael W. Deem and Ramdas Pophale) SiO2 
 PCOD9340138
Probable space group: P C A 21
;
_chemical_formula_sum "Si O2"
_cell_formula_units_Z 32
_cell_length_a 19.906061
_cell_length_b 9.320312
_cell_length_c 8.358367
_cell_angle_alpha 90.000000
_cell_angle_beta 90.000000
_cell_angle_gamma 90.000000
_cell_volume 1550.733674
_symmetry_space_group_name_H-M "P C A 21"
_symmetry_group_IT_number 29
_symmetry_cell_setting 'orthorhombic'
loop_
_space_group_symop_operation_xyz
x,y,z
-x,-y,1/2+z
1/2-x,y,1/2+z
1/2+x,-y,z
loop_
_atom_site_type_symbol
_atom_site_label
_atom_site_fract_x
_atom_site_fract_y
_atom_site_fract_z
Si Si1 0.095338 0.921327 0.582950
Si Si2 0.586311 0.819110 0.181773
Si Si3 0.721274 0.644463 0.777362
Si Si4 0.173211 0.181634 0.485141
Si Si5 0.950196 0.351337 0.201083
Si Si6 0.026188 0.604291 0.076068
Si Si7 0.842100 0.562636 0.574659
Si Si8 0.521080 0.090326 0.241474
O O1 0.107250 0.760045 0.647628
O O2 0.049509 0.910251 0.421532
O O3 0.160471 0.017112 0.538428
O O4 0.050533 0.012479 0.711149
O O5 0.610999 0.792927 0.364061
O O6 0.515871 0.742715 0.158014
O O7 0.637559 0.731525 0.075232
O O8 0.575301 0.986438 0.153498
O O9 0.762772 0.764741 0.880470
O O10 0.677067 0.722420 0.643453
O O11 0.778372 0.552446 0.688315
O O12 0.679478 0.541129 0.892770
O O13 0.958457 0.376244 0.389241
O O14 0.963029 0.499943 0.109160
O O15 0.094398 0.525576 0.135793
O O16 0.017577 0.753423 0.166448
#
# Coordination Sequence:
#
# PCOD9340138 Si02
#       8
#     4   4   4   4   4   4   4   4
#     4  10  20  35  55  81 109 139 171 213 262 313
#     4   8  17  33  52  79 106 130 164 213 262 309
#     4   9  18  34  54  77  98 131 184 224 254 303
#     4   9  17  31  55  78  99 129 173 223 260 293
#     4  10  21  34  50  79 112 139 172 205 259 330
#     4  11  21  34  53  79 111 144 170 208 260 319
#     4   9  19  34  55  76 100 135 177 220 260 299
#     4  10  19  33  54  81 113 139 167 206 259 326
#
# _framework density 20.635394999999999
#
# number of rings (size 3 to 8) (size 9 to 14) (size 15 to 20)
#    0.000    2.500    0.000    3.000    0.000    6.000 
#    0.000    2.500    0.000   21.000    0.000    0.000 
#    0.000    0.000    0.000    0.000    0.000    0.000 
#
# Total GULP energy -178240.000737 kJ/mol
# GULP energy per Si atom -5570.000023 kJ/mol
# Density = 2.058843 g / cm^3
# Si number density = 20.635395 Si / 1000 Ang^3
#
#
#
# Elastic Constant Matrix: (Units=GPa)
#
#
# Indices 1 2 3 4 5 6 
#
# 1 28.2921 10.5637 -2.2365 0.0000 0.0000 0.0000
# 2 10.5637 100.7011 15.1304 0.0000 0.0000 0.0000
# 3 -2.2365 15.1304 58.6430 0.0000 0.0000 0.0000
# 4 0.0000 0.0000 0.0000 24.2933 0.0000 0.0000
# 5 0.0000 0.0000 0.0000 0.0000 14.6784 0.0000
# 6 0.0000 0.0000 0.0000 0.0000 0.0000 21.5406
#
#
#
# Elastic Compliance Matrix: (Units=1/GPa)
#
#
# Indices 1 2 3 4 5 6 
#
# 1 0.037141 -0.004275 0.002519 0.000000 0.000000 0.000000
# 2 -0.004275 0.010823 -0.002955 0.000000 0.000000 0.000000
# 3 0.002519 -0.002955 0.017911 0.000000 0.000000 0.000000
# 4 0.000000 0.000000 0.000000 0.041164 0.000000 0.000000
# 5 0.000000 0.000000 0.000000 0.000000 0.068127 0.000000
# 6 0.000000 0.000000 0.000000 0.000000 0.000000 0.046424
#
#
# Mechanical properties :
#
#
# Convention : Reuss Voigt Hill
#
# Bulk Modulus (GPa) = 17.71381 26.06128 21.88755
# Shear Modulus (GPa) = 20.01371 23.04768 21.53070
#
# Velocity S-wave (km/s) = 3.11766 3.34563 3.23365
# Velocity P-wave (km/s) = 4.64355 5.25178 4.95700
#
# Compressibility (1/GPa) = 0.05645313
#
# Stress axis : x y z
#
# Youngs Moduli (GPa) = 26.92454 92.39709 55.83177
#
# Poissons Ratio (x) = 0.39497 -0.14066
# Poissons Ratio (y) = 0.11509 0.16501
# Poissons Ratio (z) = -0.06783 0.27307
#
# Static dielectric constant tensor:
#      x y z
#    x 1.794610 0.000000 0.000000 
#    y 0.000000 1.792790 0.000000 
#    z 0.000000 0.000000 1.772650 
# 
# From -- ./inp_files/2495.got.cif
#   From: 2010.05.17/outbox.cif.g08.bks.cpg/sg29_2_cif.got.tgz:2495.got - 2010.06.04 01:19:37.
