data_PCOD9340820
_publ_section_title
;
Structure prediction by ZEFSAII (Michael W. Deem and Ramdas Pophale) SiO2 
 PCOD9340820
Probable space group: P C A 21
;
_chemical_formula_sum "Si O2"
_cell_formula_units_Z 32
_cell_length_a 5.633805
_cell_length_b 18.455007
_cell_length_c 12.911207
_cell_angle_alpha 90.000000
_cell_angle_beta 90.000000
_cell_angle_gamma 90.000000
_cell_volume 1342.402861
_symmetry_space_group_name_H-M "P C A 21"
_symmetry_group_IT_number 29
_symmetry_cell_setting 'orthorhombic'
loop_
_space_group_symop_operation_xyz
x,y,z
-x,-y,1/2+z
1/2-x,y,1/2+z
1/2+x,-y,z
loop_
_atom_site_type_symbol
_atom_site_label
_atom_site_fract_x
_atom_site_fract_y
_atom_site_fract_z
Si Si1 0.153207 0.303013 0.300220
Si Si2 0.293607 0.214531 0.123054
Si Si3 0.850597 0.538493 0.707874
Si Si4 0.968974 0.016306 0.162281
Si Si5 0.648602 0.119070 0.258278
Si Si6 0.994724 0.214567 0.941455
Si Si7 0.156592 0.514563 0.982003
Si Si8 0.379064 0.681024 0.505634
O O1 0.116354 0.244137 0.210942
O O2 0.189531 0.382089 0.253470
O O3 0.373740 0.270571 0.364605
O O4 0.949254 0.309965 0.385095
O O5 0.496737 0.167324 0.178012
O O6 0.417222 0.287312 0.077967
O O7 0.180064 0.178725 0.021131
O O8 0.617031 0.490118 0.732266
O O9 0.847281 0.537857 0.581623
O O10 0.901164 0.093878 0.210701
O O11 0.723675 0.991387 0.107053
O O12 0.008548 0.957911 0.255138
O O13 0.642725 0.157997 0.368814
O O14 0.837799 0.264613 0.015437
O O15 0.404048 0.497062 0.926852
O O16 0.165740 0.596926 0.021668
#
# Coordination Sequence:
#
# PCOD9340820 Si02
#       8
#     4   4   4   4   4   4   4   4
#     4  10  24  42  63  92 132 176 230 280 353 415
#     4  10  22  42  66  97 133 176 228 285 338 414
#     4  10  22  38  63  91 121 169 222 276 345 406
#     4   8  18  37  70  96 135 176 218 266 331 403
#     4   9  20  42  67 101 136 182 222 273 343 401
#     4  10  24  41  65  99 135 176 231 284 340 415
#     4  10  23  41  66  90 130 174 222 286 349 405
#     4  11  25  41  66  98 134 181 231 294 351 421
#
# _framework density 23.83785
#
# number of rings (size 3 to 8) (size 9 to 14) (size 15 to 20)
#    0.750    1.500    0.000    1.500    8.750    7.000 
#    0.000    1.250    0.000    0.000    0.000    0.000 
#    0.000    0.000    0.000    0.000    0.000    0.000 
#
# Total GULP energy -178558.753018 kJ/mol
# GULP energy per Si atom -5579.961032 kJ/mol
# Density = 2.378359 g / cm^3
# Si number density = 23.837850 Si / 1000 Ang^3
#
#
#
# Elastic Constant Matrix: (Units=GPa)
#
#
# Indices 1 2 3 4 5 6 
#
# 1 108.1655 12.3196 31.5384 0.0000 0.0000 0.0000
# 2 12.3196 100.1145 18.8703 0.0000 0.0000 0.0000
# 3 31.5384 18.8703 61.4841 0.0000 0.0000 0.0000
# 4 0.0000 0.0000 0.0000 16.6312 0.0000 0.0000
# 5 0.0000 0.0000 0.0000 0.0000 28.5054 0.0000
# 6 0.0000 0.0000 0.0000 0.0000 0.0000 35.1966
#
#
#
# Elastic Compliance Matrix: (Units=1/GPa)
#
#
# Indices 1 2 3 4 5 6 
#
# 1 0.010880 -0.000305 -0.005487 0.000000 0.000000 0.000000
# 2 -0.000305 0.010610 -0.003100 0.000000 0.000000 0.000000
# 3 -0.005487 -0.003100 0.020031 0.000000 0.000000 0.000000
# 4 0.000000 0.000000 0.000000 0.060128 0.000000 0.000000
# 5 0.000000 0.000000 0.000000 0.000000 0.035081 0.000000
# 6 0.000000 0.000000 0.000000 0.000000 0.000000 0.028412
#
#
# Mechanical properties :
#
#
# Convention : Reuss Voigt Hill
#
# Bulk Modulus (GPa) = 42.12917 43.91342 43.02129
# Shear Modulus (GPa) = 26.20024 29.86904 28.03464
#
# Velocity S-wave (km/s) = 3.31887 3.54363 3.43309
# Velocity P-wave (km/s) = 5.69193 5.93336 5.81390
#
# Compressibility (1/GPa) = 0.02373652
#
# Stress axis : x y z
#
# Youngs Moduli (GPa) = 91.91387 94.24723 49.92357
#
# Poissons Ratio (x) = 0.02870 0.27395
# Poissons Ratio (y) = 0.02799 0.15478
# Poissons Ratio (z) = 0.50436 0.29219
#
# Static dielectric constant tensor:
#      x y z
#    x 2.049700 0.000000 0.000000 
#    y 0.000000 1.897070 0.000000 
#    z 0.000000 0.000000 1.886270 
# 
# From -- ./inp_files/4140.got.cif
#   From: 2010.05.17/outbox.cif.g08.bks.cpg/sg29_3_cif.got.tgz:4140.got - 2010.06.04 01:19:37.
