data_PCOD9340152
_publ_section_title
;
Structure prediction by ZEFSAII (Michael W. Deem and Ramdas Pophale) SiO2 
 PCOD9340152
Probable space group: P C A 21
;
_chemical_formula_sum "Si O2"
_cell_formula_units_Z 24
_cell_length_a 9.168849
_cell_length_b 11.521498
_cell_length_c 8.238296
_cell_angle_alpha 90.000000
_cell_angle_beta 90.000000
_cell_angle_gamma 90.000000
_cell_volume 870.284325
_symmetry_space_group_name_H-M "P C A 21"
_symmetry_group_IT_number 29
_symmetry_cell_setting 'orthorhombic'
loop_
_space_group_symop_operation_xyz
x,y,z
-x,-y,1/2+z
1/2-x,y,1/2+z
1/2+x,-y,z
loop_
_atom_site_type_symbol
_atom_site_label
_atom_site_fract_x
_atom_site_fract_y
_atom_site_fract_z
Si Si1 0.910493 0.516217 0.146870
Si Si2 0.615784 0.153223 0.088692
Si Si3 0.164882 0.380401 0.971446
Si Si4 0.623717 0.991038 0.449200
Si Si5 0.185266 0.718844 0.792126
Si Si6 0.080465 0.148472 0.120511
O O1 0.903437 0.610229 0.291853
O O2 0.820165 0.410195 0.228496
O O3 0.825218 0.566087 0.991774
O O4 0.058554 0.457446 0.085806
O O5 0.452177 0.107170 0.065718
O O6 0.643516 0.266570 0.977915
O O7 0.733911 0.057325 0.017788
O O8 0.672900 0.203414 0.257122
O O9 0.173913 0.251097 0.043695
O O10 0.635942 0.932118 0.271650
O O11 0.490952 0.080756 0.470044
O O12 0.056958 0.787292 0.701353
#
# Coordination Sequence:
#
# PCOD9340152 Si02
#       6
#     4   4   4   4   4   4
#     4  11  23  43  67  95 135 177 223 284 340 404
#     4  10  19  34  57  83 114 157 206 254 307 375
#     4  11  24  43  67  99 135 178 228 279 343 408
#     4  10  20  37  58  84 121 159 202 260 314 377
#     4   9  19  36  58  83 116 163 208 245 313 397
#     4   9  21  39  59  88 123 160 209 262 323 389
#
# _framework density 27.577195
#
# number of rings (size 3 to 8) (size 9 to 14) (size 15 to 20)
#    0.000    2.000    0.000    3.000    0.000    4.000 
#    0.000   10.000    0.000    0.000    0.000    0.000 
#    0.000    0.000    0.000    0.000    0.000    0.000 
#
# Total GULP energy -134176.934492 kJ/mol
# GULP energy per Si atom -5590.705604 kJ/mol
# Density = 2.751443 g / cm^3
# Si number density = 27.577195 Si / 1000 Ang^3
#
#
#
# Elastic Constant Matrix: (Units=GPa)
#
#
# Indices 1 2 3 4 5 6 
#
# 1 91.4125 44.8485 -2.4032 0.0000 0.0000 0.0000
# 2 44.8485 86.4303 -6.6695 0.0000 0.0000 0.0000
# 3 -2.4032 -6.6695 72.1095 0.0000 0.0000 0.0000
# 4 0.0000 0.0000 0.0000 40.9498 0.0000 0.0000
# 5 0.0000 0.0000 0.0000 0.0000 34.5751 0.0000
# 6 0.0000 0.0000 0.0000 0.0000 0.0000 44.4588
#
#
#
# Elastic Compliance Matrix: (Units=1/GPa)
#
#
# Indices 1 2 3 4 5 6 
#
# 1 0.014679 -0.007634 -0.000217 0.000000 0.000000 0.000000
# 2 -0.007634 0.015623 0.001191 0.000000 0.000000 0.000000
# 3 -0.000217 0.001191 0.013971 0.000000 0.000000 0.000000
# 4 0.000000 0.000000 0.000000 0.024420 0.000000 0.000000
# 5 0.000000 0.000000 0.000000 0.000000 0.028923 0.000000
# 6 0.000000 0.000000 0.000000 0.000000 0.000000 0.022493
#
#
# Mechanical properties :
#
#
# Convention : Reuss Voigt Hill
#
# Bulk Modulus (GPa) = 32.30718 35.72264 34.01491
# Shear Modulus (GPa) = 34.78378 38.27518 36.52948
#
# Velocity S-wave (km/s) = 3.55537 3.72953 3.64349
# Velocity P-wave (km/s) = 5.34741 5.61495 5.48281
#
# Compressibility (1/GPa) = 0.03095287
#
# Stress axis : x y z
#
# Youngs Moduli (GPa) = 68.12513 64.00846 71.57838
#
# Poissons Ratio (x) = 0.48861 0.01552
# Poissons Ratio (y) = 0.52004 -0.08522
# Poissons Ratio (z) = 0.01477 -0.07621
#
# Static dielectric constant tensor:
#      x y z
#    x 2.071140 0.000000 0.000000 
#    y 0.000000 2.228460 0.000000 
#    z 0.000000 0.000000 2.182300 
# 
# From -- ./inp_files/1415.got.cif
#   From: 2010.05.17/outbox.cif.g08.bks.cpg/sg29_1_cif.got.tgz:1415.got - 2010.06.04 01:19:37.
