data_PCOD9340591
_publ_section_title
;
Structure prediction by ZEFSAII (Michael W. Deem and Ramdas Pophale) SiO2 
 PCOD9340591
Probable space group: P C A 21
;
_chemical_formula_sum "Si O2"
_cell_formula_units_Z 28
_cell_length_a 19.209846
_cell_length_b 5.617920
_cell_length_c 10.461746
_cell_angle_alpha 90.000000
_cell_angle_beta 90.000000
_cell_angle_gamma 90.000000
_cell_volume 1129.025122
_symmetry_space_group_name_H-M "P C A 21"
_symmetry_group_IT_number 29
_symmetry_cell_setting 'orthorhombic'
loop_
_space_group_symop_operation_xyz
x,y,z
-x,-y,1/2+z
1/2-x,y,1/2+z
1/2+x,-y,z
loop_
_atom_site_type_symbol
_atom_site_label
_atom_site_fract_x
_atom_site_fract_y
_atom_site_fract_z
Si Si1 0.513167 0.268856 0.230430
Si Si2 0.229585 0.328778 0.834394
Si Si3 0.666869 0.297958 0.202250
Si Si4 0.853132 0.911308 0.911483
Si Si5 0.104711 0.595224 0.825914
Si Si6 0.004829 0.086549 0.463281
Si Si7 0.200217 0.901090 0.641753
O O1 0.587558 0.383041 0.190809
O O2 0.450777 0.456527 0.238892
O O3 0.511912 0.142372 0.370297
O O4 0.499063 0.077683 0.116725
O O5 0.287891 0.513668 0.782375
O O6 0.278163 0.201270 0.937637
O O7 0.156927 0.411402 0.894884
O O8 0.209454 0.149077 0.718932
O O9 0.725143 0.211878 0.100945
O O10 0.653587 0.052157 0.280455
O O11 0.924214 0.769479 0.926520
O O12 0.854001 0.096728 0.026725
O O13 0.062196 0.770849 0.915299
O O14 0.161839 0.733380 0.743771
#
# Coordination Sequence:
#
# PCOD9340591 Si02
#       7
#     4   4   4   4   4   4   4
#     4  11  25  44  67  97 136 176 218 273 333 396
#     4  10  21  39  61  90 123 163 213 269 325 385
#     4   9  22  39  60  92 124 162 215 265 321 387
#     4  10  21  39  62  87 124 167 211 266 326 388
#     4  11  23  39  62  95 131 170 216 267 331 395
#     4  11  24  42  65  96 133 176 222 273 331 394
#     4  10  22  40  63  91 125 166 215 269 325 389
#
# _framework density 24.800155
#
# number of rings (size 3 to 8) (size 9 to 14) (size 15 to 20)
#    0.000    1.714    0.000    3.429    0.000   12.571 
#    0.000    0.000    0.000    0.000    0.000    0.000 
#    0.000    0.000    0.000    0.000    0.000    0.000 
#
# Total GULP energy -156063.245239 kJ/mol
# GULP energy per Si atom -5573.687330 kJ/mol
# Density = 2.474371 g / cm^3
# Si number density = 24.800155 Si / 1000 Ang^3
#
#
#
# Elastic Constant Matrix: (Units=GPa)
#
#
# Indices 1 2 3 4 5 6 
#
# 1 179.3173 24.5265 -3.0132 0.0000 0.0000 0.0000
# 2 24.5265 25.1561 -12.4143 0.0000 0.0000 0.0000
# 3 -3.0132 -12.4143 42.3141 0.0000 0.0000 0.0000
# 4 0.0000 0.0000 0.0000 14.9953 0.0000 0.0000
# 5 0.0000 0.0000 0.0000 0.0000 25.2242 0.0000
# 6 0.0000 0.0000 0.0000 0.0000 0.0000 32.5090
#
#
#
# Elastic Compliance Matrix: (Units=1/GPa)
#
#
# Indices 1 2 3 4 5 6 
#
# 1 0.006531 -0.007177 -0.001641 0.000000 0.000000 0.000000
# 2 -0.007177 0.054369 0.015440 0.000000 0.000000 0.000000
# 3 -0.001641 0.015440 0.028046 0.000000 0.000000 0.000000
# 4 0.000000 0.000000 0.000000 0.066688 0.000000 0.000000
# 5 0.000000 0.000000 0.000000 0.000000 0.039644 0.000000
# 6 0.000000 0.000000 0.000000 0.000000 0.000000 0.030761
#
#
# Mechanical properties :
#
#
# Convention : Reuss Voigt Hill
#
# Bulk Modulus (GPa) = 9.78571 29.44283 19.61427
# Shear Modulus (GPa) = 20.25469 30.39161 25.32315
#
# Velocity S-wave (km/s) = 2.86092 3.50446 3.19891
# Velocity P-wave (km/s) = 3.85585 5.31721 4.64437
#
# Compressibility (1/GPa) = 0.10218978
#
# Stress axis : x y z
#
# Youngs Moduli (GPa) = 153.12115 18.39300 35.65601
#
# Poissons Ratio (x) = 0.13201 0.05850
# Poissons Ratio (y) = 1.09894 -0.55052
# Poissons Ratio (z) = 0.25120 -0.28398
#
# Static dielectric constant tensor:
#      x y z
#    x 2.054960 0.000000 0.000000 
#    y 0.000000 2.250010 0.000000 
#    z 0.000000 0.000000 1.974920 
# 
# From -- ./inp_files/3582.got.cif
#   From: 2010.05.17/outbox.cif.g08.bks.cpg/sg29_2_cif.got.tgz:3582.got - 2010.06.04 01:19:37.
