data_PCOD9340476
_publ_section_title
;
Structure prediction by ZEFSAII (Michael W. Deem and Ramdas Pophale) SiO2 
 PCOD9340476
Probable space group: P C A 21
;
_chemical_formula_sum "Si O2"
_cell_formula_units_Z 32
_cell_length_a 27.060370
_cell_length_b 5.233992
_cell_length_c 8.648590
_cell_angle_alpha 90.000000
_cell_angle_beta 90.000000
_cell_angle_gamma 90.000000
_cell_volume 1224.932321
_symmetry_space_group_name_H-M "P C A 21"
_symmetry_group_IT_number 29
_symmetry_cell_setting 'orthorhombic'
loop_
_space_group_symop_operation_xyz
x,y,z
-x,-y,1/2+z
1/2-x,y,1/2+z
1/2+x,-y,z
loop_
_atom_site_type_symbol
_atom_site_label
_atom_site_fract_x
_atom_site_fract_y
_atom_site_fract_z
Si Si1 0.589823 0.848057 0.778900
Si Si2 0.552930 0.504397 0.529212
Si Si3 0.621788 0.203799 0.322616
Si Si4 0.753742 0.929318 0.602803
Si Si5 0.684801 0.173631 0.827214
Si Si6 0.818141 0.696502 0.864464
Si Si7 0.893844 0.451630 0.489225
Si Si8 0.013172 0.772249 0.799554
O O1 0.591959 0.634899 0.644888
O O2 0.594240 0.746186 0.955325
O O3 0.636550 0.030382 0.758167
O O4 0.533466 0.949180 0.758999
O O5 0.577250 0.271677 0.436954
O O6 0.532293 0.705194 0.406227
O O7 0.511305 0.387569 0.641586
O O8 0.639618 0.912728 0.333242
O O9 0.664250 0.405889 0.372602
O O10 0.609255 0.314881 0.152799
O O11 0.727520 0.157020 0.699952
O O12 0.791556 0.033010 0.475502
O O13 0.781599 0.746328 0.721608
O O14 0.711072 0.777256 0.515936
O O15 0.658936 0.420739 0.901062
O O16 0.938777 0.320555 0.396740
#
# Coordination Sequence:
#
# PCOD9340476 Si02
#       8
#     4   4   4   4   4   4   4   4
#     4  10  23  42  69  96 134 186 229 289 361 419
#     4  11  25  43  69 102 134 183 229 296 350 431
#     4  12  26  44  71 102 144 185 237 288 360 426
#     4  10  22  43  66  97 137 182 239 295 348 425
#     4  10  20  42  62  94 135 178 230 292 351 419
#     4  11  26  45  67 104 137 188 235 292 357 420
#     4  10  22  42  66  95 137 186 227 289 352 422
#     4  10  24  45  68 100 138 176 238 287 355 420
#
# _framework density 26.123891
#
# number of rings (size 3 to 8) (size 9 to 14) (size 15 to 20)
#    0.000    1.500    1.250    2.250    8.750    4.000 
#    9.000    0.000    0.000    0.000    0.000    0.000 
#    0.000    0.000    0.000    0.000    0.000    0.000 
#
# Total GULP energy -179062.095590 kJ/mol
# GULP energy per Si atom -5595.690487 kJ/mol
# Density = 2.606443 g / cm^3
# Si number density = 26.123891 Si / 1000 Ang^3
#
#
#
# Elastic Constant Matrix: (Units=GPa)
#
#
# Indices 1 2 3 4 5 6 
#
# 1 88.1664 16.2868 38.1946 0.0000 0.0000 0.0000
# 2 16.2868 57.1451 9.3793 0.0000 0.0000 0.0000
# 3 38.1946 9.3793 121.4738 0.0000 0.0000 0.0000
# 4 0.0000 0.0000 0.0000 15.4371 0.0000 0.0000
# 5 0.0000 0.0000 0.0000 0.0000 45.9474 0.0000
# 6 0.0000 0.0000 0.0000 0.0000 0.0000 27.8875
#
#
#
# Elastic Compliance Matrix: (Units=1/GPa)
#
#
# Indices 1 2 3 4 5 6 
#
# 1 0.013698 -0.003238 -0.004057 0.000000 0.000000 0.000000
# 2 -0.003238 0.018489 -0.000409 0.000000 0.000000 0.000000
# 3 -0.004057 -0.000409 0.009539 0.000000 0.000000 0.000000
# 4 0.000000 0.000000 0.000000 0.064779 0.000000 0.000000
# 5 0.000000 0.000000 0.000000 0.000000 0.021764 0.000000
# 6 0.000000 0.000000 0.000000 0.000000 0.000000 0.035858
#
#
# Mechanical properties :
#
#
# Convention : Reuss Voigt Hill
#
# Bulk Modulus (GPa) = 37.99731 43.83409 40.91570
# Shear Modulus (GPa) = 26.55202 31.38272 28.96737
#
# Velocity S-wave (km/s) = 3.19154 3.46974 3.33355
# Velocity P-wave (km/s) = 5.30640 5.73305 5.52385
#
# Compressibility (1/GPa) = 0.02631765
#
# Stress axis : x y z
#
# Youngs Moduli (GPa) = 73.00403 54.08503 104.82775
#
# Poissons Ratio (x) = 0.17513 0.42528
# Poissons Ratio (y) = 0.23640 0.04292
# Poissons Ratio (z) = 0.29617 0.02215
#
# Static dielectric constant tensor:
#      x y z
#    x 2.064470 0.000000 0.000000 
#    y 0.000000 2.250120 0.000000 
#    z 0.000000 0.000000 2.040330 
# 
# From -- ./inp_files/2602.got.cif
#   From: 2010.05.17/outbox.cif.g08.bks.cpg/sg29_2_cif.got.tgz:2602.got - 2010.06.04 01:19:37.
