data_PCOD9340430
_publ_section_title
;
Structure prediction by ZEFSAII (Michael W. Deem and Ramdas Pophale) SiO2 
 PCOD9340430
Probable space group: P C A 21
;
_chemical_formula_sum "Si O2"
_cell_formula_units_Z 32
_cell_length_a 14.040133
_cell_length_b 7.746989
_cell_length_c 12.093641
_cell_angle_alpha 90.000000
_cell_angle_beta 90.000000
_cell_angle_gamma 90.000000
_cell_volume 1315.410286
_symmetry_space_group_name_H-M "P C A 21"
_symmetry_group_IT_number 29
_symmetry_cell_setting 'orthorhombic'
loop_
_space_group_symop_operation_xyz
x,y,z
-x,-y,1/2+z
1/2-x,y,1/2+z
1/2+x,-y,z
loop_
_atom_site_type_symbol
_atom_site_label
_atom_site_fract_x
_atom_site_fract_y
_atom_site_fract_z
Si Si1 0.714467 0.026007 0.368780
Si Si2 0.446377 0.875657 0.727989
Si Si3 0.415264 0.039488 0.408098
Si Si4 0.213068 0.592539 0.464922
Si Si5 0.068120 0.526648 0.621736
Si Si6 0.565983 0.855460 0.532881
Si Si7 0.590381 0.505777 0.262349
Si Si8 0.129526 0.342936 0.052234
O O1 0.644176 0.016958 0.264909
O O2 0.729527 0.221991 0.411533
O O3 0.820553 0.975207 0.336952
O O4 0.656656 0.928150 0.467309
O O5 0.507209 0.853163 0.840123
O O6 0.517953 0.953374 0.637979
O O7 0.407505 0.683871 0.703314
O O8 0.374278 0.149277 0.509989
O O9 0.475445 0.873281 0.448521
O O10 0.162232 0.622487 0.583429
O O11 0.136990 0.503431 0.381118
O O12 0.301134 0.465107 0.482283
O O13 0.086959 0.328398 0.588205
O O14 0.021560 0.550924 0.743079
O O15 0.979554 0.591266 0.547519
O O16 0.650452 0.629661 0.182061
#
# Coordination Sequence:
#
# PCOD9340430 Si02
#       8
#     4   4   4   4   4   4   4   4
#     4  10  22  37  61  91 123 165 206 257 311 371
#     4   9  20  41  63  85 127 162 205 255 313 369
#     4  11  22  40  61  93 126 163 203 262 317 366
#     4  11  20  42  61  85 128 161 207 264 309 367
#     4   9  19  38  61  85 117 157 208 249 309 366
#     4  10  20  40  61  88 120 161 200 259 310 373
#     4   8  20  39  60  87 115 161 207 253 305 371
#     4  10  21  39  60  88 118 160 204 257 306 375
#
# _framework density 24.327010999999999
#
# number of rings (size 3 to 8) (size 9 to 14) (size 15 to 20)
#    0.750    1.500    0.000    3.750    0.000    1.000 
#   18.000    0.000    0.000    0.000    0.000    0.000 
#    0.000    0.000    0.000    0.000    0.000    0.000 
#
# Total GULP energy -178280.049424 kJ/mol
# GULP energy per Si atom -5571.251545 kJ/mol
# Density = 2.427164 g / cm^3
# Si number density = 24.327011 Si / 1000 Ang^3
#
#
#
# Elastic Constant Matrix: (Units=GPa)
#
#
# Indices 1 2 3 4 5 6 
#
# 1 93.6824 6.0919 -6.4778 0.0000 0.0000 0.0000
# 2 6.0919 34.5249 -1.4755 0.0000 0.0000 0.0000
# 3 -6.4778 -1.4755 19.7092 0.0000 0.0000 0.0000
# 4 0.0000 0.0000 0.0000 27.9546 0.0000 0.0000
# 5 0.0000 0.0000 0.0000 0.0000 13.2250 0.0000
# 6 0.0000 0.0000 0.0000 0.0000 0.0000 17.7163
#
#
#
# Elastic Compliance Matrix: (Units=1/GPa)
#
#
# Indices 1 2 3 4 5 6 
#
# 1 0.011033 -0.001797 0.003492 0.000000 0.000000 0.000000
# 2 -0.001797 0.029350 0.001606 0.000000 0.000000 0.000000
# 3 0.003492 0.001606 0.052006 0.000000 0.000000 0.000000
# 4 0.000000 0.000000 0.000000 0.035772 0.000000 0.000000
# 5 0.000000 0.000000 0.000000 0.000000 0.075614 0.000000
# 6 0.000000 0.000000 0.000000 0.000000 0.000000 0.056445
#
#
# Mechanical properties :
#
#
# Convention : Reuss Voigt Hill
#
# Bulk Modulus (GPa) = 10.10206 16.02152 13.06179
# Shear Modulus (GPa) = 17.44495 21.76438 19.60466
#
# Velocity S-wave (km/s) = 2.68078 2.99433 2.84188
# Velocity P-wave (km/s) = 3.70726 4.30754 4.01862
#
# Compressibility (1/GPa) = 0.09898971
#
# Stress axis : x y z
#
# Youngs Moduli (GPa) = 90.63983 34.07108 19.22870
#
# Poissons Ratio (x) = 0.06124 -0.06714
# Poissons Ratio (y) = 0.16292 -0.03089
# Poissons Ratio (z) = -0.31647 -0.05473
#
# Static dielectric constant tensor:
#      x y z
#    x 1.919120 0.000000 0.000000 
#    y 0.000000 1.983120 0.000000 
#    z 0.000000 0.000000 2.012310 
# 
# From -- ./inp_files/4698.got.cif
#   From: 2010.05.17/outbox.cif.g08.bks.cpg/sg29_3_cif.got.tgz:4698.got - 2010.06.04 01:19:37.
