data_PCOD9340895
_publ_section_title
;
Structure prediction by ZEFSAII (Michael W. Deem and Ramdas Pophale) SiO2 
 PCOD9340895
Probable space group: P C A 21
;
_chemical_formula_sum "Si O2"
_cell_formula_units_Z 24
_cell_length_a 9.185284
_cell_length_b 12.567607
_cell_length_c 8.311451
_cell_angle_alpha 90.000000
_cell_angle_beta 90.000000
_cell_angle_gamma 90.000000
_cell_volume 959.449297
_symmetry_space_group_name_H-M "P C A 21"
_symmetry_group_IT_number 29
_symmetry_cell_setting 'orthorhombic'
loop_
_space_group_symop_operation_xyz
x,y,z
-x,-y,1/2+z
1/2-x,y,1/2+z
1/2+x,-y,z
loop_
_atom_site_type_symbol
_atom_site_label
_atom_site_fract_x
_atom_site_fract_y
_atom_site_fract_z
Si Si1 0.458272 0.957410 0.886100
Si Si2 0.038000 0.272146 0.766677
Si Si3 0.520391 0.399696 0.736547
Si Si4 0.819147 0.423158 0.889984
Si Si5 0.704728 0.736932 0.072564
Si Si6 0.287397 0.010065 0.579412
O O1 0.520036 0.852820 0.800737
O O2 0.350247 0.004845 0.756828
O O3 0.588756 0.027379 0.954303
O O4 0.356793 0.943289 0.043749
O O5 0.133725 0.301995 0.614369
O O6 0.882323 0.320485 0.795829
O O7 0.142809 0.312025 0.910289
O O8 0.645632 0.411549 0.872662
O O9 0.612291 0.423060 0.570496
O O10 0.394869 0.482636 0.787905
O O11 0.424495 0.293180 0.698401
O O12 0.726875 0.863340 0.052704
#
# Coordination Sequence:
#
# PCOD9340895 Si02
#       6
#     4   4   4   4   4   4
#     4  11  23  39  63  91 125 166 210 263 322 386
#     4  10  23  40  62  91 123 165 214 265 324 386
#     4  11  24  42  66  93 130 171 218 273 330 391
#     4  11  24  42  64  96 129 169 219 270 328 391
#     4  10  22  41  62  89 124 167 214 265 326 387
#     4  11  22  40  61  90 125 164 211 262 322 389
#
# _framework density 25.01435
#
# number of rings (size 3 to 8) (size 9 to 14) (size 15 to 20)
#    0.000    1.333    0.000    6.000    0.000   10.667 
#    0.000    0.000    0.000    0.000    0.000    0.000 
#    0.000    0.000    0.000    0.000    0.000    0.000 
#
# Total GULP energy -133973.281190 kJ/mol
# GULP energy per Si atom -5582.220050 kJ/mol
# Density = 2.495742 g / cm^3
# Si number density = 25.014350 Si / 1000 Ang^3
#
#
#
# Elastic Constant Matrix: (Units=GPa)
#
#
# Indices 1 2 3 4 5 6 
#
# 1 140.2010 8.3438 17.8482 0.0000 0.0000 0.0000
# 2 8.3438 27.0590 1.6762 0.0000 0.0000 0.0000
# 3 17.8482 1.6762 58.7506 0.0000 0.0000 0.0000
# 4 0.0000 0.0000 0.0000 17.3968 0.0000 0.0000
# 5 0.0000 0.0000 0.0000 0.0000 53.8415 0.0000
# 6 0.0000 0.0000 0.0000 0.0000 0.0000 34.9000
#
#
#
# Elastic Compliance Matrix: (Units=1/GPa)
#
#
# Indices 1 2 3 4 5 6 
#
# 1 0.007547 -0.002189 -0.002230 0.000000 0.000000 0.000000
# 2 -0.002189 0.037657 -0.000409 0.000000 0.000000 0.000000
# 3 -0.002230 -0.000409 0.017710 0.000000 0.000000 0.000000
# 4 0.000000 0.000000 0.000000 0.057482 0.000000 0.000000
# 5 0.000000 0.000000 0.000000 0.000000 0.018573 0.000000
# 6 0.000000 0.000000 0.000000 0.000000 0.000000 0.028653
#
#
# Mechanical properties :
#
#
# Convention : Reuss Voigt Hill
#
# Bulk Modulus (GPa) = 18.77701 31.30523 25.04112
# Shear Modulus (GPa) = 25.63691 34.43716 30.03703
#
# Velocity S-wave (km/s) = 3.20486 3.71441 3.46900
# Velocity P-wave (km/s) = 4.60626 5.56218 5.10664
#
# Compressibility (1/GPa) = 0.05325662
#
# Stress axis : x y z
#
# Youngs Moduli (GPa) = 132.50639 26.55572 56.46425
#
# Poissons Ratio (x) = 0.05813 0.12593
# Poissons Ratio (y) = 0.29005 0.02312
# Poissons Ratio (z) = 0.29552 0.01087
#
# Static dielectric constant tensor:
#      x y z
#    x 2.001900 0.000000 0.000000 
#    y 0.000000 1.989640 0.000000 
#    z 0.000000 0.000000 2.087940 
# 
# From -- ./inp_files/1156.got.cif
#   From: 2010.05.17/outbox.cif.g08.bks.cpg/sg29_1_cif.got.tgz:1156.got - 2010.06.04 01:19:37.
