data_PCOD9340389
_publ_section_title
;
Structure prediction by ZEFSAII (Michael W. Deem and Ramdas Pophale) SiO2 
 PCOD9340389
Probable space group: P C A 21
;
_chemical_formula_sum "Si O2"
_cell_formula_units_Z 28
_cell_length_a 13.368323
_cell_length_b 7.020643
_cell_length_c 13.465769
_cell_angle_alpha 90.000000
_cell_angle_beta 90.000000
_cell_angle_gamma 90.000000
_cell_volume 1263.819291
_symmetry_space_group_name_H-M "P C A 21"
_symmetry_group_IT_number 29
_symmetry_cell_setting 'orthorhombic'
loop_
_space_group_symop_operation_xyz
x,y,z
-x,-y,1/2+z
1/2-x,y,1/2+z
1/2+x,-y,z
loop_
_atom_site_type_symbol
_atom_site_label
_atom_site_fract_x
_atom_site_fract_y
_atom_site_fract_z
Si Si1 0.850556 0.254001 0.439420
Si Si2 0.578859 0.767323 0.654624
Si Si3 0.779710 0.039635 0.093603
Si Si4 0.185318 0.770146 0.279915
Si Si5 0.520389 0.932775 0.856583
Si Si6 0.503101 0.866966 0.074992
Si Si7 0.583166 0.503557 0.124722
O O1 0.795045 0.093707 0.507010
O O2 0.766184 0.304944 0.358668
O O3 0.879968 0.418606 0.518422
O O4 0.941182 0.147944 0.379873
O O5 0.582846 0.834261 0.768521
O O6 0.532473 0.564535 0.637228
O O7 0.678957 0.823970 0.597433
O O8 0.494454 0.913429 0.609380
O O9 0.737078 0.094690 0.199621
O O10 0.883163 0.160297 0.082887
O O11 0.141035 0.597696 0.214124
O O12 0.094935 0.891088 0.328705
O O13 0.532177 0.833688 0.962140
O O14 0.574706 0.729220 0.134981
#
# Coordination Sequence:
#
# PCOD9340389 Si02
#       7
#     4   4   4   4   4   4   4
#     4  11  18  38  66  88 127 171 205 267 322 363
#     4   9  19  39  61  91 118 167 206 261 314 371
#     4   9  19  36  63  85 126 162 204 262 319 370
#     4  10  20  38  63  92 129 168 210 262 326 374
#     4  11  20  37  68  90 120 172 213 258 314 383
#     4  10  20  41  61  90 125 166 210 261 318 377
#     4  10  22  37  66  88 127 170 206 263 323 374
#
# _framework density 22.155063999999999
#
# number of rings (size 3 to 8) (size 9 to 14) (size 15 to 20)
#    0.857    1.143    4.286    0.000    0.000    0.000 
#   10.286    2.857    6.286    0.000    0.000    0.000 
#    0.000    0.000    0.000    0.000    0.000    0.000 
#
# Total GULP energy -155990.246753 kJ/mol
# GULP energy per Si atom -5571.080241 kJ/mol
# Density = 2.210464 g / cm^3
# Si number density = 22.155064 Si / 1000 Ang^3
#
#
#
# Elastic Constant Matrix: (Units=GPa)
#
#
# Indices 1 2 3 4 5 6 
#
# 1 72.2936 18.5857 23.0114 0.0000 0.0000 0.0000
# 2 18.5857 27.4717 5.7598 0.0000 0.0000 0.0000
# 3 23.0114 5.7598 94.3836 0.0000 0.0000 0.0000
# 4 0.0000 0.0000 0.0000 10.2600 0.0000 0.0000
# 5 0.0000 0.0000 0.0000 0.0000 32.6069 0.0000
# 6 0.0000 0.0000 0.0000 0.0000 0.0000 0.9076
#
#
#
# Elastic Compliance Matrix: (Units=1/GPa)
#
#
# Indices 1 2 3 4 5 6 
#
# 1 0.017922 -0.011354 -0.003677 0.000000 0.000000 0.000000
# 2 -0.011354 0.044066 0.000079 0.000000 0.000000 0.000000
# 3 -0.003677 0.000079 0.011487 0.000000 0.000000 0.000000
# 4 0.000000 0.000000 0.000000 0.097465 0.000000 0.000000
# 5 0.000000 0.000000 0.000000 0.000000 0.030668 0.000000
# 6 0.000000 0.000000 0.000000 0.000000 0.000000 1.101801
#
#
# Mechanical properties :
#
#
# Convention : Reuss Voigt Hill
#
# Bulk Modulus (GPa) = 22.95090 32.09588 27.52339
# Shear Modulus (GPa) = 3.70965 18.54104 11.12535
#
# Velocity S-wave (km/s) = 1.29539 2.89602 2.24332
# Velocity P-wave (km/s) = 3.55234 5.06961 4.37722
#
# Compressibility (1/GPa) = 0.04357128
#
# Stress axis : x y z
#
# Youngs Moduli (GPa) = 55.79829 22.69329 87.05783
#
# Poissons Ratio (x) = 0.25766 0.32007
# Poissons Ratio (y) = 0.63353 -0.00688
# Poissons Ratio (z) = 0.20515 -0.00179
#
# Static dielectric constant tensor:
#      x y z
#    x 1.864020 0.000000 0.000000 
#    y 0.000000 1.808310 0.000000 
#    z 0.000000 0.000000 1.827390 
# 
# From -- ./inp_files/4683.got.cif
#   From: 2010.05.17/outbox.cif.g08.bks.cpg/sg29_3_cif.got.tgz:4683.got - 2010.06.04 01:19:37.
