data_PCOD9340209
_publ_section_title
;
Structure prediction by ZEFSAII (Michael W. Deem and Ramdas Pophale) SiO2 
 PCOD9340209
Probable space group: P C A 21
;
_chemical_formula_sum "Si O2"
_cell_formula_units_Z 32
_cell_length_a 8.649501
_cell_length_b 16.381055
_cell_length_c 9.115891
_cell_angle_alpha 90.000000
_cell_angle_beta 90.000000
_cell_angle_gamma 90.000000
_cell_volume 1291.611923
_symmetry_space_group_name_H-M "P C A 21"
_symmetry_group_IT_number 29
_symmetry_cell_setting 'orthorhombic'
loop_
_space_group_symop_operation_xyz
x,y,z
-x,-y,1/2+z
1/2-x,y,1/2+z
1/2+x,-y,z
loop_
_atom_site_type_symbol
_atom_site_label
_atom_site_fract_x
_atom_site_fract_y
_atom_site_fract_z
Si Si1 0.485034 0.813188 0.125000
Si Si2 0.030624 0.437173 0.428788
Si Si3 0.474439 0.869838 0.695536
Si Si4 0.635015 0.734123 0.886747
Si Si5 0.996891 0.253664 0.435907
Si Si6 0.306136 0.948313 0.938636
Si Si7 0.286795 0.051758 0.678629
Si Si8 0.663983 0.564376 0.750873
O O1 0.437955 0.781175 0.282280
O O2 0.647661 0.860688 0.140303
O O3 0.523815 0.734318 0.027546
O O4 0.389520 0.885218 0.047626
O O5 0.951604 0.348357 0.452181
O O6 0.156283 0.432878 0.296548
O O7 0.116934 0.456085 0.583718
O O8 0.913002 0.504161 0.369219
O O9 0.576126 0.813253 0.803343
O O10 0.445431 0.812131 0.556924
O O11 0.324171 0.894020 0.790548
O O12 0.599986 0.943259 0.675667
O O13 0.814873 0.741530 0.929876
O O14 0.609643 0.656302 0.785339
O O15 0.347069 0.030197 0.841932
O O16 0.176426 0.988160 0.044864
#
# Coordination Sequence:
#
# PCOD9340209 Si02
#       8
#     4   4   4   4   4   4   4   4
#     4  11  23  38  66  95 125 171 219 282 330 399
#     4  11  25  42  75 108 147 184 229 288 346 419
#     4  11  21  40  64  94 125 166 219 280 330 397
#     4  10  19  37  65  98 130 163 219 272 334 387
#     4  11  20  38  68 101 129 169 221 283 342 392
#     4  11  26  38  61  88 124 175 215 276 336 408
#     4  12  22  42  60  90 132 162 219 278 348 390
#     4  11  24  43  71 110 146 184 227 287 346 416
#
# _framework density 24.775245000000002
#
# number of rings (size 3 to 8) (size 9 to 14) (size 15 to 20)
#    0.000    1.000    3.750    3.750    7.000    1.000 
#    0.000    0.000   11.000    0.000    0.000    0.000 
#    0.000    0.000    0.000    0.000    0.000    0.000 
#
# Total GULP energy -178452.356944 kJ/mol
# GULP energy per Si atom -5576.636154 kJ/mol
# Density = 2.471886 g / cm^3
# Si number density = 24.775245 Si / 1000 Ang^3
#
#
#
# Elastic Constant Matrix: (Units=GPa)
#
#
# Indices 1 2 3 4 5 6 
#
# 1 28.6075 14.7207 7.2683 0.0000 0.0000 0.0000
# 2 14.7207 70.4619 15.4285 0.0000 0.0000 0.0000
# 3 7.2683 15.4285 135.4828 0.0000 0.0000 0.0000
# 4 0.0000 0.0000 0.0000 40.1421 0.0000 0.0000
# 5 0.0000 0.0000 0.0000 0.0000 35.1591 0.0000
# 6 0.0000 0.0000 0.0000 0.0000 0.0000 20.1741
#
#
#
# Elastic Compliance Matrix: (Units=1/GPa)
#
#
# Indices 1 2 3 4 5 6 
#
# 1 0.039357 -0.007959 -0.001205 0.000000 0.000000 0.000000
# 2 -0.007959 0.016164 -0.001414 0.000000 0.000000 0.000000
# 3 -0.001205 -0.001414 0.007607 0.000000 0.000000 0.000000
# 4 0.000000 0.000000 0.000000 0.024911 0.000000 0.000000
# 5 0.000000 0.000000 0.000000 0.000000 0.028442 0.000000
# 6 0.000000 0.000000 0.000000 0.000000 0.000000 0.049569
#
#
# Mechanical properties :
#
#
# Convention : Reuss Voigt Hill
#
# Bulk Modulus (GPa) = 23.82464 34.37635 29.10049
# Shear Modulus (GPa) = 24.85132 32.23737 28.54435
#
# Velocity S-wave (km/s) = 3.17057 3.61112 3.39799
# Velocity P-wave (km/s) = 4.80005 5.59395 5.21214
#
# Compressibility (1/GPa) = 0.04197336
#
# Stress axis : x y z
#
# Youngs Moduli (GPa) = 25.40825 61.86468 131.46366
#
# Poissons Ratio (x) = 0.49235 0.15843
# Poissons Ratio (y) = 0.20221 0.18586
# Poissons Ratio (z) = 0.03062 0.08746
#
# Static dielectric constant tensor:
#      x y z
#    x 2.039820 0.000000 0.000000 
#    y 0.000000 2.025980 0.000000 
#    z 0.000000 0.000000 2.050750 
# 
# From -- ./inp_files/1523.got.cif
#   From: 2010.05.17/outbox.cif.g08.bks.cpg/sg29_1_cif.got.tgz:1523.got - 2010.06.04 01:19:37.
