data_PCOD9340514
_publ_section_title
;
Structure prediction by ZEFSAII (Michael W. Deem and Ramdas Pophale) SiO2 
 PCOD9340514
Probable space group: P C A 21
;
_chemical_formula_sum "Si O2"
_cell_formula_units_Z 20
_cell_length_a 22.166006
_cell_length_b 7.460274
_cell_length_c 5.246225
_cell_angle_alpha 90.000000
_cell_angle_beta 90.000000
_cell_angle_gamma 90.000000
_cell_volume 867.539260
_symmetry_space_group_name_H-M "P C A 21"
_symmetry_group_IT_number 29
_symmetry_cell_setting 'orthorhombic'
loop_
_space_group_symop_operation_xyz
x,y,z
-x,-y,1/2+z
1/2-x,y,1/2+z
1/2+x,-y,z
loop_
_atom_site_type_symbol
_atom_site_label
_atom_site_fract_x
_atom_site_fract_y
_atom_site_fract_z
Si Si1 0.617136 0.224128 0.723770
Si Si2 0.778820 0.422575 0.441455
Si Si3 0.497612 0.608931 0.947003
Si Si4 0.461790 0.030754 0.527462
Si Si5 0.273069 0.979381 0.007265
O O1 0.654714 0.395374 0.827534
O O2 0.563603 0.299685 0.550753
O O3 0.590790 0.105864 0.955336
O O4 0.659526 0.086750 0.565003
O O5 0.764874 0.496965 0.720328
O O6 0.762177 0.210798 0.477970
O O7 0.491175 0.545214 0.656866
O O8 0.549330 0.759742 0.974189
O O9 0.512692 0.985332 0.312011
O O10 0.258046 0.075041 0.745028
#
# Coordination Sequence:
#
# PCOD9340514 Si02
#       5
#     4   4   4   4   4
#     4   9  18  33  54  73 101 134 166 218 256 293
#     4   8  15  26  45  77  96 115 160 214 255 296
#     4  11  23  36  49  74 109 141 176 212 255 306
#     4  10  21  35  53  75  98 135 180 210 247 305
#     4   8  15  26  45  77  96 115 160 214 255 296
#
# _framework density 23.053712999999998
#
# number of rings (size 3 to 8) (size 9 to 14) (size 15 to 20)
#    0.000    3.200    0.000    2.400    0.000   19.200 
#    0.000    0.000    0.000    0.000    0.000   75.600 
#    0.000    0.000    0.000    0.000    0.000    0.000 
#
# Total GULP energy -111435.890006 kJ/mol
# GULP energy per Si atom -5571.794500 kJ/mol
# Density = 2.300124 g / cm^3
# Si number density = 23.053713 Si / 1000 Ang^3
#
#
#
# Elastic Constant Matrix: (Units=GPa)
#
#
# Indices 1 2 3 4 5 6 
#
# 1 83.3572 3.5153 12.9484 0.0000 0.0000 0.0000
# 2 3.5153 59.5362 1.6039 0.0000 0.0000 0.0000
# 3 12.9484 1.6039 119.5513 0.0000 0.0000 0.0000
# 4 0.0000 0.0000 0.0000 24.5528 0.0000 0.0000
# 5 0.0000 0.0000 0.0000 0.0000 42.5966 0.0000
# 6 0.0000 0.0000 0.0000 0.0000 0.0000 -16.5141
#
#
#
# Elastic Compliance Matrix: (Units=1/GPa)
#
#
# Indices 1 2 3 4 5 6 
#
# 1 0.012230 -0.000687 -0.001315 0.000000 0.000000 0.000000
# 2 -0.000687 0.016841 -0.000152 0.000000 0.000000 0.000000
# 3 -0.001315 -0.000152 0.008509 0.000000 0.000000 0.000000
# 4 0.000000 0.000000 0.000000 0.040729 0.000000 0.000000
# 5 0.000000 0.000000 0.000000 0.000000 0.023476 0.000000
# 6 0.000000 0.000000 0.000000 0.000000 0.000000 -0.060554
#
#
# Mechanical properties :
#
#
# Convention : Reuss Voigt Hill
#
# Bulk Modulus (GPa) = 30.05453 33.17554 31.61503
# Shear Modulus (GPa) = 88.29464 26.41886 57.35675
#
# Velocity S-wave (km/s) = 6.19538 3.38889 4.99336
# Velocity P-wave (km/s) = 8.01511 5.45294 6.85480
#
# Compressibility (1/GPa) = 0.03327286
#
# Stress axis : x y z
#
# Youngs Moduli (GPa) = 81.76715 59.37839 117.52115
#
# Poissons Ratio (x) = 0.04077 0.15458
# Poissons Ratio (y) = 0.05615 0.01781
# Poissons Ratio (z) = 0.10755 0.00900
#
# Static dielectric constant tensor:
#      x y z
#    x 1.934730 0.000000 0.000000 
#    y 0.000000 1.958060 0.000000 
#    z 0.000000 0.000000 2.025140 
# 
# From -- ./inp_files/744.got.cif
#   From: 2010.05.17/outbox.cif.g08.bks.cpg/sg29_1_cif.got.tgz:744.got - 2010.06.04 01:19:37.
