data_PCOD9340043
_publ_section_title
;
Structure prediction by ZEFSAII (Michael W. Deem and Ramdas Pophale) SiO2 
 PCOD9340043
Probable space group: P C A 21
;
_chemical_formula_sum "Si O2"
_cell_formula_units_Z 32
_cell_length_a 19.321435
_cell_length_b 7.144025
_cell_length_c 8.663763
_cell_angle_alpha 90.000000
_cell_angle_beta 90.000000
_cell_angle_gamma 90.000000
_cell_volume 1195.883593
_symmetry_space_group_name_H-M "P C A 21"
_symmetry_group_IT_number 29
_symmetry_cell_setting 'orthorhombic'
loop_
_space_group_symop_operation_xyz
x,y,z
-x,-y,1/2+z
1/2-x,y,1/2+z
1/2+x,-y,z
loop_
_atom_site_type_symbol
_atom_site_label
_atom_site_fract_x
_atom_site_fract_y
_atom_site_fract_z
Si Si1 0.026582 0.438619 0.757060
Si Si2 0.231244 0.888952 0.314848
Si Si3 0.593230 0.459581 0.057288
Si Si4 0.213235 0.438774 0.255528
Si Si5 0.400859 0.975646 0.649058
Si Si6 0.849643 0.145872 0.121143
Si Si7 0.153926 0.403998 0.584501
Si Si8 0.518316 0.094344 0.442693
O O1 0.078445 0.337093 0.637515
O O2 0.984697 0.298855 0.866590
O O3 0.969616 0.544913 0.658147
O O4 0.074860 0.543644 0.878514
O O5 0.223728 0.662981 0.286661
O O6 0.178459 0.999771 0.201963
O O7 0.202156 0.921923 0.484966
O O8 0.311702 0.917680 0.276656
O O9 0.662135 0.564773 0.108390
O O10 0.597497 0.246001 0.111062
O O11 0.177788 0.362793 0.410633
O O12 0.285831 0.351764 0.204729
O O13 0.447655 0.019953 0.800943
O O14 0.441545 0.059270 0.504370
O O15 0.851289 0.369920 0.098356
O O16 0.926289 0.081874 0.080336
#
# Coordination Sequence:
#
# PCOD9340043 Si02
#       8
#     4   4   4   4   4   4   4   4
#     4  11  21  34  54  81 112 144 179 228 281 334
#     4   8  16  30  51  77 105 133 179 233 268 309
#     4  10  20  35  54  80 108 141 184 230 275 328
#     4   9  17  31  52  80 109 140 183 229 272 325
#     4   9  20  36  53  76 108 144 182 226 272 330
#     4   9  17  31  52  81 107 136 180 231 276 323
#     4  10  18  31  52  79 110 143 180 228 279 327
#     4  10  21  36  54  80 113 145 181 225 279 338
#
# _framework density 26.758457
#
# number of rings (size 3 to 8) (size 9 to 14) (size 15 to 20)
#    0.000    2.500    0.000    4.500    0.000    6.000 
#    0.000    0.000    0.000   13.500    0.000    0.000 
#    0.000    0.000    0.000    0.000    0.000    0.000 
#
# Total GULP energy -179009.475313 kJ/mol
# GULP energy per Si atom -5594.046104 kJ/mol
# Density = 2.669755 g / cm^3
# Si number density = 26.758457 Si / 1000 Ang^3
#
#
#
# Elastic Constant Matrix: (Units=GPa)
#
#
# Indices 1 2 3 4 5 6 
#
# 1 116.6506 1.0366 28.3804 0.0000 0.0000 0.0000
# 2 1.0366 75.5364 8.7876 0.0000 0.0000 0.0000
# 3 28.3804 8.7876 57.4927 0.0000 0.0000 0.0000
# 4 0.0000 0.0000 0.0000 10.5012 0.0000 0.0000
# 5 0.0000 0.0000 0.0000 0.0000 48.0593 0.0000
# 6 0.0000 0.0000 0.0000 0.0000 0.0000 17.2753
#
#
#
# Elastic Compliance Matrix: (Units=1/GPa)
#
#
# Indices 1 2 3 4 5 6 
#
# 1 0.009757 0.000434 -0.004883 0.000000 0.000000 0.000000
# 2 0.000434 0.013498 -0.002277 0.000000 0.000000 0.000000
# 3 -0.004883 -0.002277 0.020152 0.000000 0.000000 0.000000
# 4 0.000000 0.000000 0.000000 0.095227 0.000000 0.000000
# 5 0.000000 0.000000 0.000000 0.000000 0.020808 0.000000
# 6 0.000000 0.000000 0.000000 0.000000 0.000000 0.057886
#
#
# Mechanical properties :
#
#
# Convention : Reuss Voigt Hill
#
# Bulk Modulus (GPa) = 33.38403 36.23212 34.80808
# Shear Modulus (GPa) = 20.76728 29.26552 25.01640
#
# Velocity S-wave (km/s) = 2.78888 3.31069 3.06093
# Velocity P-wave (km/s) = 4.78264 5.30887 5.05261
#
# Compressibility (1/GPa) = 0.02995444
#
# Stress axis : x y z
#
# Youngs Moduli (GPa) = 102.49414 74.08711 49.62334
#
# Poissons Ratio (x) = -0.03216 0.24229
# Poissons Ratio (y) = -0.04449 0.11301
# Poissons Ratio (z) = 0.50044 0.16872
#
# Static dielectric constant tensor:
#      x y z
#    x 2.105160 0.000000 0.000000 
#    y 0.000000 2.161260 0.000000 
#    z 0.000000 0.000000 2.072500 
# 
# From -- ./inp_files/2342.got.cif
#   From: 2010.05.17/outbox.cif.g08.bks.cpg/sg29_2_cif.got.tgz:2342.got - 2010.06.04 01:19:37.
