data_PCOD9340728
_publ_section_title
;
Structure prediction by ZEFSAII (Michael W. Deem and Ramdas Pophale) SiO2 
 PCOD9340728
Probable space group: P C A 21
;
_chemical_formula_sum "Si O2"
_cell_formula_units_Z 28
_cell_length_a 19.046080
_cell_length_b 7.089627
_cell_length_c 9.366074
_cell_angle_alpha 90.000000
_cell_angle_beta 90.000000
_cell_angle_gamma 90.000000
_cell_volume 1264.697254
_symmetry_space_group_name_H-M "P C A 21"
_symmetry_group_IT_number 29
_symmetry_cell_setting 'orthorhombic'
loop_
_space_group_symop_operation_xyz
x,y,z
-x,-y,1/2+z
1/2-x,y,1/2+z
1/2+x,-y,z
loop_
_atom_site_type_symbol
_atom_site_label
_atom_site_fract_x
_atom_site_fract_y
_atom_site_fract_z
Si Si1 0.130458 0.811808 0.235330
Si Si2 0.969317 0.454074 0.574481
Si Si3 0.330988 0.228489 0.416738
Si Si4 0.248121 0.071450 0.658545
Si Si5 0.916441 0.449430 0.275253
Si Si6 0.956060 0.904319 0.563062
Si Si7 0.113177 0.878470 0.554744
O O1 0.096838 0.640773 0.149804
O O2 0.128554 0.778400 0.403582
O O3 0.205145 0.883302 0.178014
O O4 0.077988 0.984199 0.193585
O O5 0.967291 0.396023 0.408458
O O6 0.961946 0.679823 0.583486
O O7 0.039205 0.419202 0.666321
O O8 0.294719 0.221200 0.571317
O O9 0.273666 0.143843 0.312237
O O10 0.357127 0.424885 0.351740
O O11 0.399256 0.090343 0.434139
O O12 0.175330 0.023994 0.581472
O O13 0.889403 0.272827 0.184174
O O14 0.035588 0.967871 0.540729
#
# Coordination Sequence:
#
# PCOD9340728 Si02
#       7
#     4   4   4   4   4   4   4
#     4  11  23  43  69  95 139 188 221 292 349 414
#     4  10  21  42  69 102 136 172 235 285 345 411
#     4  10  22  47  63  94 135 179 224 291 339 417
#     4  11  24  44  65  95 139 179 238 275 347 430
#     4  10  23  43  69 102 140 175 232 299 346 416
#     4   9  23  40  71  99 135 173 233 286 345 411
#     4  11  24  43  64 105 132 178 241 282 353 411
#
# _framework density 22.139685
#
# number of rings (size 3 to 8) (size 9 to 14) (size 15 to 20)
#    0.000    1.714    1.429    2.571    8.000    1.143 
#   12.857    0.000    0.000    0.000    0.000    0.000 
#    0.000    0.000    0.000    0.000    0.000    0.000 
#
# Total GULP energy -156318.932009 kJ/mol
# GULP energy per Si atom -5582.819000 kJ/mol
# Density = 2.208929 g / cm^3
# Si number density = 22.139685 Si / 1000 Ang^3
#
#
#
# Elastic Constant Matrix: (Units=GPa)
#
#
# Indices 1 2 3 4 5 6 
#
# 1 108.4596 10.5690 16.1503 0.0000 0.0000 0.0000
# 2 10.5690 36.0645 16.9913 0.0000 0.0000 0.0000
# 3 16.1503 16.9913 109.7308 0.0000 0.0000 0.0000
# 4 0.0000 0.0000 0.0000 25.5466 0.0000 0.0000
# 5 0.0000 0.0000 0.0000 0.0000 35.7914 0.0000
# 6 0.0000 0.0000 0.0000 0.0000 0.0000 35.4301
#
#
#
# Elastic Compliance Matrix: (Units=1/GPa)
#
#
# Indices 1 2 3 4 5 6 
#
# 1 0.009603 -0.002317 -0.001055 0.000000 0.000000 0.000000
# 2 -0.002317 0.030469 -0.004377 0.000000 0.000000 0.000000
# 3 -0.001055 -0.004377 0.009946 0.000000 0.000000 0.000000
# 4 0.000000 0.000000 0.000000 0.039144 0.000000 0.000000
# 5 0.000000 0.000000 0.000000 0.000000 0.027940 0.000000
# 6 0.000000 0.000000 0.000000 0.000000 0.000000 0.028225
#
#
# Mechanical properties :
#
#
# Convention : Reuss Voigt Hill
#
# Bulk Modulus (GPa) = 28.96815 37.96400 33.46608
# Shear Modulus (GPa) = 29.01387 33.38992 31.20190
#
# Velocity S-wave (km/s) = 3.62400 3.88770 3.75816
# Velocity P-wave (km/s) = 5.53388 6.11040 5.82927
#
# Compressibility (1/GPa) = 0.03452067
#
# Stress axis : x y z
#
# Youngs Moduli (GPa) = 104.13553 32.81987 100.54119
#
# Poissons Ratio (x) = 0.07606 0.10602
# Poissons Ratio (y) = 0.24132 0.44006
# Poissons Ratio (z) = 0.10981 0.14365
#
# Static dielectric constant tensor:
#      x y z
#    x 1.866580 0.000000 0.000000 
#    y 0.000000 1.809010 0.000000 
#    z 0.000000 0.000000 1.849050 
# 
# From -- ./inp_files/2221.got.cif
#   From: 2010.05.17/outbox.cif.g08.bks.cpg/sg29_2_cif.got.tgz:2221.got - 2010.06.04 01:19:37.
