data_PCOD9340985
_publ_section_title
;
Structure prediction by ZEFSAII (Michael W. Deem and Ramdas Pophale) SiO2 
 PCOD9340985
Probable space group: P C A 21
;
_chemical_formula_sum "Si O2"
_cell_formula_units_Z 28
_cell_length_a 12.634539
_cell_length_b 5.137388
_cell_length_c 18.541356
_cell_angle_alpha 90.000000
_cell_angle_beta 90.000000
_cell_angle_gamma 90.000000
_cell_volume 1203.492144
_symmetry_space_group_name_H-M "P C A 21"
_symmetry_group_IT_number 29
_symmetry_cell_setting 'orthorhombic'
loop_
_space_group_symop_operation_xyz
x,y,z
-x,-y,1/2+z
1/2-x,y,1/2+z
1/2+x,-y,z
loop_
_atom_site_type_symbol
_atom_site_label
_atom_site_fract_x
_atom_site_fract_y
_atom_site_fract_z
Si Si1 0.047150 0.276248 0.195070
Si Si2 0.219432 0.116088 0.088607
Si Si3 0.427649 0.738231 0.523982
Si Si4 0.596514 0.527557 0.339378
Si Si5 0.028943 0.026348 0.888926
Si Si6 0.207348 0.336312 0.935205
Si Si7 0.068646 0.244893 0.659276
O O1 0.119056 0.266773 0.122923
O O2 0.121968 0.393912 0.257359
O O3 0.949814 0.480300 0.197679
O O4 0.999352 0.984612 0.197110
O O5 0.314889 0.141262 0.143820
O O6 0.173073 0.831935 0.071104
O O7 0.251025 0.215074 0.009354
O O8 0.381933 0.532871 0.466563
O O9 0.518928 0.687639 0.580804
O O10 0.473198 0.976503 0.475397
O O11 0.543107 0.252359 0.356159
O O12 0.698004 0.542532 0.390573
O O13 0.512645 0.757880 0.356821
O O14 0.149788 0.124947 0.883708
#
# Coordination Sequence:
#
# PCOD9340985 Si02
#       7
#     4   4   4   4   4   4   4
#     4  11  26  46  62 102 138 182 240 279 332 442
#     4  10  24  41  73 101 134 180 230 289 355 393
#     4  10  22  43  69 108 134 170 236 300 334 426
#     4  12  27  43  71  97 144 193 229 285 360 415
#     4  11  25  45  65 104 138 177 228 286 348 417
#     4  11  24  44  73 105 141 173 240 294 350 414
#     4  11  24  44  71  95 139 179 225 291 351 401
#
# _framework density 23.265626000000001
#
# number of rings (size 3 to 8) (size 9 to 14) (size 15 to 20)
#    0.000    1.143    2.857    1.714    8.000    2.286 
#    0.000    0.000    0.000    0.000    0.000    0.000 
#    0.000    0.000    0.000    0.000    0.000    0.000 
#
# Total GULP energy -156161.644905 kJ/mol
# GULP energy per Si atom -5577.201604 kJ/mol
# Density = 2.321267 g / cm^3
# Si number density = 23.265626 Si / 1000 Ang^3
#
#
#
# Elastic Constant Matrix: (Units=GPa)
#
#
# Indices 1 2 3 4 5 6 
#
# 1 30.8441 7.8031 -1.2526 0.0000 0.0000 0.0000
# 2 7.8031 113.8364 6.4650 0.0000 0.0000 0.0000
# 3 -1.2526 6.4650 38.3548 0.0000 0.0000 0.0000
# 4 0.0000 0.0000 0.0000 33.0741 0.0000 0.0000
# 5 0.0000 0.0000 0.0000 0.0000 24.3653 0.0000
# 6 0.0000 0.0000 0.0000 0.0000 0.0000 22.4478
#
#
#
# Elastic Compliance Matrix: (Units=1/GPa)
#
#
# Indices 1 2 3 4 5 6 
#
# 1 0.033076 -0.002351 0.001477 0.000000 0.000000 0.000000
# 2 -0.002351 0.009037 -0.001600 0.000000 0.000000 0.000000
# 3 0.001477 -0.001600 0.026390 0.000000 0.000000 0.000000
# 4 0.000000 0.000000 0.000000 0.030235 0.000000 0.000000
# 5 0.000000 0.000000 0.000000 0.000000 0.041042 0.000000
# 6 0.000000 0.000000 0.000000 0.000000 0.000000 0.044548
#
#
# Mechanical properties :
#
#
# Convention : Reuss Voigt Hill
#
# Bulk Modulus (GPa) = 15.73475 23.22959 19.48217
# Shear Modulus (GPa) = 23.75736 27.31211 25.53474
#
# Velocity S-wave (km/s) = 3.19899 3.42998 3.31649
# Velocity P-wave (km/s) = 4.51912 5.06878 4.80182
#
# Compressibility (1/GPa) = 0.06355359
#
# Stress axis : x y z
#
# Youngs Moduli (GPa) = 30.23354 110.66160 37.89275
#
# Poissons Ratio (x) = 0.26018 -0.05595
# Poissons Ratio (y) = 0.07108 0.06063
# Poissons Ratio (z) = -0.04464 0.17705
#
# Static dielectric constant tensor:
#      x y z
#    x 1.863580 0.000000 0.000000 
#    y 0.000000 1.961720 0.000000 
#    z 0.000000 0.000000 1.959770 
# 
# From -- ./inp_files/5106.got.cif
#   From: 2010.05.17/outbox.cif.g08.bks.cpg/sg29_3_cif.got.tgz:5106.got - 2010.06.04 01:19:37.
