data_PCOD9340443
_publ_section_title
;
Structure prediction by ZEFSAII (Michael W. Deem and Ramdas Pophale) SiO2 
 PCOD9340443
Probable space group: P C A 21
;
_chemical_formula_sum "Si O2"
_cell_formula_units_Z 28
_cell_length_a 5.094292
_cell_length_b 15.622125
_cell_length_c 17.044514
_cell_angle_alpha 90.000000
_cell_angle_beta 90.000000
_cell_angle_gamma 90.000000
_cell_volume 1356.464916
_symmetry_space_group_name_H-M "P C A 21"
_symmetry_group_IT_number 29
_symmetry_cell_setting 'orthorhombic'
loop_
_space_group_symop_operation_xyz
x,y,z
-x,-y,1/2+z
1/2-x,y,1/2+z
1/2+x,-y,z
loop_
_atom_site_type_symbol
_atom_site_label
_atom_site_fract_x
_atom_site_fract_y
_atom_site_fract_z
Si Si1 0.944120 0.287277 0.651330
Si Si2 0.058306 0.282269 0.255605
Si Si3 0.911652 0.799421 0.371145
Si Si4 0.478093 0.183064 0.001680
Si Si5 0.789733 0.342038 0.401560
Si Si6 0.781815 0.057716 0.395084
Si Si7 0.757695 0.447954 0.050466
O O1 0.699205 0.260125 0.705463
O O2 0.835153 0.367974 0.602288
O O3 0.202528 0.311804 0.700591
O O4 0.026807 0.212220 0.590929
O O5 0.188580 0.204670 0.305418
O O6 0.955061 0.348697 0.321944
O O7 0.795193 0.829160 0.455033
O O8 0.014037 0.702147 0.379333
O O9 0.152654 0.861214 0.350585
O O10 0.585787 0.266424 0.955013
O O11 0.658854 0.101883 0.980310
O O12 0.766586 0.421523 0.458941
O O13 0.561435 0.986025 0.380530
O O14 0.554975 0.524612 0.066230
#
# Coordination Sequence:
#
# PCOD9340443 Si02
#       7
#     4   4   4   4   4   4   4
#     4  11  24  39  64  90 123 166 212 255 308 377
#     4  11  22  39  64  90 121 157 208 263 308 363
#     4  10  20  40  64  95 118 164 215 263 297 375
#     4   9  21  36  64  89 120 158 213 253 302 363
#     4   9  21  39  63  90 118 153 214 257 303 370
#     4  11  21  35  60  96 126 155 201 261 306 354
#     4  11  25  42  63  88 124 163 205 258 320 370
#
# _framework density 20.64189
#
# number of rings (size 3 to 8) (size 9 to 14) (size 15 to 20)
#    0.000    1.714    2.857    0.857   12.000    0.000 
#    0.000    4.286    0.000    5.143    0.000    0.000 
#    0.000    0.000    0.000    0.000    0.000    0.000 
#
# Total GULP energy -155929.044807 kJ/mol
# GULP energy per Si atom -5568.894457 kJ/mol
# Density = 2.059491 g / cm^3
# Si number density = 20.641890 Si / 1000 Ang^3
#
#
#
# Elastic Constant Matrix: (Units=GPa)
#
#
# Indices 1 2 3 4 5 6 
#
# 1 133.2168 16.7361 43.8135 0.0000 0.0000 0.0000
# 2 16.7361 40.9439 16.3487 0.0000 0.0000 0.0000
# 3 43.8135 16.3487 107.1971 0.0000 0.0000 0.0000
# 4 0.0000 0.0000 0.0000 17.5243 0.0000 0.0000
# 5 0.0000 0.0000 0.0000 0.0000 27.6646 0.0000
# 6 0.0000 0.0000 0.0000 0.0000 0.0000 35.3286
#
#
#
# Elastic Compliance Matrix: (Units=1/GPa)
#
#
# Indices 1 2 3 4 5 6 
#
# 1 0.008875 -0.002321 -0.003273 0.000000 0.000000 0.000000
# 2 -0.002321 0.026614 -0.003110 0.000000 0.000000 0.000000
# 3 -0.003273 -0.003110 0.011141 0.000000 0.000000 0.000000
# 4 0.000000 0.000000 0.000000 0.057063 0.000000 0.000000
# 5 0.000000 0.000000 0.000000 0.000000 0.036147 0.000000
# 6 0.000000 0.000000 0.000000 0.000000 0.000000 0.028306
#
#
# Mechanical properties :
#
#
# Convention : Reuss Voigt Hill
#
# Bulk Modulus (GPa) = 34.22202 48.35051 41.28627
# Shear Modulus (GPa) = 25.60226 29.73414 27.66820
#
# Velocity S-wave (km/s) = 3.52562 3.79948 3.66511
# Velocity P-wave (km/s) = 5.76092 6.53624 6.16079
#
# Compressibility (1/GPa) = 0.02922095
#
# Stress axis : x y z
#
# Youngs Moduli (GPa) = 112.68045 37.57394 89.75963
#
# Poissons Ratio (x) = 0.08719 0.29381
# Poissons Ratio (y) = 0.26148 0.27920
# Poissons Ratio (z) = 0.36884 0.11687
#
# Static dielectric constant tensor:
#      x y z
#    x 1.825260 0.000000 0.000000 
#    y 0.000000 1.774110 0.000000 
#    z 0.000000 0.000000 1.771530 
# 
# From -- ./inp_files/4894.got.cif
#   From: 2010.05.17/outbox.cif.g08.bks.cpg/sg29_3_cif.got.tgz:4894.got - 2010.06.04 01:19:37.
