data_PCOD9340668
_publ_section_title
;
Structure prediction by ZEFSAII (Michael W. Deem and Ramdas Pophale) SiO2 
 PCOD9340668
Probable space group: P C A 21
;
_chemical_formula_sum "Si O2"
_cell_formula_units_Z 32
_cell_length_a 14.141136
_cell_length_b 11.154333
_cell_length_c 8.502338
_cell_angle_alpha 90.000000
_cell_angle_beta 90.000000
_cell_angle_gamma 90.000000
_cell_volume 1341.115774
_symmetry_space_group_name_H-M "P C A 21"
_symmetry_group_IT_number 29
_symmetry_cell_setting 'orthorhombic'
loop_
_space_group_symop_operation_xyz
x,y,z
-x,-y,1/2+z
1/2-x,y,1/2+z
1/2+x,-y,z
loop_
_atom_site_type_symbol
_atom_site_label
_atom_site_fract_x
_atom_site_fract_y
_atom_site_fract_z
Si Si1 0.959515 0.492179 0.429800
Si Si2 0.019670 0.163675 0.921842
Si Si3 0.154363 0.969848 0.423754
Si Si4 0.540577 0.255548 0.080490
Si Si5 0.905058 0.359045 0.108382
Si Si6 0.643485 0.761923 0.381791
Si Si7 0.261674 0.823344 0.647710
Si Si8 0.325386 0.299027 0.535644
O O1 0.940651 0.396951 0.568767
O O2 0.939939 0.423250 0.267262
O O3 0.882472 0.597427 0.445917
O O4 0.063730 0.547669 0.469071
O O5 0.959499 0.043145 0.928343
O O6 0.001342 0.216129 0.748182
O O7 0.967759 0.245469 0.053667
O O8 0.128025 0.175633 0.968543
O O9 0.199813 0.936042 0.589804
O O10 0.197186 0.862211 0.317148
O O11 0.174762 0.100408 0.360465
O O12 0.640796 0.192625 0.051444
O O13 0.460715 0.235273 0.951341
O O14 0.802186 0.297528 0.135218
O O15 0.653685 0.694407 0.218757
O O16 0.714995 0.701659 0.504142
#
# Coordination Sequence:
#
# PCOD9340668 Si02
#       8
#     4   4   4   4   4   4   4   4
#     4  11  22  40  66  95 134 180 221 287 349 401
#     4   9  21  41  64  95 129 167 221 279 339 420
#     4  10  22  41  67  95 134 177 221 289 356 413
#     4  11  23  41  66  97 130 173 230 286 349 427
#     4  10  21  40  67  99 135 177 231 282 341 420
#     4  12  26  43  66  99 132 174 231 289 354 431
#     4  10  22  42  67 101 136 179 234 283 348 436
#     4  11  25  44  63  93 132 173 225 279 344 426
#
# _framework density 23.860728000000002
#
# number of rings (size 3 to 8) (size 9 to 14) (size 15 to 20)
#    0.000    1.500    0.000    5.250    0.000    6.000 
#    0.000    1.250    0.000    0.000    0.000    0.000 
#    0.000    0.000    0.000    0.000    0.000    0.000 
#
# Total GULP energy -178664.478339 kJ/mol
# GULP energy per Si atom -5583.264948 kJ/mol
# Density = 2.380642 g / cm^3
# Si number density = 23.860728 Si / 1000 Ang^3
#
#
#
# Elastic Constant Matrix: (Units=GPa)
#
#
# Indices 1 2 3 4 5 6 
#
# 1 116.0901 31.2015 37.1994 0.0000 0.0000 0.0000
# 2 31.2015 57.9315 19.2169 0.0000 0.0000 0.0000
# 3 37.1994 19.2169 108.6383 0.0000 0.0000 0.0000
# 4 0.0000 0.0000 0.0000 4.5934 0.0000 0.0000
# 5 0.0000 0.0000 0.0000 0.0000 33.0833 0.0000
# 6 0.0000 0.0000 0.0000 0.0000 0.0000 26.4675
#
#
#
# Elastic Compliance Matrix: (Units=1/GPa)
#
#
# Indices 1 2 3 4 5 6 
#
# 1 0.010842 -0.004895 -0.002847 0.000000 0.000000 0.000000
# 2 -0.004895 0.020548 -0.001959 0.000000 0.000000 0.000000
# 3 -0.002847 -0.001959 0.010526 0.000000 0.000000 0.000000
# 4 0.000000 0.000000 0.000000 0.217705 0.000000 0.000000
# 5 0.000000 0.000000 0.000000 0.000000 0.030227 0.000000
# 6 0.000000 0.000000 0.000000 0.000000 0.000000 0.037782
#
#
# Mechanical properties :
#
#
# Convention : Reuss Voigt Hill
#
# Bulk Modulus (GPa) = 44.41402 50.87730 47.64566
# Shear Modulus (GPa) = 14.10299 25.83164 19.96731
#
# Velocity S-wave (km/s) = 2.43380 3.29386 2.89594
# Velocity P-wave (km/s) = 5.15287 5.98623 5.58511
#
# Compressibility (1/GPa) = 0.02251541
#
# Stress axis : x y z
#
# Youngs Moduli (GPa) = 92.23590 48.66674 95.00297
#
# Poissons Ratio (x) = 0.23823 0.27043
# Poissons Ratio (y) = 0.45150 0.18607
# Poissons Ratio (z) = 0.26255 0.09532
#
# Static dielectric constant tensor:
#      x y z
#    x 1.940280 0.000000 0.000000 
#    y 0.000000 1.980190 0.000000 
#    z 0.000000 0.000000 1.915380 
# 
# From -- ./inp_files/1824.got.cif
#   From: 2010.05.17/outbox.cif.g08.bks.cpg/sg29_1_cif.got.tgz:1824.got - 2010.06.04 01:19:37.
