data_PCOD9340686
_publ_section_title
;
Structure prediction by ZEFSAII (Michael W. Deem and Ramdas Pophale) SiO2 
 PCOD9340686
Probable space group: P C A 21
;
_chemical_formula_sum "Si O2"
_cell_formula_units_Z 32
_cell_length_a 22.294588
_cell_length_b 5.485702
_cell_length_c 11.386011
_cell_angle_alpha 90.000000
_cell_angle_beta 90.000000
_cell_angle_gamma 90.000000
_cell_volume 1392.525837
_symmetry_space_group_name_H-M "P C A 21"
_symmetry_group_IT_number 29
_symmetry_cell_setting 'orthorhombic'
loop_
_space_group_symop_operation_xyz
x,y,z
-x,-y,1/2+z
1/2-x,y,1/2+z
1/2+x,-y,z
loop_
_atom_site_type_symbol
_atom_site_label
_atom_site_fract_x
_atom_site_fract_y
_atom_site_fract_z
Si Si1 0.496768 0.805582 0.828960
Si Si2 0.729421 0.275468 0.264956
Si Si3 0.665380 0.042599 0.683309
Si Si4 0.055638 0.692880 0.801696
Si Si5 0.328498 0.124188 0.933750
Si Si6 0.923953 0.609529 0.513902
Si Si7 0.798679 0.675616 0.394627
Si Si8 0.110256 0.491764 0.266555
O O1 0.534540 0.581773 0.766648
O O2 0.524015 0.778392 0.959891
O O3 0.428986 0.715221 0.816798
O O4 0.511170 0.077492 0.788376
O O5 0.777746 0.413467 0.346236
O O6 0.676909 0.446658 0.220494
O O7 0.770306 0.170850 0.162650
O O8 0.692798 0.084413 0.343623
O O9 0.644618 0.950028 0.557754
O O10 0.683243 0.839591 0.780642
O O11 0.615162 0.219876 0.736339
O O12 0.066774 0.644162 0.941573
O O13 0.262959 0.244042 0.956826
O O14 0.374969 0.301284 0.868478
O O15 0.857757 0.689603 0.472643
O O16 0.924333 0.596881 0.652112
#
# Coordination Sequence:
#
# PCOD9340686 Si02
#       8
#     4   4   4   4   4   4   4   4
#     4  10  24  47  68 103 136 185 254 290 363 419
#     4  10  23  39  62 101 140 184 231 292 361 440
#     4  11  21  42  69  99 143 181 239 296 368 440
#     4  10  22  46  70 102 130 192 243 296 356 430
#     4  10  26  39  64 106 144 187 229 304 367 436
#     4  10  23  43  74  96 139 188 245 295 353 442
#     4  10  21  41  63  99 134 182 241 280 368 428
#     4  11  26  45  66 106 144 189 242 307 368 429
#
# _framework density 22.979825000000002
#
# number of rings (size 3 to 8) (size 9 to 14) (size 15 to 20)
#    0.750    1.000    2.500    0.000    8.750    3.000 
#    2.250    0.000    0.000    0.000    0.000    0.000 
#    0.000    0.000    0.000    0.000    0.000    0.000 
#
# Total GULP energy -178402.894276 kJ/mol
# GULP energy per Si atom -5575.090446 kJ/mol
# Density = 2.292752 g / cm^3
# Si number density = 22.979825 Si / 1000 Ang^3
#
#
#
# Elastic Constant Matrix: (Units=GPa)
#
#
# Indices 1 2 3 4 5 6 
#
# 1 107.3143 22.8474 42.8574 0.0000 0.0000 0.0000
# 2 22.8474 81.8063 24.6956 0.0000 0.0000 0.0000
# 3 42.8574 24.6956 74.5920 0.0000 0.0000 0.0000
# 4 0.0000 0.0000 0.0000 17.0712 0.0000 0.0000
# 5 0.0000 0.0000 0.0000 0.0000 15.2191 0.0000
# 6 0.0000 0.0000 0.0000 0.0000 0.0000 49.8405
#
#
#
# Elastic Compliance Matrix: (Units=1/GPa)
#
#
# Indices 1 2 3 4 5 6 
#
# 1 0.012244 -0.001440 -0.006558 0.000000 0.000000 0.000000
# 2 -0.001440 0.013751 -0.003725 0.000000 0.000000 0.000000
# 3 -0.006558 -0.003725 0.018408 0.000000 0.000000 0.000000
# 4 0.000000 0.000000 0.000000 0.058578 0.000000 0.000000
# 5 0.000000 0.000000 0.000000 0.000000 0.065707 0.000000
# 6 0.000000 0.000000 0.000000 0.000000 0.000000 0.020064
#
#
# Mechanical properties :
#
#
# Convention : Reuss Voigt Hill
#
# Bulk Modulus (GPa) = 47.71940 49.39037 48.55489
# Shear Modulus (GPa) = 22.81193 27.98031 25.39612
#
# Velocity S-wave (km/s) = 3.15412 3.49320 3.32798
# Velocity P-wave (km/s) = 5.83742 6.14895 5.99521
#
# Compressibility (1/GPa) = 0.02095584
#
# Stress axis : x y z
#
# Youngs Moduli (GPa) = 81.67217 72.72357 54.32513
#
# Poissons Ratio (x) = 0.10471 0.35628
# Poissons Ratio (y) = 0.11759 0.20238
# Poissons Ratio (z) = 0.53563 0.27091
#
# Static dielectric constant tensor:
#      x y z
#    x 1.877660 0.000000 0.000000 
#    y 0.000000 1.958260 0.000000 
#    z 0.000000 0.000000 1.821270 
# 
# From -- ./inp_files/3979.got.cif
#   From: 2010.05.17/outbox.cif.g08.bks.cpg/sg29_2_cif.got.tgz:3979.got - 2010.06.04 01:19:37.
