data_PCOD9340621
_publ_section_title
;
Structure prediction by ZEFSAII (Michael W. Deem and Ramdas Pophale) SiO2 
 PCOD9340621
Probable space group: P C A 21
;
_chemical_formula_sum "Si O2"
_cell_formula_units_Z 28
_cell_length_a 9.718430
_cell_length_b 5.119831
_cell_length_c 19.505566
_cell_angle_alpha 90.000000
_cell_angle_beta 90.000000
_cell_angle_gamma 90.000000
_cell_volume 970.532970
_symmetry_space_group_name_H-M "P C A 21"
_symmetry_group_IT_number 29
_symmetry_cell_setting 'orthorhombic'
loop_
_space_group_symop_operation_xyz
x,y,z
-x,-y,1/2+z
1/2-x,y,1/2+z
1/2+x,-y,z
loop_
_atom_site_type_symbol
_atom_site_label
_atom_site_fract_x
_atom_site_fract_y
_atom_site_fract_z
Si Si1 0.909544 0.000553 0.960100
Si Si2 0.237204 0.506141 0.932800
Si Si3 0.334172 0.582046 0.781362
Si Si4 0.926474 0.237232 0.350551
Si Si5 0.534772 0.985266 0.716897
Si Si6 0.832063 0.684256 0.646673
Si Si7 0.923501 0.181343 0.589655
O O1 0.793193 0.776206 0.946731
O O2 0.003987 0.006852 0.892201
O O3 0.824602 0.268180 0.967352
O O4 0.000774 0.940702 0.025681
O O5 0.234937 0.601793 0.848700
O O6 0.079697 0.582655 0.928238
O O7 0.453993 0.403320 0.813263
O O8 0.406956 0.838509 0.753406
O O9 0.266787 0.434008 0.716395
O O10 0.870814 0.068370 0.279880
O O11 0.542215 0.802513 0.649081
O O12 0.483998 0.245351 0.677940
O O13 0.850538 0.462467 0.589631
O O14 0.809094 0.970584 0.615053
#
# Coordination Sequence:
#
# PCOD9340621 Si02
#       7
#     4   4   4   4   4   4   4
#     4  12  22  46  62  95 136 172 213 271 327 401
#     4  10  25  37  65  93 130 164 214 275 317 392
#     4   9  19  36  61  98 123 159 215 278 315 381
#     4  10  21  39  68  97 125 173 216 262 342 377
#     4   9  18  40  64  91 125 162 217 269 316 382
#     4   9  18  38  62  90 117 166 207 266 309 377
#     4   9  21  36  70  82 126 176 210 253 336 376
#
# _framework density 28.850125999999999
#
# number of rings (size 3 to 8) (size 9 to 14) (size 15 to 20)
#    1.714    0.571    1.429    1.714    0.000    1.143 
#    7.714    2.857    6.286    0.000    0.000    0.000 
#    0.000    0.000    0.000    0.000    0.000    0.000 
#
# Total GULP energy -156066.211447 kJ/mol
# GULP energy per Si atom -5573.793266 kJ/mol
# Density = 2.878446 g / cm^3
# Si number density = 28.850126 Si / 1000 Ang^3
#
#
#
# Elastic Constant Matrix: (Units=GPa)
#
#
# Indices 1 2 3 4 5 6 
#
# 1 77.8303 16.7362 26.5140 0.0000 0.0000 0.0000
# 2 16.7362 156.5477 21.6133 0.0000 0.0000 0.0000
# 3 26.5140 21.6133 119.5833 0.0000 0.0000 0.0000
# 4 0.0000 0.0000 0.0000 43.8378 0.0000 0.0000
# 5 0.0000 0.0000 0.0000 0.0000 36.1661 0.0000
# 6 0.0000 0.0000 0.0000 0.0000 0.0000 32.9352
#
#
#
# Elastic Compliance Matrix: (Units=1/GPa)
#
#
# Indices 1 2 3 4 5 6 
#
# 1 0.014081 -0.001102 -0.002923 0.000000 0.000000 0.000000
# 2 -0.001102 0.006638 -0.000955 0.000000 0.000000 0.000000
# 3 -0.002923 -0.000955 0.009183 0.000000 0.000000 0.000000
# 4 0.000000 0.000000 0.000000 0.022811 0.000000 0.000000
# 5 0.000000 0.000000 0.000000 0.000000 0.027650 0.000000
# 6 0.000000 0.000000 0.000000 0.000000 0.000000 0.030363
#
#
# Mechanical properties :
#
#
# Convention : Reuss Voigt Hill
#
# Bulk Modulus (GPa) = 50.14657 53.74311 51.94484
# Shear Modulus (GPa) = 39.26701 41.86102 40.56402
#
# Velocity S-wave (km/s) = 3.69327 3.81331 3.75377
# Velocity P-wave (km/s) = 5.96712 6.16906 6.06893
#
# Compressibility (1/GPa) = 0.01994154
#
# Stress axis : x y z
#
# Youngs Moduli (GPa) = 71.01703 150.65861 108.89557
#
# Poissons Ratio (x) = 0.16600 0.31829
# Poissons Ratio (y) = 0.07825 0.10403
# Poissons Ratio (z) = 0.20758 0.14393
#
# Static dielectric constant tensor:
#      x y z
#    x 2.420890 0.000000 0.000000 
#    y 0.000000 2.365550 0.000000 
#    z 0.000000 0.000000 2.561700 
# 
# From -- ./inp_files/5487.got.cif
#   From: 2010.05.17/outbox.cif.g08.bks.cpg/sg29_3_cif.got.tgz:5487.got - 2010.06.04 01:19:37.
