data_PCOD9340622
_publ_section_title
;
Structure prediction by ZEFSAII (Michael W. Deem and Ramdas Pophale) SiO2 
 PCOD9340622
Probable space group: P C A 21
;
_chemical_formula_sum "Si O2"
_cell_formula_units_Z 24
_cell_length_a 8.953596
_cell_length_b 7.783797
_cell_length_c 13.047701
_cell_angle_alpha 90.000000
_cell_angle_beta 90.000000
_cell_angle_gamma 90.000000
_cell_volume 909.333082
_symmetry_space_group_name_H-M "P C A 21"
_symmetry_group_IT_number 29
_symmetry_cell_setting 'orthorhombic'
loop_
_space_group_symop_operation_xyz
x,y,z
-x,-y,1/2+z
1/2-x,y,1/2+z
1/2+x,-y,z
loop_
_atom_site_type_symbol
_atom_site_label
_atom_site_fract_x
_atom_site_fract_y
_atom_site_fract_z
Si Si1 0.848617 0.676387 0.410620
Si Si2 0.269911 0.054313 0.053520
Si Si3 0.310828 0.238925 0.734833
Si Si4 0.961114 0.433999 0.089194
Si Si5 0.649528 0.260034 0.150676
Si Si6 0.088417 0.922517 0.354109
O O1 0.761153 0.616778 0.309777
O O2 0.976791 0.574278 0.471418
O O3 0.924436 0.849193 0.367210
O O4 0.744732 0.761957 0.496058
O O5 0.138715 0.916686 0.084640
O O6 0.302297 0.119577 0.168399
O O7 0.354837 0.937915 0.970667
O O8 0.432271 0.309672 0.655829
O O9 0.400554 0.110245 0.807791
O O10 0.009135 0.617629 0.132535
O O11 0.793320 0.368541 0.108683
O O12 0.663895 0.203370 0.269781
#
# Coordination Sequence:
#
# PCOD9340622 Si02
#       6
#     4   4   4   4   4   4
#     4  10  21  42  69  99 127 171 230 277 347 408
#     4   9  20  41  64  97 128 164 217 284 340 399
#     4   9  22  38  68  97 126 167 221 284 338 407
#     4  11  25  46  63  94 141 179 228 278 338 410
#     4  11  25  44  64  94 138 185 222 282 335 405
#     4  10  21  39  68  97 126 172 220 281 340 401
#
# _framework density 26.392969000000001
#
# number of rings (size 3 to 8) (size 9 to 14) (size 15 to 20)
#    0.000    2.000    1.667    0.000    9.333    2.667 
#    6.000    0.000    0.000    0.000    0.000    0.000 
#    0.000    0.000    0.000    0.000    0.000    0.000 
#
# Total GULP energy -133788.961807 kJ/mol
# GULP energy per Si atom -5574.540075 kJ/mol
# Density = 2.633290 g / cm^3
# Si number density = 26.392969 Si / 1000 Ang^3
#
#
#
# Elastic Constant Matrix: (Units=GPa)
#
#
# Indices 1 2 3 4 5 6 
#
# 1 68.2124 16.4281 32.2299 0.0000 0.0000 0.0000
# 2 16.4281 84.3900 14.7128 0.0000 0.0000 0.0000
# 3 32.2299 14.7128 138.8761 0.0000 0.0000 0.0000
# 4 0.0000 0.0000 0.0000 29.4337 0.0000 0.0000
# 5 0.0000 0.0000 0.0000 0.0000 40.2776 0.0000
# 6 0.0000 0.0000 0.0000 0.0000 0.0000 38.9605
#
#
#
# Elastic Compliance Matrix: (Units=1/GPa)
#
#
# Indices 1 2 3 4 5 6 
#
# 1 0.017039 -0.002677 -0.003671 0.000000 0.000000 0.000000
# 2 -0.002677 0.012493 -0.000702 0.000000 0.000000 0.000000
# 3 -0.003671 -0.000702 0.008127 0.000000 0.000000 0.000000
# 4 0.000000 0.000000 0.000000 0.033975 0.000000 0.000000
# 5 0.000000 0.000000 0.000000 0.000000 0.024828 0.000000
# 6 0.000000 0.000000 0.000000 0.000000 0.000000 0.025667
#
#
# Mechanical properties :
#
#
# Convention : Reuss Voigt Hill
#
# Bulk Modulus (GPa) = 42.44608 46.46889 44.45748
# Shear Modulus (GPa) = 34.70243 36.94157 35.82200
#
# Velocity S-wave (km/s) = 3.63000 3.74528 3.68809
# Velocity P-wave (km/s) = 5.80400 6.02890 5.91752
#
# Compressibility (1/GPa) = 0.02355930
#
# Stress axis : x y z
#
# Youngs Moduli (GPa) = 58.68806 80.04280 123.04703
#
# Poissons Ratio (x) = 0.21428 0.45168
# Poissons Ratio (y) = 0.15711 0.08642
# Poissons Ratio (z) = 0.21543 0.05621
#
# Static dielectric constant tensor:
#      x y z
#    x 2.145680 0.000000 0.000000 
#    y 0.000000 2.104530 0.000000 
#    z 0.000000 0.000000 2.160140 
# 
# From -- ./inp_files/3072.got.cif
#   From: 2010.05.17/outbox.cif.g08.bks.cpg/sg29_2_cif.got.tgz:3072.got - 2010.06.04 01:19:37.
