data_PCOD9340400
_publ_section_title
;
Structure prediction by ZEFSAII (Michael W. Deem and Ramdas Pophale) SiO2 
 PCOD9340400
Probable space group: P C A 21
;
_chemical_formula_sum "Si O2"
_cell_formula_units_Z 28
_cell_length_a 8.890074
_cell_length_b 14.490420
_cell_length_c 8.912467
_cell_angle_alpha 90.000000
_cell_angle_beta 90.000000
_cell_angle_gamma 90.000000
_cell_volume 1148.112074
_symmetry_space_group_name_H-M "P C A 21"
_symmetry_group_IT_number 29
_symmetry_cell_setting 'orthorhombic'
loop_
_space_group_symop_operation_xyz
x,y,z
-x,-y,1/2+z
1/2-x,y,1/2+z
1/2+x,-y,z
loop_
_atom_site_type_symbol
_atom_site_label
_atom_site_fract_x
_atom_site_fract_y
_atom_site_fract_z
Si Si1 0.536398 0.667964 0.500000
Si Si2 0.055759 0.004826 0.139976
Si Si3 0.815362 0.289947 0.018863
Si Si4 0.796265 0.991768 0.341691
Si Si5 0.758708 0.632247 0.257970
Si Si6 0.458095 0.453310 0.520884
Si Si7 0.301500 0.827626 0.758967
O O1 0.365679 0.702283 0.501309
O O2 0.638895 0.689278 0.356295
O O3 0.638628 0.690643 0.644287
O O4 0.515280 0.556762 0.506361
O O5 0.107881 0.044293 0.980537
O O6 0.142207 0.052455 0.282159
O O7 0.094362 0.895854 0.162653
O O8 0.883028 0.005030 0.183300
O O9 0.900834 0.385069 0.045619
O O10 0.825402 0.221701 0.159936
O O11 0.877194 0.248680 0.863700
O O12 0.760318 0.097961 0.378076
O O13 0.657568 0.563047 0.157513
O O14 0.867071 0.577832 0.372435
#
# Coordination Sequence:
#
# PCOD9340400 Si02
#       7
#     4   4   4   4   4   4   4
#     4  11  23  39  63  91 121 172 222 269 332 389
#     4  10  20  38  67  95 132 166 208 254 313 389
#     4  12  22  40  68  90 126 176 222 270 328 388
#     4  10  20  38  67  95 132 166 208 254 313 389
#     4  10  22  39  56  81 128 148 208 282 318 369
#     4  11  23  39  63  91 121 172 222 271 328 389
#     4  10  22  39  62  99 126 160 214 266 316 387
#
# _framework density 24.387862999999999
#
# number of rings (size 3 to 8) (size 9 to 14) (size 15 to 20)
#    0.857    0.571    1.429    5.143    2.000    2.286 
#    0.000    0.000   18.857    0.000    0.000    0.000 
#    0.000    0.000    0.000    0.000    0.000    0.000 
#
# Total GULP energy -156219.771403 kJ/mol
# GULP energy per Si atom -5579.277550 kJ/mol
# Density = 2.433236 g / cm^3
# Si number density = 24.387863 Si / 1000 Ang^3
#
#
#
# Elastic Constant Matrix: (Units=GPa)
#
#
# Indices 1 2 3 4 5 6 
#
# 1 110.9755 5.5123 26.4867 0.0000 0.0000 0.0000
# 2 5.5123 36.3963 -2.8343 0.0000 0.0000 0.0000
# 3 26.4867 -2.8343 111.3142 0.0000 0.0000 0.0000
# 4 0.0000 0.0000 0.0000 12.9417 0.0000 0.0000
# 5 0.0000 0.0000 0.0000 0.0000 48.1598 0.0000
# 6 0.0000 0.0000 0.0000 0.0000 0.0000 17.8335
#
#
#
# Elastic Compliance Matrix: (Units=1/GPa)
#
#
# Indices 1 2 3 4 5 6 
#
# 1 0.009651 -0.001644 -0.002338 0.000000 0.000000 0.000000
# 2 -0.001644 0.027810 0.001099 0.000000 0.000000 0.000000
# 3 -0.002338 0.001099 0.009568 0.000000 0.000000 0.000000
# 4 0.000000 0.000000 0.000000 0.077270 0.000000 0.000000
# 5 0.000000 0.000000 0.000000 0.000000 0.020764 0.000000
# 6 0.000000 0.000000 0.000000 0.000000 0.000000 0.056074
#
#
# Mechanical properties :
#
#
# Convention : Reuss Voigt Hill
#
# Bulk Modulus (GPa) = 24.23471 35.22393 29.72932
# Shear Modulus (GPa) = 22.65965 31.08841 26.87403
#
# Velocity S-wave (km/s) = 3.05148 3.57424 3.32315
# Velocity P-wave (km/s) = 4.73013 5.61321 5.19049
#
# Compressibility (1/GPa) = 0.04126313
#
# Stress axis : x y z
#
# Youngs Moduli (GPa) = 103.61934 35.95844 104.51582
#
# Poissons Ratio (x) = 0.05911 0.24438
# Poissons Ratio (y) = 0.17032 -0.11488
# Poissons Ratio (z) = 0.24228 -0.03953
#
# Static dielectric constant tensor:
#      x y z
#    x 1.951950 0.000000 0.000000 
#    y 0.000000 1.891660 0.000000 
#    z 0.000000 0.000000 1.988440 
# 
# From -- ./inp_files/1236.got.cif
#   From: 2010.05.17/outbox.cif.g08.bks.cpg/sg29_1_cif.got.tgz:1236.got - 2010.06.04 01:19:37.
