data_PCOD9340257
_publ_section_title
;
Structure prediction by ZEFSAII (Michael W. Deem and Ramdas Pophale) SiO2 
 PCOD9340257
Probable space group: P C A 21
;
_chemical_formula_sum "Si O2"
_cell_formula_units_Z 16
_cell_length_a 5.674245
_cell_length_b 7.274654
_cell_length_c 13.515422
_cell_angle_alpha 90.000000
_cell_angle_beta 90.000000
_cell_angle_gamma 90.000000
_cell_volume 557.891875
_symmetry_space_group_name_H-M "P C A 21"
_symmetry_group_IT_number 29
_symmetry_cell_setting 'orthorhombic'
loop_
_space_group_symop_operation_xyz
x,y,z
-x,-y,1/2+z
1/2-x,y,1/2+z
1/2+x,-y,z
loop_
_atom_site_type_symbol
_atom_site_label
_atom_site_fract_x
_atom_site_fract_y
_atom_site_fract_z
Si Si1 0.250001 0.594302 0.293380
Si Si2 0.749999 0.736941 0.988314
Si Si3 0.750001 0.005162 0.301326
Si Si4 0.749999 0.318481 0.059637
O O1 0.500001 0.500000 0.313193
O O2 0.250001 0.790905 0.346354
O O3 0.250000 0.627141 0.175112
O O4 0.749999 0.512102 0.997891
O O5 0.498953 0.780164 0.039130
O O6 0.001044 0.780164 0.039131
O O7 0.749999 0.847935 0.884662
O O8 0.500001 0.000000 0.246359
#
# Coordination Sequence:
#
# PCOD9340257 Si02
#       4
#     4   4   4   4
#     4  12  23  48  81 113 151 206 257 317 387 466
#     4  10  20  42  73 109 147 195 254 320 367 452
#     4  12  28  50  67 117 164 202 248 320 396 457
#     4  10  19  42  81 107 140 199 267 305 376 449
#
# _framework density 28.679390999999999
#
# number of rings (size 3 to 8) (size 9 to 14) (size 15 to 20)
#    0.000    1.000    5.000    3.000    0.000    0.000 
#   27.000    7.500    0.000    0.000    0.000    0.000 
#    0.000    0.000    0.000    0.000    0.000    0.000 
#
# Total GULP energy -89601.127076 kJ/mol
# GULP energy per Si atom -5600.070442 kJ/mol
# Density = 2.861412 g / cm^3
# Si number density = 28.679391 Si / 1000 Ang^3
#
#
#
# Elastic Constant Matrix: (Units=GPa)
#
#
# Indices 1 2 3 4 5 6 
#
# 1 411.1548 54.8826 72.8773 0.0000 0.0000 0.0000
# 2 54.8826 182.9242 32.5449 0.0000 0.0000 0.0000
# 3 72.8773 32.5449 148.2178 0.0000 0.0000 0.0000
# 4 0.0000 0.0000 0.0000 50.8139 0.0000 0.0000
# 5 0.0000 0.0000 0.0000 0.0000 22.7403 0.0000
# 6 0.0000 0.0000 0.0000 0.0000 0.0000 33.8571
#
#
#
# Elastic Compliance Matrix: (Units=1/GPa)
#
#
# Indices 1 2 3 4 5 6 
#
# 1 0.002727 -0.000603 -0.001208 0.000000 0.000000 0.000000
# 2 -0.000603 0.005822 -0.000982 0.000000 0.000000 0.000000
# 3 -0.001208 -0.000982 0.007557 0.000000 0.000000 0.000000
# 4 0.000000 0.000000 0.000000 0.019680 0.000000 0.000000
# 5 0.000000 0.000000 0.000000 0.000000 0.043975 0.000000
# 6 0.000000 0.000000 0.000000 0.000000 0.000000 0.029536
#
#
# Mechanical properties :
#
#
# Convention : Reuss Voigt Hill
#
# Bulk Modulus (GPa) = 95.06550 118.10071 106.58310
# Shear Modulus (GPa) = 42.23356 60.28173 51.25764
#
# Velocity S-wave (km/s) = 3.84162 4.58964 4.23219
# Velocity P-wave (km/s) = 7.27304 8.32799 7.81833
#
# Compressibility (1/GPa) = 0.01051906
#
# Stress axis : x y z
#
# Youngs Moduli (GPa) = 366.72166 171.75038 132.33548
#
# Poissons Ratio (x) = 0.10359 0.15991
# Poissons Ratio (y) = 0.22119 0.12994
# Poissons Ratio (z) = 0.44312 0.16864
#
# Static dielectric constant tensor:
#      x y z
#    x 2.194970 0.000000 0.000000 
#    y 0.000000 2.280530 0.000000 
#    z 0.000000 0.000000 2.204110 
# 
# From -- ./inp_files/3998.got.cif
#   From: 2010.05.17/outbox.cif.g08.bks.cpg/sg29_2_cif.got.tgz:3998.got - 2010.06.04 01:19:37.
