data_PCOD9340041
_publ_section_title
;
Structure prediction by ZEFSAII (Michael W. Deem and Ramdas Pophale) SiO2 
 PCOD9340041
Probable space group: P C A 21
;
_chemical_formula_sum "Si O2"
_cell_formula_units_Z 28
_cell_length_a 21.717034
_cell_length_b 13.251071
_cell_length_c 5.341431
_cell_angle_alpha 90.000000
_cell_angle_beta 90.000000
_cell_angle_gamma 90.000000
_cell_volume 1537.124748
_symmetry_space_group_name_H-M "P C A 21"
_symmetry_group_IT_number 29
_symmetry_cell_setting 'orthorhombic'
loop_
_space_group_symop_operation_xyz
x,y,z
-x,-y,1/2+z
1/2-x,y,1/2+z
1/2+x,-y,z
loop_
_atom_site_type_symbol
_atom_site_label
_atom_site_fract_x
_atom_site_fract_y
_atom_site_fract_z
Si Si1 0.424482 0.046987 0.506010
Si Si2 0.009159 0.634472 0.951815
Si Si3 0.812129 0.725695 0.903511
Si Si4 0.324652 0.190114 0.404372
Si Si5 0.511463 0.870380 0.505739
Si Si6 0.426751 0.554111 0.951846
Si Si7 0.713722 0.488999 0.460814
O O1 0.353831 0.081627 0.464248
O O2 0.460540 0.101706 0.277210
O O3 0.446370 0.931273 0.489082
O O4 0.447350 0.086795 0.776190
O O5 0.043415 0.607813 0.692595
O O6 0.949120 0.562614 0.958015
O O7 0.995994 0.752009 0.971295
O O8 0.048652 0.600679 0.193362
O O9 0.749054 0.792685 0.883965
O O10 0.844201 0.739020 0.636618
O O11 0.793403 0.611245 0.955350
O O12 0.848443 0.769054 0.139139
O O13 0.353783 0.556935 0.964347
O O14 0.750611 0.461187 0.709117
#
# Coordination Sequence:
#
# PCOD9340041 Si02
#       7
#     4   4   4   4   4   4   4
#     4  10  21  33  54  86 107 144 178 218 273 331
#     4  10  21  40  54  79 114 150 190 230 274 327
#     4  10  19  31  46  78 106 139 168 204 275 330
#     4  10  18  31  47  73 111 135 170 205 260 338
#     4  10  21  36  54  80 113 139 186 223 268 321
#     4  10  23  36  56  83 108 149 192 226 279 335
#     4  12  21  35  53  83 113 138 182 228 283 340
#
# _framework density 18.215827999999998
#
# number of rings (size 3 to 8) (size 9 to 14) (size 15 to 20)
#    0.000    1.714    2.857    2.571    4.000    0.000 
#    0.000    0.000    0.000    0.000   22.286    0.000 
#    0.000    0.000    0.000    0.000    0.000    0.000 
#
# Total GULP energy -156159.646983 kJ/mol
# GULP energy per Si atom -5577.130249 kJ/mol
# Density = 1.817437 g / cm^3
# Si number density = 18.215828 Si / 1000 Ang^3
#
#
#
# Elastic Constant Matrix: (Units=GPa)
#
#
# Indices 1 2 3 4 5 6 
#
# 1 63.7145 15.0471 22.9835 0.0000 0.0000 0.0000
# 2 15.0471 110.2289 36.2401 0.0000 0.0000 0.0000
# 3 22.9835 36.2401 168.9592 0.0000 0.0000 0.0000
# 4 0.0000 0.0000 0.0000 -58.2898 0.0000 0.0000
# 5 0.0000 0.0000 0.0000 0.0000 10.8310 0.0000
# 6 0.0000 0.0000 0.0000 0.0000 0.0000 11.5107
#
#
#
# Elastic Compliance Matrix: (Units=1/GPa)
#
#
# Indices 1 2 3 4 5 6 
#
# 1 0.016782 -0.001657 -0.001927 0.000000 0.000000 0.000000
# 2 -0.001657 0.009924 -0.001903 0.000000 0.000000 0.000000
# 3 -0.001927 -0.001903 0.006589 0.000000 0.000000 0.000000
# 4 0.000000 0.000000 0.000000 -0.017156 0.000000 0.000000
# 5 0.000000 0.000000 0.000000 0.000000 0.092328 0.000000
# 6 0.000000 0.000000 0.000000 0.000000 0.000000 0.086876
#
#
# Mechanical properties :
#
#
# Convention : Reuss Voigt Hill
#
# Bulk Modulus (GPa) = 44.80450 54.60488 49.70469
# Shear Modulus (GPa) = 23.39102 10.71917 17.05509
#
# Velocity S-wave (km/s) = 3.58733 2.42844 3.06319
# Velocity P-wave (km/s) = 6.46594 6.15669 6.31321
#
# Compressibility (1/GPa) = 0.02231919
#
# Stress axis : x y z
#
# Youngs Moduli (GPa) = 59.58898 100.76631 151.76866
#
# Poissons Ratio (x) = 0.16699 0.29251
# Poissons Ratio (y) = 0.09875 0.28884
# Poissons Ratio (z) = 0.11485 0.19177
#
# Static dielectric constant tensor:
#      x y z
#    x 1.666420 0.000000 0.000000 
#    y 0.000000 1.627210 0.000000 
#    z 0.000000 0.000000 1.677490 
# 
# From -- ./inp_files/531.got.cif
#   From: 2010.05.17/outbox.cif.g08.bks.cpg/sg29_1_cif.got.tgz:531.got - 2010.06.04 01:19:37.
