data_PCOD9340571
_publ_section_title
;
Structure prediction by ZEFSAII (Michael W. Deem and Ramdas Pophale) SiO2 
 PCOD9340571
Probable space group: P C A 21
;
_chemical_formula_sum "Si O2"
_cell_formula_units_Z 32
_cell_length_a 8.870259
_cell_length_b 14.874692
_cell_length_c 11.806260
_cell_angle_alpha 90.000000
_cell_angle_beta 90.000000
_cell_angle_gamma 90.000000
_cell_volume 1557.745932
_symmetry_space_group_name_H-M "P C A 21"
_symmetry_group_IT_number 29
_symmetry_cell_setting 'orthorhombic'
loop_
_space_group_symop_operation_xyz
x,y,z
-x,-y,1/2+z
1/2-x,y,1/2+z
1/2+x,-y,z
loop_
_atom_site_type_symbol
_atom_site_label
_atom_site_fract_x
_atom_site_fract_y
_atom_site_fract_z
Si Si1 0.901080 0.867865 0.163260
Si Si2 0.101401 0.876484 0.531541
Si Si3 0.847143 0.007541 0.581466
Si Si4 0.987801 0.609348 0.792427
Si Si5 0.213063 0.742166 0.682211
Si Si6 0.501399 0.308053 0.044095
Si Si7 0.863317 0.582545 0.254321
Si Si8 0.009142 0.745249 0.351720
O O1 0.766256 0.937230 0.141224
O O2 0.919113 0.788428 0.068486
O O3 0.901598 0.812170 0.279495
O O4 0.052964 0.927577 0.160302
O O5 0.144344 0.840169 0.656020
O O6 0.047215 0.788270 0.469539
O O7 0.969699 0.947152 0.520550
O O8 0.252247 0.928922 0.497446
O O9 0.816455 0.590829 0.755274
O O10 0.076425 0.677256 0.710916
O O11 0.079764 0.516483 0.782983
O O12 0.988088 0.652532 0.918636
O O13 0.324083 0.710554 0.579801
O O14 0.332625 0.741541 0.784480
O O15 0.432053 0.377824 0.136594
O O16 0.931537 0.649299 0.349147
#
# Coordination Sequence:
#
# PCOD9340571 Si02
#       8
#     4   4   4   4   4   4   4   4
#     4   9  20  40  58  90 127 161 208 264 312 365
#     4  11  22  39  61  92 125 168 211 260 318 365
#     4  10  21  38  61  87 125 163 213 266 306 377
#     4  12  25  43  72  96 126 175 211 251 333 379
#     4  10  22  41  65  91 129 168 211 261 316 379
#     4  10  23  45  66  92 142 163 208 272 311 379
#     4  10  25  43  63 102 125 163 216 262 310 391
#     4  10  22  41  62  88 131 165 206 262 324 373
#
# _framework density 20.542501999999999
#
# number of rings (size 3 to 8) (size 9 to 14) (size 15 to 20)
#    0.000    2.000    2.500    2.250    5.250    4.000 
#    0.000    0.000    0.000    0.000    0.000    0.000 
#    0.000    0.000    0.000    0.000    0.000    0.000 
#
# Total GULP energy -178435.011204 kJ/mol
# GULP energy per Si atom -5576.094100 kJ/mol
# Density = 2.049575 g / cm^3
# Si number density = 20.542502 Si / 1000 Ang^3
#
#
#
# Elastic Constant Matrix: (Units=GPa)
#
#
# Indices 1 2 3 4 5 6 
#
# 1 58.5301 6.7087 3.7740 0.0000 0.0000 0.0000
# 2 6.7087 96.7628 15.5395 0.0000 0.0000 0.0000
# 3 3.7740 15.5395 27.5957 0.0000 0.0000 0.0000
# 4 0.0000 0.0000 0.0000 11.4716 0.0000 0.0000
# 5 0.0000 0.0000 0.0000 0.0000 5.2129 0.0000
# 6 0.0000 0.0000 0.0000 0.0000 0.0000 41.4582
#
#
#
# Elastic Compliance Matrix: (Units=1/GPa)
#
#
# Indices 1 2 3 4 5 6 
#
# 1 0.017308 -0.000901 -0.001860 0.000000 0.000000 0.000000
# 2 -0.000901 0.011409 -0.006301 0.000000 0.000000 0.000000
# 3 -0.001860 -0.006301 0.040040 0.000000 0.000000 0.000000
# 4 0.000000 0.000000 0.000000 0.087172 0.000000 0.000000
# 5 0.000000 0.000000 0.000000 0.000000 0.191830 0.000000
# 6 0.000000 0.000000 0.000000 0.000000 0.000000 0.024121
#
#
# Mechanical properties :
#
#
# Convention : Reuss Voigt Hill
#
# Bulk Modulus (GPa) = 19.74986 26.10365 22.92676
# Shear Modulus (GPa) = 12.28857 22.08631 17.18744
#
# Velocity S-wave (km/s) = 2.44847 3.28251 2.89567
# Velocity P-wave (km/s) = 4.19861 5.20588 4.72914
#
# Compressibility (1/GPa) = 0.05063326
#
# Stress axis : x y z
#
# Youngs Moduli (GPa) = 57.77527 87.65020 24.97489
#
# Poissons Ratio (x) = 0.07901 0.04644
# Poissons Ratio (y) = 0.05208 0.15737
# Poissons Ratio (z) = 0.10743 0.55231
#
# Static dielectric constant tensor:
#      x y z
#    x 1.740810 0.000000 0.000000 
#    y 0.000000 1.752160 0.000000 
#    z 0.000000 0.000000 1.743460 
# 
# From -- ./inp_files/2931.got.cif
#   From: 2010.05.17/outbox.cif.g08.bks.cpg/sg29_2_cif.got.tgz:2931.got - 2010.06.04 01:19:37.
