data_PCOD9340024
_publ_section_title
;
Structure prediction by ZEFSAII (Michael W. Deem and Ramdas Pophale) SiO2 
 PCOD9340024
Probable space group: P C A 21
;
_chemical_formula_sum "Si O2"
_cell_formula_units_Z 28
_cell_length_a 8.964633
_cell_length_b 9.227748
_cell_length_c 18.008901
_cell_angle_alpha 90.000000
_cell_angle_beta 90.000000
_cell_angle_gamma 90.000000
_cell_volume 1489.757057
_symmetry_space_group_name_H-M "P C A 21"
_symmetry_group_IT_number 29
_symmetry_cell_setting 'orthorhombic'
loop_
_space_group_symop_operation_xyz
x,y,z
-x,-y,1/2+z
1/2-x,y,1/2+z
1/2+x,-y,z
loop_
_atom_site_type_symbol
_atom_site_label
_atom_site_fract_x
_atom_site_fract_y
_atom_site_fract_z
Si Si1 0.851188 0.188268 0.772490
Si Si2 0.831700 0.986687 0.058056
Si Si3 0.886043 0.392794 0.912082
Si Si4 0.955602 0.318922 0.449302
Si Si5 0.573099 0.196571 0.110542
Si Si6 0.413810 0.149466 0.467090
Si Si7 0.065020 0.946657 0.837395
O O1 0.886243 0.312773 0.832520
O O2 0.889777 0.252053 0.692026
O O3 0.681696 0.134164 0.784052
O O4 0.944066 0.042031 0.793296
O O5 0.719966 0.108757 0.085984
O O6 0.935606 0.914757 0.119308
O O7 0.946688 0.057277 0.999838
O O8 0.724466 0.866951 0.021585
O O9 0.718177 0.364990 0.940281
O O10 0.934095 0.558270 0.918947
O O11 0.015088 0.305588 0.956132
O O12 0.971153 0.288951 0.537689
O O13 0.980340 0.177755 0.397170
O O14 0.363999 0.069894 0.391411
#
# Coordination Sequence:
#
# PCOD9340024 Si02
#       7
#     4   4   4   4   4   4   4
#     4  10  22  38  58  87 122 149 189 243 305 343
#     4  10  18  31  60  89 114 141 193 246 290 336
#     4  10  23  38  57  83 114 157 196 234 281 358
#     4  11  22  37  60  84 113 155 204 233 283 343
#     4  11  21  36  59  90 120 148 191 252 297 340
#     4  10  17  34  57  88 109 146 197 241 274 342
#     4  10  19  36  61  85 112 154 190 239 290 352
#
# _framework density 18.795012
#
# number of rings (size 3 to 8) (size 9 to 14) (size 15 to 20)
#    0.000    1.714    4.286    2.571    2.000    1.143 
#    0.000    2.857    0.000    0.000    0.000    0.000 
#    0.000    0.000    0.000    0.000    0.000    0.000 
#
# Total GULP energy -155958.695253 kJ/mol
# GULP energy per Si atom -5569.953402 kJ/mol
# Density = 1.875223 g / cm^3
# Si number density = 18.795012 Si / 1000 Ang^3
#
#
#
# Elastic Constant Matrix: (Units=GPa)
#
#
# Indices 1 2 3 4 5 6 
#
# 1 76.1646 19.8197 29.8264 0.0000 0.0000 0.0000
# 2 19.8197 77.8060 26.2360 0.0000 0.0000 0.0000
# 3 29.8264 26.2360 83.3977 0.0000 0.0000 0.0000
# 4 0.0000 0.0000 0.0000 11.0875 0.0000 0.0000
# 5 0.0000 0.0000 0.0000 0.0000 5.1250 0.0000
# 6 0.0000 0.0000 0.0000 0.0000 0.0000 25.5486
#
#
#
# Elastic Compliance Matrix: (Units=1/GPa)
#
#
# Indices 1 2 3 4 5 6 
#
# 1 0.015642 -0.002347 -0.004856 0.000000 0.000000 0.000000
# 2 -0.002347 0.014730 -0.003794 0.000000 0.000000 0.000000
# 3 -0.004856 -0.003794 0.014921 0.000000 0.000000 0.000000
# 4 0.000000 0.000000 0.000000 0.090192 0.000000 0.000000
# 5 0.000000 0.000000 0.000000 0.000000 0.195123 0.000000
# 6 0.000000 0.000000 0.000000 0.000000 0.000000 0.039141
#
#
# Mechanical properties :
#
#
# Convention : Reuss Voigt Hill
#
# Bulk Modulus (GPa) = 42.92205 43.23696 43.07950
# Shear Modulus (GPa) = 12.51537 19.11795 15.81666
#
# Velocity S-wave (km/s) = 2.58328 3.19279 2.90407
# Velocity P-wave (km/s) = 5.63776 6.05362 5.84938
#
# Compressibility (1/GPa) = 0.02329805
#
# Stress axis : x y z
#
# Youngs Moduli (GPa) = 63.93138 67.88940 67.01946
#
# Poissons Ratio (x) = 0.15934 0.32543
# Poissons Ratio (y) = 0.15005 0.25430
# Poissons Ratio (z) = 0.31043 0.25760
#
# Static dielectric constant tensor:
#      x y z
#    x 1.660730 0.000000 0.000000 
#    y 0.000000 1.664150 0.000000 
#    z 0.000000 0.000000 1.693650 
# 
# From -- ./inp_files/4964.got.cif
#   From: 2010.05.17/outbox.cif.g08.bks.cpg/sg29_3_cif.got.tgz:4964.got - 2010.06.04 01:19:37.
