data_PCOD9340331
_publ_section_title
;
Structure prediction by ZEFSAII (Michael W. Deem and Ramdas Pophale) SiO2 
 PCOD9340331
Probable space group: P C A 21
;
_chemical_formula_sum "Si O2"
_cell_formula_units_Z 32
_cell_length_a 24.337591
_cell_length_b 7.918660
_cell_length_c 8.655844
_cell_angle_alpha 90.000000
_cell_angle_beta 90.000000
_cell_angle_gamma 90.000000
_cell_volume 1668.163849
_symmetry_space_group_name_H-M "P C A 21"
_symmetry_group_IT_number 29
_symmetry_cell_setting 'orthorhombic'
loop_
_space_group_symop_operation_xyz
x,y,z
-x,-y,1/2+z
1/2-x,y,1/2+z
1/2+x,-y,z
loop_
_atom_site_type_symbol
_atom_site_label
_atom_site_fract_x
_atom_site_fract_y
_atom_site_fract_z
Si Si1 0.616361 0.822833 0.395850
Si Si2 0.311219 0.502037 0.524121
Si Si3 0.121194 0.816414 0.524465
Si Si4 0.878806 0.183586 0.394545
Si Si5 0.383639 0.177167 0.523159
Si Si6 0.311219 0.502037 0.894888
Si Si7 0.501585 0.310237 0.523025
Si Si8 0.501585 0.310237 0.895984
O O1 0.617215 0.835001 0.209505
O O2 0.653091 0.662002 0.441188
O O3 0.553540 0.786247 0.446063
O O4 0.636516 0.998127 0.465960
O O5 0.340696 0.669748 0.461873
O O6 0.346909 0.337998 0.477821
O O7 0.310031 0.508345 0.709505
O O8 0.250000 0.489370 0.459505
O O9 0.123511 0.810784 0.709505
O O10 0.159304 0.669748 0.457136
O O11 0.058299 0.777362 0.474364
O O12 0.941701 0.222638 0.444645
O O13 0.863484 0.998127 0.453049
O O14 0.446460 0.213753 0.472946
O O15 0.500884 0.317717 0.709505
O O16 0.500000 0.500000 0.459505
#
# Coordination Sequence:
#
# PCOD9340331 Si02
#       8
#     4   4   4   4   4   4   4   4
#     4  10  22  40  62  89 123 163 202 246 303 358
#     4  11  24  43  65  87 118 159 204 254 302 355
#     4  11  23  38  62  94 125 159 200 247 301 361
#     4  11  23  38  62  94 125 159 200 247 301 361
#     4  10  22  40  62  89 123 163 202 246 303 358
#     4  11  24  43  65  87 118 159 204 254 302 355
#     4  10  20  36  60  91 124 160 199 244 300 360
#     4  10  20  36  60  91 124 160 199 244 300 360
#
# _framework density 19.182766999999998
#
# number of rings (size 3 to 8) (size 9 to 14) (size 15 to 20)
#    0.000    1.500    2.500    2.250    0.000    5.000 
#    0.000    2.500    0.000    0.000    0.000    0.000 
#    0.000    0.000    0.000    0.000    0.000    0.000 
#
# Total GULP energy -178894.892783 kJ/mol
# GULP energy per Si atom -5590.465399 kJ/mol
# Density = 1.913911 g / cm^3
# Si number density = 19.182767 Si / 1000 Ang^3
#
#
#
# Elastic Constant Matrix: (Units=GPa)
#
#
# Indices 1 2 3 4 5 6 
#
# 1 114.1802 41.1089 26.9254 0.0000 0.0000 0.0000
# 2 41.1089 145.8879 31.0924 0.0000 0.0000 0.0000
# 3 26.9254 31.0924 24.4738 0.0000 0.0000 0.0000
# 4 0.0000 0.0000 0.0000 35.4107 0.0000 0.0000
# 5 0.0000 0.0000 0.0000 0.0000 13.5758 0.0000
# 6 0.0000 0.0000 0.0000 0.0000 0.0000 0.5134
#
#
#
# Elastic Compliance Matrix: (Units=1/GPa)
#
#
# Indices 1 2 3 4 5 6 
#
# 1 0.011889 -0.000771 -0.012100 0.000000 0.000000 0.000000
# 2 -0.000771 0.009450 -0.011157 0.000000 0.000000 0.000000
# 3 -0.012100 -0.011157 0.068346 0.000000 0.000000 0.000000
# 4 0.000000 0.000000 0.000000 0.028240 0.000000 0.000000
# 5 0.000000 0.000000 0.000000 0.000000 0.073661 0.000000
# 6 0.000000 0.000000 0.000000 0.000000 0.000000 1.947615
#
#
# Mechanical properties :
#
#
# Convention : Reuss Voigt Hill
#
# Bulk Modulus (GPa) = 24.02193 53.64393 38.83293
# Shear Modulus (GPa) = 2.27156 22.26100 12.26628
#
# Velocity S-wave (km/s) = 1.08937 3.41026 2.53146
# Velocity P-wave (km/s) = 3.75928 6.59787 5.36954
#
# Compressibility (1/GPa) = 0.04162862
#
# Stress axis : x y z
#
# Youngs Moduli (GPa) = 84.10978 105.82361 14.63138
#
# Poissons Ratio (x) = 0.08162 0.17704
# Poissons Ratio (y) = 0.06487 0.16324
# Poissons Ratio (z) = 1.01775 1.18064
#
# Static dielectric constant tensor:
#      x y z
#    x 1.663700 0.000000 0.000000 
#    y 0.000000 1.632440 0.000000 
#    z 0.000000 0.000000 1.650480 
# 
# From -- ./inp_files/2493.got.cif
#   From: 2010.05.17/outbox.cif.g08.bks.cpg/sg29_2_cif.got.tgz:2493.got - 2010.06.04 01:19:37.
