data_PCOD9340113
_publ_section_title
;
Structure prediction by ZEFSAII (Michael W. Deem and Ramdas Pophale) SiO2 
 PCOD9340113
Probable space group: P C A 21
;
_chemical_formula_sum "Si O2"
_cell_formula_units_Z 32
_cell_length_a 19.494557
_cell_length_b 9.512543
_cell_length_c 8.517556
_cell_angle_alpha 90.000000
_cell_angle_beta 90.000000
_cell_angle_gamma 90.000000
_cell_volume 1579.519534
_symmetry_space_group_name_H-M "P C A 21"
_symmetry_group_IT_number 29
_symmetry_cell_setting 'orthorhombic'
loop_
_space_group_symop_operation_xyz
x,y,z
-x,-y,1/2+z
1/2-x,y,1/2+z
1/2+x,-y,z
loop_
_atom_site_type_symbol
_atom_site_label
_atom_site_fract_x
_atom_site_fract_y
_atom_site_fract_z
Si Si1 0.305435 0.220182 0.860650
Si Si2 0.476380 0.063189 0.169952
Si Si3 0.486018 0.560145 0.432949
Si Si4 0.801803 0.465082 0.719292
Si Si5 0.549194 0.831801 0.318750
Si Si6 0.662654 0.486032 0.853739
Si Si7 0.663946 0.800940 0.729881
Si Si8 0.555523 0.326074 0.271549
O O1 0.304325 0.382406 0.803618
O O2 0.371050 0.148247 0.780713
O O3 0.233052 0.152084 0.816674
O O4 0.318549 0.214043 0.045917
O O5 0.403133 0.103610 0.245270
O O6 0.533731 0.165077 0.248422
O O7 0.499896 0.904914 0.195656
O O8 0.469539 0.100202 0.987083
O O9 0.537590 0.667203 0.348855
O O10 0.411899 0.582855 0.353981
O O11 0.515703 0.404722 0.411057
O O12 0.475499 0.600383 0.613930
O O13 0.724151 0.416412 0.755318
O O14 0.812930 0.488850 0.534529
O O15 0.863880 0.364931 0.776048
O O16 0.649934 0.644369 0.793610
#
# Coordination Sequence:
#
# PCOD9340113 Si02
#       8
#     4   4   4   4   4   4   4   4
#     4  10  19  33  54  79 108 140 178 223 268 319
#     4  10  22  38  55  79 111 145 182 225 270 321
#     4  10  20  35  55  80 108 139 177 223 271 319
#     4  10  19  31  52  80 109 141 176 220 273 320
#     4  10  22  38  55  79 111 145 182 225 270 321
#     4  10  19  31  52  80 109 141 176 220 273 320
#     4  10  19  33  54  79 108 140 178 223 268 319
#     4  10  20  35  55  80 108 139 177 223 271 319
#
# _framework density 20.259326000000001
#
# number of rings (size 3 to 8) (size 9 to 14) (size 15 to 20)
#    0.000    2.000    2.500    3.000    0.000    4.000 
#    0.000    1.250    0.000    6.000    0.000    0.000 
#    0.000    0.000    0.000    0.000    0.000    0.000 
#
# Total GULP energy -178602.025680 kJ/mol
# GULP energy per Si atom -5581.313303 kJ/mol
# Density = 2.021322 g / cm^3
# Si number density = 20.259326 Si / 1000 Ang^3
#
#
#
# Elastic Constant Matrix: (Units=GPa)
#
#
# Indices 1 2 3 4 5 6 
#
# 1 91.0596 -6.4358 10.7990 0.0000 0.0000 0.0000
# 2 -6.4358 16.9346 -0.6074 0.0000 0.0000 0.0000
# 3 10.7990 -0.6074 24.3113 0.0000 0.0000 0.0000
# 4 0.0000 0.0000 0.0000 22.1272 0.0000 0.0000
# 5 0.0000 0.0000 0.0000 0.0000 22.2626 0.0000
# 6 0.0000 0.0000 0.0000 0.0000 0.0000 -30.3066
#
#
#
# Elastic Compliance Matrix: (Units=1/GPa)
#
#
# Indices 1 2 3 4 5 6 
#
# 1 0.011903 0.004338 -0.005179 0.000000 0.000000 0.000000
# 2 0.004338 0.060685 -0.000411 0.000000 0.000000 0.000000
# 3 -0.005179 -0.000411 0.043423 0.000000 0.000000 0.000000
# 4 0.000000 0.000000 0.000000 0.045193 0.000000 0.000000
# 5 0.000000 0.000000 0.000000 0.000000 0.044918 0.000000
# 6 0.000000 0.000000 0.000000 0.000000 0.000000 -0.032996
#
#
# Mechanical properties :
#
#
# Convention : Reuss Voigt Hill
#
# Bulk Modulus (GPa) = 8.81000 15.53521 12.17261
# Shear Modulus (GPa) = 23.42308 11.38663 17.40485
#
# Velocity S-wave (km/s) = 3.40393 2.37332 2.93423
# Velocity P-wave (km/s) = 4.45051 3.89808 4.18342
#
# Compressibility (1/GPa) = 0.11350733
#
# Stress axis : x y z
#
# Youngs Moduli (GPa) = 84.01564 16.47865 23.02917
#
# Poissons Ratio (x) = -0.07148 0.11926
# Poissons Ratio (y) = -0.36443 0.00945
# Poissons Ratio (z) = 0.43509 0.00676
#
# Static dielectric constant tensor:
#      x y z
#    x 1.771620 0.000000 0.000000 
#    y 0.000000 1.687370 0.000000 
#    z 0.000000 0.000000 1.727420 
# 
# From -- ./inp_files/2179.got.cif
#   From: 2010.05.17/outbox.cif.g08.bks.cpg/sg29_2_cif.got.tgz:2179.got - 2010.06.04 01:19:37.
