data_PCOD9340052
_publ_section_title
;
Structure prediction by ZEFSAII (Michael W. Deem and Ramdas Pophale) SiO2 
 PCOD9340052
Probable space group: P C A 21
;
_chemical_formula_sum "Si O2"
_cell_formula_units_Z 28
_cell_length_a 5.132303
_cell_length_b 6.499230
_cell_length_c 35.709602
_cell_angle_alpha 90.000000
_cell_angle_beta 90.000000
_cell_angle_gamma 90.000000
_cell_volume 1191.130114
_symmetry_space_group_name_H-M "P C A 21"
_symmetry_group_IT_number 29
_symmetry_cell_setting 'orthorhombic'
loop_
_space_group_symop_operation_xyz
x,y,z
-x,-y,1/2+z
1/2-x,y,1/2+z
1/2+x,-y,z
loop_
_atom_site_type_symbol
_atom_site_label
_atom_site_fract_x
_atom_site_fract_y
_atom_site_fract_z
Si Si1 0.455743 0.644856 0.034520
Si Si2 0.555995 0.642142 0.954422
Si Si3 0.626601 0.256955 0.141519
Si Si4 0.123575 0.203093 0.111025
Si Si5 0.942734 0.635293 0.297210
Si Si6 0.436416 0.642774 0.876009
Si Si7 0.440256 0.866070 0.720650
O O1 0.676175 0.465515 0.036053
O O2 0.504858 0.793171 0.069675
O O3 0.499158 0.749586 0.993959
O O4 0.346743 0.451841 0.954232
O O5 0.495705 0.754762 0.915224
O O6 0.407149 0.305267 0.110916
O O7 0.522719 0.270253 0.183491
O O8 0.923604 0.326691 0.137369
O O9 0.674842 0.015079 0.130415
O O10 0.646624 0.555707 0.297309
O O11 0.006493 0.750286 0.336351
O O12 0.003639 0.756607 0.259636
O O13 0.147204 0.546510 0.876076
O O14 0.646380 0.051539 0.718509
#
# Coordination Sequence:
#
# PCOD9340052 Si02
#       7
#     4   4   4   4   4   4   4
#     4  10  19  30  45  74 107 126 155 206 261 301
#     4   8  14  25  43  67  97 132 161 190 239 309
#     4  10  19  35  54  64  86 124 182 206 230 300
#     4  10  18  33  51  69  88 125 166 212 234 290
#     4  10  21  36  54  84 113 134 173 229 273 304
#     4   8  14  27  47  70 100 132 163 198 248 308
#     4  12  21  38  60  78 103 143 188 217 259 330
#
# _framework density 23.507088
#
# number of rings (size 3 to 8) (size 9 to 14) (size 15 to 20)
#    0.000    2.286    2.857    1.714    0.000    0.000 
#    0.000    4.286    0.000    0.000    7.429    0.000 
#    0.000    0.000    0.000    0.000    0.000    0.000 
#
# Total GULP energy -156122.339181 kJ/mol
# GULP energy per Si atom -5575.797828 kJ/mol
# Density = 2.345358 g / cm^3
# Si number density = 23.507088 Si / 1000 Ang^3
#
#
#
# Elastic Constant Matrix: (Units=GPa)
#
#
# Indices 1 2 3 4 5 6 
#
# 1 122.4512 -21.0498 -8.5801 0.0000 0.0000 0.0000
# 2 -21.0498 22.2239 -1.0219 0.0000 0.0000 0.0000
# 3 -8.5801 -1.0219 217.6244 0.0000 0.0000 0.0000
# 4 0.0000 0.0000 0.0000 18.5406 0.0000 0.0000
# 5 0.0000 0.0000 0.0000 0.0000 37.5553 0.0000
# 6 0.0000 0.0000 0.0000 0.0000 0.0000 28.2564
#
#
#
# Elastic Compliance Matrix: (Units=1/GPa)
#
#
# Indices 1 2 3 4 5 6 
#
# 1 0.009795 0.009297 0.000430 0.000000 0.000000 0.000000
# 2 0.009297 0.053831 0.000619 0.000000 0.000000 0.000000
# 3 0.000430 0.000619 0.004615 0.000000 0.000000 0.000000
# 4 0.000000 0.000000 0.000000 0.053936 0.000000 0.000000
# 5 0.000000 0.000000 0.000000 0.000000 0.026627 0.000000
# 6 0.000000 0.000000 0.000000 0.000000 0.000000 0.035390
#
#
# Mechanical properties :
#
#
# Convention : Reuss Voigt Hill
#
# Bulk Modulus (GPa) = 11.24437 33.44400 22.34419
# Shear Modulus (GPa) = 25.88715 43.06722 34.47718
#
# Velocity S-wave (km/s) = 3.32211 4.28494 3.83387
# Velocity P-wave (km/s) = 4.41690 6.22407 5.39667
#
# Compressibility (1/GPa) = 0.08893338
#
# Stress axis : x y z
#
# Youngs Moduli (GPa) = 102.09448 18.57665 216.68816
#
# Poissons Ratio (x) = -0.17271 -0.09314
# Poissons Ratio (y) = -0.94919 -0.13420
# Poissons Ratio (z) = -0.04388 -0.01150
#
# Static dielectric constant tensor:
#      x y z
#    x 1.940150 0.000000 0.000000 
#    y 0.000000 0.875090 0.000000 
#    z 0.000000 0.000000 1.962360 
# 
# From -- ./inp_files/5757.got.cif
#   From: 2010.05.17/outbox.cif.g08.bks.cpg/sg29_3_cif.got.tgz:5757.got - 2010.06.04 01:19:37.
