data_PCOD9340325
_publ_section_title
;
Structure prediction by ZEFSAII (Michael W. Deem and Ramdas Pophale) SiO2 
 PCOD9340325
Probable space group: P C A 21
;
_chemical_formula_sum "Si O2"
_cell_formula_units_Z 32
_cell_length_a 14.390117
_cell_length_b 12.923083
_cell_length_c 7.484145
_cell_angle_alpha 90.000000
_cell_angle_beta 90.000000
_cell_angle_gamma 90.000000
_cell_volume 1391.786603
_symmetry_space_group_name_H-M "P C A 21"
_symmetry_group_IT_number 29
_symmetry_cell_setting 'orthorhombic'
loop_
_space_group_symop_operation_xyz
x,y,z
-x,-y,1/2+z
1/2-x,y,1/2+z
1/2+x,-y,z
loop_
_atom_site_type_symbol
_atom_site_label
_atom_site_fract_x
_atom_site_fract_y
_atom_site_fract_z
Si Si1 0.679393 0.780738 0.666500
Si Si2 0.112148 0.984409 0.281478
Si Si3 0.473848 0.624030 0.337929
Si Si4 0.886023 0.239907 0.837760
Si Si5 0.453667 0.391683 0.227782
Si Si6 0.173180 0.775240 0.750463
Si Si7 0.824022 0.004117 0.193102
Si Si8 0.610808 0.790300 0.254456
O O1 0.634020 0.682460 0.761795
O O2 0.655376 0.889652 0.763155
O O3 0.638891 0.787790 0.465486
O O4 0.790719 0.775957 0.657947
O O5 0.134993 0.989922 0.493851
O O6 0.212154 0.987602 0.184277
O O7 0.067832 0.094324 0.225219
O O8 0.071309 0.869045 0.262871
O O9 0.444761 0.510658 0.278352
O O10 0.530176 0.607351 0.517075
O O11 0.383713 0.694748 0.367569
O O12 0.541207 0.696051 0.217053
O O13 0.955303 0.333983 0.804083
O O14 0.782752 0.246571 0.754415
O O15 0.862866 0.234357 0.047951
O O16 0.151394 0.893844 0.804195
#
# Coordination Sequence:
#
# PCOD9340325 Si02
#       8
#     4   4   4   4   4   4   4   4
#     4   9  19  36  58  83 111 143 178 222 275 329
#     4   8  15  30  53  82 112 139 172 215 268 330
#     4  11  24  40  56  78 110 147 191 236 276 324
#     4  10  20  36  59  85 113 145 180 222 274 330
#     4  11  24  40  56  78 110 147 191 236 276 324
#     4  10  20  36  59  85 113 145 180 222 274 330
#     4   8  15  30  53  82 112 139 172 215 268 330
#     4   9  19  36  58  83 111 143 178 222 275 329
#
# _framework density 22.992028000000001
#
# number of rings (size 3 to 8) (size 9 to 14) (size 15 to 20)
#    0.000    2.500    0.000    1.500    0.000    5.000 
#    0.000    2.500    0.000    0.000    0.000    0.000 
#    0.000    0.000    0.000    0.000    0.000    0.000 
#
# Total GULP energy -178652.337991 kJ/mol
# GULP energy per Si atom -5582.885562 kJ/mol
# Density = 2.293970 g / cm^3
# Si number density = 22.992028 Si / 1000 Ang^3
#
#
#
# Elastic Constant Matrix: (Units=GPa)
#
#
# Indices 1 2 3 4 5 6 
#
# 1 82.2999 45.8336 -4.0133 0.0000 0.0000 0.0000
# 2 45.8336 198.3687 15.4085 0.0000 0.0000 0.0000
# 3 -4.0133 15.4085 21.7868 0.0000 0.0000 0.0000
# 4 0.0000 0.0000 0.0000 2.9556 0.0000 0.0000
# 5 0.0000 0.0000 0.0000 0.0000 19.1765 0.0000
# 6 0.0000 0.0000 0.0000 0.0000 0.0000 29.3805
#
#
#
# Elastic Compliance Matrix: (Units=1/GPa)
#
#
# Indices 1 2 3 4 5 6 
#
# 1 0.014509 -0.003767 0.005337 0.000000 0.000000 0.000000
# 2 -0.003767 0.006312 -0.005158 0.000000 0.000000 0.000000
# 3 0.005337 -0.005158 0.050530 0.000000 0.000000 0.000000
# 4 0.000000 0.000000 0.000000 0.338340 0.000000 0.000000
# 5 0.000000 0.000000 0.000000 0.000000 0.052147 0.000000
# 6 0.000000 0.000000 0.000000 0.000000 0.000000 0.034036
#
#
# Mechanical properties :
#
#
# Convention : Reuss Voigt Hill
#
# Bulk Modulus (GPa) = 15.58247 46.32367 30.95307
# Shear Modulus (GPa) = 9.53394 26.65096 18.09245
#
# Velocity S-wave (km/s) = 2.03854 3.40831 2.80822
# Velocity P-wave (km/s) = 3.51182 5.97329 4.89965
#
# Compressibility (1/GPa) = 0.06417467
#
# Stress axis : x y z
#
# Youngs Moduli (GPa) = 68.92420 158.42585 19.79011
#
# Poissons Ratio (x) = 0.59676 -0.10561
# Poissons Ratio (y) = 0.25962 0.10208
# Poissons Ratio (z) = -0.36782 0.81716
#
# Static dielectric constant tensor:
#      x y z
#    x 1.888080 0.000000 0.000000 
#    y 0.000000 1.911370 0.000000 
#    z 0.000000 0.000000 1.918580 
# 
# From -- ./inp_files/1835.got.cif
#   From: 2010.05.17/outbox.cif.g08.bks.cpg/sg29_1_cif.got.tgz:1835.got - 2010.06.04 01:19:37.
