data_PCOD9340978
_publ_section_title
;
Structure prediction by ZEFSAII (Michael W. Deem and Ramdas Pophale) SiO2 
 PCOD9340978
Probable space group: P C A 21
;
_chemical_formula_sum "Si O2"
_cell_formula_units_Z 32
_cell_length_a 11.605034
_cell_length_b 13.240874
_cell_length_c 8.262905
_cell_angle_alpha 90.000000
_cell_angle_beta 90.000000
_cell_angle_gamma 90.000000
_cell_volume 1269.684534
_symmetry_space_group_name_H-M "P C A 21"
_symmetry_group_IT_number 29
_symmetry_cell_setting 'orthorhombic'
loop_
_space_group_symop_operation_xyz
x,y,z
-x,-y,1/2+z
1/2-x,y,1/2+z
1/2+x,-y,z
loop_
_atom_site_type_symbol
_atom_site_label
_atom_site_fract_x
_atom_site_fract_y
_atom_site_fract_z
Si Si1 0.826808 0.195254 0.881580
Si Si2 0.792349 0.817277 0.369358
Si Si3 0.057298 0.133627 0.442568
Si Si4 0.007669 0.956950 0.265875
Si Si5 0.104840 0.713156 0.033741
Si Si6 0.187851 0.542351 0.229383
Si Si7 0.654057 0.671754 0.138218
Si Si8 0.403191 0.625711 0.073492
O O1 0.868291 0.243083 0.712553
O O2 0.889056 0.257857 0.021706
O O3 0.879527 0.084457 0.862218
O O4 0.695613 0.225453 0.921057
O O5 0.693347 0.875186 0.468939
O O6 0.895653 0.892849 0.324380
O O7 0.706840 0.765231 0.237725
O O8 0.842223 0.719361 0.459973
O O9 0.988598 0.070953 0.578565
O O10 0.018450 0.248871 0.472979
O O11 0.012861 0.077104 0.283906
O O12 0.117938 0.595190 0.078810
O O13 0.222442 0.427899 0.189144
O O14 0.129255 0.564768 0.405383
O O15 0.310151 0.598584 0.208874
O O16 0.527625 0.622576 0.151264
#
# Coordination Sequence:
#
# PCOD9340978 Si02
#       8
#     4   4   4   4   4   4   4   4
#     4   9  19  40  64  90 134 176 226 302 357 431
#     4  12  27  49  70 109 150 192 258 311 381 463
#     4  11  27  45  74 102 145 193 242 315 377 455
#     4  11  25  46  70 101 139 190 246 304 382 452
#     4   9  21  40  64 100 136 175 236 300 364 430
#     4  10  23  42  71 108 148 198 260 305 376 455
#     4  12  26  45  76 104 156 210 251 321 388 450
#     4  10  22  43  67 104 144 196 249 316 371 446
#
# _framework density 25.203112000000001
#
# number of rings (size 3 to 8) (size 9 to 14) (size 15 to 20)
#    0.000    1.500    2.500    0.750    3.500    9.000 
#    0.000    0.000    0.000    0.000    0.000    0.000 
#    0.000    0.000    0.000    0.000    0.000    0.000 
#
# Total GULP energy -178359.513378 kJ/mol
# GULP energy per Si atom -5573.734793 kJ/mol
# Density = 2.514575 g / cm^3
# Si number density = 25.203112 Si / 1000 Ang^3
#
#
#
# Elastic Constant Matrix: (Units=GPa)
#
#
# Indices 1 2 3 4 5 6 
#
# 1 67.0549 8.3319 7.5676 0.0000 0.0000 0.0000
# 2 8.3319 99.0920 14.4840 0.0000 0.0000 0.0000
# 3 7.5676 14.4840 59.9587 0.0000 0.0000 0.0000
# 4 0.0000 0.0000 0.0000 28.8150 0.0000 0.0000
# 5 0.0000 0.0000 0.0000 0.0000 27.0384 0.0000
# 6 0.0000 0.0000 0.0000 0.0000 0.0000 21.8154
#
#
#
# Elastic Compliance Matrix: (Units=1/GPa)
#
#
# Indices 1 2 3 4 5 6 
#
# 1 0.015231 -0.001036 -0.001672 0.000000 0.000000 0.000000
# 2 -0.001036 0.010532 -0.002413 0.000000 0.000000 0.000000
# 3 -0.001672 -0.002413 0.017472 0.000000 0.000000 0.000000
# 4 0.000000 0.000000 0.000000 0.034704 0.000000 0.000000
# 5 0.000000 0.000000 0.000000 0.000000 0.036984 0.000000
# 6 0.000000 0.000000 0.000000 0.000000 0.000000 0.045839
#
#
# Mechanical properties :
#
#
# Convention : Reuss Voigt Hill
#
# Bulk Modulus (GPa) = 30.31107 31.87474 31.09291
# Shear Modulus (GPa) = 27.47222 28.58191 28.02706
#
# Velocity S-wave (km/s) = 3.30515 3.37124 3.33836
# Velocity P-wave (km/s) = 5.15928 5.27525 5.21759
#
# Compressibility (1/GPa) = 0.03299125
#
# Stress axis : x y z
#
# Youngs Moduli (GPa) = 65.65722 94.95321 57.23395
#
# Poissons Ratio (x) = 0.09839 0.09570
# Poissons Ratio (y) = 0.06804 0.13812
# Poissons Ratio (z) = 0.10978 0.22915
#
# Static dielectric constant tensor:
#      x y z
#    x 2.053100 0.000000 0.000000 
#    y 0.000000 2.126340 0.000000 
#    z 0.000000 0.000000 2.104860 
# 
# From -- ./inp_files/1597.got.cif
#   From: 2010.05.17/outbox.cif.g08.bks.cpg/sg29_1_cif.got.tgz:1597.got - 2010.06.04 01:19:37.
