data_PCOD9340740
_publ_section_title
;
Structure prediction by ZEFSAII (Michael W. Deem and Ramdas Pophale) SiO2 
 PCOD9340740
Probable space group: P C A 21
;
_chemical_formula_sum "Si O2"
_cell_formula_units_Z 32
_cell_length_a 22.017579
_cell_length_b 5.306049
_cell_length_c 10.724143
_cell_angle_alpha 90.000000
_cell_angle_beta 90.000000
_cell_angle_gamma 90.000000
_cell_volume 1252.862516
_symmetry_space_group_name_H-M "P C A 21"
_symmetry_group_IT_number 29
_symmetry_cell_setting 'orthorhombic'
loop_
_space_group_symop_operation_xyz
x,y,z
-x,-y,1/2+z
1/2-x,y,1/2+z
1/2+x,-y,z
loop_
_atom_site_type_symbol
_atom_site_label
_atom_site_fract_x
_atom_site_fract_y
_atom_site_fract_z
Si Si1 0.262677 0.898534 0.164200
Si Si2 0.181835 0.255799 0.485344
Si Si3 0.885068 0.369150 0.144521
Si Si4 0.076486 0.538147 0.899725
Si Si5 0.585781 0.739079 0.276740
Si Si6 0.798010 0.746657 0.381911
Si Si7 0.542429 0.232636 0.398270
Si Si8 0.363805 0.913561 0.573362
O O1 0.318918 0.719514 0.193675
O O2 0.192732 0.809419 0.158515
O O3 0.269317 0.137980 0.256776
O O4 0.289281 0.999154 0.032824
O O5 0.133790 0.361679 0.584800
O O6 0.146239 0.236396 0.358873
O O7 0.244834 0.402422 0.456384
O O8 0.931803 0.351747 0.259090
O O9 0.915966 0.237213 0.023195
O O10 0.141282 0.411376 0.876198
O O11 0.023951 0.339442 0.927456
O O12 0.086992 0.727256 0.014185
O O13 0.566719 0.449224 0.301088
O O14 0.543157 0.954564 0.339797
O O15 0.604326 0.853446 0.144006
O O16 0.825721 0.981169 0.457925
#
# Coordination Sequence:
#
# PCOD9340740 Si02
#       8
#     4   4   4   4   4   4   4   4
#     4  11  20  42  68 103 142 184 236 312 375 444
#     4  10  21  43  68 100 137 187 239 297 375 439
#     4  11  23  44  70  98 139 192 243 301 369 447
#     4  12  27  45  68 109 139 202 247 315 366 442
#     4  11  25  50  71 106 143 198 244 303 370 441
#     4  11  23  42  68 106 147 182 248 303 383 446
#     4  11  29  48  76 103 149 201 253 301 365 446
#     4  11  26  42  71 107 148 186 246 310 381 443
#
# _framework density 25.541509000000001
#
# number of rings (size 3 to 8) (size 9 to 14) (size 15 to 20)
#    0.000    1.000    5.000    0.750    5.250    0.000 
#    4.500    0.000    0.000    0.000    0.000    0.000 
#    0.000    0.000    0.000    0.000    0.000    0.000 
#
# Total GULP energy -178549.583414 kJ/mol
# GULP energy per Si atom -5579.674482 kJ/mol
# Density = 2.548338 g / cm^3
# Si number density = 25.541509 Si / 1000 Ang^3
#
#
#
# Elastic Constant Matrix: (Units=GPa)
#
#
# Indices 1 2 3 4 5 6 
#
# 1 104.4766 18.7786 36.9301 0.0000 0.0000 0.0000
# 2 18.7786 59.7858 13.3815 0.0000 0.0000 0.0000
# 3 36.9301 13.3815 85.9571 0.0000 0.0000 0.0000
# 4 0.0000 0.0000 0.0000 44.1581 0.0000 0.0000
# 5 0.0000 0.0000 0.0000 0.0000 28.6254 0.0000
# 6 0.0000 0.0000 0.0000 0.0000 0.0000 42.0505
#
#
#
# Elastic Compliance Matrix: (Units=1/GPa)
#
#
# Indices 1 2 3 4 5 6 
#
# 1 0.011673 -0.002636 -0.004605 0.000000 0.000000 0.000000
# 2 -0.002636 0.017925 -0.001658 0.000000 0.000000 0.000000
# 3 -0.004605 -0.001658 0.013870 0.000000 0.000000 0.000000
# 4 0.000000 0.000000 0.000000 0.022646 0.000000 0.000000
# 5 0.000000 0.000000 0.000000 0.000000 0.034934 0.000000
# 6 0.000000 0.000000 0.000000 0.000000 0.000000 0.023781
#
#
# Mechanical properties :
#
#
# Convention : Reuss Voigt Hill
#
# Bulk Modulus (GPa) = 38.95420 43.15555 41.05488
# Shear Modulus (GPa) = 33.07230 35.04208 34.05719
#
# Velocity S-wave (km/s) = 3.60230 3.70802 3.65554
# Velocity P-wave (km/s) = 5.70846 5.93848 5.82460
#
# Compressibility (1/GPa) = 0.02567117
#
# Stress axis : x y z
#
# Youngs Moduli (GPa) = 85.66801 55.78669 72.09697
#
# Poissons Ratio (x) = 0.14704 0.33199
# Poissons Ratio (y) = 0.22580 0.11955
# Poissons Ratio (z) = 0.39448 0.09250
#
# Static dielectric constant tensor:
#      x y z
#    x 2.011190 0.000000 0.000000 
#    y 0.000000 2.129460 0.000000 
#    z 0.000000 0.000000 2.212610 
# 
# From -- ./inp_files/3832.got.cif
#   From: 2010.05.17/outbox.cif.g08.bks.cpg/sg29_2_cif.got.tgz:3832.got - 2010.06.04 01:19:37.
