data_PCOD9340445
_publ_section_title
;
Structure prediction by ZEFSAII (Michael W. Deem and Ramdas Pophale) SiO2 
 PCOD9340445
Probable space group: P C A 21
;
_chemical_formula_sum "Si O2"
_cell_formula_units_Z 28
_cell_length_a 13.888061
_cell_length_b 8.476686
_cell_length_c 11.905846
_cell_angle_alpha 90.000000
_cell_angle_beta 90.000000
_cell_angle_gamma 90.000000
_cell_volume 1401.612533
_symmetry_space_group_name_H-M "P C A 21"
_symmetry_group_IT_number 29
_symmetry_cell_setting 'orthorhombic'
loop_
_space_group_symop_operation_xyz
x,y,z
-x,-y,1/2+z
1/2-x,y,1/2+z
1/2+x,-y,z
loop_
_atom_site_type_symbol
_atom_site_label
_atom_site_fract_x
_atom_site_fract_y
_atom_site_fract_z
Si Si1 0.152315 0.420641 0.199850
Si Si2 0.109863 0.118792 0.342955
Si Si3 0.289280 0.217143 0.068102
Si Si4 0.682304 0.367255 0.748403
Si Si5 0.464681 0.418859 0.123390
Si Si6 0.932988 0.235394 0.454823
Si Si7 0.312584 0.906576 0.659355
O O1 0.109260 0.266094 0.257541
O O2 0.209803 0.355671 0.088996
O O3 0.237923 0.498536 0.271189
O O4 0.066965 0.546852 0.183490
O O5 0.183757 0.169763 0.441229
O O6 0.005686 0.111661 0.399258
O O7 0.135452 0.962919 0.273680
O O8 0.387693 0.274046 0.131553
O O9 0.245562 0.060871 0.121587
O O10 0.600395 0.437217 0.666377
O O11 0.639591 0.298929 0.862455
O O12 0.738421 0.231258 0.684077
O O13 0.502417 0.384394 0.997306
O O14 0.883211 0.153617 0.561482
#
# Coordination Sequence:
#
# PCOD9340445 Si02
#       7
#     4   4   4   4   4   4   4
#     4  10  20  40  65  91 128 162 216 270 318 384
#     4  10  22  42  64  92 133 167 215 265 327 386
#     4   9  22  40  64  91 128 170 210 261 327 381
#     4  11  23  40  68  96 130 172 214 270 327 385
#     4  10  21  42  61  96 127 168 216 269 315 392
#     4  11  23  39  68  96 134 168 222 264 331 388
#     4  11  23  43  66  94 134 171 219 269 321 396
#
# _framework density 19.976991000000002
#
# number of rings (size 3 to 8) (size 9 to 14) (size 15 to 20)
#    0.000    1.714    2.857    0.857    2.000    3.429 
#    0.000    1.429    0.000    0.000    0.000    0.000 
#    0.000    0.000    0.000    0.000    0.000    0.000 
#
# Total GULP energy -155905.317954 kJ/mol
# GULP energy per Si atom -5568.047070 kJ/mol
# Density = 1.993152 g / cm^3
# Si number density = 19.976991 Si / 1000 Ang^3
#
#
#
# Elastic Constant Matrix: (Units=GPa)
#
#
# Indices 1 2 3 4 5 6 
#
# 1 135.4905 45.0198 58.8149 0.0000 0.0000 0.0000
# 2 45.0198 57.5072 29.9908 0.0000 0.0000 0.0000
# 3 58.8149 29.9908 91.9038 0.0000 0.0000 0.0000
# 4 0.0000 0.0000 0.0000 34.2060 0.0000 0.0000
# 5 0.0000 0.0000 0.0000 0.0000 27.8377 0.0000
# 6 0.0000 0.0000 0.0000 0.0000 0.0000 22.1201
#
#
#
# Elastic Compliance Matrix: (Units=1/GPa)
#
#
# Indices 1 2 3 4 5 6 
#
# 1 0.011923 -0.006453 -0.005524 0.000000 0.000000 0.000000
# 2 -0.006453 0.024448 -0.003848 0.000000 0.000000 0.000000
# 3 -0.005524 -0.003848 0.015672 0.000000 0.000000 0.000000
# 4 0.000000 0.000000 0.000000 0.029235 0.000000 0.000000
# 5 0.000000 0.000000 0.000000 0.000000 0.035922 0.000000
# 6 0.000000 0.000000 0.000000 0.000000 0.000000 0.045208
#
#
# Mechanical properties :
#
#
# Convention : Reuss Voigt Hill
#
# Bulk Modulus (GPa) = 49.04011 61.39470 55.21740
# Shear Modulus (GPa) = 24.89347 26.90449 25.89898
#
# Velocity S-wave (km/s) = 3.53385 3.67382 3.60452
# Velocity P-wave (km/s) = 6.42280 6.98537 6.70999
#
# Compressibility (1/GPa) = 0.02039147
#
# Stress axis : x y z
#
# Youngs Moduli (GPa) = 83.87348 40.90362 63.80723
#
# Poissons Ratio (x) = 0.26394 0.35250
# Poissons Ratio (y) = 0.54121 0.24556
# Poissons Ratio (z) = 0.46335 0.15742
#
# Static dielectric constant tensor:
#      x y z
#    x 1.746160 0.000000 0.000000 
#    y 0.000000 1.729580 0.000000 
#    z 0.000000 0.000000 1.708890 
# 
# From -- ./inp_files/3144.got.cif
#   From: 2010.05.17/outbox.cif.g08.bks.cpg/sg29_2_cif.got.tgz:3144.got - 2010.06.04 01:19:37.
