data_PCOD9340752
_publ_section_title
;
Structure prediction by ZEFSAII (Michael W. Deem and Ramdas Pophale) SiO2 
 PCOD9340752
Probable space group: P C A 21
;
_chemical_formula_sum "Si O2"
_cell_formula_units_Z 28
_cell_length_a 18.250553
_cell_length_b 6.770315
_cell_length_c 9.684321
_cell_angle_alpha 90.000000
_cell_angle_beta 90.000000
_cell_angle_gamma 90.000000
_cell_volume 1196.614001
_symmetry_space_group_name_H-M "P C A 21"
_symmetry_group_IT_number 29
_symmetry_cell_setting 'orthorhombic'
loop_
_space_group_symop_operation_xyz
x,y,z
-x,-y,1/2+z
1/2-x,y,1/2+z
1/2+x,-y,z
loop_
_atom_site_type_symbol
_atom_site_label
_atom_site_fract_x
_atom_site_fract_y
_atom_site_fract_z
Si Si1 0.056843 0.284543 0.730750
Si Si2 0.378799 0.898906 0.144993
Si Si3 0.734761 0.311142 0.274446
Si Si4 0.367821 0.350299 0.654321
Si Si5 0.163737 0.073511 0.366866
Si Si6 0.018105 0.571161 0.503213
Si Si7 0.798162 0.663113 0.392209
O O1 0.069477 0.046349 0.735507
O O2 0.044944 0.367218 0.575573
O O3 0.134609 0.361716 0.788530
O O4 0.997096 0.374440 0.841162
O O5 0.308263 0.790817 0.212782
O O6 0.428771 0.736368 0.068860
O O7 0.349115 0.047032 0.027408
O O8 0.685524 0.470001 0.192945
O O9 0.761960 0.446306 0.403095
O O10 0.677239 0.142995 0.310869
O O11 0.390896 0.210089 0.780241
O O12 0.438484 0.415586 0.571572
O O13 0.323308 0.238548 0.534374
O O14 0.238192 0.190364 0.334688
#
# Coordination Sequence:
#
# PCOD9340752 Si02
#       7
#     4   4   4   4   4   4   4
#     4  11  26  48  72 101 146 196 242 301 365 443
#     4  12  26  43  75 106 147 191 252 304 370 438
#     4  11  22  42  71 104 139 187 244 308 362 430
#     4  10  25  43  67 101 143 187 241 299 363 436
#     4  11  24  39  70 105 140 184 244 302 365 433
#     4  11  28  47  73 103 149 199 244 298 374 449
#     4  10  21  44  66  98 140 184 237 300 363 425
#
# _framework density 23.399359
#
# number of rings (size 3 to 8) (size 9 to 14) (size 15 to 20)
#    0.000    1.143    2.857    1.714    8.000    1.143 
#    0.000    0.000    0.000    0.000    0.000    0.000 
#    0.000    0.000    0.000    0.000    0.000    0.000 
#
# Total GULP energy -156067.593067 kJ/mol
# GULP energy per Si atom -5573.842610 kJ/mol
# Density = 2.334610 g / cm^3
# Si number density = 23.399359 Si / 1000 Ang^3
#
#
#
# Elastic Constant Matrix: (Units=GPa)
#
#
# Indices 1 2 3 4 5 6 
#
# 1 60.8249 23.7003 14.5522 0.0000 0.0000 0.0000
# 2 23.7003 84.1750 19.1873 0.0000 0.0000 0.0000
# 3 14.5522 19.1873 92.5532 0.0000 0.0000 0.0000
# 4 0.0000 0.0000 0.0000 34.2370 0.0000 0.0000
# 5 0.0000 0.0000 0.0000 0.0000 22.4133 0.0000
# 6 0.0000 0.0000 0.0000 0.0000 0.0000 30.7881
#
#
#
# Elastic Compliance Matrix: (Units=1/GPa)
#
#
# Indices 1 2 3 4 5 6 
#
# 1 0.018796 -0.004848 -0.001950 0.000000 0.000000 0.000000
# 2 -0.004848 0.013719 -0.002082 0.000000 0.000000 0.000000
# 3 -0.001950 -0.002082 0.011543 0.000000 0.000000 0.000000
# 4 0.000000 0.000000 0.000000 0.029208 0.000000 0.000000
# 5 0.000000 0.000000 0.000000 0.000000 0.044616 0.000000
# 6 0.000000 0.000000 0.000000 0.000000 0.000000 0.032480
#
#
# Mechanical properties :
#
#
# Convention : Reuss Voigt Hill
#
# Bulk Modulus (GPa) = 38.02504 39.15920 38.59212
# Shear Modulus (GPa) = 28.26627 29.49523 28.88075
#
# Velocity S-wave (km/s) = 3.47939 3.55422 3.51701
# Velocity P-wave (km/s) = 5.69450 5.79783 5.74640
#
# Compressibility (1/GPa) = 0.02629846
#
# Stress axis : x y z
#
# Youngs Moduli (GPa) = 53.20248 72.88899 86.63350
#
# Poissons Ratio (x) = 0.35334 0.16897
# Poissons Ratio (y) = 0.25791 0.18037
# Poissons Ratio (z) = 0.10376 0.15176
#
# Static dielectric constant tensor:
#      x y z
#    x 1.918670 0.000000 0.000000 
#    y 0.000000 1.914210 0.000000 
#    z 0.000000 0.000000 1.949430 
# 
# From -- ./inp_files/3776.got.cif
#   From: 2010.05.17/outbox.cif.g08.bks.cpg/sg29_2_cif.got.tgz:3776.got - 2010.06.04 01:19:37.
