data_PCOD9340645
_publ_section_title
;
Structure prediction by ZEFSAII (Michael W. Deem and Ramdas Pophale) SiO2 
 PCOD9340645
Probable space group: P C A 21
;
_chemical_formula_sum "Si O2"
_cell_formula_units_Z 24
_cell_length_a 18.172067
_cell_length_b 5.150343
_cell_length_c 10.360149
_cell_angle_alpha 90.000000
_cell_angle_beta 90.000000
_cell_angle_gamma 90.000000
_cell_volume 969.630982
_symmetry_space_group_name_H-M "P C A 21"
_symmetry_group_IT_number 29
_symmetry_cell_setting 'orthorhombic'
loop_
_space_group_symop_operation_xyz
x,y,z
-x,-y,1/2+z
1/2-x,y,1/2+z
1/2+x,-y,z
loop_
_atom_site_type_symbol
_atom_site_label
_atom_site_fract_x
_atom_site_fract_y
_atom_site_fract_z
Si Si1 0.990938 0.287507 0.641130
Si Si2 0.789748 0.070065 0.906561
Si Si3 0.078572 0.797968 0.555228
Si Si4 0.298233 0.105046 0.170163
Si Si5 0.634650 0.172912 0.996468
Si Si6 0.595591 0.658896 0.855158
O O1 0.028273 0.553474 0.589512
O O2 0.020709 0.260115 0.785923
O O3 0.903596 0.252286 0.629716
O O4 0.027275 0.052261 0.560034
O O5 0.867335 0.208776 0.931489
O O6 0.719677 0.227716 0.964858
O O7 0.788490 0.841705 0.018072
O O8 0.768548 0.978691 0.763060
O O9 0.141359 0.872604 0.662388
O O10 0.341107 0.325020 0.246512
O O11 0.589541 0.372719 0.908113
O O12 0.620032 0.874878 0.958847
#
# Coordination Sequence:
#
# PCOD9340645 Si02
#       6
#     4   4   4   4   4   4
#     4  11  20  41  60  89 117 162 206 247 311 376
#     4   9  19  40  61  91 121 163 207 256 302 370
#     4   9  21  36  64  83 123 162 205 245 312 368
#     4   8  18  38  63  87 122 164 204 250 307 369
#     4  11  23  39  63  90 123 160 209 260 309 365
#     4  10  21  40  63  84 124 171 195 250 331 376
#
# _framework density 24.751684999999998
#
# number of rings (size 3 to 8) (size 9 to 14) (size 15 to 20)
#    1.000    1.333    0.000    4.000    0.000    2.667 
#    6.000    0.000    0.000    0.000    0.000    0.000 
#    0.000    0.000    0.000    0.000    0.000    0.000 
#
# Total GULP energy -133692.493667 kJ/mol
# GULP energy per Si atom -5570.520569 kJ/mol
# Density = 2.469535 g / cm^3
# Si number density = 24.751685 Si / 1000 Ang^3
#
#
#
# Elastic Constant Matrix: (Units=GPa)
#
#
# Indices 1 2 3 4 5 6 
#
# 1 81.5140 10.2901 4.2715 0.0000 0.0000 0.0000
# 2 10.2901 114.8212 3.6540 0.0000 0.0000 0.0000
# 3 4.2715 3.6540 53.9567 0.0000 0.0000 0.0000
# 4 0.0000 0.0000 0.0000 17.4913 0.0000 0.0000
# 5 0.0000 0.0000 0.0000 0.0000 50.2346 0.0000
# 6 0.0000 0.0000 0.0000 0.0000 0.0000 15.3710
#
#
#
# Elastic Compliance Matrix: (Units=1/GPa)
#
#
# Indices 1 2 3 4 5 6 
#
# 1 0.012453 -0.001087 -0.000912 0.000000 0.000000 0.000000
# 2 -0.001087 0.008823 -0.000511 0.000000 0.000000 0.000000
# 3 -0.000912 -0.000511 0.018640 0.000000 0.000000 0.000000
# 4 0.000000 0.000000 0.000000 0.057171 0.000000 0.000000
# 5 0.000000 0.000000 0.000000 0.000000 0.019907 0.000000
# 6 0.000000 0.000000 0.000000 0.000000 0.000000 0.065057
#
#
# Mechanical properties :
#
#
# Convention : Reuss Voigt Hill
#
# Bulk Modulus (GPa) = 28.65763 31.85809 30.25786
# Shear Modulus (GPa) = 25.16304 32.09114 28.62709
#
# Velocity S-wave (km/s) = 3.19191 3.60463 3.40453
# Velocity P-wave (km/s) = 5.01872 5.49759 5.26360
#
# Compressibility (1/GPa) = 0.03489472
#
# Stress axis : x y z
#
# Youngs Moduli (GPa) = 80.30288 113.34168 53.64740
#
# Poissons Ratio (x) = 0.12320 0.04894
# Poissons Ratio (y) = 0.08729 0.02744
# Poissons Ratio (z) = 0.07325 0.05797
#
# Static dielectric constant tensor:
#      x y z
#    x 2.066630 0.000000 0.000000 
#    y 0.000000 1.924250 0.000000 
#    z 0.000000 0.000000 2.160140 
# 
# From -- ./inp_files/3715.got.cif
#   From: 2010.05.17/outbox.cif.g08.bks.cpg/sg29_2_cif.got.tgz:3715.got - 2010.06.04 01:19:37.
