data_PCOD9340888
_publ_section_title
;
Structure prediction by ZEFSAII (Michael W. Deem and Ramdas Pophale) SiO2 
 PCOD9340888
Probable space group: P C A 21
;
_chemical_formula_sum "Si O2"
_cell_formula_units_Z 28
_cell_length_a 10.010459
_cell_length_b 5.417950
_cell_length_c 19.348092
_cell_angle_alpha 90.000000
_cell_angle_beta 90.000000
_cell_angle_gamma 90.000000
_cell_volume 1049.366336
_symmetry_space_group_name_H-M "P C A 21"
_symmetry_group_IT_number 29
_symmetry_cell_setting 'orthorhombic'
loop_
_space_group_symop_operation_xyz
x,y,z
-x,-y,1/2+z
1/2-x,y,1/2+z
1/2+x,-y,z
loop_
_atom_site_type_symbol
_atom_site_label
_atom_site_fract_x
_atom_site_fract_y
_atom_site_fract_z
Si Si1 0.986225 0.203648 0.466970
Si Si2 0.242296 0.516850 0.422560
Si Si3 0.932665 0.083906 0.849334
Si Si4 0.981929 0.832624 0.208570
Si Si5 0.245105 0.306059 0.276891
Si Si6 0.134150 0.048895 0.095099
Si Si7 0.185963 0.556612 0.138877
O O1 0.871591 0.411725 0.466806
O O2 0.961562 0.027752 0.532363
O O3 0.131462 0.330417 0.455178
O O4 0.958575 0.033919 0.399602
O O5 0.162601 0.765272 0.400580
O O6 0.296667 0.419300 0.348686
O O7 0.964322 0.253081 0.783726
O O8 0.877081 0.847751 0.807525
O O9 0.835116 0.892514 0.234795
O O10 0.051029 0.053014 0.167142
O O11 0.027447 0.619518 0.154449
O O12 0.240632 0.504831 0.215330
O O13 0.231527 0.812081 0.104459
O O14 0.203231 0.312366 0.094281
#
# Coordination Sequence:
#
# PCOD9340888 Si02
#       7
#     4   4   4   4   4   4   4
#     4  11  27  45  71 107 148 203 249 311 385 460
#     4  11  24  44  71 102 151 190 255 310 381 454
#     4  11  22  42  66 108 141 192 246 314 373 454
#     4  10  22  40  70  98 141 184 243 307 368 441
#     4  11  21  39  67 104 135 189 243 309 377 430
#     4  10  24  47  67 101 142 193 242 304 372 446
#     4  10  22  45  66 100 140 179 244 299 366 437
#
# _framework density 26.682767999999999
#
# number of rings (size 3 to 8) (size 9 to 14) (size 15 to 20)
#    0.857    0.571    2.857    1.714    4.000    3.429 
#    2.571    0.000    0.000    0.000    0.000    0.000 
#    0.000    0.000    0.000    0.000    0.000    0.000 
#
# Total GULP energy -155993.430780 kJ/mol
# GULP energy per Si atom -5571.193956 kJ/mol
# Density = 2.662204 g / cm^3
# Si number density = 26.682768 Si / 1000 Ang^3
#
#
#
# Elastic Constant Matrix: (Units=GPa)
#
#
# Indices 1 2 3 4 5 6 
#
# 1 43.6386 -0.8399 20.9760 0.0000 0.0000 0.0000
# 2 -0.8399 130.1392 25.2844 0.0000 0.0000 0.0000
# 3 20.9760 25.2844 113.2609 0.0000 0.0000 0.0000
# 4 0.0000 0.0000 0.0000 49.7896 0.0000 0.0000
# 5 0.0000 0.0000 0.0000 0.0000 27.6650 0.0000
# 6 0.0000 0.0000 0.0000 0.0000 0.0000 27.2493
#
#
#
# Elastic Compliance Matrix: (Units=1/GPa)
#
#
# Indices 1 2 3 4 5 6 
#
# 1 0.025311 0.001123 -0.004938 0.000000 0.000000 0.000000
# 2 0.001123 0.008082 -0.002012 0.000000 0.000000 0.000000
# 3 -0.004938 -0.002012 0.010193 0.000000 0.000000 0.000000
# 4 0.000000 0.000000 0.000000 0.020085 0.000000 0.000000
# 5 0.000000 0.000000 0.000000 0.000000 0.036147 0.000000
# 6 0.000000 0.000000 0.000000 0.000000 0.000000 0.036698
#
#
# Mechanical properties :
#
#
# Convention : Reuss Voigt Hill
#
# Bulk Modulus (GPa) = 31.31785 41.98663 36.65224
# Shear Modulus (GPa) = 31.48330 37.04867 34.26599
#
# Velocity S-wave (km/s) = 3.43871 3.73028 3.58746
# Velocity P-wave (km/s) = 5.24680 5.85858 5.56111
#
# Compressibility (1/GPa) = 0.03193068
#
# Stress axis : x y z
#
# Youngs Moduli (GPa) = 39.50883 123.72747 98.10704
#
# Poissons Ratio (x) = -0.13892 0.48447
# Poissons Ratio (y) = -0.04436 0.19741
# Poissons Ratio (z) = 0.19510 0.24897
#
# Static dielectric constant tensor:
#      x y z
#    x 2.395940 0.000000 0.000000 
#    y 0.000000 2.271440 0.000000 
#    z 0.000000 0.000000 2.095880 
# 
# From -- ./inp_files/5454.got.cif
#   From: 2010.05.17/outbox.cif.g08.bks.cpg/sg29_3_cif.got.tgz:5454.got - 2010.06.04 01:19:37.
