data_PCOD9340524
_publ_section_title
;
Structure prediction by ZEFSAII (Michael W. Deem and Ramdas Pophale) SiO2 
 PCOD9340524
Probable space group: P C A 21
;
_chemical_formula_sum "Si O2"
_cell_formula_units_Z 28
_cell_length_a 30.957194
_cell_length_b 7.122723
_cell_length_c 4.938025
_cell_angle_alpha 90.000000
_cell_angle_beta 90.000000
_cell_angle_gamma 90.000000
_cell_volume 1088.832131
_symmetry_space_group_name_H-M "P C A 21"
_symmetry_group_IT_number 29
_symmetry_cell_setting 'orthorhombic'
loop_
_space_group_symop_operation_xyz
x,y,z
-x,-y,1/2+z
1/2-x,y,1/2+z
1/2+x,-y,z
loop_
_atom_site_type_symbol
_atom_site_label
_atom_site_fract_x
_atom_site_fract_y
_atom_site_fract_z
Si Si1 0.380301 0.070850 0.454110
Si Si2 0.085476 0.477310 0.938625
Si Si3 0.143047 0.541628 0.418953
Si Si4 0.516544 0.239820 0.015964
Si Si5 0.326881 0.126181 0.952952
Si Si6 0.275865 0.785640 0.893206
Si Si7 0.052259 0.961719 0.534642
O O1 0.408141 0.259021 0.502023
O O2 0.338841 0.118012 0.269161
O O3 0.406627 0.949601 0.233975
O O4 0.362203 0.027117 0.750547
O O5 0.118498 0.583181 0.140702
O O6 0.037897 0.555702 0.004475
O O7 0.105329 0.513714 0.641527
O O8 0.168591 0.344584 0.383137
O O9 0.179677 0.690919 0.488047
O O10 0.546285 0.118927 0.231401
O O11 0.467586 0.172593 0.068319
O O12 0.520919 0.169837 0.708458
O O13 0.284086 0.008487 0.906278
O O14 0.262724 0.730862 0.592274
#
# Coordination Sequence:
#
# PCOD9340524 Si02
#       7
#     4   4   4   4   4   4   4
#     4  10  21  39  61  89 119 163 209 249 303 360
#     4  10  21  39  61  89 119 163 209 249 303 360
#     4  10  23  41  63  92 124 158 204 254 304 363
#     4  10  21  36  56  88 124 162 206 255 309 356
#     4  10  23  41  63  92 124 158 204 254 304 363
#     4  12  26  42  64  96 122 158 204 240 314 388
#     4  10  21  36  56  88 124 162 206 255 309 356
#
# _framework density 25.715623000000001
#
# number of rings (size 3 to 8) (size 9 to 14) (size 15 to 20)
#    0.000    1.714    0.000    3.429    6.000    1.143 
#    0.000    8.571    0.000    0.000    0.000    0.000 
#    0.000    0.000    0.000    0.000    0.000    0.000 
#
# Total GULP energy -156311.957693 kJ/mol
# GULP energy per Si atom -5582.569918 kJ/mol
# Density = 2.565709 g / cm^3
# Si number density = 25.715623 Si / 1000 Ang^3
#
#
#
# Elastic Constant Matrix: (Units=GPa)
#
#
# Indices 1 2 3 4 5 6 
#
# 1 50.9434 19.7547 19.6254 0.0000 0.0000 0.0000
# 2 19.7547 60.2538 8.3960 0.0000 0.0000 0.0000
# 3 19.6254 8.3960 153.8426 0.0000 0.0000 0.0000
# 4 0.0000 0.0000 0.0000 12.8315 0.0000 0.0000
# 5 0.0000 0.0000 0.0000 0.0000 40.5388 0.0000
# 6 0.0000 0.0000 0.0000 0.0000 0.0000 42.6975
#
#
#
# Elastic Compliance Matrix: (Units=1/GPa)
#
#
# Indices 1 2 3 4 5 6 
#
# 1 0.023473 -0.007334 -0.002594 0.000000 0.000000 0.000000
# 2 -0.007334 0.019015 -0.000102 0.000000 0.000000 0.000000
# 3 -0.002594 -0.000102 0.006837 0.000000 0.000000 0.000000
# 4 0.000000 0.000000 0.000000 0.077933 0.000000 0.000000
# 5 0.000000 0.000000 0.000000 0.000000 0.024668 0.000000
# 6 0.000000 0.000000 0.000000 0.000000 0.000000 0.023421
#
#
# Mechanical properties :
#
#
# Convention : Reuss Voigt Hill
#
# Bulk Modulus (GPa) = 34.17195 40.06579 37.11887
# Shear Modulus (GPa) = 24.37092 33.69782 29.03437
#
# Velocity S-wave (km/s) = 3.08183 3.62388 3.36379
# Velocity P-wave (km/s) = 5.09714 5.75536 5.43622
#
# Compressibility (1/GPa) = 0.02926377
#
# Stress axis : x y z
#
# Youngs Moduli (GPa) = 42.60194 52.58918 146.27042
#
# Poissons Ratio (x) = 0.38571 0.37945
# Poissons Ratio (y) = 0.31246 0.01494
# Poissons Ratio (z) = 0.11052 0.00537
#
# Static dielectric constant tensor:
#      x y z
#    x 2.116240 0.000000 0.000000 
#    y 0.000000 2.051480 0.000000 
#    z 0.000000 0.000000 1.932970 
# 
# From -- ./inp_files/667.got.cif
#   From: 2010.05.17/outbox.cif.g08.bks.cpg/sg29_1_cif.got.tgz:667.got - 2010.06.04 01:19:37.
