data_PCOD9340922
_publ_section_title
;
Structure prediction by ZEFSAII (Michael W. Deem and Ramdas Pophale) SiO2 
 PCOD9340922
Probable space group: P C A 21
;
_chemical_formula_sum "Si O2"
_cell_formula_units_Z 28
_cell_length_a 12.361432
_cell_length_b 8.748173
_cell_length_c 10.667953
_cell_angle_alpha 90.000000
_cell_angle_beta 90.000000
_cell_angle_gamma 90.000000
_cell_volume 1153.631858
_symmetry_space_group_name_H-M "P C A 21"
_symmetry_group_IT_number 29
_symmetry_cell_setting 'orthorhombic'
loop_
_space_group_symop_operation_xyz
x,y,z
-x,-y,1/2+z
1/2-x,y,1/2+z
1/2+x,-y,z
loop_
_atom_site_type_symbol
_atom_site_label
_atom_site_fract_x
_atom_site_fract_y
_atom_site_fract_z
Si Si1 0.468252 0.953215 0.429420
Si Si2 0.380419 0.863171 0.784912
Si Si3 0.570295 0.771279 0.626724
Si Si4 0.322434 0.596689 0.937090
Si Si5 0.222516 0.442076 0.166636
Si Si6 0.991268 0.719866 0.570918
Si Si7 0.836463 0.090285 0.200817
O O1 0.566425 0.981345 0.330662
O O2 0.464136 0.117077 0.502874
O O3 0.498730 0.799326 0.502639
O O4 0.362241 0.944288 0.345730
O O5 0.479708 0.762746 0.734081
O O6 0.324580 0.773400 0.897316
O O7 0.289646 0.886111 0.682118
O O8 0.666813 0.655878 0.652323
O O9 0.625798 0.938547 0.631266
O O10 0.293136 0.509151 0.807253
O O11 0.241512 0.557188 0.049503
O O12 0.447598 0.589485 0.987305
O O13 0.115830 0.345394 0.133365
O O14 0.087362 0.768856 0.665279
#
# Coordination Sequence:
#
# PCOD9340922 Si02
#       7
#     4   4   4   4   4   4   4
#     4   9  22  40  68 108 144 184 238 311 379 449
#     4  10  23  45  69  99 149 187 253 295 370 451
#     4  10  25  41  70 112 143 192 242 311 380 441
#     4  11  28  48  71 106 144 206 244 311 359 441
#     4  12  29  46  81 103 156 194 256 307 367 450
#     4  10  25  47  67 110 144 193 252 309 376 450
#     4  10  22  41  74 102 146 190 239 310 379 444
#
# _framework density 24.271173999999998
#
# number of rings (size 3 to 8) (size 9 to 14) (size 15 to 20)
#    0.000    1.714    0.000    0.857   18.000    4.571 
#    0.000    0.000    0.000    0.000    0.000    0.000 
#    0.000    0.000    0.000    0.000    0.000    0.000 
#
# Total GULP energy -156211.516673 kJ/mol
# GULP energy per Si atom -5578.982738 kJ/mol
# Density = 2.421593 g / cm^3
# Si number density = 24.271174 Si / 1000 Ang^3
#
#
#
# Elastic Constant Matrix: (Units=GPa)
#
#
# Indices 1 2 3 4 5 6 
#
# 1 101.9607 38.0494 15.1119 0.0000 0.0000 0.0000
# 2 38.0494 67.0134 32.1011 0.0000 0.0000 0.0000
# 3 15.1119 32.1011 85.0160 0.0000 0.0000 0.0000
# 4 0.0000 0.0000 0.0000 33.1549 0.0000 0.0000
# 5 0.0000 0.0000 0.0000 0.0000 28.1349 0.0000
# 6 0.0000 0.0000 0.0000 0.0000 0.0000 36.7387
#
#
#
# Elastic Compliance Matrix: (Units=1/GPa)
#
#
# Indices 1 2 3 4 5 6 
#
# 1 0.012466 -0.007345 0.000558 0.000000 0.000000 0.000000
# 2 -0.007345 0.022545 -0.007207 0.000000 0.000000 0.000000
# 3 0.000558 -0.007207 0.014385 0.000000 0.000000 0.000000
# 4 0.000000 0.000000 0.000000 0.030161 0.000000 0.000000
# 5 0.000000 0.000000 0.000000 0.000000 0.035543 0.000000
# 6 0.000000 0.000000 0.000000 0.000000 0.000000 0.027219
#
#
# Mechanical properties :
#
#
# Convention : Reuss Voigt Hill
#
# Bulk Modulus (GPa) = 46.71482 47.16832 46.94157
# Shear Modulus (GPa) = 28.17773 30.85423 29.51598
#
# Velocity S-wave (km/s) = 3.41097 3.56930 3.49103
# Velocity P-wave (km/s) = 5.89931 6.03843 5.96927
#
# Compressibility (1/GPa) = 0.02140648
#
# Stress axis : x y z
#
# Youngs Moduli (GPa) = 80.21735 44.35509 69.51811
#
# Poissons Ratio (x) = 0.32580 -0.03876
# Poissons Ratio (y) = 0.58921 0.50103
# Poissons Ratio (z) = -0.04473 0.31968
#
# Static dielectric constant tensor:
#      x y z
#    x 1.977840 0.000000 0.000000 
#    y 0.000000 1.947390 0.000000 
#    z 0.000000 0.000000 2.153380 
# 
# From -- ./inp_files/3143.got.cif
#   From: 2010.05.17/outbox.cif.g08.bks.cpg/sg29_2_cif.got.tgz:3143.got - 2010.06.04 01:19:37.
