data_PCOD9340836
_publ_section_title
;
Structure prediction by ZEFSAII (Michael W. Deem and Ramdas Pophale) SiO2 
 PCOD9340836
Probable space group: P C A 21
;
_chemical_formula_sum "Si O2"
_cell_formula_units_Z 32
_cell_length_a 19.317295
_cell_length_b 8.506540
_cell_length_c 7.621156
_cell_angle_alpha 90.000000
_cell_angle_beta 90.000000
_cell_angle_gamma 90.000000
_cell_volume 1252.333828
_symmetry_space_group_name_H-M "P C A 21"
_symmetry_group_IT_number 29
_symmetry_cell_setting 'orthorhombic'
loop_
_space_group_symop_operation_xyz
x,y,z
-x,-y,1/2+z
1/2-x,y,1/2+z
1/2+x,-y,z
loop_
_atom_site_type_symbol
_atom_site_label
_atom_site_fract_x
_atom_site_fract_y
_atom_site_fract_z
Si Si1 0.707889 0.154067 0.472580
Si Si2 0.211084 0.595872 0.190444
Si Si3 0.053574 0.274867 0.172453
Si Si4 0.956490 0.157232 0.611880
Si Si5 0.341119 0.077080 0.492646
Si Si6 0.962952 0.462591 0.403265
Si Si7 0.060546 0.934194 0.519282
Si Si8 0.332729 0.415039 0.359960
O O1 0.736481 0.299847 0.578405
O O2 0.681997 0.254790 0.301642
O O3 0.640756 0.080246 0.558539
O O4 0.769548 0.022575 0.471077
O O5 0.258763 0.471567 0.291636
O O6 0.167353 0.489221 0.057873
O O7 0.125711 0.176903 0.163088
O O8 0.033703 0.403827 0.316406
O O9 0.988226 0.157065 0.157061
O O10 0.039522 0.367793 0.990663
O O11 0.947668 0.333392 0.550487
O O12 0.901301 0.054128 0.497803
O O13 0.951491 0.121866 0.818788
O O14 0.032517 0.108701 0.543964
O O15 0.337188 0.225901 0.361126
O O16 0.896897 0.488486 0.272644
#
# Coordination Sequence:
#
# PCOD9340836 Si02
#       8
#     4   4   4   4   4   4   4   4
#     4  11  22  40  65  93 126 171 220 274 339 411
#     4  10  22  39  62  90 127 172 220 270 334 407
#     4  10  23  41  65  99 131 177 229 285 345 416
#     4  11  22  40  64  94 130 173 217 279 342 410
#     4  10  23  41  65  93 132 172 223 282 343 401
#     4  11  21  41  68  92 131 175 223 278 345 415
#     4  11  23  39  61  93 128 167 221 272 339 411
#     4  10  22  41  62  92 131 175 221 278 335 407
#
# _framework density 25.552292000000001
#
# number of rings (size 3 to 8) (size 9 to 14) (size 15 to 20)
#    0.000    1.500    0.000    6.000    0.000    5.000 
#    0.000    5.000    0.000    0.000    0.000    0.000 
#    0.000    0.000    0.000    0.000    0.000    0.000 
#
# Total GULP energy -178174.155706 kJ/mol
# GULP energy per Si atom -5567.942366 kJ/mol
# Density = 2.549413 g / cm^3
# Si number density = 25.552292 Si / 1000 Ang^3
#
#
#
# Elastic Constant Matrix: (Units=GPa)
#
#
# Indices 1 2 3 4 5 6 
#
# 1 63.3619 41.8752 2.3700 0.0000 0.0000 0.0000
# 2 41.8752 146.5672 14.4749 0.0000 0.0000 0.0000
# 3 2.3700 14.4749 44.9489 0.0000 0.0000 0.0000
# 4 0.0000 0.0000 0.0000 31.9919 0.0000 0.0000
# 5 0.0000 0.0000 0.0000 0.0000 11.0336 0.0000
# 6 0.0000 0.0000 0.0000 0.0000 0.0000 38.4157
#
#
#
# Elastic Compliance Matrix: (Units=1/GPa)
#
#
# Indices 1 2 3 4 5 6 
#
# 1 0.019483 -0.005645 0.000790 0.000000 0.000000 0.000000
# 2 -0.005645 0.008682 -0.002498 0.000000 0.000000 0.000000
# 3 0.000790 -0.002498 0.023010 0.000000 0.000000 0.000000
# 4 0.000000 0.000000 0.000000 0.031258 0.000000 0.000000
# 5 0.000000 0.000000 0.000000 0.000000 0.090632 0.000000
# 6 0.000000 0.000000 0.000000 0.000000 0.000000 0.026031
#
#
# Mechanical properties :
#
#
# Convention : Reuss Voigt Hill
#
# Bulk Modulus (GPa) = 27.41911 41.36870 34.39390
# Shear Modulus (GPa) = 22.12793 29.36544 25.74668
#
# Velocity S-wave (km/s) = 2.94596 3.39371 3.17773
# Velocity P-wave (km/s) = 4.72498 5.61972 5.19166
#
# Compressibility (1/GPa) = 0.03647091
#
# Stress axis : x y z
#
# Youngs Moduli (GPa) = 51.32626 115.17781 43.45868
#
# Poissons Ratio (x) = 0.65013 -0.03435
# Poissons Ratio (y) = 0.28971 0.10857
# Poissons Ratio (z) = -0.04057 0.28775
#
# Static dielectric constant tensor:
#      x y z
#    x 2.123240 0.000000 0.000000 
#    y 0.000000 2.030350 0.000000 
#    z 0.000000 0.000000 2.291810 
# 
# From -- ./inp_files/2281.got.cif
#   From: 2010.05.17/outbox.cif.g08.bks.cpg/sg29_2_cif.got.tgz:2281.got - 2010.06.04 01:19:37.
