data_PCOD9340073
_publ_section_title
;
Structure prediction by ZEFSAII (Michael W. Deem and Ramdas Pophale) SiO2 
 PCOD9340073
Probable space group: P C A 21
;
_chemical_formula_sum "Si O2"
_cell_formula_units_Z 24
_cell_length_a 14.875996
_cell_length_b 6.751964
_cell_length_c 9.391218
_cell_angle_alpha 90.000000
_cell_angle_beta 90.000000
_cell_angle_gamma 90.000000
_cell_volume 943.274498
_symmetry_space_group_name_H-M "P C A 21"
_symmetry_group_IT_number 29
_symmetry_cell_setting 'orthorhombic'
loop_
_space_group_symop_operation_xyz
x,y,z
-x,-y,1/2+z
1/2-x,y,1/2+z
1/2+x,-y,z
loop_
_atom_site_type_symbol
_atom_site_label
_atom_site_fract_x
_atom_site_fract_y
_atom_site_fract_z
Si Si1 0.534703 0.414297 0.305420
Si Si2 0.432738 0.934275 0.418397
Si Si3 0.615349 0.492169 0.012656
Si Si4 0.076848 0.041063 0.216591
Si Si5 0.227544 0.910364 0.724312
Si Si6 0.703581 0.371858 0.465810
O O1 0.565341 0.527041 0.161816
O O2 0.436616 0.439949 0.371932
O O3 0.546465 0.181532 0.266177
O O4 0.606417 0.457129 0.430734
O O5 0.386856 0.747014 0.495983
O O6 0.452639 0.072698 0.553072
O O7 0.357600 0.001889 0.305750
O O8 0.519029 0.849817 0.336489
O O9 0.721845 0.531058 0.014498
O O10 0.184791 0.049772 0.218515
O O11 0.262069 0.722600 0.817284
O O12 0.197696 0.811496 0.576214
#
# Coordination Sequence:
#
# PCOD9340073 Si02
#       6
#     4   4   4   4   4   4
#     4  10  22  35  58  85 114 146 189 234 276 334
#     4  10  22  35  58  85 114 146 189 234 276 334
#     4  10  21  37  55  88 112 145 192 230 280 331
#     4  10  21  37  55  88 112 145 192 230 280 331
#     4  10  18  36  57  80 109 150 192 225 267 336
#     4  10  18  36  57  80 109 150 192 225 267 336
#
# _framework density 25.443283000000001
#
# number of rings (size 3 to 8) (size 9 to 14) (size 15 to 20)
#    0.000    2.000    6.667    0.000    9.333    0.000 
#    0.000    1.667    0.000    0.000    0.000    0.000 
#    0.000    0.000    0.000    0.000    0.000    0.000 
#
# Total GULP energy -134059.161029 kJ/mol
# GULP energy per Si atom -5585.798376 kJ/mol
# Density = 2.538537 g / cm^3
# Si number density = 25.443283 Si / 1000 Ang^3
#
#
#
# Elastic Constant Matrix: (Units=GPa)
#
#
# Indices 1 2 3 4 5 6 
#
# 1 140.9530 9.1047 60.6841 0.0000 0.0000 0.0000
# 2 9.1047 30.6429 3.7408 0.0000 0.0000 0.0000
# 3 60.6841 3.7408 135.9108 0.0000 0.0000 0.0000
# 4 0.0000 0.0000 0.0000 37.0870 0.0000 0.0000
# 5 0.0000 0.0000 0.0000 0.0000 46.5083 0.0000
# 6 0.0000 0.0000 0.0000 0.0000 0.0000 26.1391
#
#
#
# Elastic Compliance Matrix: (Units=1/GPa)
#
#
# Indices 1 2 3 4 5 6 
#
# 1 0.008925 -0.002173 -0.003925 0.000000 0.000000 0.000000
# 2 -0.002173 0.033273 0.000054 0.000000 0.000000 0.000000
# 3 -0.003925 0.000054 0.009109 0.000000 0.000000 0.000000
# 4 0.000000 0.000000 0.000000 0.026964 0.000000 0.000000
# 5 0.000000 0.000000 0.000000 0.000000 0.021502 0.000000
# 6 0.000000 0.000000 0.000000 0.000000 0.000000 0.038257
#
#
# Mechanical properties :
#
#
# Convention : Reuss Voigt Hill
#
# Bulk Modulus (GPa) = 25.49746 50.50733 38.00240
# Shear Modulus (GPa) = 30.63940 37.54535 34.09237
#
# Velocity S-wave (km/s) = 3.47396 3.84558 3.66448
# Velocity P-wave (km/s) = 5.11216 6.29381 5.73351
#
# Compressibility (1/GPa) = 0.03921959
#
# Stress axis : x y z
#
# Youngs Moduli (GPa) = 112.04785 30.05452 109.78362
#
# Poissons Ratio (x) = 0.06530 0.43091
# Poissons Ratio (y) = 0.24343 -0.00596
# Poissons Ratio (z) = 0.43980 -0.00163
#
# Static dielectric constant tensor:
#      x y z
#    x 2.072270 0.000000 0.000000 
#    y 0.000000 2.202550 0.000000 
#    z 0.000000 0.000000 2.034230 
# 
# From -- ./inp_files/1429.got.cif
#   From: 2010.05.17/outbox.cif.g08.bks.cpg/sg29_1_cif.got.tgz:1429.got - 2010.06.04 01:19:37.
