data_PCOD9340367
_publ_section_title
;
Structure prediction by ZEFSAII (Michael W. Deem and Ramdas Pophale) SiO2 
 PCOD9340367
Probable space group: P C A 21
;
_chemical_formula_sum "Si O2"
_cell_formula_units_Z 24
_cell_length_a 14.152970
_cell_length_b 8.097585
_cell_length_c 8.263386
_cell_angle_alpha 90.000000
_cell_angle_beta 90.000000
_cell_angle_gamma 90.000000
_cell_volume 947.024341
_symmetry_space_group_name_H-M "P C A 21"
_symmetry_group_IT_number 29
_symmetry_cell_setting 'orthorhombic'
loop_
_space_group_symop_operation_xyz
x,y,z
-x,-y,1/2+z
1/2-x,y,1/2+z
1/2+x,-y,z
loop_
_atom_site_type_symbol
_atom_site_label
_atom_site_fract_x
_atom_site_fract_y
_atom_site_fract_z
Si Si1 0.786041 0.560364 0.115930
Si Si2 0.878110 0.415216 0.794105
Si Si3 0.539873 0.746860 0.682322
Si Si4 0.151759 0.947003 0.781705
Si Si5 0.996329 0.719883 0.804719
Si Si6 0.830009 0.903362 0.631734
O O1 0.710770 0.427240 0.177079
O O2 0.872185 0.625441 0.228441
O O3 0.726830 0.731946 0.089373
O O4 0.834851 0.485583 0.958332
O O5 0.955775 0.550105 0.735844
O O6 0.947196 0.259644 0.795500
O O7 0.588111 0.924623 0.682674
O O8 0.508307 0.712122 0.498749
O O9 0.258232 0.978259 0.727850
O O10 0.142490 0.005782 0.967108
O O11 0.101690 0.772020 0.758386
O O12 0.919049 0.849970 0.738833
#
# Coordination Sequence:
#
# PCOD9340367 Si02
#       6
#     4   4   4   4   4   4
#     4   9  19  37  59  82 114 157 197 232 290 363
#     4  10  21  38  61  86 115 155 198 243 291 349
#     4  10  21  39  61  88 118 155 202 247 295 356
#     4  11  21  39  63  89 119 157 199 245 297 358
#     4  10  22  40  61  88 119 157 205 248 293 354
#     4  10  20  37  65  89 119 163 201 237 296 372
#
# _framework density 25.342538000000001
#
# number of rings (size 3 to 8) (size 9 to 14) (size 15 to 20)
#    0.000    2.000    0.000    6.000    0.000    8.000 
#    0.000    6.667    0.000    0.000    0.000    0.000 
#    0.000    0.000    0.000    0.000    0.000    0.000 
#
# Total GULP energy -134241.453661 kJ/mol
# GULP energy per Si atom -5593.393903 kJ/mol
# Density = 2.528486 g / cm^3
# Si number density = 25.342538 Si / 1000 Ang^3
#
#
#
# Elastic Constant Matrix: (Units=GPa)
#
#
# Indices 1 2 3 4 5 6 
#
# 1 127.0947 25.0523 21.1268 0.0000 0.0000 0.0000
# 2 25.0523 43.4239 1.3070 0.0000 0.0000 0.0000
# 3 21.1268 1.3070 57.6521 0.0000 0.0000 0.0000
# 4 0.0000 0.0000 0.0000 11.7439 0.0000 0.0000
# 5 0.0000 0.0000 0.0000 0.0000 14.3145 0.0000
# 6 0.0000 0.0000 0.0000 0.0000 0.0000 53.8618
#
#
#
# Elastic Compliance Matrix: (Units=1/GPa)
#
#
# Indices 1 2 3 4 5 6 
#
# 1 0.009484 -0.005371 -0.003354 0.000000 0.000000 0.000000
# 2 -0.005371 0.026086 0.001377 0.000000 0.000000 0.000000
# 3 -0.003354 0.001377 0.018543 0.000000 0.000000 0.000000
# 4 0.000000 0.000000 0.000000 0.085151 0.000000 0.000000
# 5 0.000000 0.000000 0.000000 0.000000 0.069859 0.000000
# 6 0.000000 0.000000 0.000000 0.000000 0.000000 0.018566
#
#
# Mechanical properties :
#
#
# Convention : Reuss Voigt Hill
#
# Bulk Modulus (GPa) = 25.36926 35.90476 30.63701
# Shear Modulus (GPa) = 19.56759 28.02967 23.79863
#
# Velocity S-wave (km/s) = 2.78173 3.32931 3.06776
# Velocity P-wave (km/s) = 4.51106 5.38309 4.96625
#
# Compressibility (1/GPa) = 0.03941779
#
# Stress axis : x y z
#
# Youngs Moduli (GPa) = 105.43726 38.33487 53.92803
#
# Poissons Ratio (x) = 0.20589 0.18086
# Poissons Ratio (y) = 0.56628 -0.07425
# Poissons Ratio (z) = 0.35362 -0.05278
#
# Static dielectric constant tensor:
#      x y z
#    x 2.001550 0.000000 0.000000 
#    y 0.000000 2.105850 0.000000 
#    z 0.000000 0.000000 1.948070 
# 
# From -- ./inp_files/1422.got.cif
#   From: 2010.05.17/outbox.cif.g08.bks.cpg/sg29_1_cif.got.tgz:1422.got - 2010.06.04 01:19:37.
