data_PCOD9340873
_publ_section_title
;
Structure prediction by ZEFSAII (Michael W. Deem and Ramdas Pophale) SiO2 
 PCOD9340873
Probable space group: P C A 21
;
_chemical_formula_sum "Si O2"
_cell_formula_units_Z 28
_cell_length_a 21.956951
_cell_length_b 6.034922
_cell_length_c 8.966719
_cell_angle_alpha 90.000000
_cell_angle_beta 90.000000
_cell_angle_gamma 90.000000
_cell_volume 1188.166365
_symmetry_space_group_name_H-M "P C A 21"
_symmetry_group_IT_number 29
_symmetry_cell_setting 'orthorhombic'
loop_
_space_group_symop_operation_xyz
x,y,z
-x,-y,1/2+z
1/2-x,y,1/2+z
1/2+x,-y,z
loop_
_atom_site_type_symbol
_atom_site_label
_atom_site_fract_x
_atom_site_fract_y
_atom_site_fract_z
Si Si1 0.659458 0.881371 0.482160
Si Si2 0.476697 0.727537 0.541467
Si Si3 0.745451 0.540587 0.936466
Si Si4 0.081258 0.443340 0.692363
Si Si5 0.805939 0.265711 0.189214
Si Si6 0.944964 0.911356 0.772162
Si Si7 0.610267 0.618647 0.011778
O O1 0.694118 0.037809 0.599804
O O2 0.706561 0.729463 0.387767
O O3 0.617530 0.722436 0.583867
O O4 0.610520 0.004432 0.375762
O O5 0.517786 0.528261 0.608546
O O6 0.506562 0.801306 0.385992
O O7 0.408091 0.638264 0.536152
O O8 0.478432 0.916733 0.665013
O O9 0.775140 0.448764 0.084868
O O10 0.680365 0.648416 0.970278
O O11 0.730757 0.320791 0.839062
O O12 0.123717 0.658761 0.708104
O O13 0.074852 0.335929 0.856266
O O14 0.910562 0.750126 0.656078
#
# Coordination Sequence:
#
# PCOD9340873 Si02
#       7
#     4   4   4   4   4   4   4
#     4  10  23  43  65  92 132 174 223 282 332 399
#     4  11  24  41  64  94 128 167 214 269 330 409
#     4  10  23  40  61  96 127 167 229 278 327 407
#     4   9  22  41  61  90 124 163 216 264 319 402
#     4  10  22  40  65  89 126 173 212 269 342 389
#     4  11  25  41  65  97 131 174 221 273 343 412
#     4  11  23  40  63  90 128 168 211 271 333 394
#
# _framework density 23.565725
#
# number of rings (size 3 to 8) (size 9 to 14) (size 15 to 20)
#    0.000    1.714    0.000    2.571    0.000   20.571 
#    0.000    0.000    0.000    0.000    0.000    0.000 
#    0.000    0.000    0.000    0.000    0.000    0.000 
#
# Total GULP energy -156232.601898 kJ/mol
# GULP energy per Si atom -5579.735782 kJ/mol
# Density = 2.351209 g / cm^3
# Si number density = 23.565725 Si / 1000 Ang^3
#
#
#
# Elastic Constant Matrix: (Units=GPa)
#
#
# Indices 1 2 3 4 5 6 
#
# 1 65.5142 11.4800 29.5598 0.0000 0.0000 0.0000
# 2 11.4800 24.1773 7.6433 0.0000 0.0000 0.0000
# 3 29.5598 7.6433 105.9622 0.0000 0.0000 0.0000
# 4 0.0000 0.0000 0.0000 40.2890 0.0000 0.0000
# 5 0.0000 0.0000 0.0000 0.0000 30.9829 0.0000
# 6 0.0000 0.0000 0.0000 0.0000 0.0000 18.8174
#
#
#
# Elastic Compliance Matrix: (Units=1/GPa)
#
#
# Indices 1 2 3 4 5 6 
#
# 1 0.018667 -0.007386 -0.004675 0.000000 0.000000 0.000000
# 2 -0.007386 0.045249 -0.001203 0.000000 0.000000 0.000000
# 3 -0.004675 -0.001203 0.010828 0.000000 0.000000 0.000000
# 4 0.000000 0.000000 0.000000 0.024821 0.000000 0.000000
# 5 0.000000 0.000000 0.000000 0.000000 0.032276 0.000000
# 6 0.000000 0.000000 0.000000 0.000000 0.000000 0.053142
#
#
# Mechanical properties :
#
#
# Convention : Reuss Voigt Hill
#
# Bulk Modulus (GPa) = 20.74005 32.55777 26.64891
# Shear Modulus (GPa) = 21.96996 27.81589 24.89293
#
# Velocity S-wave (km/s) = 3.05665 3.43935 3.25363
# Velocity P-wave (km/s) = 4.61275 5.44224 5.04457
#
# Compressibility (1/GPa) = 0.04821590
#
# Stress axis : x y z
#
# Youngs Moduli (GPa) = 53.56949 22.10010 92.35107
#
# Poissons Ratio (x) = 0.16323 0.43172
# Poissons Ratio (y) = 0.39566 0.11114
# Poissons Ratio (z) = 0.25043 0.02660
#
# Static dielectric constant tensor:
#      x y z
#    x 1.964550 0.000000 0.000000 
#    y 0.000000 1.908790 0.000000 
#    z 0.000000 0.000000 1.872320 
# 
# From -- ./inp_files/2432.got.cif
#   From: 2010.05.17/outbox.cif.g08.bks.cpg/sg29_2_cif.got.tgz:2432.got - 2010.06.04 01:19:37.
