data_PCOD9340141
_publ_section_title
;
Structure prediction by ZEFSAII (Michael W. Deem and Ramdas Pophale) SiO2 
 PCOD9340141
Probable space group: P C A 21
;
_chemical_formula_sum "Si O2"
_cell_formula_units_Z 32
_cell_length_a 11.397254
_cell_length_b 22.926341
_cell_length_c 4.863257
_cell_angle_alpha 90.000000
_cell_angle_beta 90.000000
_cell_angle_gamma 90.000000
_cell_volume 1270.756077
_symmetry_space_group_name_H-M "P C A 21"
_symmetry_group_IT_number 29
_symmetry_cell_setting 'orthorhombic'
loop_
_space_group_symop_operation_xyz
x,y,z
-x,-y,1/2+z
1/2-x,y,1/2+z
1/2+x,-y,z
loop_
_atom_site_type_symbol
_atom_site_label
_atom_site_fract_x
_atom_site_fract_y
_atom_site_fract_z
Si Si1 0.323547 0.746572 0.628250
Si Si2 0.169956 0.131610 0.218684
Si Si3 0.576350 0.379945 0.159980
Si Si4 0.823746 0.743286 0.851605
Si Si5 0.423442 0.379878 0.662575
Si Si6 0.829708 0.129380 0.764808
Si Si7 0.414113 0.500067 0.815175
Si Si8 0.000136 0.961778 0.985696
O O1 0.296376 0.748989 0.306132
O O2 0.373577 0.684024 0.704712
O O3 0.385740 0.806707 0.711421
O O4 0.287721 0.128343 0.406081
O O5 0.115620 0.195927 0.271101
O O6 0.089285 0.080168 0.325641
O O7 0.458292 0.380595 0.345657
O O8 0.645984 0.437818 0.254831
O O9 0.542483 0.385329 0.842442
O O10 0.703300 0.745063 0.673648
O O11 0.875480 0.681956 0.759213
O O12 0.353225 0.438797 0.741597
O O13 0.711793 0.126438 0.577798
O O14 0.909265 0.078074 0.653399
O O15 0.528638 0.501652 0.613896
O O16 0.054271 0.999521 0.734019
#
# Coordination Sequence:
#
# PCOD9340141 Si02
#       8
#     4   4   4   4   4   4   4   4
#     4  10  21  38  56  82 117 149 189 237 294 347
#     4  10  23  43  63  89 127 162 193 250 302 347
#     4  10  19  33  55  82 107 151 194 239 285 342
#     4  10  21  38  56  82 117 149 189 237 294 347
#     4  10  19  33  55  82 107 151 194 239 285 342
#     4  10  23  43  63  89 127 162 193 250 302 347
#     4   8  16  30  48  74 112 142 188 236 286 340
#     4  12  26  42  66  98 120 158 210 242 288 372
#
# _framework density 25.181861000000001
#
# number of rings (size 3 to 8) (size 9 to 14) (size 15 to 20)
#    0.000    2.000    0.000    3.000    1.750    3.000 
#    2.250    1.250    0.000    0.000    0.000    0.000 
#    0.000    0.000    0.000    0.000    0.000    0.000 
#
# Total GULP energy -178795.968655 kJ/mol
# GULP energy per Si atom -5587.374020 kJ/mol
# Density = 2.512455 g / cm^3
# Si number density = 25.181861 Si / 1000 Ang^3
#
#
#
# Elastic Constant Matrix: (Units=GPa)
#
#
# Indices 1 2 3 4 5 6 
#
# 1 19.6090 26.3570 3.3552 0.0000 0.0000 0.0000
# 2 26.3570 209.9417 24.8387 0.0000 0.0000 0.0000
# 3 3.3552 24.8387 97.6178 0.0000 0.0000 0.0000
# 4 0.0000 0.0000 0.0000 50.1774 0.0000 0.0000
# 5 0.0000 0.0000 0.0000 0.0000 24.4462 0.0000
# 6 0.0000 0.0000 0.0000 0.0000 0.0000 30.3095
#
#
#
# Elastic Compliance Matrix: (Units=1/GPa)
#
#
# Indices 1 2 3 4 5 6 
#
# 1 0.061352 -0.007684 -0.000153 0.000000 0.000000 0.000000
# 2 -0.007684 0.005874 -0.001230 0.000000 0.000000 0.000000
# 3 -0.000153 -0.001230 0.010562 0.000000 0.000000 0.000000
# 4 0.000000 0.000000 0.000000 0.019929 0.000000 0.000000
# 5 0.000000 0.000000 0.000000 0.000000 0.040906 0.000000
# 6 0.000000 0.000000 0.000000 0.000000 0.000000 0.032993
#
#
# Mechanical properties :
#
#
# Convention : Reuss Voigt Hill
#
# Bulk Modulus (GPa) = 16.76399 48.47447 32.61923
# Shear Modulus (GPa) = 23.85083 39.16113 31.50598
#
# Velocity S-wave (km/s) = 3.08091 3.94780 3.54098
# Velocity P-wave (km/s) = 4.39632 6.33022 5.44974
#
# Compressibility (1/GPa) = 0.05965166
#
# Stress axis : x y z
#
# Youngs Moduli (GPa) = 16.29940 170.25598 94.67567
#
# Poissons Ratio (x) = 1.30829 0.01453
# Poissons Ratio (y) = 0.12525 0.11649
# Poissons Ratio (z) = 0.00250 0.20948
#
# Static dielectric constant tensor:
#      x y z
#    x 2.035500 0.000000 0.000000 
#    y 0.000000 2.088270 0.000000 
#    z 0.000000 0.000000 1.893110 
# 
# From -- ./inp_files/125.got.cif
#   From: 2010.05.17/outbox.cif.g08.bks.cpg/sg29_1_cif.got.tgz:125.got - 2010.06.04 01:19:37.
