data_PCOD9340955
_publ_section_title
;
Structure prediction by ZEFSAII (Michael W. Deem and Ramdas Pophale) SiO2 
 PCOD9340955
Probable space group: P C A 21
;
_chemical_formula_sum "Si O2"
_cell_formula_units_Z 32
_cell_length_a 9.283713
_cell_length_b 10.144965
_cell_length_c 14.139315
_cell_angle_alpha 90.000000
_cell_angle_beta 90.000000
_cell_angle_gamma 90.000000
_cell_volume 1331.682305
_symmetry_space_group_name_H-M "P C A 21"
_symmetry_group_IT_number 29
_symmetry_cell_setting 'orthorhombic'
loop_
_space_group_symop_operation_xyz
x,y,z
-x,-y,1/2+z
1/2-x,y,1/2+z
1/2+x,-y,z
loop_
_atom_site_type_symbol
_atom_site_label
_atom_site_fract_x
_atom_site_fract_y
_atom_site_fract_z
Si Si1 0.117586 0.312345 0.035130
Si Si2 0.145864 0.083360 0.559082
Si Si3 0.274807 0.375435 0.863817
Si Si4 0.699189 0.220084 0.536162
Si Si5 0.462040 0.249670 0.230995
Si Si6 0.782957 0.268353 0.252821
Si Si7 0.043727 0.810080 0.905188
Si Si8 0.524664 0.532380 0.218149
O O1 0.223123 0.186384 0.042640
O O2 0.095316 0.379340 0.136889
O O3 0.958269 0.267734 0.005162
O O4 0.189035 0.410135 0.958693
O O5 0.073804 0.136333 0.656081
O O6 0.026535 0.084608 0.475431
O O7 0.200848 0.935582 0.557960
O O8 0.165573 0.282510 0.804177
O O9 0.409798 0.285996 0.892536
O O10 0.354924 0.483290 0.799379
O O11 0.727719 0.277786 0.639469
O O12 0.822321 0.252268 0.461556
O O13 0.618413 0.233882 0.279291
O O14 0.475893 0.392166 0.178442
O O15 0.884810 0.157659 0.303655
O O16 0.890710 0.393558 0.266744
#
# Coordination Sequence:
#
# PCOD9340955 Si02
#       8
#     4   4   4   4   4   4   4   4
#     4  10  22  42  68 100 137 182 234 288 351 415
#     4  11  23  42  69  95 142 180 230 287 351 415
#     4  10  22  43  68  99 135 182 231 294 341 421
#     4  11  22  44  68 101 136 182 228 291 348 420
#     4  12  22  43  68  99 139 186 228 282 349 413
#     4  10  23  41  69  98 137 180 231 284 347 417
#     4  10  22  46  64 100 132 175 229 283 342 411
#     4  10  22  43  66 100 144 181 231 295 349 414
#
# _framework density 24.029755999999999
#
# number of rings (size 3 to 8) (size 9 to 14) (size 15 to 20)
#    0.000    1.500    2.500    2.250    0.000    0.000 
#   18.000    0.000    0.000    0.000    0.000    0.000 
#    0.000    0.000    0.000    0.000    0.000    0.000 
#
# Total GULP energy -178569.942280 kJ/mol
# GULP energy per Si atom -5580.310696 kJ/mol
# Density = 2.397506 g / cm^3
# Si number density = 24.029756 Si / 1000 Ang^3
#
#
#
# Elastic Constant Matrix: (Units=GPa)
#
#
# Indices 1 2 3 4 5 6 
#
# 1 190.2500 24.7873 51.8987 0.0000 0.0000 0.0000
# 2 24.7873 39.7853 -4.7343 0.0000 0.0000 0.0000
# 3 51.8987 -4.7343 58.3223 0.0000 0.0000 0.0000
# 4 0.0000 0.0000 0.0000 -8.6089 0.0000 0.0000
# 5 0.0000 0.0000 0.0000 0.0000 50.9784 0.0000
# 6 0.0000 0.0000 0.0000 0.0000 0.0000 22.8632
#
#
#
# Elastic Compliance Matrix: (Units=1/GPa)
#
#
# Indices 1 2 3 4 5 6 
#
# 1 0.008148 -0.005997 -0.007738 0.000000 0.000000 0.000000
# 2 -0.005997 0.029794 0.007756 0.000000 0.000000 0.000000
# 3 -0.007738 0.007756 0.024661 0.000000 0.000000 0.000000
# 4 0.000000 0.000000 0.000000 -0.116159 0.000000 0.000000
# 5 0.000000 0.000000 0.000000 0.000000 0.019616 0.000000
# 6 0.000000 0.000000 0.000000 0.000000 0.000000 0.043738
#
#
# Mechanical properties :
#
#
# Convention : Reuss Voigt Hill
#
# Bulk Modulus (GPa) = 19.74550 48.02900 33.88725
# Shear Modulus (GPa) = 129.39796 27.47360 78.43578
#
# Velocity S-wave (km/s) = 7.34615 3.38496 5.71944
# Velocity P-wave (km/s) = 8.95486 5.94205 7.59926
#
# Compressibility (1/GPa) = 0.05064446
#
# Stress axis : x y z
#
# Youngs Moduli (GPa) = 122.72237 33.56337 40.54936
#
# Poissons Ratio (x) = 0.20130 0.31377
# Poissons Ratio (y) = 0.73603 -0.31448
# Poissons Ratio (z) = 0.94961 -0.26030
#
# Static dielectric constant tensor:
#      x y z
#    x 1.930310 0.000000 0.000000 
#    y 0.000000 2.076880 0.000000 
#    z 0.000000 0.000000 1.991880 
# 
# From -- ./inp_files/4281.got.cif
#   From: 2010.05.17/outbox.cif.g08.bks.cpg/sg29_3_cif.got.tgz:4281.got - 2010.06.04 01:19:37.
