data_PCOD9340920
_publ_section_title
;
Structure prediction by ZEFSAII (Michael W. Deem and Ramdas Pophale) SiO2 
 PCOD9340920
Probable space group: P C A 21
;
_chemical_formula_sum "Si O2"
_cell_formula_units_Z 32
_cell_length_a 9.234521
_cell_length_b 12.006695
_cell_length_c 13.458517
_cell_angle_alpha 90.000000
_cell_angle_beta 90.000000
_cell_angle_gamma 90.000000
_cell_volume 1492.227569
_symmetry_space_group_name_H-M "P C A 21"
_symmetry_group_IT_number 29
_symmetry_cell_setting 'orthorhombic'
loop_
_space_group_symop_operation_xyz
x,y,z
-x,-y,1/2+z
1/2-x,y,1/2+z
1/2+x,-y,z
loop_
_atom_site_type_symbol
_atom_site_label
_atom_site_fract_x
_atom_site_fract_y
_atom_site_fract_z
Si Si1 0.214783 0.625082 0.914120
Si Si2 0.931553 0.609091 0.181148
Si Si3 0.770145 0.381925 0.175954
Si Si4 0.945270 0.601953 0.421080
Si Si5 0.429979 0.841649 0.168227
Si Si6 0.647158 0.127480 0.897909
Si Si7 0.783008 0.770433 0.568736
Si Si8 0.123345 0.013086 0.495198
O O1 0.214428 0.624272 0.794699
O O2 0.117593 0.520427 0.944641
O O3 0.383167 0.609602 0.941031
O O4 0.154181 0.746678 0.939492
O O5 0.858529 0.492483 0.149554
O O6 0.921357 0.620864 0.301961
O O7 0.843455 0.705058 0.125736
O O8 0.100600 0.608874 0.154903
O O9 0.836518 0.266770 0.138531
O O10 0.859859 0.690822 0.487792
O O11 0.396611 0.868681 0.282470
O O12 0.595542 0.807514 0.148029
O O13 0.392316 0.943269 0.096237
O O14 0.801029 0.068591 0.915838
O O15 0.530092 0.055963 0.957111
O O16 0.720146 0.878624 0.514935
#
# Coordination Sequence:
#
# PCOD9340920 Si02
#       8
#     4   4   4   4   4   4   4   4
#     4   9  21  43  72 102 134 184 223 286 357 420
#     4  10  22  41  69 101 141 183 224 284 364 420
#     4   9  20  42  69 101 136 180 228 285 353 426
#     4  10  23  43  68 103 144 174 231 283 349 433
#     4  11  26  49  71 100 145 182 242 300 348 422
#     4  11  27  48  75  98 145 189 231 304 355 411
#     4  12  27  42  66 105 135 187 231 291 344 432
#     4  12  28  48  68 106 134 185 250 283 354 420
#
# _framework density 21.444451999999998
#
# number of rings (size 3 to 8) (size 9 to 14) (size 15 to 20)
#    0.000    1.500    1.250    1.500    7.000    5.000 
#    2.250    0.000    0.000    0.000    0.000    0.000 
#    0.000    0.000    0.000    0.000    0.000    0.000 
#
# Total GULP energy -179125.805944 kJ/mol
# GULP energy per Si atom -5597.681436 kJ/mol
# Density = 2.139564 g / cm^3
# Si number density = 21.444452 Si / 1000 Ang^3
#
#
#
# Elastic Constant Matrix: (Units=GPa)
#
#
# Indices 1 2 3 4 5 6 
#
# 1 76.0733 26.7956 -16.7739 0.0000 0.0000 0.0000
# 2 26.7956 127.7846 14.9026 0.0000 0.0000 0.0000
# 3 -16.7739 14.9026 92.1351 0.0000 0.0000 0.0000
# 4 0.0000 0.0000 0.0000 40.2566 0.0000 0.0000
# 5 0.0000 0.0000 0.0000 0.0000 20.6603 0.0000
# 6 0.0000 0.0000 0.0000 0.0000 0.0000 44.9495
#
#
#
# Elastic Compliance Matrix: (Units=1/GPa)
#
#
# Indices 1 2 3 4 5 6 
#
# 1 0.015135 -0.003562 0.003332 0.000000 0.000000 0.000000
# 2 -0.003562 0.008815 -0.002074 0.000000 0.000000 0.000000
# 3 0.003332 -0.002074 0.011796 0.000000 0.000000 0.000000
# 4 0.000000 0.000000 0.000000 0.024841 0.000000 0.000000
# 5 0.000000 0.000000 0.000000 0.000000 0.048402 0.000000
# 6 0.000000 0.000000 0.000000 0.000000 0.000000 0.022247
#
#
# Mechanical properties :
#
#
# Convention : Reuss Voigt Hill
#
# Bulk Modulus (GPa) = 32.11824 38.42687 35.27255
# Shear Modulus (GPa) = 34.19447 39.24454 36.71951
#
# Velocity S-wave (km/s) = 3.99753 4.28256 4.14249
# Velocity P-wave (km/s) = 6.02635 6.51244 6.27410
#
# Compressibility (1/GPa) = 0.03113496
#
# Stress axis : x y z
#
# Youngs Moduli (GPa) = 66.07417 113.44898 84.77696
#
# Poissons Ratio (x) = 0.40412 -0.28244
# Poissons Ratio (y) = 0.23537 0.17585
# Poissons Ratio (z) = -0.22013 0.23532
#
# Static dielectric constant tensor:
#      x y z
#    x 1.742430 0.000000 0.000000 
#    y 0.000000 1.738590 0.000000 
#    z 0.000000 0.000000 1.791750 
# 
# From -- ./inp_files/4270.got.cif
#   From: 2010.05.17/outbox.cif.g08.bks.cpg/sg29_3_cif.got.tgz:4270.got - 2010.06.04 01:19:37.
