data_PCOD9340711
_publ_section_title
;
Structure prediction by ZEFSAII (Michael W. Deem and Ramdas Pophale) SiO2 
 PCOD9340711
Probable space group: P C A 21
;
_chemical_formula_sum "Si O2"
_cell_formula_units_Z 32
_cell_length_a 14.027905
_cell_length_b 9.055818
_cell_length_c 13.350572
_cell_angle_alpha 90.000000
_cell_angle_beta 90.000000
_cell_angle_gamma 90.000000
_cell_volume 1695.978627
_symmetry_space_group_name_H-M "P C A 21"
_symmetry_group_IT_number 29
_symmetry_cell_setting 'orthorhombic'
loop_
_space_group_symop_operation_xyz
x,y,z
-x,-y,1/2+z
1/2-x,y,1/2+z
1/2+x,-y,z
loop_
_atom_site_type_symbol
_atom_site_label
_atom_site_fract_x
_atom_site_fract_y
_atom_site_fract_z
Si Si1 0.834243 0.103951 0.995750
Si Si2 0.689573 0.937603 0.881877
Si Si3 0.741947 0.605929 0.836386
Si Si4 0.581826 0.570810 0.685571
Si Si5 0.273474 0.572177 0.030538
Si Si6 0.614193 0.588602 0.153678
Si Si7 0.956562 0.887782 0.550180
Si Si8 0.592488 0.921971 0.670011
O O1 0.781664 0.038439 0.899792
O O2 0.782455 0.252338 0.029906
O O3 0.946573 0.141285 0.985875
O O4 0.835353 0.979713 0.083470
O O5 0.721053 0.766471 0.882005
O O6 0.634575 0.964535 0.777943
O O7 0.619638 0.959744 0.976204
O O8 0.644223 0.549159 0.785769
O O9 0.817303 0.624493 0.746852
O O10 0.778320 0.493518 0.919366
O O11 0.640956 0.494366 0.596563
O O12 0.478838 0.498271 0.689921
O O13 0.579412 0.746606 0.667352
O O14 0.176219 0.512992 0.079543
O O15 0.582924 0.737525 0.097195
O O16 0.995592 0.993825 0.638555
#
# Coordination Sequence:
#
# PCOD9340711 Si02
#       8
#     4   4   4   4   4   4   4   4
#     4  10  24  41  64  97 128 172 221 269 321 396
#     4  11  22  43  66  93 134 174 217 272 336 391
#     4  10  24  39  65  95 124 175 215 262 331 389
#     4  10  21  42  61  94 129 166 218 264 332 383
#     4  11  22  40  64  92 128 165 215 268 318 390
#     4  11  23  40  66  90 130 170 208 276 324 384
#     4  10  23  43  63  96 131 171 217 270 326 396
#     4   9  23  42  63  93 130 167 219 271 318 403
#
# _framework density 18.868162999999999
#
# number of rings (size 3 to 8) (size 9 to 14) (size 15 to 20)
#    0.750    1.000    2.500    0.750    5.250    7.000 
#    0.000    0.000    0.000    0.000    0.000    0.000 
#    0.000    0.000    0.000    0.000    0.000    0.000 
#
# Total GULP energy -178531.821654 kJ/mol
# GULP energy per Si atom -5579.119427 kJ/mol
# Density = 1.882522 g / cm^3
# Si number density = 18.868163 Si / 1000 Ang^3
#
#
#
# Elastic Constant Matrix: (Units=GPa)
#
#
# Indices 1 2 3 4 5 6 
#
# 1 76.3686 1.7552 17.0077 0.0000 0.0000 0.0000
# 2 1.7552 26.8411 3.1387 0.0000 0.0000 0.0000
# 3 17.0077 3.1387 41.7956 0.0000 0.0000 0.0000
# 4 0.0000 0.0000 0.0000 22.7858 0.0000 0.0000
# 5 0.0000 0.0000 0.0000 0.0000 21.1016 0.0000
# 6 0.0000 0.0000 0.0000 0.0000 0.0000 33.9043
#
#
#
# Elastic Compliance Matrix: (Units=1/GPa)
#
#
# Indices 1 2 3 4 5 6 
#
# 1 0.014401 -0.000259 -0.005841 0.000000 0.000000 0.000000
# 2 -0.000259 0.037591 -0.002718 0.000000 0.000000 0.000000
# 3 -0.005841 -0.002718 0.026507 0.000000 0.000000 0.000000
# 4 0.000000 0.000000 0.000000 0.043887 0.000000 0.000000
# 5 0.000000 0.000000 0.000000 0.000000 0.047390 0.000000
# 6 0.000000 0.000000 0.000000 0.000000 0.000000 0.029495
#
#
# Mechanical properties :
#
#
# Convention : Reuss Voigt Hill
#
# Bulk Modulus (GPa) = 16.42991 20.97872 18.70432
# Shear Modulus (GPa) = 21.07990 23.76527 22.42259
#
# Velocity S-wave (km/s) = 3.34611 3.55285 3.45103
# Velocity P-wave (km/s) = 4.86367 5.28896 5.08077
#
# Compressibility (1/GPa) = 0.06086460
#
# Stress axis : x y z
#
# Youngs Moduli (GPa) = 69.43919 26.60213 37.72621
#
# Poissons Ratio (x) = 0.00688 0.22035
# Poissons Ratio (y) = 0.01797 0.10253
# Poissons Ratio (z) = 0.40558 0.07230
#
# Static dielectric constant tensor:
#      x y z
#    x 1.657700 0.000000 0.000000 
#    y 0.000000 1.625820 0.000000 
#    z 0.000000 0.000000 1.644560 
# 
# From -- ./inp_files/3524.got.cif
#   From: 2010.05.17/outbox.cif.g08.bks.cpg/sg29_2_cif.got.tgz:3524.got - 2010.06.04 01:19:37.
