data_PCOD9340066
_publ_section_title
;
Structure prediction by ZEFSAII (Michael W. Deem and Ramdas Pophale) SiO2 
 PCOD9340066
Probable space group: P C A 21
;
_chemical_formula_sum "Si O2"
_cell_formula_units_Z 20
_cell_length_a 13.400518
_cell_length_b 11.435448
_cell_length_c 5.388325
_cell_angle_alpha 90.000000
_cell_angle_beta 90.000000
_cell_angle_gamma 90.000000
_cell_volume 825.711917
_symmetry_space_group_name_H-M "P C A 21"
_symmetry_group_IT_number 29
_symmetry_cell_setting 'orthorhombic'
loop_
_space_group_symop_operation_xyz
x,y,z
-x,-y,1/2+z
1/2-x,y,1/2+z
1/2+x,-y,z
loop_
_atom_site_type_symbol
_atom_site_label
_atom_site_fract_x
_atom_site_fract_y
_atom_site_fract_z
Si Si1 0.603308 0.398562 0.945070
Si Si2 0.349768 0.208828 0.944352
Si Si3 0.129539 0.465854 0.445070
Si Si4 0.683483 0.138338 0.944426
Si Si5 0.372607 0.112948 0.444355
O O1 0.485095 0.420830 0.945012
O O2 0.642512 0.459889 0.694401
O O3 0.630674 0.263283 0.944639
O O4 0.642454 0.459594 0.196106
O O5 0.313882 0.342636 0.944634
O O6 0.407439 0.176497 0.693660
O O7 0.248164 0.132528 0.944246
O O8 0.407464 0.176355 0.194924
O O9 0.749917 0.130739 0.694294
O O10 0.611871 0.025049 0.944553
#
# Coordination Sequence:
#
# PCOD9340066 Si02
#       5
#     4   4   4   4   4
#     4  10  23  40  60  85 115 158 190 239 289 336
#     4  10  18  35  58  80 111 155 178 234 289 329
#     4  10  21  42  60  82 121 149 196 239 284 346
#     4  12  21  40  60  83 121 152 189 237 290 343
#     4  10  19  35  56  82 116 146 185 235 286 328
#
# _framework density 24.221523999999999
#
# number of rings (size 3 to 8) (size 9 to 14) (size 15 to 20)
#    0.000    1.600    4.000    2.400    0.000    0.000 
#   21.600    2.000    0.000    0.000    0.000    0.000 
#    0.000    0.000    0.000    0.000    0.000    0.000 
#
# Total GULP energy -111985.252419 kJ/mol
# GULP energy per Si atom -5599.262621 kJ/mol
# Density = 2.416639 g / cm^3
# Si number density = 24.221524 Si / 1000 Ang^3
#
#
#
# Elastic Constant Matrix: (Units=GPa)
#
#
# Indices 1 2 3 4 5 6 
#
# 1 51.6725 -10.8141 -1.4922 0.0000 0.0000 0.0000
# 2 -10.8141 202.6647 84.5755 0.0000 0.0000 0.0000
# 3 -1.4922 84.5755 271.3303 0.0000 0.0000 0.0000
# 4 0.0000 0.0000 0.0000 46.4374 0.0000 0.0000
# 5 0.0000 0.0000 0.0000 0.0000 -48.5658 0.0000
# 6 0.0000 0.0000 0.0000 0.0000 0.0000 21.1593
#
#
#
# Elastic Compliance Matrix: (Units=1/GPa)
#
#
# Indices 1 2 3 4 5 6 
#
# 1 0.019586 0.001150 -0.000251 0.000000 0.000000 0.000000
# 2 0.001150 0.005740 -0.001783 0.000000 0.000000 0.000000
# 3 -0.000251 -0.001783 0.004240 0.000000 0.000000 0.000000
# 4 0.000000 0.000000 0.000000 0.021534 0.000000 0.000000
# 5 0.000000 0.000000 0.000000 0.000000 -0.020591 0.000000
# 6 0.000000 0.000000 0.000000 0.000000 0.000000 0.047261
#
#
# Mechanical properties :
#
#
# Convention : Reuss Voigt Hill
#
# Bulk Modulus (GPa) = 35.97369 74.46731 55.22050
# Shear Modulus (GPa) = 56.30432 34.03274 45.16853
#
# Velocity S-wave (km/s) = 4.82660 3.75248 4.32303
# Velocity P-wave (km/s) = 6.77832 7.04172 6.91127
#
# Compressibility (1/GPa) = 0.02779809
#
# Stress axis : x y z
#
# Youngs Moduli (GPa) = 51.05677 174.22892 235.85687
#
# Poissons Ratio (x) = -0.20031 0.05912
# Poissons Ratio (y) = -0.05870 0.42047
# Poissons Ratio (z) = 0.01280 0.31061
#
# Static dielectric constant tensor:
#      x y z
#    x 1.965540 0.000000 0.000000 
#    y 0.000000 1.862700 0.000000 
#    z 0.000000 0.000000 2.029380 
# 
# From -- ./inp_files/332.got.cif
#   From: 2010.05.17/outbox.cif.g08.bks.cpg/sg29_1_cif.got.tgz:332.got - 2010.06.04 01:19:37.
