data_PCOD9340742
_publ_section_title
;
Structure prediction by ZEFSAII (Michael W. Deem and Ramdas Pophale) SiO2 
 PCOD9340742
Probable space group: P C A 21
;
_chemical_formula_sum "Si O2"
_cell_formula_units_Z 32
_cell_length_a 11.287892
_cell_length_b 7.466686
_cell_length_c 14.250257
_cell_angle_alpha 90.000000
_cell_angle_beta 90.000000
_cell_angle_gamma 90.000000
_cell_volume 1201.056479
_symmetry_space_group_name_H-M "P C A 21"
_symmetry_group_IT_number 29
_symmetry_cell_setting 'orthorhombic'
loop_
_space_group_symop_operation_xyz
x,y,z
-x,-y,1/2+z
1/2-x,y,1/2+z
1/2+x,-y,z
loop_
_atom_site_type_symbol
_atom_site_label
_atom_site_fract_x
_atom_site_fract_y
_atom_site_fract_z
Si Si1 0.193062 0.694053 0.150750
Si Si2 0.799738 0.256054 0.871705
Si Si3 0.552007 0.231612 0.839546
Si Si4 0.429516 0.672056 0.042841
Si Si5 0.056956 0.273402 0.618210
Si Si6 0.116639 0.285421 0.173393
Si Si7 0.829011 0.845981 0.294064
Si Si8 0.178633 0.143623 0.451730
O O1 0.189759 0.741162 0.260434
O O2 0.311521 0.743608 0.095500
O O3 0.178634 0.476215 0.151342
O O4 0.078210 0.787598 0.106233
O O5 0.665863 0.327340 0.884554
O O6 0.808465 0.058085 0.915582
O O7 0.900891 0.347853 0.932953
O O8 0.491125 0.314552 0.747870
O O9 0.446702 0.210154 0.912215
O O10 0.603925 0.035045 0.809375
O O11 0.441693 0.472618 0.080551
O O12 0.545942 0.775148 0.079810
O O13 0.085257 0.267051 0.728294
O O14 0.158955 0.168827 0.561351
O O15 0.206961 0.159037 0.231457
O O16 0.785809 0.767082 0.393801
#
# Coordination Sequence:
#
# PCOD9340742 Si02
#       8
#     4   4   4   4   4   4   4   4
#     4  11  23  45  68  99 139 185 231 290 358 413
#     4  11  24  42  67 101 135 180 232 284 350 417
#     4  10  21  43  68  94 134 182 225 291 339 403
#     4  11  24  42  65 103 136 180 234 282 356 426
#     4  11  24  43  68  99 139 182 232 290 348 418
#     4  10  22  43  66  95 138 179 231 287 346 414
#     4  10  22  43  68  96 135 183 229 282 354 413
#     4  10  24  43  66 101 136 181 236 280 347 414
#
# _framework density 26.64321
#
# number of rings (size 3 to 8) (size 9 to 14) (size 15 to 20)
#    0.000    1.500    2.500    1.500    5.250    0.000 
#    6.750    0.000    0.000    0.000    0.000    0.000 
#    0.000    0.000    0.000    0.000    0.000    0.000 
#
# Total GULP energy -178947.280731 kJ/mol
# GULP energy per Si atom -5592.102523 kJ/mol
# Density = 2.658257 g / cm^3
# Si number density = 26.643210 Si / 1000 Ang^3
#
#
#
# Elastic Constant Matrix: (Units=GPa)
#
#
# Indices 1 2 3 4 5 6 
#
# 1 59.2202 -3.8571 18.6411 0.0000 0.0000 0.0000
# 2 -3.8571 83.1532 8.4605 0.0000 0.0000 0.0000
# 3 18.6411 8.4605 135.2517 0.0000 0.0000 0.0000
# 4 0.0000 0.0000 0.0000 35.9591 0.0000 0.0000
# 5 0.0000 0.0000 0.0000 0.0000 53.2549 0.0000
# 6 0.0000 0.0000 0.0000 0.0000 0.0000 21.6530
#
#
#
# Elastic Compliance Matrix: (Units=1/GPa)
#
#
# Indices 1 2 3 4 5 6 
#
# 1 0.017748 0.001079 -0.002514 0.000000 0.000000 0.000000
# 2 0.001079 0.012169 -0.000910 0.000000 0.000000 0.000000
# 3 -0.002514 -0.000910 0.007797 0.000000 0.000000 0.000000
# 4 0.000000 0.000000 0.000000 0.027809 0.000000 0.000000
# 5 0.000000 0.000000 0.000000 0.000000 0.018778 0.000000
# 6 0.000000 0.000000 0.000000 0.000000 0.000000 0.046183
#
#
# Mechanical properties :
#
#
# Convention : Reuss Voigt Hill
#
# Bulk Modulus (GPa) = 30.28080 36.01268 33.14674
# Shear Modulus (GPa) = 34.20438 39.13213 36.66826
#
# Velocity S-wave (km/s) = 3.58689 3.83658 3.71384
# Velocity P-wave (km/s) = 5.34269 5.75950 5.55501
#
# Compressibility (1/GPa) = 0.03302423
#
# Stress axis : x y z
#
# Youngs Moduli (GPa) = 56.34565 82.17854 128.25497
#
# Poissons Ratio (x) = -0.08867 0.32238
# Poissons Ratio (y) = -0.06080 0.11670
# Poissons Ratio (z) = 0.14163 0.07477
#
# Static dielectric constant tensor:
#      x y z
#    x 2.160180 0.000000 0.000000 
#    y 0.000000 2.182500 0.000000 
#    z 0.000000 0.000000 2.173320 
# 
# From -- ./inp_files/4532.got.cif
#   From: 2010.05.17/outbox.cif.g08.bks.cpg/sg29_3_cif.got.tgz:4532.got - 2010.06.04 01:19:37.
