data_PCOD9340628
_publ_section_title
;
Structure prediction by ZEFSAII (Michael W. Deem and Ramdas Pophale) SiO2 
 PCOD9340628
Probable space group: P C A 21
;
_chemical_formula_sum "Si O2"
_cell_formula_units_Z 28
_cell_length_a 23.366267
_cell_length_b 5.276418
_cell_length_c 9.073244
_cell_angle_alpha 90.000000
_cell_angle_beta 90.000000
_cell_angle_gamma 90.000000
_cell_volume 1118.641993
_symmetry_space_group_name_H-M "P C A 21"
_symmetry_group_IT_number 29
_symmetry_cell_setting 'orthorhombic'
loop_
_space_group_symop_operation_xyz
x,y,z
-x,-y,1/2+z
1/2-x,y,1/2+z
1/2+x,-y,z
loop_
_atom_site_type_symbol
_atom_site_label
_atom_site_fract_x
_atom_site_fract_y
_atom_site_fract_z
Si Si1 0.527979 0.226797 0.868140
Si Si2 0.196310 0.171129 0.725619
Si Si3 0.361086 0.990188 0.986347
Si Si4 0.747204 0.244413 0.437977
Si Si5 0.144413 0.546098 0.970226
Si Si6 0.683296 0.652857 0.233612
Si Si7 0.521798 0.272833 0.516236
O O1 0.593941 0.292912 0.903359
O O2 0.516185 0.248391 0.693378
O O3 0.493793 0.449876 0.954646
O O4 0.513550 0.949852 0.932979
O O5 0.137945 0.175699 0.625784
O O6 0.175660 0.379701 0.847589
O O7 0.256553 0.268337 0.655220
O O8 0.220227 0.943560 0.827108
O O9 0.343265 0.128787 0.838278
O O10 0.301443 0.870377 0.041444
O O11 0.412954 0.802397 0.977545
O O12 0.801644 0.305396 0.538364
O O13 0.707351 0.442977 0.348588
O O14 0.131497 0.391549 0.117834
#
# Coordination Sequence:
#
# PCOD9340628 Si02
#       7
#     4   4   4   4   4   4   4
#     4  12  31  56  85 116 161 211 279 336 412 478
#     4  10  21  41  66 109 151 202 254 316 400 473
#     4  11  25  43  75 104 159 197 264 324 402 472
#     4  10  21  39  71 110 152 201 254 322 393 480
#     4  11  25  43  75 106 155 200 265 322 400 475
#     4  10  22  40  66 112 151 200 253 320 395 477
#     4  12  31  56  84 117 157 217 271 344 404 485
#
# _framework density 25.030348
#
# number of rings (size 3 to 8) (size 9 to 14) (size 15 to 20)
#    0.000    1.143    0.000    5.143   10.000    4.571 
#    0.000    0.000    0.000    0.000    0.000    0.000 
#    0.000    0.000    0.000    0.000    0.000    0.000 
#
# Total GULP energy -156205.603441 kJ/mol
# GULP energy per Si atom -5578.771551 kJ/mol
# Density = 2.497338 g / cm^3
# Si number density = 25.030348 Si / 1000 Ang^3
#
#
#
# Elastic Constant Matrix: (Units=GPa)
#
#
# Indices 1 2 3 4 5 6 
#
# 1 57.2005 -0.0806 5.7051 0.0000 0.0000 0.0000
# 2 -0.0806 35.8889 -12.9857 0.0000 0.0000 0.0000
# 3 5.7051 -12.9857 66.8590 0.0000 0.0000 0.0000
# 4 0.0000 0.0000 0.0000 -61.7422 0.0000 0.0000
# 5 0.0000 0.0000 0.0000 0.0000 -24.0212 0.0000
# 6 0.0000 0.0000 0.0000 0.0000 0.0000 45.0714
#
#
#
# Elastic Compliance Matrix: (Units=1/GPa)
#
#
# Indices 1 2 3 4 5 6 
#
# 1 0.017642 -0.000543 -0.001611 0.000000 0.000000 0.000000
# 2 -0.000543 0.029987 0.005871 0.000000 0.000000 0.000000
# 3 -0.001611 0.005871 0.016235 0.000000 0.000000 0.000000
# 4 0.000000 0.000000 0.000000 -0.016196 0.000000 0.000000
# 5 0.000000 0.000000 0.000000 0.000000 -0.041630 0.000000
# 6 0.000000 0.000000 0.000000 0.000000 0.000000 0.022187
#
#
# Mechanical properties :
#
#
# Convention : Reuss Voigt Hill
#
# Bulk Modulus (GPa) = 14.02600 16.13621 15.08111
# Shear Modulus (GPa) = 112.21596 3.01557 57.61576
#
# Velocity S-wave (km/s) = 6.70293 1.09881 4.80295
# Velocity P-wave (km/s) = 8.09453 2.84086 6.06597
#
# Compressibility (1/GPa) = 0.07129615
#
# Stress axis : x y z
#
# Youngs Moduli (GPa) = 56.68206 33.34814 61.59718
#
# Poissons Ratio (x) = 0.01812 0.09923
# Poissons Ratio (y) = 0.03079 -0.36161
# Poissons Ratio (z) = 0.09131 -0.19577
#
# Static dielectric constant tensor:
#      x y z
#    x 2.071490 0.000000 0.000000 
#    y 0.000000 2.787040 0.000000 
#    z 0.000000 0.000000 2.478590 
# 
# From -- ./inp_files/2437.got.cif
#   From: 2010.05.17/outbox.cif.g08.bks.cpg/sg29_2_cif.got.tgz:2437.got - 2010.06.04 01:19:37.
