data_PCOD9340401
_publ_section_title
;
Structure prediction by ZEFSAII (Michael W. Deem and Ramdas Pophale) SiO2 
 PCOD9340401
Probable space group: P C A 21
;
_chemical_formula_sum "Si O2"
_cell_formula_units_Z 28
_cell_length_a 8.791258
_cell_length_b 13.479030
_cell_length_c 9.113063
_cell_angle_alpha 90.000000
_cell_angle_beta 90.000000
_cell_angle_gamma 90.000000
_cell_volume 1079.876370
_symmetry_space_group_name_H-M "P C A 21"
_symmetry_group_IT_number 29
_symmetry_cell_setting 'orthorhombic'
loop_
_space_group_symop_operation_xyz
x,y,z
-x,-y,1/2+z
1/2-x,y,1/2+z
1/2+x,-y,z
loop_
_atom_site_type_symbol
_atom_site_label
_atom_site_fract_x
_atom_site_fract_y
_atom_site_fract_z
Si Si1 0.543072 0.550563 0.536460
Si Si2 0.707562 0.963188 0.137341
Si Si3 0.686113 0.271847 0.051924
Si Si4 0.552615 0.960705 0.428995
Si Si5 0.753154 0.641695 0.287421
Si Si6 0.460728 0.319659 0.536625
Si Si7 0.273527 0.858230 0.816049
O O1 0.400487 0.625492 0.537564
O O2 0.647597 0.577175 0.396600
O O3 0.642115 0.573823 0.681658
O O4 0.485800 0.438910 0.532513
O O5 0.602221 0.016907 0.016290
O O6 0.796595 0.053842 0.217876
O O7 0.608120 0.920029 0.269924
O O8 0.836181 0.906863 0.047098
O O9 0.651146 0.219139 0.204619
O O10 0.869119 0.279432 0.044550
O O11 0.652741 0.201484 0.913243
O O12 0.604563 0.077191 0.404408
O O13 0.642559 0.700254 0.178015
O O14 0.863286 0.704906 0.392345
#
# Coordination Sequence:
#
# PCOD9340401 Si02
#       7
#     4   4   4   4   4   4   4
#     4  11  23  39  63  91 124 178 227 274 340 396
#     4  10  20  38  67  95 132 166 213 264 326 407
#     4  12  22  40  68  94 130 176 232 286 322 398
#     4  10  20  38  67  95 132 166 213 264 326 407
#     4  10  22  39  56  82 128 155 213 284 325 387
#     4  11  23  39  63  91 124 178 227 274 340 396
#     4  10  22  37  64  98 126 159 221 268 329 379
#
# _framework density 25.928894
#
# number of rings (size 3 to 8) (size 9 to 14) (size 15 to 20)
#    0.857    0.571    1.429    5.143    0.000    2.286 
#    0.000    0.000   12.571    0.000    0.000    0.000 
#    0.000    0.000    0.000    0.000    0.000    0.000 
#
# Total GULP energy -156522.511442 kJ/mol
# GULP energy per Si atom -5590.089694 kJ/mol
# Density = 2.586988 g / cm^3
# Si number density = 25.928894 Si / 1000 Ang^3
#
#
#
# Elastic Constant Matrix: (Units=GPa)
#
#
# Indices 1 2 3 4 5 6 
#
# 1 126.6518 -16.1861 47.1629 0.0000 0.0000 0.0000
# 2 -16.1861 43.7185 5.5699 0.0000 0.0000 0.0000
# 3 47.1629 5.5699 163.6441 0.0000 0.0000 0.0000
# 4 0.0000 0.0000 0.0000 4.8189 0.0000 0.0000
# 5 0.0000 0.0000 0.0000 0.0000 35.7190 0.0000
# 6 0.0000 0.0000 0.0000 0.0000 0.0000 17.6654
#
#
#
# Elastic Compliance Matrix: (Units=1/GPa)
#
#
# Indices 1 2 3 4 5 6 
#
# 1 0.009453 0.003864 -0.002856 0.000000 0.000000 0.000000
# 2 0.003864 0.024552 -0.001949 0.000000 0.000000 0.000000
# 3 -0.002856 -0.001949 0.007000 0.000000 0.000000 0.000000
# 4 0.000000 0.000000 0.000000 0.207516 0.000000 0.000000
# 5 0.000000 0.000000 0.000000 0.000000 0.027996 0.000000
# 6 0.000000 0.000000 0.000000 0.000000 0.000000 0.056608
#
#
# Mechanical properties :
#
#
# Convention : Reuss Voigt Hill
#
# Bulk Modulus (GPa) = 25.56060 45.23419 35.39740
# Shear Modulus (GPa) = 14.36577 31.47183 22.91880
#
# Velocity S-wave (km/s) = 2.35637 3.48771 2.97629
# Velocity P-wave (km/s) = 4.15724 5.80535 5.04900
#
# Compressibility (1/GPa) = 0.03912271
#
# Stress axis : x y z
#
# Youngs Moduli (GPa) = 105.78743 40.72920 142.85220
#
# Poissons Ratio (x) = -0.15736 0.40797
# Poissons Ratio (y) = -0.40873 0.27845
# Poissons Ratio (z) = 0.30212 0.07939
#
# Static dielectric constant tensor:
#      x y z
#    x 2.105200 0.000000 0.000000 
#    y 0.000000 2.021700 0.000000 
#    z 0.000000 0.000000 2.068760 
# 
# From -- ./inp_files/1226.got.cif
#   From: 2010.05.17/outbox.cif.g08.bks.cpg/sg29_1_cif.got.tgz:1226.got - 2010.06.04 01:19:37.
