data_PCOD9340088
_publ_section_title
;
Structure prediction by ZEFSAII (Michael W. Deem and Ramdas Pophale) SiO2 
 PCOD9340088
Probable space group: P C A 21
;
_chemical_formula_sum "Si O2"
_cell_formula_units_Z 32
_cell_length_a 10.868304
_cell_length_b 8.935686
_cell_length_c 16.799473
_cell_angle_alpha 90.000000
_cell_angle_beta 90.000000
_cell_angle_gamma 90.000000
_cell_volume 1631.493452
_symmetry_space_group_name_H-M "P C A 21"
_symmetry_group_IT_number 29
_symmetry_cell_setting 'orthorhombic'
loop_
_space_group_symop_operation_xyz
x,y,z
-x,-y,1/2+z
1/2-x,y,1/2+z
1/2+x,-y,z
loop_
_atom_site_type_symbol
_atom_site_label
_atom_site_fract_x
_atom_site_fract_y
_atom_site_fract_z
Si Si1 0.401556 0.804240 0.335190
Si Si2 0.157164 0.041660 0.705571
Si Si3 0.051051 0.586727 0.607979
Si Si4 0.366410 0.264760 0.728315
Si Si5 0.247604 0.570742 0.246744
Si Si6 0.039893 0.722231 0.147119
Si Si7 0.100863 0.880217 0.542144
Si Si8 0.131662 0.922952 0.006394
O O1 0.531812 0.770127 0.294178
O O2 0.310030 0.667483 0.315468
O O3 0.407176 0.834293 0.427862
O O4 0.355623 0.951564 0.287410
O O5 0.290498 0.118650 0.703369
O O6 0.062518 0.176693 0.689474
O O7 0.124757 0.927180 0.634395
O O8 0.158151 0.578713 0.673317
O O9 0.094649 0.699868 0.539526
O O10 0.935136 0.666771 0.651226
O O11 0.015408 0.414727 0.595162
O O12 0.280543 0.397406 0.761911
O O13 0.124464 0.650287 0.215120
O O14 0.114872 0.824787 0.086094
O O15 0.221199 0.950595 0.499538
O O16 0.969575 0.945912 0.515209
#
# Coordination Sequence:
#
# PCOD9340088 Si02
#       8
#     4   4   4   4   4   4   4   4
#     4  11  25  39  60  89 127 164 199 261 320 382
#     4  11  21  35  65  88 116 156 208 255 309 365
#     4  10  18  37  63  90 113 155 207 261 301 365
#     4  10  21  37  60  90 116 151 211 258 305 368
#     4  10  19  39  63  86 120 155 211 254 300 371
#     4  10  21  37  63  92 116 161 210 258 306 368
#     4  11  22  41  63  90 123 166 208 261 310 379
#     4  11  25  41  59  91 131 164 206 258 323 378
#
# _framework density 19.613931999999998
#
# number of rings (size 3 to 8) (size 9 to 14) (size 15 to 20)
#    0.000    1.500    5.000    0.750    5.250    0.000 
#    2.250    1.250    0.000    0.000    0.000    0.000 
#    0.000    0.000    0.000    0.000    0.000    0.000 
#
# Total GULP energy -178544.384949 kJ/mol
# GULP energy per Si atom -5579.512030 kJ/mol
# Density = 1.956929 g / cm^3
# Si number density = 19.613932 Si / 1000 Ang^3
#
#
#
# Elastic Constant Matrix: (Units=GPa)
#
#
# Indices 1 2 3 4 5 6 
#
# 1 80.5662 34.5391 -3.0276 0.0000 0.0000 0.0000
# 2 34.5391 88.1840 -4.4713 0.0000 0.0000 0.0000
# 3 -3.0276 -4.4713 31.7286 0.0000 0.0000 0.0000
# 4 0.0000 0.0000 0.0000 18.5703 0.0000 0.0000
# 5 0.0000 0.0000 0.0000 0.0000 10.7650 0.0000
# 6 0.0000 0.0000 0.0000 0.0000 0.0000 41.2821
#
#
#
# Elastic Compliance Matrix: (Units=1/GPa)
#
#
# Indices 1 2 3 4 5 6 
#
# 1 0.014928 -0.005816 0.000605 0.000000 0.000000 0.000000
# 2 -0.005816 0.013688 0.001374 0.000000 0.000000 0.000000
# 3 0.000605 0.001374 0.031769 0.000000 0.000000 0.000000
# 4 0.000000 0.000000 0.000000 0.053849 0.000000 0.000000
# 5 0.000000 0.000000 0.000000 0.000000 0.092894 0.000000
# 6 0.000000 0.000000 0.000000 0.000000 0.000000 0.024224
#
#
# Mechanical properties :
#
#
# Convention : Reuss Voigt Hill
#
# Bulk Modulus (GPa) = 18.97190 28.28434 23.62812
# Shear Modulus (GPa) = 19.48584 25.68605 22.58595
#
# Velocity S-wave (km/s) = 3.15535 3.62274 3.39710
# Velocity P-wave (km/s) = 4.79257 5.65251 5.24021
#
# Compressibility (1/GPa) = 0.05270953
#
# Stress axis : x y z
#
# Youngs Moduli (GPa) = 66.98654 73.05842 31.47758
#
# Poissons Ratio (x) = 0.42493 -0.01904
# Poissons Ratio (y) = 0.38962 -0.04325
# Poissons Ratio (z) = -0.04052 -0.10038
#
# Static dielectric constant tensor:
#      x y z
#    x 1.747570 0.000000 0.000000 
#    y 0.000000 1.734510 0.000000 
#    z 0.000000 0.000000 1.642450 
# 
# From -- ./inp_files/5138.got.cif
#   From: 2010.05.17/outbox.cif.g08.bks.cpg/sg29_3_cif.got.tgz:5138.got - 2010.06.04 01:19:37.
