data_PCOD9340328
_publ_section_title
;
Structure prediction by ZEFSAII (Michael W. Deem and Ramdas Pophale) SiO2 
 PCOD9340328
Probable space group: P C A 21
;
_chemical_formula_sum "Si O2"
_cell_formula_units_Z 32
_cell_length_a 17.623060
_cell_length_b 15.008126
_cell_length_c 5.052870
_cell_angle_alpha 90.000000
_cell_angle_beta 90.000000
_cell_angle_gamma 90.000000
_cell_volume 1336.429064
_symmetry_space_group_name_H-M "P C A 21"
_symmetry_group_IT_number 29
_symmetry_cell_setting 'orthorhombic'
loop_
_space_group_symop_operation_xyz
x,y,z
-x,-y,1/2+z
1/2-x,y,1/2+z
1/2+x,-y,z
loop_
_atom_site_type_symbol
_atom_site_label
_atom_site_fract_x
_atom_site_fract_y
_atom_site_fract_z
Si Si1 0.698492 0.305543 0.479700
Si Si2 0.941569 0.622659 0.514429
Si Si3 0.428681 0.078562 0.652375
Si Si4 0.563843 0.283916 0.829222
Si Si5 0.718210 0.890522 0.808571
Si Si6 0.518118 0.119790 0.155620
Si Si7 0.292412 0.319809 0.233633
Si Si8 0.403288 0.562790 0.732410
O O1 0.761027 0.286221 0.702696
O O2 0.622400 0.260045 0.595126
O O3 0.664664 0.404949 0.422195
O O4 0.878558 0.663810 0.322210
O O5 0.902876 0.539585 0.658445
O O6 0.980583 0.691552 0.716815
O O7 0.015053 0.583591 0.363944
O O8 0.352867 0.105524 0.504408
O O9 0.447146 0.107212 0.951100
O O10 0.436011 0.971947 0.625742
O O11 0.492405 0.121338 0.458827
O O12 0.558610 0.206744 0.045278
O O13 0.595911 0.372637 0.975390
O O14 0.720085 0.932169 0.514942
O O15 0.722358 0.786403 0.730682
O O16 0.234451 0.356023 0.454011
#
# Coordination Sequence:
#
# PCOD9340328 Si02
#       8
#     4   4   4   4   4   4   4   4
#     4  11  24  45  66  92 129 172 219 271 332 386
#     4  11  24  41  64  93 133 165 221 272 325 378
#     4  10  21  41  61  96 127 165 201 269 320 378
#     4  11  24  42  69  98 127 175 220 275 326 390
#     4  10  20  36  60  86 123 161 200 242 310 383
#     4  10  23  38  66  95 126 159 216 260 324 382
#     4  10  24  40  59  92 124 165 208 255 315 385
#     4  11  24  41  67  96 125 174 221 274 328 390
#
# _framework density 23.944403999999999
#
# number of rings (size 3 to 8) (size 9 to 14) (size 15 to 20)
#    0.000    1.500    2.500    1.500    7.000    2.000 
#    0.000    1.250    0.000    0.000    0.000    0.000 
#    0.000    0.000    0.000    0.000    0.000    0.000 
#
# Total GULP energy -178737.327532 kJ/mol
# GULP energy per Si atom -5585.541485 kJ/mol
# Density = 2.388991 g / cm^3
# Si number density = 23.944404 Si / 1000 Ang^3
#
#
#
# Elastic Constant Matrix: (Units=GPa)
#
#
# Indices 1 2 3 4 5 6 
#
# 1 50.0616 3.5898 -11.7882 0.0000 0.0000 0.0000
# 2 3.5898 56.5861 13.5311 0.0000 0.0000 0.0000
# 3 -11.7882 13.5311 84.6334 0.0000 0.0000 0.0000
# 4 0.0000 0.0000 0.0000 18.4245 0.0000 0.0000
# 5 0.0000 0.0000 0.0000 0.0000 39.6891 0.0000
# 6 0.0000 0.0000 0.0000 0.0000 0.0000 16.1174
#
#
#
# Elastic Compliance Matrix: (Units=1/GPa)
#
#
# Indices 1 2 3 4 5 6 
#
# 1 0.020890 -0.002101 0.003246 0.000000 0.000000 0.000000
# 2 -0.002101 0.018586 -0.003264 0.000000 0.000000 0.000000
# 3 0.003246 -0.003264 0.012790 0.000000 0.000000 0.000000
# 4 0.000000 0.000000 0.000000 0.054276 0.000000 0.000000
# 5 0.000000 0.000000 0.000000 0.000000 0.025196 0.000000
# 6 0.000000 0.000000 0.000000 0.000000 0.000000 0.062045
#
#
# Mechanical properties :
#
#
# Convention : Reuss Voigt Hill
#
# Bulk Modulus (GPa) = 20.82197 22.43849 21.63023
# Shear Modulus (GPa) = 23.36111 27.24275 25.30193
#
# Velocity S-wave (km/s) = 3.12691 3.37671 3.25421
# Velocity P-wave (km/s) = 4.66386 4.95927 4.81383
#
# Compressibility (1/GPa) = 0.04802620
#
# Stress axis : x y z
#
# Youngs Moduli (GPa) = 47.86895 53.80377 78.18841
#
# Poissons Ratio (x) = 0.11306 -0.25378
# Poissons Ratio (y) = 0.10059 0.25522
# Poissons Ratio (z) = -0.15537 0.17563
#
# Static dielectric constant tensor:
#      x y z
#    x 2.012200 0.000000 0.000000 
#    y 0.000000 1.883950 0.000000 
#    z 0.000000 0.000000 1.980120 
# 
# From -- ./inp_files/441.got.cif
#   From: 2010.05.17/outbox.cif.g08.bks.cpg/sg29_1_cif.got.tgz:441.got - 2010.06.04 01:19:37.
