data_PCOD9340172
_publ_section_title
;
Structure prediction by ZEFSAII (Michael W. Deem and Ramdas Pophale) SiO2 
 PCOD9340172
Probable space group: P C A 21
;
_chemical_formula_sum "Si O2"
_cell_formula_units_Z 28
_cell_length_a 22.178612
_cell_length_b 7.938335
_cell_length_c 7.750996
_cell_angle_alpha 90.000000
_cell_angle_beta 90.000000
_cell_angle_gamma 90.000000
_cell_volume 1364.650059
_symmetry_space_group_name_H-M "P C A 21"
_symmetry_group_IT_number 29
_symmetry_cell_setting 'orthorhombic'
loop_
_space_group_symop_operation_xyz
x,y,z
-x,-y,1/2+z
1/2-x,y,1/2+z
1/2+x,-y,z
loop_
_atom_site_type_symbol
_atom_site_label
_atom_site_fract_x
_atom_site_fract_y
_atom_site_fract_z
Si Si1 0.692057 0.702789 0.397260
Si Si2 0.940683 0.134452 0.746939
Si Si3 0.131346 0.007767 0.575356
Si Si4 0.187187 0.173519 0.026979
Si Si5 0.328392 0.644548 0.704666
Si Si6 0.249798 0.826120 0.478066
Si Si7 0.064471 0.096797 0.907498
O O1 0.653585 0.798543 0.543930
O O2 0.760695 0.704368 0.460678
O O3 0.688917 0.825385 0.232548
O O4 0.672497 0.525666 0.316108
O O5 0.895803 0.284797 0.693729
O O6 0.005053 0.182059 0.828990
O O7 0.948265 0.016050 0.577901
O O8 0.906921 0.041941 0.906273
O O9 0.091393 0.992265 0.745967
O O10 0.191441 0.893628 0.586427
O O11 0.206457 0.987058 0.968107
O O12 0.120345 0.214517 0.963698
O O13 0.291216 0.665192 0.527767
O O14 0.286103 0.776019 0.807270
#
# Coordination Sequence:
#
# PCOD9340172 Si02
#       7
#     4   4   4   4   4   4   4
#     4  11  22  38  60  94 132 164 204 262 337 389
#     4  11  23  39  64  94 122 167 217 278 307 373
#     4  10  21  38  63  91 121 164 218 263 318 387
#     4  11  20  37  63  91 123 171 211 256 317 394
#     4  11  22  38  59  95 133 159 205 274 325 372
#     4  10  19  35  60  90 118 158 213 264 318 366
#     4  12  21  39  67  91 121 167 228 265 308 369
#
# _framework density 20.518080000000001
#
# number of rings (size 3 to 8) (size 9 to 14) (size 15 to 20)
#    0.000    1.143    4.286    5.143    0.000    0.000 
#    0.000    1.429    0.000    0.000    0.000    0.000 
#    0.000    0.000    0.000    0.000    0.000    0.000 
#
# Total GULP energy -156042.058192 kJ/mol
# GULP energy per Si atom -5572.930650 kJ/mol
# Density = 2.047138 g / cm^3
# Si number density = 20.518080 Si / 1000 Ang^3
#
#
#
# Elastic Constant Matrix: (Units=GPa)
#
#
# Indices 1 2 3 4 5 6 
#
# 1 131.4041 2.2597 19.4467 0.0000 0.0000 0.0000
# 2 2.2597 57.5694 -8.6397 0.0000 0.0000 0.0000
# 3 19.4467 -8.6397 82.5216 0.0000 0.0000 0.0000
# 4 0.0000 0.0000 0.0000 18.2690 0.0000 0.0000
# 5 0.0000 0.0000 0.0000 0.0000 35.4354 0.0000
# 6 0.0000 0.0000 0.0000 0.0000 0.0000 15.4263
#
#
#
# Elastic Compliance Matrix: (Units=1/GPa)
#
#
# Indices 1 2 3 4 5 6 
#
# 1 0.007905 -0.000599 -0.001926 0.000000 0.000000 0.000000
# 2 -0.000599 0.017693 0.001994 0.000000 0.000000 0.000000
# 3 -0.001926 0.001994 0.012781 0.000000 0.000000 0.000000
# 4 0.000000 0.000000 0.000000 0.054738 0.000000 0.000000
# 5 0.000000 0.000000 0.000000 0.000000 0.028220 0.000000
# 6 0.000000 0.000000 0.000000 0.000000 0.000000 0.064824
#
#
# Mechanical properties :
#
#
# Convention : Reuss Voigt Hill
#
# Bulk Modulus (GPa) = 26.79795 33.06984 29.93390
# Shear Modulus (GPa) = 25.04221 31.05468 28.04844
#
# Velocity S-wave (km/s) = 3.49735 3.89463 3.70132
# Velocity P-wave (km/s) = 5.42195 6.03130 5.73473
#
# Compressibility (1/GPa) = 0.03731629
#
# Stress axis : x y z
#
# Youngs Moduli (GPa) = 126.49568 56.51930 78.24374
#
# Poissons Ratio (x) = 0.03387 0.15067
# Poissons Ratio (y) = 0.07581 -0.15599
# Poissons Ratio (z) = 0.24359 -0.11268
#
# Static dielectric constant tensor:
#      x y z
#    x 1.780300 0.000000 0.000000 
#    y 0.000000 1.751480 0.000000 
#    z 0.000000 0.000000 1.851860 
# 
# From -- ./inp_files/2226.got.cif
#   From: 2010.05.17/outbox.cif.g08.bks.cpg/sg29_2_cif.got.tgz:2226.got - 2010.06.04 01:19:37.
