data_PCOD9340051
_publ_section_title
;
Structure prediction by ZEFSAII (Michael W. Deem and Ramdas Pophale) SiO2 
 PCOD9340051
Probable space group: P C A 21
;
_chemical_formula_sum "Si O2"
_cell_formula_units_Z 32
_cell_length_a 20.072527
_cell_length_b 9.396948
_cell_length_c 9.250523
_cell_angle_alpha 90.000000
_cell_angle_beta 90.000000
_cell_angle_gamma 90.000000
_cell_volume 1744.838204
_symmetry_space_group_name_H-M "P C A 21"
_symmetry_group_IT_number 29
_symmetry_cell_setting 'orthorhombic'
loop_
_space_group_symop_operation_xyz
x,y,z
-x,-y,1/2+z
1/2-x,y,1/2+z
1/2+x,-y,z
loop_
_atom_site_type_symbol
_atom_site_label
_atom_site_fract_x
_atom_site_fract_y
_atom_site_fract_z
Si Si1 0.843303 0.845445 0.269570
Si Si2 0.342873 0.477085 0.877980
Si Si3 0.157122 0.522932 0.069070
Si Si4 0.252785 0.258814 0.005357
Si Si5 0.445635 0.400824 0.352711
Si Si6 0.156697 0.845465 0.677473
Si Si7 0.945632 0.400808 0.094332
Si Si8 0.247211 0.741203 0.941690
O O1 0.798431 0.839787 0.416334
O O2 0.902836 0.732430 0.292866
O O3 0.868992 0.999989 0.223519
O O4 0.793159 0.802562 0.139892
O O5 0.375901 0.500010 0.723528
O O6 0.306569 0.326752 0.895395
O O7 0.288637 0.603632 0.888183
O O8 0.392503 0.501377 0.009118
O O9 0.211357 0.396385 0.058861
O O10 0.107489 0.498641 0.937940
O O11 0.193426 0.673265 0.051652
O O12 0.500002 0.358497 0.473517
O O13 0.471894 0.500009 0.223521
O O14 0.097162 0.732452 0.654176
O O15 0.206838 0.802581 0.807156
O O16 0.201572 0.839801 0.530713
#
# Coordination Sequence:
#
# PCOD9340051 Si02
#       8
#     4   4   4   4   4   4   4   4
#     4  11  22  38  60  89 124 158 190 237 301 361
#     4  10  18  32  59  89 116 146 191 246 291 340
#     4  10  18  32  59  89 116 146 191 246 291 340
#     4  10  19  32  58  90 121 150 186 236 299 357
#     4  11  23  40  62  84 112 155 207 248 283 339
#     4  11  22  38  60  89 124 158 190 237 301 361
#     4  11  23  40  62  84 112 155 207 248 283 339
#     4  10  19  32  58  90 121 150 186 236 299 357
#
# _framework density 18.33981
#
# number of rings (size 3 to 8) (size 9 to 14) (size 15 to 20)
#    0.000    1.500    5.000    1.500    0.000    0.000 
#    0.000    1.250    0.000    0.000    0.000    0.000 
#    0.000    0.000    0.000    0.000    0.000    0.000 
#
# Total GULP energy -178364.111944 kJ/mol
# GULP energy per Si atom -5573.878498 kJ/mol
# Density = 1.829807 g / cm^3
# Si number density = 18.339810 Si / 1000 Ang^3
#
#
#
# Elastic Constant Matrix: (Units=GPa)
#
#
# Indices 1 2 3 4 5 6 
#
# 1 79.7051 39.3611 34.3633 0.0000 0.0000 0.0000
# 2 39.3611 68.8232 40.4065 0.0000 0.0000 0.0000
# 3 34.3633 40.4065 107.0315 0.0000 0.0000 0.0000
# 4 0.0000 0.0000 0.0000 23.3006 0.0000 0.0000
# 5 0.0000 0.0000 0.0000 0.0000 29.4278 0.0000
# 6 0.0000 0.0000 0.0000 0.0000 0.0000 7.3473
#
#
#
# Elastic Compliance Matrix: (Units=1/GPa)
#
#
# Indices 1 2 3 4 5 6 
#
# 1 0.017962 -0.008848 -0.002426 0.000000 0.000000 0.000000
# 2 -0.008848 0.023026 -0.005852 0.000000 0.000000 0.000000
# 3 -0.002426 -0.005852 0.012331 0.000000 0.000000 0.000000
# 4 0.000000 0.000000 0.000000 0.042917 0.000000 0.000000
# 5 0.000000 0.000000 0.000000 0.000000 0.033981 0.000000
# 6 0.000000 0.000000 0.000000 0.000000 0.000000 0.136104
#
#
# Mechanical properties :
#
#
# Convention : Reuss Voigt Hill
#
# Bulk Modulus (GPa) = 52.44912 53.75795 53.10354
# Shear Modulus (GPa) = 16.29031 21.44374 18.86703
#
# Velocity S-wave (km/s) = 2.98358 3.42313 3.21089
# Velocity P-wave (km/s) = 6.36629 6.70817 6.53947
#
# Compressibility (1/GPa) = 0.01906610
#
# Stress axis : x y z
#
# Youngs Moduli (GPa) = 55.67351 43.42889 81.09415
#
# Poissons Ratio (x) = 0.38426 0.19677
# Poissons Ratio (y) = 0.49260 0.47457
# Poissons Ratio (z) = 0.13509 0.25415
#
# Static dielectric constant tensor:
#      x y z
#    x 1.634890 0.000000 0.000000 
#    y 0.000000 1.618540 0.000000 
#    z 0.000000 0.000000 1.674710 
# 
# From -- ./inp_files/2265.got.cif
#   From: 2010.05.17/outbox.cif.g08.bks.cpg/sg29_2_cif.got.tgz:2265.got - 2010.06.04 01:19:37.
