data_PCOD9340444
_publ_section_title
;
Structure prediction by ZEFSAII (Michael W. Deem and Ramdas Pophale) SiO2 
 PCOD9340444
Probable space group: P C A 21
;
_chemical_formula_sum "Si O2"
_cell_formula_units_Z 28
_cell_length_a 16.823680
_cell_length_b 9.513900
_cell_length_c 8.370126
_cell_angle_alpha 90.000000
_cell_angle_beta 90.000000
_cell_angle_gamma 90.000000
_cell_volume 1339.712400
_symmetry_space_group_name_H-M "P C A 21"
_symmetry_group_IT_number 29
_symmetry_cell_setting 'orthorhombic'
loop_
_space_group_symop_operation_xyz
x,y,z
-x,-y,1/2+z
1/2-x,y,1/2+z
1/2+x,-y,z
loop_
_atom_site_type_symbol
_atom_site_label
_atom_site_fract_x
_atom_site_fract_y
_atom_site_fract_z
Si Si1 0.005877 0.207499 0.657360
Si Si2 0.347012 0.275321 0.727895
Si Si3 0.635911 0.421747 0.123730
Si Si4 0.512694 0.918860 0.297671
Si Si5 0.824759 0.787662 0.088247
Si Si6 0.746764 0.285058 0.384217
Si Si7 0.342071 0.885678 0.144699
O O1 0.007108 0.135135 0.480117
O O2 0.096878 0.251914 0.689789
O O3 0.943472 0.332168 0.649367
O O4 0.981131 0.086762 0.781657
O O5 0.379619 0.414234 0.643365
O O6 0.410896 0.150576 0.714313
O O7 0.260232 0.246513 0.659289
O O8 0.335397 0.288090 0.918702
O O9 0.698707 0.379392 0.260909
O O10 0.681320 0.371657 0.964169
O O11 0.431923 0.876289 0.206843
O O12 0.828661 0.957682 0.077945
O O13 0.685158 0.226935 0.514353
O O14 0.784919 0.150803 0.294156
#
# Coordination Sequence:
#
# PCOD9340444 Si02
#       7
#     4   4   4   4   4   4   4
#     4  10  23  42  65  92 130 164 219 271 317 385
#     4  11  24  43  62  93 129 173 206 265 322 396
#     4  11  23  43  62  94 131 168 211 262 328 398
#     4  10  23  42  63  93 127 163 220 268 321 374
#     4  10  23  41  65  90 128 164 217 261 323 378
#     4  10  22  37  67  90 126 165 213 263 326 387
#     4  10  20  40  64  98 119 165 214 276 315 374
#
# _framework density 20.900008
#
# number of rings (size 3 to 8) (size 9 to 14) (size 15 to 20)
#    0.000    1.714    1.429    1.714   10.000    2.286 
#   10.286    0.000    0.000    0.000    0.000    0.000 
#    0.000    0.000    0.000    0.000    0.000    0.000 
#
# Total GULP energy -156461.171463 kJ/mol
# GULP energy per Si atom -5587.898981 kJ/mol
# Density = 2.085244 g / cm^3
# Si number density = 20.900008 Si / 1000 Ang^3
#
#
#
# Elastic Constant Matrix: (Units=GPa)
#
#
# Indices 1 2 3 4 5 6 
#
# 1 98.1677 20.1034 -1.8325 0.0000 0.0000 0.0000
# 2 20.1034 50.8138 5.4502 0.0000 0.0000 0.0000
# 3 -1.8325 5.4502 35.1136 0.0000 0.0000 0.0000
# 4 0.0000 0.0000 0.0000 21.3860 0.0000 0.0000
# 5 0.0000 0.0000 0.0000 0.0000 28.8560 0.0000
# 6 0.0000 0.0000 0.0000 0.0000 0.0000 23.1659
#
#
#
# Elastic Compliance Matrix: (Units=1/GPa)
#
#
# Indices 1 2 3 4 5 6 
#
# 1 0.011142 -0.004546 0.001287 0.000000 0.000000 0.000000
# 2 -0.004546 0.021868 -0.003631 0.000000 0.000000 0.000000
# 3 0.001287 -0.003631 0.029110 0.000000 0.000000 0.000000
# 4 0.000000 0.000000 0.000000 0.046760 0.000000 0.000000
# 5 0.000000 0.000000 0.000000 0.000000 0.034655 0.000000
# 6 0.000000 0.000000 0.000000 0.000000 0.000000 0.043167
#
#
# Mechanical properties :
#
#
# Convention : Reuss Voigt Hill
#
# Bulk Modulus (GPa) = 20.68747 25.72635 23.20691
# Shear Modulus (GPa) = 23.08466 25.37318 24.22892
#
# Velocity S-wave (km/s) = 3.32705 3.48807 3.40851
# Velocity P-wave (km/s) = 4.96778 5.34398 5.15931
#
# Compressibility (1/GPa) = 0.04833844
#
# Stress axis : x y z
#
# Youngs Moduli (GPa) = 89.75341 45.72946 34.35265
#
# Poissons Ratio (x) = 0.20789 -0.04421
# Poissons Ratio (y) = 0.40802 0.12475
# Poissons Ratio (z) = -0.11552 0.16606
#
# Static dielectric constant tensor:
#      x y z
#    x 1.738770 0.000000 0.000000 
#    y 0.000000 1.735120 0.000000 
#    z 0.000000 0.000000 1.778570 
# 
# From -- ./inp_files/2073.got.cif
#   From: 2010.05.17/outbox.cif.g08.bks.cpg/sg29_2_cif.got.tgz:2073.got - 2010.06.04 01:19:37.
