data_PCOD9340894
_publ_section_title
;
Structure prediction by ZEFSAII (Michael W. Deem and Ramdas Pophale) SiO2 
 PCOD9340894
Probable space group: P C A 21
;
_chemical_formula_sum "Si O2"
_cell_formula_units_Z 20
_cell_length_a 11.053707
_cell_length_b 5.158667
_cell_length_c 13.981802
_cell_angle_alpha 90.000000
_cell_angle_beta 90.000000
_cell_angle_gamma 90.000000
_cell_volume 797.275816
_symmetry_space_group_name_H-M "P C A 21"
_symmetry_group_IT_number 29
_symmetry_cell_setting 'orthorhombic'
loop_
_space_group_symop_operation_xyz
x,y,z
-x,-y,1/2+z
1/2-x,y,1/2+z
1/2+x,-y,z
loop_
_atom_site_type_symbol
_atom_site_label
_atom_site_fract_x
_atom_site_fract_y
_atom_site_fract_z
Si Si1 0.953046 0.069740 0.091640
Si Si2 0.083261 0.570232 0.044157
Si Si3 0.287434 0.769290 0.923900
Si Si4 0.529439 0.555933 0.335757
Si Si5 0.105036 0.046823 0.785158
O O1 0.857810 0.025647 0.177231
O O2 0.036837 0.323267 0.100815
O O3 0.886052 0.084495 0.989098
O O4 0.043806 0.829453 0.096224
O O5 0.217724 0.595094 0.003184
O O6 0.006511 0.563581 0.946824
O O7 0.341125 0.581941 0.841724
O O8 0.197176 0.965418 0.869232
O O9 0.507663 0.845303 0.299482
O O10 0.437580 0.342509 0.292297
#
# Coordination Sequence:
#
# PCOD9340894 Si02
#       5
#     4   4   4   4   4
#     4  11  24  40  62  95 129 164 210 259 308 367
#     4  10  22  41  62  87 123 162 206 259 311 366
#     4  10  22  42  66  90 122 172 210 252 314 374
#     4  10  22  41  62  87 123 162 206 259 311 366
#     4  11  24  40  62  95 129 164 210 259 308 367
#
# _framework density 25.085419999999999
#
# number of rings (size 3 to 8) (size 9 to 14) (size 15 to 20)
#    0.000    1.600    0.000    6.000    0.000   17.600 
#    0.000    0.000    0.000    0.000    0.000    0.000 
#    0.000    0.000    0.000    0.000    0.000    0.000 
#
# Total GULP energy -111761.693603 kJ/mol
# GULP energy per Si atom -5588.084680 kJ/mol
# Density = 2.502832 g / cm^3
# Si number density = 25.085420 Si / 1000 Ang^3
#
#
#
# Elastic Constant Matrix: (Units=GPa)
#
#
# Indices 1 2 3 4 5 6 
#
# 1 72.0943 21.5204 -3.3450 0.0000 0.0000 0.0000
# 2 21.5204 146.4588 5.8786 0.0000 0.0000 0.0000
# 3 -3.3450 5.8786 54.7438 0.0000 0.0000 0.0000
# 4 0.0000 0.0000 0.0000 24.3405 0.0000 0.0000
# 5 0.0000 0.0000 0.0000 0.0000 19.4932 0.0000
# 6 0.0000 0.0000 0.0000 0.0000 0.0000 12.3612
#
#
#
# Elastic Compliance Matrix: (Units=1/GPa)
#
#
# Indices 1 2 3 4 5 6 
#
# 1 0.014576 -0.002187 0.001125 0.000000 0.000000 0.000000
# 2 -0.002187 0.007186 -0.000905 0.000000 0.000000 0.000000
# 3 0.001125 -0.000905 0.018433 0.000000 0.000000 0.000000
# 4 0.000000 0.000000 0.000000 0.041084 0.000000 0.000000
# 5 0.000000 0.000000 0.000000 0.000000 0.051300 0.000000
# 6 0.000000 0.000000 0.000000 0.000000 0.000000 0.080898
#
#
# Mechanical properties :
#
#
# Convention : Reuss Voigt Hill
#
# Bulk Modulus (GPa) = 27.57799 35.71165 31.64482
# Shear Modulus (GPa) = 21.78685 27.85518 24.82102
#
# Velocity S-wave (km/s) = 2.95024 3.33590 3.14898
# Velocity P-wave (km/s) = 4.75634 5.39487 5.08563
#
# Compressibility (1/GPa) = 0.03626080
#
# Stress axis : x y z
#
# Youngs Moduli (GPa) = 68.60714 139.16854 54.25086
#
# Poissons Ratio (x) = 0.30435 -0.06106
# Poissons Ratio (y) = 0.15004 0.04911
# Poissons Ratio (z) = -0.07722 0.12598
#
# Static dielectric constant tensor:
#      x y z
#    x 2.102370 0.000000 0.000000 
#    y 0.000000 2.002220 0.000000 
#    z 0.000000 0.000000 2.056760 
# 
# From -- ./inp_files/4369.got.cif
#   From: 2010.05.17/outbox.cif.g08.bks.cpg/sg29_3_cif.got.tgz:4369.got - 2010.06.04 01:19:37.
