data_PCOD9340254
_publ_section_title
;
Structure prediction by ZEFSAII (Michael W. Deem and Ramdas Pophale) SiO2 
 PCOD9340254
Probable space group: P C A 21
;
_chemical_formula_sum "Si O2"
_cell_formula_units_Z 24
_cell_length_a 15.278997
_cell_length_b 6.809841
_cell_length_c 12.308903
_cell_angle_alpha 90.000000
_cell_angle_beta 90.000000
_cell_angle_gamma 90.000000
_cell_volume 1280.711080
_symmetry_space_group_name_H-M "P C A 21"
_symmetry_group_IT_number 29
_symmetry_cell_setting 'orthorhombic'
loop_
_space_group_symop_operation_xyz
x,y,z
-x,-y,1/2+z
1/2-x,y,1/2+z
1/2+x,-y,z
loop_
_atom_site_type_symbol
_atom_site_label
_atom_site_fract_x
_atom_site_fract_y
_atom_site_fract_z
Si Si1 0.966194 0.819287 0.146480
Si Si2 0.424478 0.177423 0.389462
Si Si3 0.127397 0.117528 0.196780
Si Si4 0.600091 0.497319 0.064071
Si Si5 0.886602 0.994281 0.937225
Si Si6 0.207064 0.884965 0.017122
O O1 0.019248 0.623886 0.114247
O O2 0.916219 0.801277 0.260296
O O3 0.038398 0.995617 0.163774
O O4 0.906400 0.866947 0.043608
O O5 0.415123 0.380642 0.453958
O O6 0.523545 0.107514 0.412829
O O7 0.357676 0.016309 0.440295
O O8 0.125501 0.335407 0.149749
O O9 0.134963 0.117781 0.325847
O O10 0.202275 0.997838 0.132835
O O11 0.670122 0.330269 0.037696
O O12 0.802624 0.122484 0.966505
#
# Coordination Sequence:
#
# PCOD9340254 Si02
#       6
#     4   4   4   4   4   4
#     4  10  21  37  65  88 121 170 202 248 319 368
#     4  10  22  42  59  91 127 159 206 264 306 366
#     4   9  21  41  60  90 129 153 206 264 304 365
#     4  10  19  42  63  89 123 161 207 268 298 362
#     4  11  21  41  66  87 125 170 199 252 322 371
#     4  10  22  41  61  89 125 165 206 256 313 364
#
# _framework density 18.73959
#
# number of rings (size 3 to 8) (size 9 to 14) (size 15 to 20)
#    0.000    2.000    5.000    0.000    4.667    0.000 
#    6.000    0.000    0.000    0.000    0.000    0.000 
#    0.000    0.000    0.000    0.000    0.000    0.000 
#
# Total GULP energy -133826.212782 kJ/mol
# GULP energy per Si atom -5576.092199 kJ/mol
# Density = 1.869694 g / cm^3
# Si number density = 18.739590 Si / 1000 Ang^3
#
#
#
# Elastic Constant Matrix: (Units=GPa)
#
#
# Indices 1 2 3 4 5 6 
#
# 1 37.1002 6.2339 13.1318 0.0000 0.0000 0.0000
# 2 6.2339 113.8989 44.6841 0.0000 0.0000 0.0000
# 3 13.1318 44.6841 179.0846 0.0000 0.0000 0.0000
# 4 0.0000 0.0000 0.0000 14.5966 0.0000 0.0000
# 5 0.0000 0.0000 0.0000 0.0000-4426.8986 0.0000
# 6 0.0000 0.0000 0.0000 0.0000 0.0000 3.1962
#
#
#
# Elastic Compliance Matrix: (Units=1/GPa)
#
#
# Indices 1 2 3 4 5 6 
#
# 1 0.027738 -0.000798 -0.001835 0.000000 0.000000 0.000000
# 2 -0.000798 0.009755 -0.002376 0.000000 0.000000 0.000000
# 3 -0.001835 -0.002376 0.006311 0.000000 0.000000 0.000000
# 4 0.000000 0.000000 0.000000 0.068509 0.000000 0.000000
# 5 0.000000 0.000000 0.000000 0.000000 -0.000226 0.000000
# 6 0.000000 0.000000 0.000000 0.000000 0.000000 0.312868
#
#
# Mechanical properties :
#
#
# Convention : Reuss Voigt Hill
#
# Bulk Modulus (GPa) = 29.59722 50.90927 40.25324
# Shear Modulus (GPa) = 11.20487 -864.08556 -426.44034
#
# Velocity S-wave (km/s) = 2.44790 -21.49657 -15.10150
# Velocity P-wave (km/s) = 4.88036 24.26749 16.80912
#
# Compressibility (1/GPa) = 0.03378695
#
# Stress axis : x y z
#
# Youngs Moduli (GPa) = 36.05211 102.50761 158.44787
#
# Poissons Ratio (x) = 0.08184 0.29071
# Poissons Ratio (y) = 0.02878 0.37640
# Poissons Ratio (z) = 0.06615 0.24351
#
# Static dielectric constant tensor:
#      x y z
#    x 3.442600 0.000000 0.000000 
#    y 0.000000 1.618220 0.000000 
#    z 0.000000 0.000000 1.673860 
# 
# From -- ./inp_files/3381.got.cif
#   From: 2010.05.17/outbox.cif.g08.bks.cpg/sg29_2_cif.got.tgz:3381.got - 2010.06.04 01:19:37.
