data_PCOD9340245
_publ_section_title
;
Structure prediction by ZEFSAII (Michael W. Deem and Ramdas Pophale) SiO2 
 PCOD9340245
Probable space group: P C A 21
;
_chemical_formula_sum "Si O2"
_cell_formula_units_Z 32
_cell_length_a 8.172571
_cell_length_b 10.272468
_cell_length_c 17.949693
_cell_angle_alpha 90.000000
_cell_angle_beta 90.000000
_cell_angle_gamma 90.000000
_cell_volume 1506.921136
_symmetry_space_group_name_H-M "P C A 21"
_symmetry_group_IT_number 29
_symmetry_cell_setting 'orthorhombic'
loop_
_space_group_symop_operation_xyz
x,y,z
-x,-y,1/2+z
1/2-x,y,1/2+z
1/2+x,-y,z
loop_
_atom_site_type_symbol
_atom_site_label
_atom_site_fract_x
_atom_site_fract_y
_atom_site_fract_z
Si Si1 0.686901 0.656048 0.540540
Si Si2 0.669440 0.256219 0.183252
Si Si3 0.478075 0.233866 0.732828
Si Si4 0.799092 0.106309 0.053403
Si Si5 0.068162 0.480733 0.125671
Si Si6 0.166279 0.122242 0.659523
Si Si7 0.561895 0.947885 0.944895
Si Si8 0.361142 0.197320 0.891617
O O1 0.853643 0.577442 0.549732
O O2 0.578080 0.564243 0.592719
O O3 0.697850 0.787795 0.587716
O O4 0.627889 0.701779 0.460246
O O5 0.711917 0.221583 0.096746
O O6 0.654046 0.412254 0.179864
O O7 0.496520 0.182508 0.198497
O O8 0.825553 0.208280 0.231253
O O9 0.463105 0.355642 0.676797
O O10 0.335626 0.132007 0.705764
O O11 0.420849 0.262218 0.816260
O O12 0.865939 0.016167 0.120829
O O13 0.671785 0.022696 0.005887
O O14 0.938574 0.138386 0.994266
O O15 0.467898 0.065517 0.904218
O O16 0.676179 0.858985 0.893888
#
# Coordination Sequence:
#
# PCOD9340245 Si02
#       8
#     4   4   4   4   4   4   4   4
#     4  10  19  40  66  92 127 173 226 282 320 388
#     4  11  22  39  68  93 130 171 220 282 337 380
#     4  11  25  43  63  93 139 179 221 278 341 395
#     4  11  18  37  66 100 124 163 224 281 327 392
#     4  10  21  41  66  93 124 175 236 279 316 387
#     4  10  21  39  67  99 128 168 227 278 329 401
#     4  10  20  38  64  93 136 168 210 270 338 405
#     4  11  24  43  62  97 140 179 210 276 352 410
#
# _framework density 21.235353
#
# number of rings (size 3 to 8) (size 9 to 14) (size 15 to 20)
#    0.000    1.500    5.000    1.500    1.750    1.000 
#    6.750    0.000    0.000    0.000    0.000    0.000 
#    0.000    0.000    0.000    0.000    0.000    0.000 
#
# Total GULP energy -178304.913020 kJ/mol
# GULP energy per Si atom -5572.028532 kJ/mol
# Density = 2.118702 g / cm^3
# Si number density = 21.235353 Si / 1000 Ang^3
#
#
#
# Elastic Constant Matrix: (Units=GPa)
#
#
# Indices 1 2 3 4 5 6 
#
# 1 85.1316 3.8534 -3.3308 0.0000 0.0000 0.0000
# 2 3.8534 49.7425 -8.4416 0.0000 0.0000 0.0000
# 3 -3.3308 -8.4416 61.3258 0.0000 0.0000 0.0000
# 4 0.0000 0.0000 0.0000 16.0018 0.0000 0.0000
# 5 0.0000 0.0000 0.0000 0.0000 18.1096 0.0000
# 6 0.0000 0.0000 0.0000 0.0000 0.0000 -0.1424
#
#
#
# Elastic Compliance Matrix: (Units=1/GPa)
#
#
# Indices 1 2 3 4 5 6 
#
# 1 0.011805 -0.000825 0.000528 0.000000 0.000000 0.000000
# 2 -0.000825 0.020642 0.002797 0.000000 0.000000 0.000000
# 3 0.000528 0.002797 0.016720 0.000000 0.000000 0.000000
# 4 0.000000 0.000000 0.000000 0.062493 0.000000 0.000000
# 5 0.000000 0.000000 0.000000 0.000000 0.055219 0.000000
# 6 0.000000 0.000000 0.000000 0.000000 0.000000 -7.022724
#
#
# Mechanical properties :
#
#
# Convention : Reuss Voigt Hill
#
# Bulk Modulus (GPa) = 18.46210 20.04022 19.25116
# Shear Modulus (GPa) = -0.73070 20.40173 9.83552
#
# Velocity S-wave (km/s) = -0.58723 3.10295 2.15447
# Velocity P-wave (km/s) = 2.87283 4.72180 3.90823
#
# Compressibility (1/GPa) = 0.05416501
#
# Stress axis : x y z
#
# Youngs Moduli (GPa) = 84.71343 48.44488 59.80875
#
# Poissons Ratio (x) = 0.03996 -0.03155
# Poissons Ratio (y) = 0.06988 -0.16726
# Poissons Ratio (z) = -0.04469 -0.13548
#
# Static dielectric constant tensor:
#      x y z
#    x 1.916550 0.000000 0.000000 
#    y 0.000000 1.829180 0.000000 
#    z 0.000000 0.000000 1.727250 
# 
# From -- ./inp_files/5041.got.cif
#   From: 2010.05.17/outbox.cif.g08.bks.cpg/sg29_3_cif.got.tgz:5041.got - 2010.06.04 01:19:37.
