data_PCOD9340371
_publ_section_title
;
Structure prediction by ZEFSAII (Michael W. Deem and Ramdas Pophale) SiO2 
 PCOD9340371
Probable space group: P C A 21
;
_chemical_formula_sum "Si O2"
_cell_formula_units_Z 32
_cell_length_a 23.115653
_cell_length_b 11.958935
_cell_length_c 5.543383
_cell_angle_alpha 90.000000
_cell_angle_beta 90.000000
_cell_angle_gamma 90.000000
_cell_volume 1532.404990
_symmetry_space_group_name_H-M "P C A 21"
_symmetry_group_IT_number 29
_symmetry_cell_setting 'orthorhombic'
loop_
_space_group_symop_operation_xyz
x,y,z
-x,-y,1/2+z
1/2-x,y,1/2+z
1/2+x,-y,z
loop_
_atom_site_type_symbol
_atom_site_label
_atom_site_fract_x
_atom_site_fract_y
_atom_site_fract_z
Si Si1 0.398636 0.143837 0.282720
Si Si2 0.028611 0.536046 0.175782
Si Si3 0.402107 0.333702 0.642638
Si Si4 0.821198 0.984481 0.931112
Si Si5 0.392276 0.920790 0.546968
Si Si6 0.499963 0.771842 0.473317
Si Si7 0.217129 0.241922 0.259361
Si Si8 0.767760 0.183398 0.461716
O O1 0.392376 0.266454 0.395333
O O2 0.407465 0.047922 0.477820
O O3 0.343794 0.094755 0.142690
O O4 0.453751 0.153209 0.113386
O O5 0.024048 0.667467 0.129691
O O6 0.989759 0.487728 0.952414
O O7 0.087146 0.465798 0.131843
O O8 0.461052 0.281229 0.758711
O O9 0.344814 0.302717 0.788943
O O10 0.797281 0.891088 0.747433
O O11 0.874416 0.058885 0.827123
O O12 0.772202 0.073005 0.986744
O O13 0.444058 0.847787 0.441387
O O14 0.333342 0.861866 0.450625
O O15 0.254379 0.268020 0.499082
O O16 0.753868 0.242777 0.717345
#
# Coordination Sequence:
#
# PCOD9340371 Si02
#       8
#     4   4   4   4   4   4   4   4
#     4  12  21  38  57  93 128 164 204 258 328 383
#     4  10  22  45  68  89 117 165 216 254 309 382
#     4  11  24  41  64  91 130 165 212 274 325 381
#     4  11  22  36  56  87 127 172 206 255 314 388
#     4  11  24  36  57  91 132 166 207 257 319 389
#     4  11  25  40  63  92 128 173 211 261 322 387
#     4  12  24  36  63  96 126 165 212 267 331 386
#     4  10  20  38  56  79 120 168 212 244 296 372
#
# _framework density 20.882207999999999
#
# number of rings (size 3 to 8) (size 9 to 14) (size 15 to 20)
#    0.000    1.000    5.000    2.250    3.500    0.000 
#    0.000    0.000    0.000    3.000    0.000    0.000 
#    0.000    0.000    0.000    0.000    0.000    0.000 
#
# Total GULP energy -178304.715765 kJ/mol
# GULP energy per Si atom -5572.022368 kJ/mol
# Density = 2.083468 g / cm^3
# Si number density = 20.882208 Si / 1000 Ang^3
#
#
#
# Elastic Constant Matrix: (Units=GPa)
#
#
# Indices 1 2 3 4 5 6 
#
# 1 99.4974 19.0261 31.2060 0.0000 0.0000 0.0000
# 2 19.0261 24.5088 1.1772 0.0000 0.0000 0.0000
# 3 31.2060 1.1772 86.9871 0.0000 0.0000 0.0000
# 4 0.0000 0.0000 0.0000 8.6041 0.0000 0.0000
# 5 0.0000 0.0000 0.0000 0.0000 27.4107 0.0000
# 6 0.0000 0.0000 0.0000 0.0000 0.0000 18.9066
#
#
#
# Elastic Compliance Matrix: (Units=1/GPa)
#
#
# Indices 1 2 3 4 5 6 
#
# 1 0.013482 -0.010241 -0.004698 0.000000 0.000000 0.000000
# 2 -0.010241 0.048607 0.003016 0.000000 0.000000 0.000000
# 3 -0.004698 0.003016 0.013141 0.000000 0.000000 0.000000
# 4 0.000000 0.000000 0.000000 0.116223 0.000000 0.000000
# 5 0.000000 0.000000 0.000000 0.000000 0.036482 0.000000
# 6 0.000000 0.000000 0.000000 0.000000 0.000000 0.052892
#
#
# Mechanical properties :
#
#
# Convention : Reuss Voigt Hill
#
# Bulk Modulus (GPa) = 19.46133 34.86799 27.16466
# Shear Modulus (GPa) = 15.53762 21.62322 18.58042
#
# Velocity S-wave (km/s) = 2.73071 3.22139 2.98614
# Velocity P-wave (km/s) = 4.39114 5.52903 4.99261
#
# Compressibility (1/GPa) = 0.05138394
#
# Stress axis : x y z
#
# Youngs Moduli (GPa) = 74.17174 20.57335 76.10040
#
# Poissons Ratio (x) = 0.21068 0.35752
# Poissons Ratio (y) = 0.75956 -0.22951
# Poissons Ratio (z) = 0.34846 -0.06205
#
# Static dielectric constant tensor:
#      x y z
#    x 1.794080 0.000000 0.000000 
#    y 0.000000 1.724760 0.000000 
#    z 0.000000 0.000000 1.915980 
# 
# From -- ./inp_files/557.got.cif
#   From: 2010.05.17/outbox.cif.g08.bks.cpg/sg29_1_cif.got.tgz:557.got - 2010.06.04 01:19:37.
