data_PCOD9340589
_publ_section_title
;
Structure prediction by ZEFSAII (Michael W. Deem and Ramdas Pophale) SiO2 
 PCOD9340589
Probable space group: P C A 21
;
_chemical_formula_sum "Si O2"
_cell_formula_units_Z 16
_cell_length_a 15.364396
_cell_length_b 8.936498
_cell_length_c 4.991976
_cell_angle_alpha 90.000000
_cell_angle_beta 90.000000
_cell_angle_gamma 90.000000
_cell_volume 685.417744
_symmetry_space_group_name_H-M "P C A 21"
_symmetry_group_IT_number 29
_symmetry_cell_setting 'orthorhombic'
loop_
_space_group_symop_operation_xyz
x,y,z
-x,-y,1/2+z
1/2-x,y,1/2+z
1/2+x,-y,z
loop_
_atom_site_type_symbol
_atom_site_label
_atom_site_fract_x
_atom_site_fract_y
_atom_site_fract_z
Si Si1 0.554540 0.478681 0.863570
Si Si2 0.699660 0.655322 0.186800
Si Si3 0.916552 0.146292 0.293501
Si Si4 0.382724 0.036628 0.790307
O O1 0.515378 0.559187 0.601022
O O2 0.593501 0.322741 0.758010
O O3 0.619846 0.579399 0.035316
O O4 0.719972 0.614194 0.492403
O O5 0.681364 0.832183 0.203227
O O6 0.019939 0.108705 0.278804
O O7 0.882449 0.097908 0.581089
O O8 0.871551 0.038241 0.078335
#
# Coordination Sequence:
#
# PCOD9340589 Si02
#       4
#     4   4   4   4
#     4  12  24  42  70 102 136 180 235 293 341 409
#     4  12  26  44  65  98 143 186 224 281 362 423
#     4  10  21  38  68  98 124 164 231 289 325 388
#     4  10  21  40  63  96 129 168 224 279 338 404
#
# _framework density 23.343426999999998
#
# number of rings (size 3 to 8) (size 9 to 14) (size 15 to 20)
#    0.000    1.000    2.500    4.500    7.000    0.000 
#    0.000    7.500    0.000    0.000    0.000    0.000 
#    0.000    0.000    0.000    0.000    0.000    0.000 
#
# Total GULP energy -89478.545087 kJ/mol
# GULP energy per Si atom -5592.409068 kJ/mol
# Density = 2.329030 g / cm^3
# Si number density = 23.343427 Si / 1000 Ang^3
#
#
#
# Elastic Constant Matrix: (Units=GPa)
#
#
# Indices 1 2 3 4 5 6 
#
# 1 42.7809 4.0301 18.3992 0.0000 0.0000 0.0000
# 2 4.0301 101.2089 2.0349 0.0000 0.0000 0.0000
# 3 18.3992 2.0349 95.9451 0.0000 0.0000 0.0000
# 4 0.0000 0.0000 0.0000 34.2949 0.0000 0.0000
# 5 0.0000 0.0000 0.0000 0.0000 19.7003 0.0000
# 6 0.0000 0.0000 0.0000 0.0000 0.0000 24.0997
#
#
#
# Elastic Compliance Matrix: (Units=1/GPa)
#
#
# Indices 1 2 3 4 5 6 
#
# 1 0.025561 -0.000920 -0.004882 0.000000 0.000000 0.000000
# 2 -0.000920 0.009918 -0.000034 0.000000 0.000000 0.000000
# 3 -0.004882 -0.000034 0.011360 0.000000 0.000000 0.000000
# 4 0.000000 0.000000 0.000000 0.029159 0.000000 0.000000
# 5 0.000000 0.000000 0.000000 0.000000 0.050761 0.000000
# 6 0.000000 0.000000 0.000000 0.000000 0.000000 0.041494
#
#
# Mechanical properties :
#
#
# Convention : Reuss Voigt Hill
#
# Bulk Modulus (GPa) = 28.43593 32.09594 30.26593
# Shear Modulus (GPa) = 26.08965 29.98370 28.03667
#
# Velocity S-wave (km/s) = 3.34675 3.58782 3.46938
# Velocity P-wave (km/s) = 5.20983 5.56261 5.38910
#
# Compressibility (1/GPa) = 0.03516678
#
# Stress axis : x y z
#
# Youngs Moduli (GPa) = 39.12159 100.82822 88.03102
#
# Poissons Ratio (x) = 0.09273 0.42980
# Poissons Ratio (y) = 0.03598 0.00299
# Poissons Ratio (z) = 0.19101 0.00343
#
# Static dielectric constant tensor:
#      x y z
#    x 2.019570 0.000000 0.000000 
#    y 0.000000 1.796800 0.000000 
#    z 0.000000 0.000000 1.816130 
# 
# From -- ./inp_files/310.got.cif
#   From: 2010.05.17/outbox.cif.g08.bks.cpg/sg29_1_cif.got.tgz:310.got - 2010.06.04 01:19:37.
