data_PCOD9340409
_publ_section_title
;
Structure prediction by ZEFSAII (Michael W. Deem and Ramdas Pophale) SiO2 
 PCOD9340409
Probable space group: P C A 21
;
_chemical_formula_sum "Si O2"
_cell_formula_units_Z 20
_cell_length_a 5.336153
_cell_length_b 12.379903
_cell_length_c 13.000127
_cell_angle_alpha 90.000000
_cell_angle_beta 90.000000
_cell_angle_gamma 90.000000
_cell_volume 858.802125
_symmetry_space_group_name_H-M "P C A 21"
_symmetry_group_IT_number 29
_symmetry_cell_setting 'orthorhombic'
loop_
_space_group_symop_operation_xyz
x,y,z
-x,-y,1/2+z
1/2-x,y,1/2+z
1/2+x,-y,z
loop_
_atom_site_type_symbol
_atom_site_label
_atom_site_fract_x
_atom_site_fract_y
_atom_site_fract_z
Si Si1 0.934745 0.856755 0.781510
Si Si2 0.574635 0.034331 0.102461
Si Si3 0.696754 0.260850 0.612392
Si Si4 0.595274 0.430189 0.241590
Si Si5 0.072708 0.781955 0.382134
O O1 0.680180 0.838052 0.842652
O O2 0.667113 0.509044 0.752807
O O3 0.986390 0.758936 0.699733
O O4 0.177810 0.850582 0.854499
O O5 0.614026 0.159146 0.125817
O O6 0.068626 0.039685 0.205936
O O7 0.320095 0.008201 0.045516
O O8 0.849382 0.369247 0.633207
O O9 0.574999 0.245704 0.502066
O O10 0.598502 0.331640 0.322193
#
# Coordination Sequence:
#
# PCOD9340409 Si02
#       5
#     4   4   4   4   4
#     4  10  22  43  65  97 140 172 211 272 328 393
#     4  10  20  39  63  90 131 168 203 258 317 382
#     4  10  24  44  69  98 133 176 225 273 327 395
#     4  11  24  43  65  92 128 169 217 279 336 381
#     4  11  24  43  70  99 132 177 226 270 328 399
#
# _framework density 23.288250999999999
#
# number of rings (size 3 to 8) (size 9 to 14) (size 15 to 20)
#    0.000    1.600    0.000    6.000    0.000   11.200 
#    0.000   32.000    0.000    0.000    0.000    0.000 
#    0.000    0.000    0.000    0.000    0.000    0.000 
#
# Total GULP energy -111883.124423 kJ/mol
# GULP energy per Si atom -5594.156221 kJ/mol
# Density = 2.323525 g / cm^3
# Si number density = 23.288251 Si / 1000 Ang^3
#
#
#
# Elastic Constant Matrix: (Units=GPa)
#
#
# Indices 1 2 3 4 5 6 
#
# 1 194.3313 38.5112 35.4080 0.0000 0.0000 0.0000
# 2 38.5112 110.3723 3.5058 0.0000 0.0000 0.0000
# 3 35.4080 3.5058 116.6905 0.0000 0.0000 0.0000
# 4 0.0000 0.0000 0.0000 31.8473 0.0000 0.0000
# 5 0.0000 0.0000 0.0000 0.0000 16.5736 0.0000
# 6 0.0000 0.0000 0.0000 0.0000 0.0000 44.3661
#
#
#
# Elastic Compliance Matrix: (Units=1/GPa)
#
#
# Indices 1 2 3 4 5 6 
#
# 1 0.005852 -0.001988 -0.001716 0.000000 0.000000 0.000000
# 2 -0.001988 0.009744 0.000310 0.000000 0.000000 0.000000
# 3 -0.001716 0.000310 0.009081 0.000000 0.000000 0.000000
# 4 0.000000 0.000000 0.000000 0.031400 0.000000 0.000000
# 5 0.000000 0.000000 0.000000 0.000000 0.060337 0.000000
# 6 0.000000 0.000000 0.000000 0.000000 0.000000 0.022540
#
#
# Mechanical properties :
#
#
# Convention : Reuss Voigt Hill
#
# Bulk Modulus (GPa) = 55.89469 64.02711 59.96090
# Shear Modulus (GPa) = 32.95893 41.48869 37.22381
#
# Velocity S-wave (km/s) = 3.76608 4.22539 4.00233
# Velocity P-wave (km/s) = 6.55473 7.16647 6.86741
#
# Compressibility (1/GPa) = 0.01789079
#
# Stress axis : x y z
#
# Youngs Moduli (GPa) = 170.86990 102.62858 110.11907
#
# Poissons Ratio (x) = 0.20398 0.18898
# Poissons Ratio (y) = 0.33961 -0.03417
# Poissons Ratio (z) = 0.29323 -0.03185
#
# Static dielectric constant tensor:
#      x y z
#    x 1.958540 0.000000 0.000000 
#    y 0.000000 1.890950 0.000000 
#    z 0.000000 0.000000 1.903230 
# 
# From -- ./inp_files/4014.got.cif
#   From: 2010.05.17/outbox.cif.g08.bks.cpg/sg29_3_cif.got.tgz:4014.got - 2010.06.04 01:19:37.
