data_PCOD9340705
_publ_section_title
;
Structure prediction by ZEFSAII (Michael W. Deem and Ramdas Pophale) SiO2 
 PCOD9340705
Probable space group: P C A 21
;
_chemical_formula_sum "Si O2"
_cell_formula_units_Z 28
_cell_length_a 11.175355
_cell_length_b 6.085484
_cell_length_c 17.036956
_cell_angle_alpha 90.000000
_cell_angle_beta 90.000000
_cell_angle_gamma 90.000000
_cell_volume 1158.639832
_symmetry_space_group_name_H-M "P C A 21"
_symmetry_group_IT_number 29
_symmetry_cell_setting 'orthorhombic'
loop_
_space_group_symop_operation_xyz
x,y,z
-x,-y,1/2+z
1/2-x,y,1/2+z
1/2+x,-y,z
loop_
_atom_site_type_symbol
_atom_site_label
_atom_site_fract_x
_atom_site_fract_y
_atom_site_fract_z
Si Si1 0.628143 0.218033 0.732730
Si Si2 0.270412 0.414244 0.653617
Si Si3 0.321365 0.905372 0.400228
Si Si4 0.464966 0.152021 0.140459
Si Si5 0.064390 0.536447 0.273815
Si Si6 0.936171 0.192710 0.929164
Si Si7 0.069356 0.564739 0.012515
O O1 0.709524 0.350979 0.672621
O O2 0.687882 0.087160 0.804575
O O3 0.553754 0.395292 0.781904
O O4 0.538230 0.087303 0.676401
O O5 0.171780 0.230738 0.641427
O O6 0.336704 0.378305 0.736642
O O7 0.348549 0.441472 0.576164
O O8 0.187696 0.947481 0.437533
O O9 0.357935 0.670263 0.440213
O O10 0.437797 0.061640 0.417404
O O11 0.535025 0.296577 0.203829
O O12 0.517318 0.221038 0.057571
O O13 0.092540 0.669194 0.350479
O O14 0.967337 0.387914 0.990290
#
# Coordination Sequence:
#
# PCOD9340705 Si02
#       7
#     4   4   4   4   4   4   4
#     4  11  22  43  72 106 139 193 260 312 377 463
#     4  10  23  42  71 100 144 196 247 317 382 457
#     4  12  27  45  78 113 150 208 257 325 387 470
#     4  10  23  42  69 105 141 194 252 316 378 457
#     4  10  21  41  69 103 142 193 248 313 382 453
#     4  12  26  48  74 115 158 201 260 320 395 463
#     4  11  26  47  69 106 160 205 250 317 395 451
#
# _framework density 24.166267000000001
#
# number of rings (size 3 to 8) (size 9 to 14) (size 15 to 20)
#    0.000    1.143    4.286    0.857    0.000   11.429 
#    0.000    0.000    0.000    0.000    0.000    0.000 
#    0.000    0.000    0.000    0.000    0.000    0.000 
#
# Total GULP energy -156227.617657 kJ/mol
# GULP energy per Si atom -5579.557773 kJ/mol
# Density = 2.411126 g / cm^3
# Si number density = 24.166267 Si / 1000 Ang^3
#
#
#
# Elastic Constant Matrix: (Units=GPa)
#
#
# Indices 1 2 3 4 5 6 
#
# 1 104.4232 24.7825 10.4011 0.0000 0.0000 0.0000
# 2 24.7825 45.3354 19.1384 0.0000 0.0000 0.0000
# 3 10.4011 19.1384 97.9185 0.0000 0.0000 0.0000
# 4 0.0000 0.0000 0.0000 41.2998 0.0000 0.0000
# 5 0.0000 0.0000 0.0000 0.0000 19.8738 0.0000
# 6 0.0000 0.0000 0.0000 0.0000 0.0000 81.3192
#
#
#
# Elastic Compliance Matrix: (Units=1/GPa)
#
#
# Indices 1 2 3 4 5 6 
#
# 1 0.011004 -0.006018 0.000007 0.000000 0.000000 0.000000
# 2 -0.006018 0.027333 -0.004703 0.000000 0.000000 0.000000
# 3 0.000007 -0.004703 0.011131 0.000000 0.000000 0.000000
# 4 0.000000 0.000000 0.000000 0.024213 0.000000 0.000000
# 5 0.000000 0.000000 0.000000 0.000000 0.050318 0.000000
# 6 0.000000 0.000000 0.000000 0.000000 0.000000 0.012297
#
#
# Mechanical properties :
#
#
# Convention : Reuss Voigt Hill
#
# Bulk Modulus (GPa) = 35.66321 39.59123 37.62722
# Shear Modulus (GPa) = 29.92739 41.38890 35.65815
#
# Velocity S-wave (km/s) = 3.52290 4.14293 3.84544
# Velocity P-wave (km/s) = 5.59797 6.26926 5.94310
#
# Compressibility (1/GPa) = 0.02804010
#
# Stress axis : x y z
#
# Youngs Moduli (GPa) = 90.87580 36.58554 89.83914
#
# Poissons Ratio (x) = 0.22019 -0.00067
# Poissons Ratio (y) = 0.54693 0.42252
# Poissons Ratio (z) = -0.00068 0.17206
#
# Static dielectric constant tensor:
#      x y z
#    x 2.053910 0.000000 0.000000 
#    y 0.000000 1.956830 0.000000 
#    z 0.000000 0.000000 1.930450 
# 
# From -- ./inp_files/5091.got.cif
#   From: 2010.05.17/outbox.cif.g08.bks.cpg/sg29_3_cif.got.tgz:5091.got - 2010.06.04 01:19:37.
