data_PCOD9340286
_publ_section_title
;
Structure prediction by ZEFSAII (Michael W. Deem and Ramdas Pophale) SiO2 
 PCOD9340286
Probable space group: P C A 21
;
_chemical_formula_sum "Si O2"
_cell_formula_units_Z 32
_cell_length_a 8.983308
_cell_length_b 10.634141
_cell_length_c 15.562445
_cell_angle_alpha 90.000000
_cell_angle_beta 90.000000
_cell_angle_gamma 90.000000
_cell_volume 1486.676697
_symmetry_space_group_name_H-M "P C A 21"
_symmetry_group_IT_number 29
_symmetry_cell_setting 'orthorhombic'
loop_
_space_group_symop_operation_xyz
x,y,z
-x,-y,1/2+z
1/2-x,y,1/2+z
1/2+x,-y,z
loop_
_atom_site_type_symbol
_atom_site_label
_atom_site_fract_x
_atom_site_fract_y
_atom_site_fract_z
Si Si1 0.265431 0.020816 0.388270
Si Si2 0.039191 0.830755 0.311688
Si Si3 0.524299 0.334089 0.137273
Si Si4 0.945515 0.348689 0.318183
Si Si5 0.013568 0.840417 0.970181
Si Si6 0.777965 0.553595 0.890389
Si Si7 0.363059 0.603204 0.137224
Si Si8 0.505531 0.354513 0.465582
O O1 0.172716 0.930308 0.323501
O O2 0.362011 0.949213 0.461906
O O3 0.384074 0.098930 0.332254
O O4 0.141830 0.102726 0.437248
O O5 0.029210 0.747492 0.225443
O O6 0.061563 0.737869 0.392309
O O7 0.419942 0.458238 0.145143
O O8 0.687952 0.391836 0.120428
O O9 0.496513 0.238717 0.057623
O O10 0.838296 0.463709 0.343359
O O11 0.895497 0.318564 0.223327
O O12 0.931135 0.251848 0.394764
O O13 0.120808 0.380744 0.319249
O O14 0.670276 0.633004 0.950973
O O15 0.901128 0.482025 0.946773
O O16 0.449870 0.673905 0.061477
#
# Coordination Sequence:
#
# PCOD9340286 Si02
#       8
#     4   4   4   4   4   4   4   4
#     4  10  24  46  68  88 122 172 230 280 324 372
#     4  11  24  44  67  94 128 172 222 276 326 375
#     4  12  26  42  68 102 136 172 214 266 332 404
#     4  11  21  38  60  90 131 171 210 262 324 392
#     4  11  24  44  67  94 128 172 222 276 326 375
#     4  10  20  34  58  86 126 172 208 254 324 400
#     4  12  24  38  64 102 138 174 212 256 328 418
#     4  11  21  38  60  90 131 171 210 262 324 392
#
# _framework density 21.524519999999999
#
# number of rings (size 3 to 8) (size 9 to 14) (size 15 to 20)
#    0.000    1.000    0.000    9.000    0.000    3.000 
#    0.000    5.000    0.000    0.000    0.000    0.000 
#    0.000    0.000    0.000    0.000    0.000    0.000 
#
# Total GULP energy -178799.442427 kJ/mol
# GULP energy per Si atom -5587.482576 kJ/mol
# Density = 2.147553 g / cm^3
# Si number density = 21.524520 Si / 1000 Ang^3
#
#
#
# Elastic Constant Matrix: (Units=GPa)
#
#
# Indices 1 2 3 4 5 6 
#
# 1 138.2269 40.9469 -0.5982 0.0000 0.0000 0.0000
# 2 40.9469 74.4953 35.2372 0.0000 0.0000 0.0000
# 3 -0.5982 35.2372 109.5261 0.0000 0.0000 0.0000
# 4 0.0000 0.0000 0.0000 32.1452 0.0000 0.0000
# 5 0.0000 0.0000 0.0000 0.0000 20.1137 0.0000
# 6 0.0000 0.0000 0.0000 0.0000 0.0000 41.3003
#
#
#
# Elastic Compliance Matrix: (Units=1/GPa)
#
#
# Indices 1 2 3 4 5 6 
#
# 1 0.008974 -0.005846 0.001930 0.000000 0.000000 0.000000
# 2 -0.005846 0.019641 -0.006351 0.000000 0.000000 0.000000
# 3 0.001930 -0.006351 0.011184 0.000000 0.000000 0.000000
# 4 0.000000 0.000000 0.000000 0.031109 0.000000 0.000000
# 5 0.000000 0.000000 0.000000 0.000000 0.049717 0.000000
# 6 0.000000 0.000000 0.000000 0.000000 0.000000 0.024213
#
#
# Mechanical properties :
#
#
# Convention : Reuss Voigt Hill
#
# Bulk Modulus (GPa) = 51.90578 52.60225 52.25401
# Shear Modulus (GPa) = 29.10463 35.15599 32.13031
#
# Velocity S-wave (km/s) = 3.68116 4.04579 3.86778
# Velocity P-wave (km/s) = 6.49885 6.80558 6.65398
#
# Compressibility (1/GPa) = 0.01926568
#
# Stress axis : x y z
#
# Youngs Moduli (GPa) = 111.42687 50.91443 89.41348
#
# Poissons Ratio (x) = 0.29763 -0.17254
# Poissons Ratio (y) = 0.65136 0.56785
# Poissons Ratio (z) = -0.21502 0.32335
#
# Static dielectric constant tensor:
#      x y z
#    x 1.801800 0.000000 0.000000 
#    y 0.000000 1.868670 0.000000 
#    z 0.000000 0.000000 1.813010 
# 
# From -- ./inp_files/4272.got.cif
#   From: 2010.05.17/outbox.cif.g08.bks.cpg/sg29_3_cif.got.tgz:4272.got - 2010.06.04 01:19:37.
