data_PCOD9340170
_publ_section_title
;
Structure prediction by ZEFSAII (Michael W. Deem and Ramdas Pophale) SiO2 
 PCOD9340170
Probable space group: P C A 21
;
_chemical_formula_sum "Si O2"
_cell_formula_units_Z 32
_cell_length_a 15.950712
_cell_length_b 16.419116
_cell_length_c 5.248119
_cell_angle_alpha 90.000000
_cell_angle_beta 90.000000
_cell_angle_gamma 90.000000
_cell_volume 1374.464473
_symmetry_space_group_name_H-M "P C A 21"
_symmetry_group_IT_number 29
_symmetry_cell_setting 'orthorhombic'
loop_
_space_group_symop_operation_xyz
x,y,z
-x,-y,1/2+z
1/2-x,y,1/2+z
1/2+x,-y,z
loop_
_atom_site_type_symbol
_atom_site_label
_atom_site_fract_x
_atom_site_fract_y
_atom_site_fract_z
Si Si1 0.539035 0.090531 0.101230
Si Si2 0.305238 0.174669 0.755779
Si Si3 0.215781 0.745555 0.362314
Si Si4 0.457685 0.681975 0.773085
Si Si5 0.427372 0.325949 0.773096
Si Si6 0.781087 0.067464 0.850959
Si Si7 0.946398 0.496778 0.692026
Si Si8 0.527643 0.903902 0.100117
O O1 0.629148 0.075362 0.221676
O O2 0.483253 0.133042 0.318724
O O3 0.506113 0.998453 0.053227
O O4 0.533468 0.129539 0.821458
O O5 0.240278 0.166905 0.524957
O O6 0.353357 0.261219 0.749348
O O7 0.379885 0.110223 0.707314
O O8 0.228575 0.707215 0.639331
O O9 0.119714 0.743666 0.274908
O O10 0.245291 0.838886 0.403532
O O11 0.521384 0.686832 0.535721
O O12 0.412693 0.593042 0.748072
O O13 0.508945 0.685451 0.036029
O O14 0.397483 0.420080 0.751916
O O15 0.722618 0.028813 0.631863
O O16 0.976963 0.498348 0.398511
#
# Coordination Sequence:
#
# PCOD9340170 Si02
#       8
#     4   4   4   4   4   4   4   4
#     4  10  21  40  61  86 112 144 200 234 277 340
#     4  12  26  42  59  88 123 155 195 241 301 359
#     4  10  21  34  48  80 117 140 172 222 273 329
#     4  10  19  35  60  82 108 155 194 234 280 340
#     4  10  21  36  59  84 108 150 195 240 279 334
#     4  10  21  34  53  80 113 145 173 219 273 329
#     4   8  16  32  53  81 109 137 194 242 276 323
#     4  10  23  39  61  85 112 148 189 248 279 330
#
# _framework density 23.281796
#
# number of rings (size 3 to 8) (size 9 to 14) (size 15 to 20)
#    0.000    2.000    0.000    3.000    3.500    1.000 
#    0.000    1.250    0.000    0.000    0.000    0.000 
#    0.000    0.000    0.000    0.000    0.000    0.000 
#
# Total GULP energy -178705.525066 kJ/mol
# GULP energy per Si atom -5584.547658 kJ/mol
# Density = 2.322881 g / cm^3
# Si number density = 23.281796 Si / 1000 Ang^3
#
#
#
# Elastic Constant Matrix: (Units=GPa)
#
#
# Indices 1 2 3 4 5 6 
#
# 1 58.1083 14.5419 -3.2481 0.0000 0.0000 0.0000
# 2 14.5419 100.4592 19.4093 0.0000 0.0000 0.0000
# 3 -3.2481 19.4093 116.6633 0.0000 0.0000 0.0000
# 4 0.0000 0.0000 0.0000 19.8229 0.0000 0.0000
# 5 0.0000 0.0000 0.0000 0.0000 43.2119 0.0000
# 6 0.0000 0.0000 0.0000 0.0000 0.0000 14.7274
#
#
#
# Elastic Compliance Matrix: (Units=1/GPa)
#
#
# Indices 1 2 3 4 5 6 
#
# 1 0.017960 -0.002786 0.000964 0.000000 0.000000 0.000000
# 2 -0.002786 0.010717 -0.001861 0.000000 0.000000 0.000000
# 3 0.000964 -0.001861 0.008908 0.000000 0.000000 0.000000
# 4 0.000000 0.000000 0.000000 0.050447 0.000000 0.000000
# 5 0.000000 0.000000 0.000000 0.000000 0.023142 0.000000
# 6 0.000000 0.000000 0.000000 0.000000 0.000000 0.067900
#
#
# Mechanical properties :
#
#
# Convention : Reuss Voigt Hill
#
# Bulk Modulus (GPa) = 33.09132 37.40411 35.24771
# Shear Modulus (GPa) = 25.44356 31.85430 28.64893
#
# Velocity S-wave (km/s) = 3.30942 3.70294 3.51170
# Velocity P-wave (km/s) = 5.37096 5.86371 5.62273
#
# Compressibility (1/GPa) = 0.03021940
#
# Stress axis : x y z
#
# Youngs Moduli (GPa) = 55.67827 93.30930 112.25809
#
# Poissons Ratio (x) = 0.25996 -0.10817
# Poissons Ratio (y) = 0.15512 0.20886
# Poissons Ratio (z) = -0.05365 0.17361
#
# Static dielectric constant tensor:
#      x y z
#    x 1.839550 0.000000 0.000000 
#    y 0.000000 1.983110 0.000000 
#    z 0.000000 0.000000 1.946410 
# 
# From -- ./inp_files/290.got.cif
#   From: 2010.05.17/outbox.cif.g08.bks.cpg/sg29_1_cif.got.tgz:290.got - 2010.06.04 01:19:37.
