data_PCOD9340502
_publ_section_title
;
Structure prediction by ZEFSAII (Michael W. Deem and Ramdas Pophale) SiO2 
 PCOD9340502
Probable space group: P C A 21
;
_chemical_formula_sum "Si O2"
_cell_formula_units_Z 28
_cell_length_a 11.455276
_cell_length_b 4.825084
_cell_length_c 21.137894
_cell_angle_alpha 90.000000
_cell_angle_beta 90.000000
_cell_angle_gamma 90.000000
_cell_volume 1168.347817
_symmetry_space_group_name_H-M "P C A 21"
_symmetry_group_IT_number 29
_symmetry_cell_setting 'orthorhombic'
loop_
_space_group_symop_operation_xyz
x,y,z
-x,-y,1/2+z
1/2-x,y,1/2+z
1/2+x,-y,z
loop_
_atom_site_type_symbol
_atom_site_label
_atom_site_fract_x
_atom_site_fract_y
_atom_site_fract_z
Si Si1 0.471851 0.940932 0.834450
Si Si2 0.686553 0.593924 0.328106
Si Si3 0.476170 0.434044 0.643122
Si Si4 0.853912 0.213940 0.247839
Si Si5 0.676023 0.068381 0.138899
Si Si6 0.332453 0.637032 0.036725
Si Si7 0.850887 0.867486 0.948406
O O1 0.374375 0.133752 0.799386
O O2 0.770708 0.718855 0.895425
O O3 0.588815 0.995412 0.796205
O O4 0.467365 0.083541 0.904650
O O5 0.783053 0.439665 0.288071
O O6 0.582909 0.364424 0.337518
O O7 0.544920 0.353517 0.706108
O O8 0.360280 0.249678 0.633992
O O9 0.556024 0.358599 0.583118
O O10 0.441200 0.753946 0.650348
O O11 0.767760 0.095135 0.195040
O O12 0.839362 0.672764 0.009171
O O13 0.730740 0.224562 0.078466
O O14 0.331141 0.827887 0.974548
#
# Coordination Sequence:
#
# PCOD9340502 Si02
#       7
#     4   4   4   4   4   4   4
#     4  10  22  41  61  98 136 163 215 264 324 395
#     4  10  22  41  63  98 131 169 211 267 320 400
#     4  11  25  44  67  97 131 171 223 279 318 396
#     4  11  24  42  71  95 136 174 214 271 345 383
#     4  11  25  44  66  99 128 174 226 274 326 392
#     4  11  22  44  68  91 132 175 214 275 328 376
#     4  10  20  44  64  94 136 164 219 272 315 402
#
# _framework density 23.965465999999999
#
# number of rings (size 3 to 8) (size 9 to 14) (size 15 to 20)
#    0.857    0.571    1.429    3.429    0.000    6.857 
#    7.714    0.000    0.000    0.000    0.000    0.000 
#    0.000    0.000    0.000    0.000    0.000    0.000 
#
# Total GULP energy -156316.181725 kJ/mol
# GULP energy per Si atom -5582.720776 kJ/mol
# Density = 2.391092 g / cm^3
# Si number density = 23.965466 Si / 1000 Ang^3
#
#
#
# Elastic Constant Matrix: (Units=GPa)
#
#
# Indices 1 2 3 4 5 6 
#
# 1 36.4975 -0.4415 20.3843 0.0000 0.0000 0.0000
# 2 -0.4415 115.9153 -3.2889 0.0000 0.0000 0.0000
# 3 20.3843 -3.2889 72.5282 0.0000 0.0000 0.0000
# 4 0.0000 0.0000 0.0000 35.5513 0.0000 0.0000
# 5 0.0000 0.0000 0.0000 0.0000 21.5355 0.0000
# 6 0.0000 0.0000 0.0000 0.0000 0.0000 10.2788
#
#
#
# Elastic Compliance Matrix: (Units=1/GPa)
#
#
# Indices 1 2 3 4 5 6 
#
# 1 0.032503 -0.000136 -0.009141 0.000000 0.000000 0.000000
# 2 -0.000136 0.008639 0.000430 0.000000 0.000000 0.000000
# 3 -0.009141 0.000430 0.016376 0.000000 0.000000 0.000000
# 4 0.000000 0.000000 0.000000 0.028128 0.000000 0.000000
# 5 0.000000 0.000000 0.000000 0.000000 0.046435 0.000000
# 6 0.000000 0.000000 0.000000 0.000000 0.000000 0.097287
#
#
# Mechanical properties :
#
#
# Convention : Reuss Voigt Hill
#
# Bulk Modulus (GPa) = 25.11039 28.69430 26.90234
# Shear Modulus (GPa) = 19.20586 27.35894 23.28240
#
# Velocity S-wave (km/s) = 2.83397 3.38242 3.12027
# Velocity P-wave (km/s) = 4.60532 5.22049 4.92253
#
# Compressibility (1/GPa) = 0.03982416
#
# Stress axis : x y z
#
# Youngs Moduli (GPa) = 30.76640 115.75860 61.06346
#
# Poissons Ratio (x) = 0.01569 0.55819
# Poissons Ratio (y) = 0.00417 -0.02625
# Poissons Ratio (z) = 0.28124 -0.04976
#
# Static dielectric constant tensor:
#      x y z
#    x 1.955740 0.000000 0.000000 
#    y 0.000000 1.864480 0.000000 
#    z 0.000000 0.000000 1.940940 
# 
# From -- ./inp_files/5482.got.cif
#   From: 2010.05.17/outbox.cif.g08.bks.cpg/sg29_3_cif.got.tgz:5482.got - 2010.06.04 01:19:37.
