data_PCOD9340078
_publ_section_title
;
Structure prediction by ZEFSAII (Michael W. Deem and Ramdas Pophale) SiO2 
 PCOD9340078
Probable space group: P C A 21
;
_chemical_formula_sum "Si O2"
_cell_formula_units_Z 32
_cell_length_a 19.643427
_cell_length_b 5.750371
_cell_length_c 14.514352
_cell_angle_alpha 90.000000
_cell_angle_beta 90.000000
_cell_angle_gamma 90.000000
_cell_volume 1639.497557
_symmetry_space_group_name_H-M "P C A 21"
_symmetry_group_IT_number 29
_symmetry_cell_setting 'orthorhombic'
loop_
_space_group_symop_operation_xyz
x,y,z
-x,-y,1/2+z
1/2-x,y,1/2+z
1/2+x,-y,z
loop_
_atom_site_type_symbol
_atom_site_label
_atom_site_fract_x
_atom_site_fract_y
_atom_site_fract_z
Si Si1 0.424637 0.446080 0.720580
Si Si2 0.764623 0.311370 0.599494
Si Si3 0.238003 0.782499 0.406672
Si Si4 0.403649 0.469019 0.519499
Si Si5 0.847405 0.050629 0.743110
Si Si6 0.867732 0.919840 0.373792
Si Si7 0.053303 0.689866 0.836099
Si Si8 0.806961 0.537423 0.268121
O O1 0.445462 0.436138 0.612820
O O2 0.392062 0.705760 0.736299
O O3 0.487510 0.411173 0.788818
O O4 0.379691 0.207000 0.732775
O O5 0.717780 0.253981 0.511949
O O6 0.831139 0.436647 0.556683
O O7 0.792795 0.096442 0.660729
O O8 0.726215 0.475333 0.671919
O O9 0.188001 0.929259 0.342728
O O10 0.254754 0.550616 0.347570
O O11 0.311553 0.905109 0.412219
O O12 0.387383 0.245799 0.457523
O O13 0.440309 0.630609 0.444421
O O14 0.827793 0.796881 0.290840
O O15 0.935739 0.034458 0.333707
O O16 0.121310 0.593810 0.785725
#
# Coordination Sequence:
#
# PCOD9340078 Si02
#       8
#     4   4   4   4   4   4   4   4
#     4  11  25  43  65  90 128 171 215 260 303 377
#     4  10  18  39  61  92 124 161 206 262 327 386
#     4  10  19  36  59  87 128 152 202 261 323 372
#     4  10  21  38  66  89 120 167 217 251 318 388
#     4  10  25  39  64  96 123 168 215 260 315 375
#     4  10  18  36  64  88 119 163 209 261 314 382
#     4  10  22  42  61  90 123 170 212 260 310 372
#     4   9  20  35  58  90 119 156 206 261 314 378
#
# _framework density 19.518176
#
# number of rings (size 3 to 8) (size 9 to 14) (size 15 to 20)
#    0.000    2.000    3.750    0.750   10.500    0.000 
#    4.500    0.000    0.000    0.000    0.000    0.000 
#    0.000    0.000    0.000    0.000    0.000    0.000 
#
# Total GULP energy -178155.171898 kJ/mol
# GULP energy per Si atom -5567.349122 kJ/mol
# Density = 1.947375 g / cm^3
# Si number density = 19.518176 Si / 1000 Ang^3
#
#
#
# Elastic Constant Matrix: (Units=GPa)
#
#
# Indices 1 2 3 4 5 6 
#
# 1 31.9451 13.8439 37.3175 0.0000 0.0000 0.0000
# 2 13.8439 70.1155 21.2004 0.0000 0.0000 0.0000
# 3 37.3175 21.2004 152.0355 0.0000 0.0000 0.0000
# 4 0.0000 0.0000 0.0000 18.2119 0.0000 0.0000
# 5 0.0000 0.0000 0.0000 0.0000 34.4760 0.0000
# 6 0.0000 0.0000 0.0000 0.0000 0.0000 21.5692
#
#
#
# Elastic Compliance Matrix: (Units=1/GPa)
#
#
# Indices 1 2 3 4 5 6 
#
# 1 0.046139 -0.005936 -0.010497 0.000000 0.000000 0.000000
# 2 -0.005936 0.015654 -0.000726 0.000000 0.000000 0.000000
# 3 -0.010497 -0.000726 0.009255 0.000000 0.000000 0.000000
# 4 0.000000 0.000000 0.000000 0.054909 0.000000 0.000000
# 5 0.000000 0.000000 0.000000 0.000000 0.029006 0.000000
# 6 0.000000 0.000000 0.000000 0.000000 0.000000 0.046362
#
#
# Mechanical properties :
#
#
# Convention : Reuss Voigt Hill
#
# Bulk Modulus (GPa) = 27.22585 44.31331 35.76958
# Shear Modulus (GPa) = 20.17061 26.96704 23.56883
#
# Velocity S-wave (km/s) = 3.21818 3.72107 3.47873
# Velocity P-wave (km/s) = 5.27145 6.41987 5.87379
#
# Compressibility (1/GPa) = 0.03672979
#
# Stress axis : x y z
#
# Youngs Moduli (GPa) = 21.67385 63.88288 108.04781
#
# Poissons Ratio (x) = 0.37920 1.13419
# Poissons Ratio (y) = 0.12865 0.07843
# Poissons Ratio (z) = 0.22751 0.04637
#
# Static dielectric constant tensor:
#      x y z
#    x 1.699340 0.000000 0.000000 
#    y 0.000000 1.827910 0.000000 
#    z 0.000000 0.000000 1.698020 
# 
# From -- ./inp_files/4848.got.cif
#   From: 2010.05.17/outbox.cif.g08.bks.cpg/sg29_3_cif.got.tgz:4848.got - 2010.06.04 01:19:37.
