data_PCOD9340150
_publ_section_title
;
Structure prediction by ZEFSAII (Michael W. Deem and Ramdas Pophale) SiO2 
 PCOD9340150
Probable space group: P C A 21
;
_chemical_formula_sum "Si O2"
_cell_formula_units_Z 24
_cell_length_a 8.919879
_cell_length_b 9.337232
_cell_length_c 16.467862
_cell_angle_alpha 90.000000
_cell_angle_beta 90.000000
_cell_angle_gamma 90.000000
_cell_volume 1371.558487
_symmetry_space_group_name_H-M "P C A 21"
_symmetry_group_IT_number 29
_symmetry_cell_setting 'orthorhombic'
loop_
_space_group_symop_operation_xyz
x,y,z
-x,-y,1/2+z
1/2-x,y,1/2+z
1/2+x,-y,z
loop_
_atom_site_type_symbol
_atom_site_label
_atom_site_fract_x
_atom_site_fract_y
_atom_site_fract_z
Si Si1 0.648625 0.903500 0.583350
Si Si2 0.542533 0.846369 0.156629
Si Si3 0.311175 0.916094 0.923416
Si Si4 0.996471 0.834321 0.843805
Si Si5 0.500216 0.664311 0.000602
Si Si6 0.855855 0.642874 0.974418
O O1 0.779520 0.863138 0.645361
O O2 0.588485 0.759004 0.541475
O O3 0.529514 0.004665 0.626335
O O4 0.715924 0.994837 0.507114
O O5 0.495604 0.814386 0.247857
O O6 0.493455 0.725737 0.092168
O O7 0.157614 0.862583 0.884382
O O8 0.419085 0.784239 0.945831
O O9 0.395506 0.026642 0.864437
O O10 0.918298 0.701834 0.889389
O O11 0.675295 0.648896 0.977686
O O12 0.417187 0.513903 0.992135
#
# Coordination Sequence:
#
# PCOD9340150 Si02
#       6
#     4   4   4   4   4   4
#     4   9  18  34  54  75 104 142 176 211 260 319
#     4  10  20  34  54  82 108 134 175 224 264 304
#     4  10  19  34  56  78 106 144 179 211 262 321
#     4  11  20  34  55  83 110 136 176 227 264 304
#     4  10  21  38  57  76 105 146 182 212 262 325
#     4  10  20  36  56  76 105 144 180 215 260 323
#
# _framework density 17.498341
#
# number of rings (size 3 to 8) (size 9 to 14) (size 15 to 20)
#    0.000    2.000    0.000    7.000    0.000    1.333 
#    0.000    8.333    0.000    0.000    0.000    0.000 
#    0.000    0.000    0.000    0.000    0.000    0.000 
#
# Total GULP energy -133977.227255 kJ/mol
# GULP energy per Si atom -5582.384469 kJ/mol
# Density = 1.745851 g / cm^3
# Si number density = 17.498341 Si / 1000 Ang^3
#
#
#
# Elastic Constant Matrix: (Units=GPa)
#
#
# Indices 1 2 3 4 5 6 
#
# 1 66.6430 26.4961 21.8859 0.0000 0.0000 0.0000
# 2 26.4961 118.9333 18.1008 0.0000 0.0000 0.0000
# 3 21.8859 18.1008 63.6948 0.0000 0.0000 0.0000
# 4 0.0000 0.0000 0.0000 8.1990 0.0000 0.0000
# 5 0.0000 0.0000 0.0000 0.0000 3.7364 0.0000
# 6 0.0000 0.0000 0.0000 0.0000 0.0000 28.9521
#
#
#
# Elastic Compliance Matrix: (Units=1/GPa)
#
#
# Indices 1 2 3 4 5 6 
#
# 1 0.018015 -0.003210 -0.005278 0.000000 0.000000 0.000000
# 2 -0.003210 0.009360 -0.001557 0.000000 0.000000 0.000000
# 3 -0.005278 -0.001557 0.017956 0.000000 0.000000 0.000000
# 4 0.000000 0.000000 0.000000 0.121966 0.000000 0.000000
# 5 0.000000 0.000000 0.000000 0.000000 0.267634 0.000000
# 6 0.000000 0.000000 0.000000 0.000000 0.000000 0.034540
#
#
# Mechanical properties :
#
#
# Convention : Reuss Voigt Hill
#
# Bulk Modulus (GPa) = 39.61784 42.47075 41.04429
# Shear Modulus (GPa) = 10.04069 20.36340 15.20205
#
# Velocity S-wave (km/s) = 2.39803 3.41505 2.95069
# Velocity P-wave (km/s) = 5.50976 6.31460 5.92586
#
# Compressibility (1/GPa) = 0.02524115
#
# Stress axis : x y z
#
# Youngs Moduli (GPa) = 55.50976 106.83541 55.69234
#
# Poissons Ratio (x) = 0.34296 0.29393
# Poissons Ratio (y) = 0.17819 0.08671
# Poissons Ratio (z) = 0.29297 0.16634
#
# Static dielectric constant tensor:
#      x y z
#    x 1.599140 0.000000 0.000000 
#    y 0.000000 1.577160 0.000000 
#    z 0.000000 0.000000 1.581860 
# 
# From -- ./inp_files/4179.got.cif
#   From: 2010.05.17/outbox.cif.g08.bks.cpg/sg29_3_cif.got.tgz:4179.got - 2010.06.04 01:19:37.
