data_PCOD9340217
_publ_section_title
;
Structure prediction by ZEFSAII (Michael W. Deem and Ramdas Pophale) SiO2 
 PCOD9340217
Probable space group: P C A 21
;
_chemical_formula_sum "Si O2"
_cell_formula_units_Z 24
_cell_length_a 8.455458
_cell_length_b 9.514791
_cell_length_c 12.762824
_cell_angle_alpha 90.000000
_cell_angle_beta 90.000000
_cell_angle_gamma 90.000000
_cell_volume 1026.793640
_symmetry_space_group_name_H-M "P C A 21"
_symmetry_group_IT_number 29
_symmetry_cell_setting 'orthorhombic'
loop_
_space_group_symop_operation_xyz
x,y,z
-x,-y,1/2+z
1/2-x,y,1/2+z
1/2+x,-y,z
loop_
_atom_site_type_symbol
_atom_site_label
_atom_site_fract_x
_atom_site_fract_y
_atom_site_fract_z
Si Si1 0.807229 0.367291 0.126830
Si Si2 0.029176 0.944532 0.877045
Si Si3 0.875498 0.615273 0.748559
Si Si4 0.166775 0.835619 0.265103
Si Si5 0.733672 0.792503 0.915157
Si Si6 0.030658 0.600125 0.415161
O O1 0.729986 0.499483 0.188065
O O2 0.702550 0.229838 0.152087
O O3 0.980193 0.342587 0.175892
O O4 0.841250 0.395071 0.006486
O O5 0.906250 0.853475 0.945260
O O6 0.167584 0.855873 0.825169
O O7 0.928752 0.021936 0.784564
O O8 0.117223 0.075289 0.932225
O O9 0.770538 0.741179 0.795138
O O10 0.956727 0.544020 0.851723
O O11 0.075573 0.715652 0.328626
O O12 0.639055 0.656266 0.956873
#
# Coordination Sequence:
#
# PCOD9340217 Si02
#       6
#     4   4   4   4   4   4
#     4  11  23  38  61  93 122 163 203 255 314 367
#     4   9  18  36  66  81 116 169 195 247 313 349
#     4  11  22  39  60  91 127 156 203 256 315 369
#     4   9  19  38  60  87 121 158 202 251 300 368
#     4  10  19  38  62  86 117 160 199 249 306 361
#     4  10  23  39  61  90 125 158 204 254 312 374
#
# _framework density 23.373732
#
# number of rings (size 3 to 8) (size 9 to 14) (size 15 to 20)
#    0.000    2.000    3.333    0.000    2.333    0.000 
#    0.000    6.667    0.000    0.000    0.000    0.000 
#    0.000    0.000    0.000    0.000    0.000    0.000 
#
# Total GULP energy -133806.042486 kJ/mol
# GULP energy per Si atom -5575.251770 kJ/mol
# Density = 2.332053 g / cm^3
# Si number density = 23.373732 Si / 1000 Ang^3
#
#
#
# Elastic Constant Matrix: (Units=GPa)
#
#
# Indices 1 2 3 4 5 6 
#
# 1 119.2042 30.1881 -3.8069 0.0000 0.0000 0.0000
# 2 30.1881 68.9056 5.6927 0.0000 0.0000 0.0000
# 3 -3.8069 5.6927 31.4461 0.0000 0.0000 0.0000
# 4 0.0000 0.0000 0.0000 3.4943 0.0000 0.0000
# 5 0.0000 0.0000 0.0000 0.0000 19.6446 0.0000
# 6 0.0000 0.0000 0.0000 0.0000 0.0000 44.7001
#
#
#
# Elastic Compliance Matrix: (Units=1/GPa)
#
#
# Indices 1 2 3 4 5 6 
#
# 1 0.009551 -0.004345 0.001943 0.000000 0.000000 0.000000
# 2 -0.004345 0.016710 -0.003551 0.000000 0.000000 0.000000
# 3 0.001943 -0.003551 0.032678 0.000000 0.000000 0.000000
# 4 0.000000 0.000000 0.000000 0.286182 0.000000 0.000000
# 5 0.000000 0.000000 0.000000 0.000000 0.050905 0.000000
# 6 0.000000 0.000000 0.000000 0.000000 0.000000 0.022371
#
#
# Mechanical properties :
#
#
# Convention : Reuss Voigt Hill
#
# Bulk Modulus (GPa) = 21.26158 31.52262 26.39210
# Shear Modulus (GPa) = 11.21124 26.06661 18.63893
#
# Velocity S-wave (km/s) = 2.19247 3.34310 2.82694
# Velocity P-wave (km/s) = 3.94022 5.33079 4.68736
#
# Compressibility (1/GPa) = 0.04703319
#
# Stress axis : x y z
#
# Youngs Moduli (GPa) = 104.69695 59.84599 30.60122
#
# Poissons Ratio (x) = 0.26003 -0.05945
# Poissons Ratio (y) = 0.45491 0.10866
# Poissons Ratio (z) = -0.20341 0.21251
#
# Static dielectric constant tensor:
#      x y z
#    x 1.961450 0.000000 0.000000 
#    y 0.000000 1.916410 0.000000 
#    z 0.000000 0.000000 1.852280 
# 
# From -- ./inp_files/2818.got.cif
#   From: 2010.05.17/outbox.cif.g08.bks.cpg/sg29_2_cif.got.tgz:2818.got - 2010.06.04 01:19:37.
