data_PCOD9340408
_publ_section_title
;
Structure prediction by ZEFSAII (Michael W. Deem and Ramdas Pophale) SiO2 
 PCOD9340408
Probable space group: P C A 21
;
_chemical_formula_sum "Si O2"
_cell_formula_units_Z 24
_cell_length_a 14.537031
_cell_length_b 5.251142
_cell_length_c 11.005948
_cell_angle_alpha 90.000000
_cell_angle_beta 90.000000
_cell_angle_gamma 90.000000
_cell_volume 840.150201
_symmetry_space_group_name_H-M "P C A 21"
_symmetry_group_IT_number 29
_symmetry_cell_setting 'orthorhombic'
loop_
_space_group_symop_operation_xyz
x,y,z
-x,-y,1/2+z
1/2-x,y,1/2+z
1/2+x,-y,z
loop_
_atom_site_type_symbol
_atom_site_label
_atom_site_fract_x
_atom_site_fract_y
_atom_site_fract_z
Si Si1 0.260671 0.635239 0.286210
Si Si2 0.038644 0.708204 0.805675
Si Si3 0.755517 0.689958 0.036669
Si Si4 0.939221 0.983233 0.031103
Si Si5 0.576751 0.295135 0.188292
Si Si6 0.071566 0.351553 0.994051
O O1 0.356425 0.794711 0.278115
O O2 0.242334 0.484099 0.413309
O O3 0.265564 0.453918 0.165973
O O4 0.164649 0.789308 0.264008
O O5 0.955479 0.581504 0.728909
O O6 0.069194 0.423638 0.855011
O O7 0.989446 0.873445 0.910149
O O8 0.837119 0.891143 0.030510
O O9 0.655513 0.826966 0.029001
O O10 0.994252 0.896521 0.154032
O O11 0.966551 0.278364 0.023184
O O12 0.604687 0.385812 0.053849
#
# Coordination Sequence:
#
# PCOD9340408 Si02
#       6
#     4   4   4   4   4   4
#     4  10  20  40  64  90 128 162 208 258 316 372
#     4  10  20  39  63  87 118 166 207 255 315 376
#     4  10  20  40  64  86 130 170 194 268 322 356
#     4  11  21  41  63  88 126 164 213 257 317 379
#     4  10  20  39  63  87 118 166 207 255 315 376
#     4   9  23  39  55  92 126 156 211 259 315 375
#
# _framework density 28.566323000000001
#
# number of rings (size 3 to 8) (size 9 to 14) (size 15 to 20)
#    0.000    2.000    3.333    1.000    0.000    1.333 
#    6.000    1.667    0.000    0.000    0.000    0.000 
#    0.000    0.000    0.000    0.000    0.000    0.000 
#
# Total GULP energy -133729.055072 kJ/mol
# GULP energy per Si atom -5572.043961 kJ/mol
# Density = 2.850130 g / cm^3
# Si number density = 28.566323 Si / 1000 Ang^3
#
#
#
# Elastic Constant Matrix: (Units=GPa)
#
#
# Indices 1 2 3 4 5 6 
#
# 1 185.7682 18.3758 11.2319 0.0000 0.0000 0.0000
# 2 18.3758 32.1781 11.5473 0.0000 0.0000 0.0000
# 3 11.2319 11.5473 112.0573 0.0000 0.0000 0.0000
# 4 0.0000 0.0000 0.0000 25.5718 0.0000 0.0000
# 5 0.0000 0.0000 0.0000 0.0000 45.5806 0.0000
# 6 0.0000 0.0000 0.0000 0.0000 0.0000 41.9781
#
#
#
# Elastic Compliance Matrix: (Units=1/GPa)
#
#
# Indices 1 2 3 4 5 6 
#
# 1 0.005712 -0.003174 -0.000245 0.000000 0.000000 0.000000
# 2 -0.003174 0.034034 -0.003189 0.000000 0.000000 0.000000
# 3 -0.000245 -0.003189 0.009277 0.000000 0.000000 0.000000
# 4 0.000000 0.000000 0.000000 0.039106 0.000000 0.000000
# 5 0.000000 0.000000 0.000000 0.000000 0.021939 0.000000
# 6 0.000000 0.000000 0.000000 0.000000 0.000000 0.023822
#
#
# Mechanical properties :
#
#
# Convention : Reuss Voigt Hill
#
# Bulk Modulus (GPa) = 27.92792 45.81263 36.87027
# Shear Modulus (GPa) = 31.43833 41.88267 36.66050
#
# Velocity S-wave (km/s) = 3.32104 3.83320 3.58627
# Velocity P-wave (km/s) = 4.95010 5.97187 5.48483
#
# Compressibility (1/GPa) = 0.03580647
#
# Stress axis : x y z
#
# Youngs Moduli (GPa) = 175.07515 29.38250 107.79074
#
# Poissons Ratio (x) = 0.09325 0.02646
# Poissons Ratio (y) = 0.55564 0.34375
# Poissons Ratio (z) = 0.04298 0.09370
#
# Static dielectric constant tensor:
#      x y z
#    x 2.567930 0.000000 0.000000 
#    y 0.000000 2.384350 0.000000 
#    z 0.000000 0.000000 2.661480 
# 
# From -- ./inp_files/3397.got.cif
#   From: 2010.05.17/outbox.cif.g08.bks.cpg/sg29_2_cif.got.tgz:3397.got - 2010.06.04 01:19:37.
