data_PCOD9340904
_publ_section_title
;
Structure prediction by ZEFSAII (Michael W. Deem and Ramdas Pophale) SiO2 
 PCOD9340904
Probable space group: P C A 21
;
_chemical_formula_sum "Si O2"
_cell_formula_units_Z 32
_cell_length_a 9.199922
_cell_length_b 12.965230
_cell_length_c 10.588237
_cell_angle_alpha 90.000000
_cell_angle_beta 90.000000
_cell_angle_gamma 90.000000
_cell_volume 1262.955430
_symmetry_space_group_name_H-M "P C A 21"
_symmetry_group_IT_number 29
_symmetry_cell_setting 'orthorhombic'
loop_
_space_group_symop_operation_xyz
x,y,z
-x,-y,1/2+z
1/2-x,y,1/2+z
1/2+x,-y,z
loop_
_atom_site_type_symbol
_atom_site_label
_atom_site_fract_x
_atom_site_fract_y
_atom_site_fract_z
Si Si1 0.988852 0.501605 0.835750
Si Si2 0.895354 0.669161 0.509953
Si Si3 0.625839 0.323161 0.012956
Si Si4 0.754863 0.129998 0.872103
Si Si5 0.976472 0.175041 0.195297
Si Si6 0.238961 0.501598 0.670806
Si Si7 0.870258 0.806966 0.967979
Si Si8 0.995335 0.986670 0.488806
O O1 0.069977 0.496862 0.700887
O O2 0.821428 0.518996 0.803399
O O3 0.013668 0.395169 0.908698
O O4 0.062375 0.594624 0.911431
O O5 0.994593 0.724110 0.613774
O O6 0.790292 0.586636 0.577191
O O7 0.787840 0.758091 0.460155
O O8 0.726328 0.236428 0.947662
O O9 0.707893 0.389586 0.117179
O O10 0.479957 0.262274 0.051625
O O11 0.916321 0.088298 0.892890
O O12 0.690910 0.153081 0.733270
O O13 0.642974 0.043740 0.928241
O O14 0.063411 0.188538 0.326133
O O15 0.033086 0.079141 0.113696
O O16 0.891452 0.921404 0.019742
#
# Coordination Sequence:
#
# PCOD9340904 Si02
#       8
#     4   4   4   4   4   4   4   4
#     4  11  23  39  61  96 128 167 221 267 330 408
#     4  11  22  40  68  94 130 179 228 270 333 413
#     4   9  21  38  60  89 128 164 207 270 330 387
#     4  10  23  42  64  96 130 169 224 271 328 408
#     4  10  22  41  65  94 132 175 216 285 340 380
#     4  11  23  40  63  92 131 172 212 276 334 388
#     4  10  22  43  66  98 132 174 234 277 329 422
#     4  10  22  41  65  95 131 172 220 276 336 398
#
# _framework density 25.337392999999999
#
# number of rings (size 3 to 8) (size 9 to 14) (size 15 to 20)
#    0.000    2.000    0.000    4.500    0.000   11.000 
#    0.000   11.250    0.000    0.000    0.000    0.000 
#    0.000    0.000    0.000    0.000    0.000    0.000 
#
# Total GULP energy -179298.496388 kJ/mol
# GULP energy per Si atom -5603.078012 kJ/mol
# Density = 2.527972 g / cm^3
# Si number density = 25.337393 Si / 1000 Ang^3
#
#
#
# Elastic Constant Matrix: (Units=GPa)
#
#
# Indices 1 2 3 4 5 6 
#
# 1 86.0028 33.4777 22.0646 0.0000 0.0000 0.0000
# 2 33.4777 134.9085 37.4728 0.0000 0.0000 0.0000
# 3 22.0646 37.4728 76.3337 0.0000 0.0000 0.0000
# 4 0.0000 0.0000 0.0000 45.6835 0.0000 0.0000
# 5 0.0000 0.0000 0.0000 0.0000 32.2281 0.0000
# 6 0.0000 0.0000 0.0000 0.0000 0.0000 44.3649
#
#
#
# Elastic Compliance Matrix: (Units=1/GPa)
#
#
# Indices 1 2 3 4 5 6 
#
# 1 0.013294 -0.002584 -0.002574 0.000000 0.000000 0.000000
# 2 -0.002584 0.009085 -0.003713 0.000000 0.000000 0.000000
# 3 -0.002574 -0.003713 0.015667 0.000000 0.000000 0.000000
# 4 0.000000 0.000000 0.000000 0.021890 0.000000 0.000000
# 5 0.000000 0.000000 0.000000 0.000000 0.031029 0.000000
# 6 0.000000 0.000000 0.000000 0.000000 0.000000 0.022540
#
#
# Mechanical properties :
#
#
# Convention : Reuss Voigt Hill
#
# Bulk Modulus (GPa) = 49.25178 53.69723 51.47451
# Shear Modulus (GPa) = 36.22799 38.07062 37.14931
#
# Velocity S-wave (km/s) = 3.78540 3.88048 3.83323
# Velocity P-wave (km/s) = 6.21178 6.42778 6.32070
#
# Compressibility (1/GPa) = 0.02030384
#
# Stress axis : x y z
#
# Youngs Moduli (GPa) = 75.22335 110.07207 63.82769
#
# Poissons Ratio (x) = 0.28441 0.16430
# Poissons Ratio (y) = 0.19437 0.23699
# Poissons Ratio (z) = 0.19364 0.40870
#
# Static dielectric constant tensor:
#      x y z
#    x 2.003490 0.000000 0.000000 
#    y 0.000000 1.988650 0.000000 
#    z 0.000000 0.000000 2.000420 
# 
# From -- ./inp_files/3236.got.cif
#   From: 2010.05.17/outbox.cif.g08.bks.cpg/sg29_2_cif.got.tgz:3236.got - 2010.06.04 01:19:37.
