data_PCOD9340585
_publ_section_title
;
Structure prediction by ZEFSAII (Michael W. Deem and Ramdas Pophale) SiO2 
 PCOD9340585
Probable space group: P C A 21
;
_chemical_formula_sum "Si O2"
_cell_formula_units_Z 32
_cell_length_a 13.364665
_cell_length_b 5.733559
_cell_length_c 18.819530
_cell_angle_alpha 90.000000
_cell_angle_beta 90.000000
_cell_angle_gamma 90.000000
_cell_volume 1442.085919
_symmetry_space_group_name_H-M "P C A 21"
_symmetry_group_IT_number 29
_symmetry_cell_setting 'orthorhombic'
loop_
_space_group_symop_operation_xyz
x,y,z
-x,-y,1/2+z
1/2-x,y,1/2+z
1/2+x,-y,z
loop_
_atom_site_type_symbol
_atom_site_label
_atom_site_fract_x
_atom_site_fract_y
_atom_site_fract_z
Si Si1 0.465949 0.851256 0.541980
Si Si2 0.497021 0.732083 0.246384
Si Si3 0.769191 0.217342 0.294033
Si Si4 0.152287 0.374420 0.498626
Si Si5 0.132907 0.117202 0.359336
Si Si6 0.004863 0.758449 0.438935
Si Si7 0.667690 0.439866 0.939599
Si Si8 0.581214 0.246784 0.195052
O O1 0.577384 0.742680 0.554244
O O2 0.410791 0.739854 0.473601
O O3 0.403550 0.801828 0.611674
O O4 0.483032 0.109345 0.513381
O O5 0.379863 0.759832 0.262945
O O6 0.564033 0.701313 0.317741
O O7 0.518135 0.489180 0.204343
O O8 0.534282 0.991066 0.218737
O O9 0.773637 0.344591 0.371155
O O10 0.683651 0.293467 0.238503
O O11 0.727945 0.960148 0.313828
O O12 0.169436 0.185581 0.436969
O O13 0.260408 0.486662 0.505020
O O14 0.084437 0.568160 0.461852
O O15 0.055324 0.909914 0.377612
O O16 0.900940 0.651802 0.414230
#
# Coordination Sequence:
#
# PCOD9340585 Si02
#       8
#     4   4   4   4   4   4   4   4
#     4  10  25  44  64  95 141 186 237 301 354 427
#     4  11  26  44  71  99 137 192 233 294 356 440
#     4  11  24  44  72 108 144 184 244 298 376 437
#     4  10  21  38  66  96 132 173 230 284 361 412
#     4  10  22  40  63 103 140 177 222 302 356 435
#     4  10  21  40  64  97 139 178 225 295 360 423
#     4  11  23  38  72 102 131 179 234 301 355 433
#     4  11  28  50  68 100 148 195 245 297 364 441
#
# _framework density 22.190078
#
# number of rings (size 3 to 8) (size 9 to 14) (size 15 to 20)
#    0.000    1.500    1.250    3.000   12.250    3.000 
#    2.250    0.000    0.000    0.000    0.000    0.000 
#    0.000    0.000    0.000    0.000    0.000    0.000 
#
# Total GULP energy -178273.016757 kJ/mol
# GULP energy per Si atom -5571.031774 kJ/mol
# Density = 2.213957 g / cm^3
# Si number density = 22.190078 Si / 1000 Ang^3
#
#
#
# Elastic Constant Matrix: (Units=GPa)
#
#
# Indices 1 2 3 4 5 6 
#
# 1 119.9432 34.6711 15.4811 0.0000 0.0000 0.0000
# 2 34.6711 69.4197 23.1496 0.0000 0.0000 0.0000
# 3 15.4811 23.1496 76.4779 0.0000 0.0000 0.0000
# 4 0.0000 0.0000 0.0000 18.5185 0.0000 0.0000
# 5 0.0000 0.0000 0.0000 0.0000 22.2923 0.0000
# 6 0.0000 0.0000 0.0000 0.0000 0.0000 23.9278
#
#
#
# Elastic Compliance Matrix: (Units=1/GPa)
#
#
# Indices 1 2 3 4 5 6 
#
# 1 0.009765 -0.004692 -0.000557 0.000000 0.000000 0.000000
# 2 -0.004692 0.018276 -0.004583 0.000000 0.000000 0.000000
# 3 -0.000557 -0.004583 0.014575 0.000000 0.000000 0.000000
# 4 0.000000 0.000000 0.000000 0.054000 0.000000 0.000000
# 5 0.000000 0.000000 0.000000 0.000000 0.044859 0.000000
# 6 0.000000 0.000000 0.000000 0.000000 0.000000 0.041792
#
#
# Mechanical properties :
#
#
# Convention : Reuss Voigt Hill
#
# Bulk Modulus (GPa) = 43.56204 45.82713 44.69458
# Shear Modulus (GPa) = 23.74377 25.78366 24.76372
#
# Velocity S-wave (km/s) = 3.27466 3.41243 3.34426
# Velocity P-wave (km/s) = 5.82853 6.01857 5.92431
#
# Compressibility (1/GPa) = 0.02295577
#
# Stress axis : x y z
#
# Youngs Moduli (GPa) = 102.40364 54.71522 68.60851
#
# Poissons Ratio (x) = 0.25670 0.03819
# Poissons Ratio (y) = 0.48043 0.31440
# Poissons Ratio (z) = 0.05700 0.25073
#
# Static dielectric constant tensor:
#      x y z
#    x 1.840430 0.000000 0.000000 
#    y 0.000000 1.931830 0.000000 
#    z 0.000000 0.000000 1.821780 
# 
# From -- ./inp_files/5592.got.cif
#   From: 2010.05.17/outbox.cif.g08.bks.cpg/sg29_3_cif.got.tgz:5592.got - 2010.06.04 01:19:37.
