data_PCOD9340657
_publ_section_title
;
Structure prediction by ZEFSAII (Michael W. Deem and Ramdas Pophale) SiO2 
 PCOD9340657
Probable space group: P C A 21
;
_chemical_formula_sum "Si O2"
_cell_formula_units_Z 32
_cell_length_a 10.039944
_cell_length_b 7.842335
_cell_length_c 19.258713
_cell_angle_alpha 90.000000
_cell_angle_beta 90.000000
_cell_angle_gamma 90.000000
_cell_volume 1516.365663
_symmetry_space_group_name_H-M "P C A 21"
_symmetry_group_IT_number 29
_symmetry_cell_setting 'orthorhombic'
loop_
_space_group_symop_operation_xyz
x,y,z
-x,-y,1/2+z
1/2-x,y,1/2+z
1/2+x,-y,z
loop_
_atom_site_type_symbol
_atom_site_label
_atom_site_fract_x
_atom_site_fract_y
_atom_site_fract_z
Si Si1 0.890338 0.030016 0.607570
Si Si2 0.752834 0.861187 0.975421
Si Si3 0.267593 0.805511 0.911304
Si Si4 0.953479 0.658226 0.269010
Si Si5 0.138202 0.990385 0.699492
Si Si6 0.971548 0.632396 0.435137
Si Si7 0.259241 0.645713 0.260922
Si Si8 0.468822 0.705539 0.512338
O O1 0.783309 0.983191 0.666102
O O2 0.911292 0.229384 0.585894
O O3 0.832550 0.942875 0.538144
O O4 0.031803 0.974511 0.637511
O O5 0.674938 0.692769 0.955015
O O6 0.901758 0.820907 0.998457
O O7 0.752453 0.990539 0.910098
O O8 0.412716 0.772560 0.943575
O O9 0.254176 0.697414 0.841887
O O10 0.150008 0.742151 0.959521
O O11 0.965477 0.612127 0.351424
O O12 0.841141 0.525009 0.244178
O O13 0.103464 0.635417 0.239135
O O14 0.907903 0.851719 0.248758
O O15 0.155922 0.806286 0.733811
O O16 0.009411 0.483084 0.488678
#
# Coordination Sequence:
#
# PCOD9340657 Si02
#       8
#     4   4   4   4   4   4   4   4
#     4  11  25  47  67  98 136 187 246 282 349 429
#     4  11  23  41  68  99 134 188 233 285 361 431
#     4  10  21  40  66 101 134 178 226 290 357 424
#     4  11  26  45  72 108 141 189 238 296 367 432
#     4  12  25  51  70  98 144 191 242 297 349 426
#     4  11  23  42  67 104 139 173 230 294 364 418
#     4  11  25  45  71 105 144 184 241 300 359 435
#     4  11  22  41  67  97 142 174 228 294 350 421
#
# _framework density 21.103089000000001
#
# number of rings (size 3 to 8) (size 9 to 14) (size 15 to 20)
#    0.000    1.000    3.750    3.000    5.250    1.000 
#    4.500    0.000    0.000    0.000    0.000    0.000 
#    0.000    0.000    0.000    0.000    0.000    0.000 
#
# Total GULP energy -178291.408621 kJ/mol
# GULP energy per Si atom -5571.606519 kJ/mol
# Density = 2.105506 g / cm^3
# Si number density = 21.103089 Si / 1000 Ang^3
#
#
#
# Elastic Constant Matrix: (Units=GPa)
#
#
# Indices 1 2 3 4 5 6 
#
# 1 108.6508 36.6169 23.0715 0.0000 0.0000 0.0000
# 2 36.6169 91.4255 12.6031 0.0000 0.0000 0.0000
# 3 23.0715 12.6031 48.2485 0.0000 0.0000 0.0000
# 4 0.0000 0.0000 0.0000 15.9018 0.0000 0.0000
# 5 0.0000 0.0000 0.0000 0.0000 29.4372 0.0000
# 6 0.0000 0.0000 0.0000 0.0000 0.0000 36.6482
#
#
#
# Elastic Compliance Matrix: (Units=1/GPa)
#
#
# Indices 1 2 3 4 5 6 
#
# 1 0.011494 -0.003990 -0.004454 0.000000 0.000000 0.000000
# 2 -0.003990 0.012731 -0.001418 0.000000 0.000000 0.000000
# 3 -0.004454 -0.001418 0.023226 0.000000 0.000000 0.000000
# 4 0.000000 0.000000 0.000000 0.062886 0.000000 0.000000
# 5 0.000000 0.000000 0.000000 0.000000 0.033971 0.000000
# 6 0.000000 0.000000 0.000000 0.000000 0.000000 0.027287
#
#
# Mechanical properties :
#
#
# Convention : Reuss Voigt Hill
#
# Bulk Modulus (GPa) = 36.06387 43.65643 39.86015
# Shear Modulus (GPa) = 24.93013 28.13299 26.53156
#
# Velocity S-wave (km/s) = 3.44081 3.65516 3.54960
# Velocity P-wave (km/s) = 5.73690 6.20852 5.97736
#
# Compressibility (1/GPa) = 0.02772858
#
# Stress axis : x y z
#
# Youngs Moduli (GPa) = 87.00078 78.54743 43.05463
#
# Poissons Ratio (x) = 0.31337 0.19177
# Poissons Ratio (y) = 0.34709 0.06104
# Poissons Ratio (z) = 0.38752 0.11137
#
# Static dielectric constant tensor:
#      x y z
#    x 1.721800 0.000000 0.000000 
#    y 0.000000 1.807260 0.000000 
#    z 0.000000 0.000000 1.818230 
# 
# From -- ./inp_files/5393.got.cif
#   From: 2010.05.17/outbox.cif.g08.bks.cpg/sg29_3_cif.got.tgz:5393.got - 2010.06.04 01:19:37.
