data_PCOD9340947
_publ_section_title
;
Structure prediction by ZEFSAII (Michael W. Deem and Ramdas Pophale) SiO2 
 PCOD9340947
Probable space group: P C A 21
;
_chemical_formula_sum "Si O2"
_cell_formula_units_Z 32
_cell_length_a 28.674985
_cell_length_b 9.024404
_cell_length_c 5.369052
_cell_angle_alpha 90.000000
_cell_angle_beta 90.000000
_cell_angle_gamma 90.000000
_cell_volume 1389.374549
_symmetry_space_group_name_H-M "P C A 21"
_symmetry_group_IT_number 29
_symmetry_cell_setting 'orthorhombic'
loop_
_space_group_symop_operation_xyz
x,y,z
-x,-y,1/2+z
1/2-x,y,1/2+z
1/2+x,-y,z
loop_
_atom_site_type_symbol
_atom_site_label
_atom_site_fract_x
_atom_site_fract_y
_atom_site_fract_z
Si Si1 0.666501 0.150882 0.390330
Si Si2 0.640602 0.872487 0.648202
Si Si3 0.510323 0.424179 0.544499
Si Si4 0.435949 0.200244 0.753726
Si Si5 0.411767 0.919969 0.523094
Si Si6 0.643962 0.613280 0.979949
Si Si7 0.220839 0.585115 0.208548
Si Si8 0.396858 0.661727 0.191882
O O1 0.702224 0.243981 0.224173
O O2 0.651785 0.262663 0.611388
O O3 0.672782 0.980204 0.475646
O O4 0.617266 0.143912 0.250283
O O5 0.590785 0.831971 0.515216
O O6 0.663159 0.726025 0.767210
O O7 0.625353 0.983514 0.866612
O O8 0.489499 0.453304 0.268930
O O9 0.479888 0.301306 0.691295
O O10 0.564723 0.389761 0.494569
O O11 0.393658 0.287113 0.620065
O O12 0.446856 0.039996 0.631747
O O13 0.424841 0.783737 0.352389
O O14 0.617738 0.479224 0.848284
O O15 0.679715 0.534169 0.167025
O O16 0.247260 0.563822 0.467177
#
# Coordination Sequence:
#
# PCOD9340947 Si02
#       8
#     4   4   4   4   4   4   4   4
#     4  10  22  44  71  95 137 181 234 280 353 430
#     4   9  21  40  72  96 130 189 230 274 344 424
#     4  12  27  42  63 104 143 179 243 288 338 395
#     4  10  22  42  66  97 141 188 227 289 339 413
#     4   9  20  41  64  98 125 185 235 270 343 412
#     4  11  22  42  72  97 137 181 228 282 356 419
#     4  12  28  45  71 109 139 172 227 296 358 428
#     4  11  22  40  71  98 136 189 234 283 343 415
#
# _framework density 23.031945
#
# number of rings (size 3 to 8) (size 9 to 14) (size 15 to 20)
#    0.000    1.500    2.500    1.500   10.500    0.000 
#    6.750    1.250    0.000    0.000    0.000    0.000 
#    0.000    0.000    0.000    0.000    0.000    0.000 
#
# Total GULP energy -178338.594761 kJ/mol
# GULP energy per Si atom -5573.081086 kJ/mol
# Density = 2.297952 g / cm^3
# Si number density = 23.031945 Si / 1000 Ang^3
#
#
#
# Elastic Constant Matrix: (Units=GPa)
#
#
# Indices 1 2 3 4 5 6 
#
# 1 54.6914 33.0686 21.3593 0.0000 0.0000 0.0000
# 2 33.0686 101.1937 24.8407 0.0000 0.0000 0.0000
# 3 21.3593 24.8407 58.2093 0.0000 0.0000 0.0000
# 4 0.0000 0.0000 0.0000 39.1195 0.0000 0.0000
# 5 0.0000 0.0000 0.0000 0.0000 19.7669 0.0000
# 6 0.0000 0.0000 0.0000 0.0000 0.0000 15.5818
#
#
#
# Elastic Compliance Matrix: (Units=1/GPa)
#
#
# Indices 1 2 3 4 5 6 
#
# 1 0.024679 -0.006525 -0.006271 0.000000 0.000000 0.000000
# 2 -0.006525 0.012764 -0.003052 0.000000 0.000000 0.000000
# 3 -0.006271 -0.003052 0.020783 0.000000 0.000000 0.000000
# 4 0.000000 0.000000 0.000000 0.025563 0.000000 0.000000
# 5 0.000000 0.000000 0.000000 0.000000 0.050590 0.000000
# 6 0.000000 0.000000 0.000000 0.000000 0.000000 0.064178
#
#
# Mechanical properties :
#
#
# Convention : Reuss Voigt Hill
#
# Bulk Modulus (GPa) = 37.69583 41.40351 39.54967
# Shear Modulus (GPa) = 20.91210 23.88203 22.39706
#
# Velocity S-wave (km/s) = 3.01651 3.22360 3.12177
# Velocity P-wave (km/s) = 5.34179 5.64544 5.49571
#
# Compressibility (1/GPa) = 0.02652813
#
# Stress axis : x y z
#
# Youngs Moduli (GPa) = 40.52033 78.34702 48.11595
#
# Poissons Ratio (x) = 0.51124 0.30174
# Poissons Ratio (y) = 0.26441 0.14687
# Poissons Ratio (z) = 0.25410 0.23915
#
# Static dielectric constant tensor:
#      x y z
#    x 1.871050 0.000000 0.000000 
#    y 0.000000 1.916520 0.000000 
#    z 0.000000 0.000000 2.040960 
# 
# From -- ./inp_files/946.got.cif
#   From: 2010.05.17/outbox.cif.g08.bks.cpg/sg29_1_cif.got.tgz:946.got - 2010.06.04 01:19:37.
