data_PCOD9340923
_publ_section_title
;
Structure prediction by ZEFSAII (Michael W. Deem and Ramdas Pophale) SiO2 
 PCOD9340923
Probable space group: P C A 21
;
_chemical_formula_sum "Si O2"
_cell_formula_units_Z 32
_cell_length_a 9.173296
_cell_length_b 9.243794
_cell_length_c 17.874140
_cell_angle_alpha 90.000000
_cell_angle_beta 90.000000
_cell_angle_gamma 90.000000
_cell_volume 1515.656622
_symmetry_space_group_name_H-M "P C A 21"
_symmetry_group_IT_number 29
_symmetry_cell_setting 'orthorhombic'
loop_
_space_group_symop_operation_xyz
x,y,z
-x,-y,1/2+z
1/2-x,y,1/2+z
1/2+x,-y,z
loop_
_atom_site_type_symbol
_atom_site_label
_atom_site_fract_x
_atom_site_fract_y
_atom_site_fract_z
Si Si1 0.695875 0.595756 0.821130
Si Si2 0.633855 0.835578 0.255038
Si Si3 0.916148 0.136456 0.490487
Si Si4 0.125719 0.679417 0.338345
Si Si5 0.672598 0.066122 0.826352
Si Si6 0.655080 0.342844 0.515762
Si Si7 0.804985 0.674733 0.984785
Si Si8 0.915839 0.851786 0.582430
O O1 0.815635 0.671573 0.768573
O O2 0.740600 0.428751 0.822322
O O3 0.527474 0.628819 0.804350
O O4 0.725190 0.648168 0.906223
O O5 0.478670 0.876724 0.291790
O O6 0.621989 0.872932 0.168380
O O7 0.770872 0.916649 0.293565
O O8 0.851015 0.064764 0.415439
O O9 0.799283 0.246514 0.525505
O O10 0.046063 0.242506 0.467155
O O11 0.958457 0.004448 0.544458
O O12 0.187530 0.831522 0.311647
O O13 0.108148 0.681351 0.428751
O O14 0.674121 0.515771 0.521679
O O15 0.539320 0.269571 0.570289
O O16 0.718891 0.782802 0.038113
#
# Coordination Sequence:
#
# PCOD9340923 Si02
#       8
#     4   4   4   4   4   4   4   4
#     4  11  21  43  69 102 132 172 228 282 339 407
#     4  12  27  43  65  96 144 181 225 286 348 412
#     4  11  24  41  73  99 129 181 229 286 339 409
#     4  10  22  41  75  99 128 173 227 285 334 406
#     4  11  25  44  66 101 131 181 230 280 341 413
#     4  10  23  41  70 102 130 170 228 285 341 405
#     4  11  22  43  71  98 135 176 229 285 341 413
#     4  12  26  44  65  99 141 180 228 283 351 419
#
# _framework density 21.112960999999999
#
# number of rings (size 3 to 8) (size 9 to 14) (size 15 to 20)
#    0.000    1.000    2.500    3.750   14.000    0.000 
#    4.500    0.000    0.000    0.000    0.000    0.000 
#    0.000    0.000    0.000    0.000    0.000    0.000 
#
# Total GULP energy -178825.763834 kJ/mol
# GULP energy per Si atom -5588.305120 kJ/mol
# Density = 2.106491 g / cm^3
# Si number density = 21.112961 Si / 1000 Ang^3
#
#
#
# Elastic Constant Matrix: (Units=GPa)
#
#
# Indices 1 2 3 4 5 6 
#
# 1 84.2270 -1.9260 -4.7005 0.0000 0.0000 0.0000
# 2 -1.9260 83.4215 17.5620 0.0000 0.0000 0.0000
# 3 -4.7005 17.5620 40.9943 0.0000 0.0000 0.0000
# 4 0.0000 0.0000 0.0000 -47.8808 0.0000 0.0000
# 5 0.0000 0.0000 0.0000 0.0000 15.5194 0.0000
# 6 0.0000 0.0000 0.0000 0.0000 0.0000 13.4776
#
#
#
# Elastic Compliance Matrix: (Units=1/GPa)
#
#
# Indices 1 2 3 4 5 6 
#
# 1 0.011949 -0.000014 0.001376 0.000000 0.000000 0.000000
# 2 -0.000014 0.013176 -0.005646 0.000000 0.000000 0.000000
# 3 0.001376 -0.005646 0.026970 0.000000 0.000000 0.000000
# 4 0.000000 0.000000 0.000000 -0.020885 0.000000 0.000000
# 5 0.000000 0.000000 0.000000 0.000000 0.064436 0.000000
# 6 0.000000 0.000000 0.000000 0.000000 0.000000 0.074197
#
#
# Mechanical properties :
#
#
# Convention : Reuss Voigt Hill
#
# Bulk Modulus (GPa) = 22.97406 25.61264 24.29335
# Shear Modulus (GPa) = 25.91758 9.40371 17.66065
#
# Velocity S-wave (km/s) = 3.50747 2.11274 2.89534
# Velocity P-wave (km/s) = 5.22573 4.25548 4.76536
#
# Compressibility (1/GPa) = 0.04352734
#
# Stress axis : x y z
#
# Youngs Moduli (GPa) = 83.68790 75.89782 37.07797
#
# Poissons Ratio (x) = 0.00105 -0.05102
# Poissons Ratio (y) = 0.00116 0.20934
# Poissons Ratio (z) = -0.11516 0.42852
#
# Static dielectric constant tensor:
#      x y z
#    x 1.824360 0.000000 0.000000 
#    y 0.000000 1.812220 0.000000 
#    z 0.000000 0.000000 1.724870 
# 
# From -- ./inp_files/5008.got.cif
#   From: 2010.05.17/outbox.cif.g08.bks.cpg/sg29_3_cif.got.tgz:5008.got - 2010.06.04 01:19:37.
