data_PCOD9340386
_publ_section_title
;
Structure prediction by ZEFSAII (Michael W. Deem and Ramdas Pophale) SiO2 
 PCOD9340386
Probable space group: P C A 21
;
_chemical_formula_sum "Si O2"
_cell_formula_units_Z 20
_cell_length_a 10.135917
_cell_length_b 9.339081
_cell_length_c 8.747865
_cell_angle_alpha 90.000000
_cell_angle_beta 90.000000
_cell_angle_gamma 90.000000
_cell_volume 828.074212
_symmetry_space_group_name_H-M "P C A 21"
_symmetry_group_IT_number 29
_symmetry_cell_setting 'orthorhombic'
loop_
_space_group_symop_operation_xyz
x,y,z
-x,-y,1/2+z
1/2-x,y,1/2+z
1/2+x,-y,z
loop_
_atom_site_type_symbol
_atom_site_label
_atom_site_fract_x
_atom_site_fract_y
_atom_site_fract_z
Si Si1 0.312087 0.192234 0.217510
Si Si2 0.989893 0.116361 0.976003
Si Si3 0.167748 0.914628 0.173587
Si Si4 0.455016 0.647526 0.554578
Si Si5 0.028286 0.341633 0.211533
O O1 0.391693 0.186336 0.375577
O O2 0.405443 0.281525 0.105190
O O3 0.169973 0.264795 0.235258
O O4 0.287053 0.027183 0.166133
O O5 0.881578 0.079168 0.849285
O O6 0.951133 0.234697 0.099312
O O7 0.058134 0.985428 0.062378
O O8 0.158702 0.750715 0.121622
O O9 0.449087 0.492701 0.630736
O O10 0.454961 0.640474 0.372089
#
# Coordination Sequence:
#
# PCOD9340386 Si02
#       5
#     4   4   4   4   4
#     4  10  22  42  65  90 124 165 206 258 315 369
#     4  10  21  38  63  92 124 164 206 255 311 369
#     4  10  20  38  62  91 124 160 203 250 306 370
#     4  11  23  41  66  94 128 165 209 260 313 372
#     4  11  22  41  66  93 128 166 208 261 315 372
#
# _framework density 24.152422000000001
#
# number of rings (size 3 to 8) (size 9 to 14) (size 15 to 20)
#    0.000    1.600    0.000    7.200    0.000    3.200 
#    0.000   18.000    0.000    0.000    0.000    0.000 
#    0.000    0.000    0.000    0.000    0.000    0.000 
#
# Total GULP energy -112037.642049 kJ/mol
# GULP energy per Si atom -5601.882102 kJ/mol
# Density = 2.409745 g / cm^3
# Si number density = 24.152422 Si / 1000 Ang^3
#
#
#
# Elastic Constant Matrix: (Units=GPa)
#
#
# Indices 1 2 3 4 5 6 
#
# 1 79.8398 -10.3068 -11.7135 0.0000 0.0000 0.0000
# 2 -10.3068 138.0907 23.5344 0.0000 0.0000 0.0000
# 3 -11.7135 23.5344 146.4485 0.0000 0.0000 0.0000
# 4 0.0000 0.0000 0.0000 49.4126 0.0000 0.0000
# 5 0.0000 0.0000 0.0000 0.0000 13.5053 0.0000
# 6 0.0000 0.0000 0.0000 0.0000 0.0000 26.4489
#
#
#
# Elastic Compliance Matrix: (Units=1/GPa)
#
#
# Indices 1 2 3 4 5 6 
#
# 1 0.012759 0.000800 0.000892 0.000000 0.000000 0.000000
# 2 0.000800 0.007496 -0.001141 0.000000 0.000000 0.000000
# 3 0.000892 -0.001141 0.007083 0.000000 0.000000 0.000000
# 4 0.000000 0.000000 0.000000 0.020238 0.000000 0.000000
# 5 0.000000 0.000000 0.000000 0.000000 0.074045 0.000000
# 6 0.000000 0.000000 0.000000 0.000000 0.000000 0.037809
#
#
# Mechanical properties :
#
#
# Convention : Reuss Voigt Hill
#
# Bulk Modulus (GPa) = 35.16014 40.82304 37.99159
# Shear Modulus (GPa) = 29.79625 42.06437 35.93031
#
# Velocity S-wave (km/s) = 3.51618 4.17780 3.86119
# Velocity P-wave (km/s) = 5.57440 6.34121 5.97013
#
# Compressibility (1/GPa) = 0.02844130
#
# Stress axis : x y z
#
# Youngs Moduli (GPa) = 78.37449 133.40928 141.18381
#
# Poissons Ratio (x) = -0.10677 -0.12592
# Poissons Ratio (y) = -0.06272 0.16103
# Poissons Ratio (z) = -0.06990 0.15216
#
# Static dielectric constant tensor:
#      x y z
#    x 2.031110 0.000000 0.000000 
#    y 0.000000 1.903450 0.000000 
#    z 0.000000 0.000000 1.920210 
# 
# From -- ./inp_files/1319.got.cif
#   From: 2010.05.17/outbox.cif.g08.bks.cpg/sg29_1_cif.got.tgz:1319.got - 2010.06.04 01:19:37.
