data_PCOD9340907
_publ_section_title
;
Structure prediction by ZEFSAII (Michael W. Deem and Ramdas Pophale) SiO2 
 PCOD9340907
Probable space group: P C A 21
;
_chemical_formula_sum "Si O2"
_cell_formula_units_Z 20
_cell_length_a 17.471885
_cell_length_b 5.429415
_cell_length_c 7.434747
_cell_angle_alpha 90.000000
_cell_angle_beta 90.000000
_cell_angle_gamma 90.000000
_cell_volume 705.275821
_symmetry_space_group_name_H-M "P C A 21"
_symmetry_group_IT_number 29
_symmetry_cell_setting 'orthorhombic'
loop_
_space_group_symop_operation_xyz
x,y,z
-x,-y,1/2+z
1/2-x,y,1/2+z
1/2+x,-y,z
loop_
_atom_site_type_symbol
_atom_site_label
_atom_site_fract_x
_atom_site_fract_y
_atom_site_fract_z
Si Si1 0.744018 0.566621 0.991410
Si Si2 0.158655 0.704257 0.760528
Si Si3 0.114853 0.101567 0.466898
Si Si4 0.014772 0.369526 0.762133
Si Si5 0.912716 0.761245 0.610665
O O1 0.707793 0.293780 0.942483
O O2 0.814619 0.720651 0.910964
O O3 0.786601 0.510941 0.181588
O O4 0.669012 0.733885 0.016744
O O5 0.074810 0.598397 0.795833
O O6 0.147998 0.903502 0.606748
O O7 0.051938 0.241044 0.588182
O O8 0.085259 0.032862 0.266183
O O9 0.937419 0.510348 0.714268
O O10 0.026641 0.219485 0.947424
#
# Coordination Sequence:
#
# PCOD9340907 Si02
#       5
#     4   4   4   4   4
#     4  10  22  41  66  97 136 176 230 293 348 420
#     4  10  23  40  63 100 132 174 233 282 348 424
#     4  11  23  44  66  97 137 183 230 289 357 419
#     4  10  23  44  65  97 134 181 234 287 357 425
#     4  11  21  43  72  91 137 186 227 295 358 420
#
# _framework density 28.357697000000002
#
# number of rings (size 3 to 8) (size 9 to 14) (size 15 to 20)
#    0.000    1.600    4.000    0.000    2.800    0.000 
#    3.600    2.000    0.000    0.000    0.000    0.000 
#    0.000    0.000    0.000    0.000    0.000    0.000 
#
# Total GULP energy -111685.399671 kJ/mol
# GULP energy per Si atom -5584.269984 kJ/mol
# Density = 2.829315 g / cm^3
# Si number density = 28.357697 Si / 1000 Ang^3
#
#
#
# Elastic Constant Matrix: (Units=GPa)
#
#
# Indices 1 2 3 4 5 6 
#
# 1 106.9511 30.2114 47.2088 0.0000 0.0000 0.0000
# 2 30.2114 80.4428 45.3155 0.0000 0.0000 0.0000
# 3 47.2088 45.3155 164.1382 0.0000 0.0000 0.0000
# 4 0.0000 0.0000 0.0000 48.0465 0.0000 0.0000
# 5 0.0000 0.0000 0.0000 0.0000 64.5320 0.0000
# 6 0.0000 0.0000 0.0000 0.0000 0.0000 30.1561
#
#
#
# Elastic Compliance Matrix: (Units=1/GPa)
#
#
# Indices 1 2 3 4 5 6 
#
# 1 0.011232 -0.002840 -0.002446 0.000000 0.000000 0.000000
# 2 -0.002840 0.015439 -0.003445 0.000000 0.000000 0.000000
# 3 -0.002446 -0.003445 0.007747 0.000000 0.000000 0.000000
# 4 0.000000 0.000000 0.000000 0.020813 0.000000 0.000000
# 5 0.000000 0.000000 0.000000 0.000000 0.015496 0.000000
# 6 0.000000 0.000000 0.000000 0.000000 0.000000 0.033161
#
#
# Mechanical properties :
#
#
# Convention : Reuss Voigt Hill
#
# Bulk Modulus (GPa) = 58.98310 66.33371 62.65841
# Shear Modulus (GPa) = 39.36878 43.80002 41.58440
#
# Velocity S-wave (km/s) = 3.73002 3.93435 3.83355
# Velocity P-wave (km/s) = 6.27659 6.63938 6.46053
#
# Compressibility (1/GPa) = 0.01695401
#
# Stress axis : x y z
#
# Youngs Moduli (GPa) = 89.02931 64.77178 129.07749
#
# Poissons Ratio (x) = 0.18397 0.31578
# Poissons Ratio (y) = 0.25287 0.44473
# Poissons Ratio (z) = 0.21780 0.22317
#
# Static dielectric constant tensor:
#      x y z
#    x 1.553270 0.000000 0.000000 
#    y 0.000000 2.271790 0.000000 
#    z 0.000000 0.000000 2.586750 
# 
# From -- ./inp_files/2205.got.cif
#   From: 2010.05.17/outbox.cif.g08.bks.cpg/sg29_2_cif.got.tgz:2205.got - 2010.06.04 01:19:37.
