data_PCOD9340521
_publ_section_title
;
Structure prediction by ZEFSAII (Michael W. Deem and Ramdas Pophale) SiO2 
 PCOD9340521
Probable space group: P C A 21
;
_chemical_formula_sum "Si O2"
_cell_formula_units_Z 32
_cell_length_a 9.990567
_cell_length_b 6.981632
_cell_length_c 17.682628
_cell_angle_alpha 90.000000
_cell_angle_beta 90.000000
_cell_angle_gamma 90.000000
_cell_volume 1233.371477
_symmetry_space_group_name_H-M "P C A 21"
_symmetry_group_IT_number 29
_symmetry_cell_setting 'orthorhombic'
loop_
_space_group_symop_operation_xyz
x,y,z
-x,-y,1/2+z
1/2-x,y,1/2+z
1/2+x,-y,z
loop_
_atom_site_type_symbol
_atom_site_label
_atom_site_fract_x
_atom_site_fract_y
_atom_site_fract_z
Si Si1 0.715662 0.447444 0.655120
Si Si2 0.784338 0.052556 0.477519
Si Si3 0.963837 0.489171 0.746913
Si Si4 0.963837 0.010829 0.885726
Si Si5 0.153298 0.979151 0.627324
Si Si6 0.653298 0.479151 0.005315
Si Si7 0.909812 0.942397 0.717705
Si Si8 0.409812 0.442397 0.914934
O O1 0.834784 0.389736 0.711385
O O2 0.601000 0.554573 0.702571
O O3 0.653273 0.252230 0.623474
O O4 0.788514 0.549874 0.584958
O O5 0.711486 0.950126 0.547682
O O6 0.846727 0.247770 0.509165
O O7 0.899000 0.945427 0.430069
O O8 0.665217 0.110264 0.421255
O O9 0.937195 0.716348 0.731045
O O10 0.959673 0.464668 0.836692
O O11 0.959673 0.035332 0.795948
O O12 0.937195 0.783652 0.901594
O O13 0.002436 0.024577 0.650456
O O14 0.256601 0.033672 0.693628
O O15 0.502436 0.524577 0.982184
O O16 0.756601 0.533672 0.939011
#
# Coordination Sequence:
#
# PCOD9340521 Si02
#       8
#     4   4   4   4   4   4   4   4
#     4  10  21  37  57  81 109 142 180 222 268 318
#     4  10  21  37  57  81 109 142 180 222 268 318
#     4  10  21  36  54  79 110 142 179 223 268 317
#     4  10  21  36  54  79 110 142 179 223 268 317
#     4  10  21  37  57  81 109 142 180 222 268 318
#     4  10  21  37  57  81 109 142 180 222 268 318
#     4  10  21  36  54  79 110 142 179 223 268 317
#     4  10  21  36  54  79 110 142 179 223 268 317
#
# _framework density 25.945143999999999
#
# number of rings (size 3 to 8) (size 9 to 14) (size 15 to 20)
#    0.000    2.000    0.000    3.000    0.000    6.000 
#    0.000    0.000    0.000    0.000    0.000    0.000 
#    0.000    0.000    0.000    0.000    0.000    0.000 
#
# Total GULP energy -179161.753187 kJ/mol
# GULP energy per Si atom -5598.804787 kJ/mol
# Density = 2.588609 g / cm^3
# Si number density = 25.945144 Si / 1000 Ang^3
#
#
#
# Elastic Constant Matrix: (Units=GPa)
#
#
# Indices 1 2 3 4 5 6 
#
# 1 116.0795 -3.6043 13.6863 0.0000 0.0000 0.0000
# 2 -3.6043 70.4503 5.5710 0.0000 0.0000 0.0000
# 3 13.6863 5.5710 114.6630 0.0000 0.0000 0.0000
# 4 0.0000 0.0000 0.0000 16.5499 0.0000 0.0000
# 5 0.0000 0.0000 0.0000 0.0000 51.1225 0.0000
# 6 0.0000 0.0000 0.0000 0.0000 0.0000 31.3180
#
#
#
# Elastic Compliance Matrix: (Units=1/GPa)
#
#
# Indices 1 2 3 4 5 6 
#
# 1 0.008758 0.000533 -0.001071 0.000000 0.000000 0.000000
# 2 0.000533 0.014282 -0.000757 0.000000 0.000000 0.000000
# 3 -0.001071 -0.000757 0.008886 0.000000 0.000000 0.000000
# 4 0.000000 0.000000 0.000000 0.060423 0.000000 0.000000
# 5 0.000000 0.000000 0.000000 0.000000 0.019561 0.000000
# 6 0.000000 0.000000 0.000000 0.000000 0.000000 0.031931
#
#
# Mechanical properties :
#
#
# Convention : Reuss Voigt Hill
#
# Bulk Modulus (GPa) = 34.09103 36.94430 35.51767
# Shear Modulus (GPa) = 32.00829 38.83405 35.42117
#
# Velocity S-wave (km/s) = 3.51620 3.87302 3.69891
# Velocity P-wave (km/s) = 5.44547 5.85411 5.65348
#
# Compressibility (1/GPa) = 0.02933323
#
# Stress axis : x y z
#
# Youngs Moduli (GPa) = 114.18614 70.02033 112.53823
#
# Poissons Ratio (x) = -0.03730 0.12055
# Poissons Ratio (y) = -0.06083 0.08524
# Poissons Ratio (z) = 0.12232 0.05304
#
# Static dielectric constant tensor:
#      x y z
#    x 1.959490 0.000000 0.000000 
#    y 0.000000 2.113650 0.000000 
#    z 0.000000 0.000000 2.010010 
# 
# From -- ./inp_files/5396.got.cif
#   From: 2010.05.17/outbox.cif.g08.bks.cpg/sg29_3_cif.got.tgz:5396.got - 2010.06.04 01:19:37.
