data_PCOD9340825
_publ_section_title
;
Structure prediction by ZEFSAII (Michael W. Deem and Ramdas Pophale) SiO2 
 PCOD9340825
Probable space group: P C A 21
;
_chemical_formula_sum "Si O2"
_cell_formula_units_Z 28
_cell_length_a 28.302257
_cell_length_b 5.372382
_cell_length_c 8.930060
_cell_angle_alpha 90.000000
_cell_angle_beta 90.000000
_cell_angle_gamma 90.000000
_cell_volume 1357.820410
_symmetry_space_group_name_H-M "P C A 21"
_symmetry_group_IT_number 29
_symmetry_cell_setting 'orthorhombic'
loop_
_space_group_symop_operation_xyz
x,y,z
-x,-y,1/2+z
1/2-x,y,1/2+z
1/2+x,-y,z
loop_
_atom_site_type_symbol
_atom_site_label
_atom_site_fract_x
_atom_site_fract_y
_atom_site_fract_z
Si Si1 0.607992 0.992505 0.235720
Si Si2 0.792924 0.821827 0.189791
Si Si3 0.552213 0.493813 0.234668
Si Si4 0.752456 0.503220 0.922197
Si Si5 0.107235 0.997088 0.598175
Si Si6 0.208389 0.817154 0.179918
Si Si7 0.948838 0.502290 0.095258
O O1 0.575689 0.229637 0.193371
O O2 0.659501 0.040230 0.167993
O O3 0.584648 0.730439 0.192020
O O4 0.612968 0.997242 0.417123
O O5 0.788721 0.618697 0.319793
O O6 0.841837 0.962617 0.171849
O O7 0.750024 0.001697 0.229080
O O8 0.778824 0.692275 0.033216
O O9 0.547780 0.498990 0.414860
O O10 0.500726 0.518641 0.163641
O O11 0.791749 0.390710 0.810212
O O12 0.727166 0.305073 0.028698
O O13 0.075267 0.236162 0.638964
O O14 0.082886 0.736195 0.639131
#
# Coordination Sequence:
#
# PCOD9340825 Si02
#       7
#     4   4   4   4   4   4   4
#     4  10  22  38  68  90 124 170 211 254 322 387
#     4  11  23  41  62  94 130 171 216 263 317 385
#     4  10  22  42  64  92 121 162 211 265 321 381
#     4  10  24  38  64  88 134 168 214 266 318 370
#     4  10  22  38  68  90 124 170 211 254 322 387
#     4  11  23  41  62  94 130 171 216 263 317 385
#     4  10  22  42  64  92 121 162 211 265 321 381
#
# _framework density 20.621285
#
# number of rings (size 3 to 8) (size 9 to 14) (size 15 to 20)
#    0.000    1.714    0.000    3.429   14.000    0.000 
#    2.571    0.000    0.000    0.000    0.000    0.000 
#    0.000    0.000    0.000    0.000    0.000    0.000 
#
# Total GULP energy -156562.869296 kJ/mol
# GULP energy per Si atom -5591.531046 kJ/mol
# Density = 2.057435 g / cm^3
# Si number density = 20.621285 Si / 1000 Ang^3
#
#
#
# Elastic Constant Matrix: (Units=GPa)
#
#
# Indices 1 2 3 4 5 6 
#
# 1 148.2100 54.7873 20.3989 0.0000 0.0000 0.0000
# 2 54.7873 123.2513 28.3884 0.0000 0.0000 0.0000
# 3 20.3989 28.3884 50.5236 0.0000 0.0000 0.0000
# 4 0.0000 0.0000 0.0000 10.5623 0.0000 0.0000
# 5 0.0000 0.0000 0.0000 0.0000 15.3711 0.0000
# 6 0.0000 0.0000 0.0000 0.0000 0.0000 38.4650
#
#
#
# Elastic Compliance Matrix: (Units=1/GPa)
#
#
# Indices 1 2 3 4 5 6 
#
# 1 0.008165 -0.003297 -0.001444 0.000000 0.000000 0.000000
# 2 -0.003297 0.010651 -0.004653 0.000000 0.000000 0.000000
# 3 -0.001444 -0.004653 0.022990 0.000000 0.000000 0.000000
# 4 0.000000 0.000000 0.000000 0.094676 0.000000 0.000000
# 5 0.000000 0.000000 0.000000 0.000000 0.065057 0.000000
# 6 0.000000 0.000000 0.000000 0.000000 0.000000 0.025998
#
#
# Mechanical properties :
#
#
# Convention : Reuss Voigt Hill
#
# Bulk Modulus (GPa) = 43.44546 58.79267 51.11907
# Shear Modulus (GPa) = 19.68519 27.44037 23.56278
#
# Velocity S-wave (km/s) = 3.09302 3.65181 3.38397
# Velocity P-wave (km/s) = 5.81977 6.80834 6.33337
#
# Compressibility (1/GPa) = 0.02301736
#
# Stress axis : x y z
#
# Youngs Moduli (GPa) = 122.48003 93.88998 43.49628
#
# Poissons Ratio (x) = 0.30953 0.06281
# Poissons Ratio (y) = 0.40378 0.20241
# Poissons Ratio (z) = 0.17687 0.43691
#
# Static dielectric constant tensor:
#      x y z
#    x 1.686820 0.000000 0.000000 
#    y 0.000000 1.851500 0.000000 
#    z 0.000000 0.000000 1.717280 
# 
# From -- ./inp_files/2407.got.cif
#   From: 2010.05.17/outbox.cif.g08.bks.cpg/sg29_2_cif.got.tgz:2407.got - 2010.06.04 01:19:37.
