data_PCOD9340406
_publ_section_title
;
Structure prediction by ZEFSAII (Michael W. Deem and Ramdas Pophale) SiO2 
 PCOD9340406
Probable space group: P C A 21
;
_chemical_formula_sum "Si O2"
_cell_formula_units_Z 24
_cell_length_a 17.905800
_cell_length_b 11.393618
_cell_length_c 4.994713
_cell_angle_alpha 90.000000
_cell_angle_beta 90.000000
_cell_angle_gamma 90.000000
_cell_volume 1018.980615
_symmetry_space_group_name_H-M "P C A 21"
_symmetry_group_IT_number 29
_symmetry_cell_setting 'orthorhombic'
loop_
_space_group_symop_operation_xyz
x,y,z
-x,-y,1/2+z
1/2-x,y,1/2+z
1/2+x,-y,z
loop_
_atom_site_type_symbol
_atom_site_label
_atom_site_fract_x
_atom_site_fract_y
_atom_site_fract_z
Si Si1 0.884597 0.480618 0.366020
Si Si2 0.200087 0.681791 0.486741
Si Si3 0.874207 0.825158 0.194946
Si Si4 0.856951 0.684602 0.701352
Si Si5 0.697601 0.058440 0.519690
Si Si6 0.011077 0.338466 0.559556
O O1 0.846949 0.423589 0.107380
O O2 0.833608 0.565679 0.550226
O O3 0.947751 0.566606 0.245570
O O4 0.927074 0.377600 0.524536
O O5 0.227277 0.678144 0.182568
O O6 0.165245 0.810083 0.541484
O O7 0.849770 0.789974 0.490843
O O8 0.961243 0.786984 0.169627
O O9 0.857525 0.954618 0.099145
O O10 0.831459 0.734491 0.989090
O O11 0.944219 0.659232 0.777621
O O12 0.733196 0.047476 0.226552
#
# Coordination Sequence:
#
# PCOD9340406 Si02
#       6
#     4   4   4   4   4   4
#     4  11  19  37  63  83 126 153 192 238 295 364
#     4  10  25  41  59  85 113 159 204 240 283 345
#     4   9  18  34  54  82 113 134 192 243 270 344
#     4   9  19  31  54  85 111 142 181 224 287 352
#     4  10  20  39  62  77 107 158 202 235 290 343
#     4   9  19  32  58  90 108 154 183 226 305 354
#
# _framework density 23.552951
#
# number of rings (size 3 to 8) (size 9 to 14) (size 15 to 20)
#    1.000    1.333    1.667    1.000    2.333    0.000 
#    0.000   11.667    3.667    0.000    0.000    0.000 
#    0.000    0.000    0.000    0.000    0.000    0.000 
#
# Total GULP energy -133833.780154 kJ/mol
# GULP energy per Si atom -5576.407506 kJ/mol
# Density = 2.349934 g / cm^3
# Si number density = 23.552951 Si / 1000 Ang^3
#
#
#
# Elastic Constant Matrix: (Units=GPa)
#
#
# Indices 1 2 3 4 5 6 
#
# 1 28.6052 4.7938 7.8364 0.0000 0.0000 0.0000
# 2 4.7938 61.3446 4.3386 0.0000 0.0000 0.0000
# 3 7.8364 4.3386 85.8590 0.0000 0.0000 0.0000
# 4 0.0000 0.0000 0.0000 28.6983 0.0000 0.0000
# 5 0.0000 0.0000 0.0000 0.0000 19.7674 0.0000
# 6 0.0000 0.0000 0.0000 0.0000 0.0000 201.5304
#
#
#
# Elastic Compliance Matrix: (Units=1/GPa)
#
#
# Indices 1 2 3 4 5 6 
#
# 1 0.036267 -0.002609 -0.003178 0.000000 0.000000 0.000000
# 2 -0.002609 0.016548 -0.000598 0.000000 0.000000 0.000000
# 3 -0.003178 -0.000598 0.011967 0.000000 0.000000 0.000000
# 4 0.000000 0.000000 0.000000 0.034845 0.000000 0.000000
# 5 0.000000 0.000000 0.000000 0.000000 0.050588 0.000000
# 6 0.000000 0.000000 0.000000 0.000000 0.000000 0.004962
#
#
# Mechanical properties :
#
#
# Convention : Reuss Voigt Hill
#
# Bulk Modulus (GPa) = 19.22690 23.30513 21.26602
# Shear Modulus (GPa) = 26.98545 60.58855 43.78700
#
# Velocity S-wave (km/s) = 3.38854 5.07743 4.31639
# Velocity P-wave (km/s) = 4.84671 6.65507 5.82154
#
# Compressibility (1/GPa) = 0.05201046
#
# Stress axis : x y z
#
# Youngs Moduli (GPa) = 27.57357 60.43188 83.56105
#
# Poissons Ratio (x) = 0.15768 0.26557
# Poissons Ratio (y) = 0.07195 0.04997
# Poissons Ratio (z) = 0.08763 0.03614
#
# Static dielectric constant tensor:
#      x y z
#    x 1.956710 0.000000 0.000000 
#    y 0.000000 1.927720 0.000000 
#    z 0.000000 0.000000 1.920500 
# 
# From -- ./inp_files/677.got.cif
#   From: 2010.05.17/outbox.cif.g08.bks.cpg/sg29_1_cif.got.tgz:677.got - 2010.06.04 01:19:37.
