data_PCOD9340083
_publ_section_title
;
Structure prediction by ZEFSAII (Michael W. Deem and Ramdas Pophale) SiO2 
 PCOD9340083
Probable space group: P C A 21
;
_chemical_formula_sum "Si O2"
_cell_formula_units_Z 32
_cell_length_a 17.484355
_cell_length_b 8.799796
_cell_length_c 10.614801
_cell_angle_alpha 90.000000
_cell_angle_beta 90.000000
_cell_angle_gamma 90.000000
_cell_volume 1633.180090
_symmetry_space_group_name_H-M "P C A 21"
_symmetry_group_IT_number 29
_symmetry_cell_setting 'orthorhombic'
loop_
_space_group_symop_operation_xyz
x,y,z
-x,-y,1/2+z
1/2-x,y,1/2+z
1/2+x,-y,z
loop_
_atom_site_type_symbol
_atom_site_label
_atom_site_fract_x
_atom_site_fract_y
_atom_site_fract_z
Si Si1 0.899384 0.765750 0.320990
Si Si2 0.224541 0.002108 0.818388
Si Si3 0.765864 0.262836 0.525094
Si Si4 0.381547 0.767759 0.163759
Si Si5 0.034397 0.919396 0.450119
Si Si6 0.403628 0.573899 0.404173
Si Si7 0.990988 0.788571 0.065013
Si Si8 0.368295 0.885657 0.717156
O O1 0.815074 0.835545 0.331622
O O2 0.909638 0.604786 0.387774
O O3 0.952081 0.887114 0.393340
O O4 0.933360 0.752463 0.178934
O O5 0.165578 0.903602 0.732445
O O6 0.306327 0.014499 0.748974
O O7 0.234577 0.896105 0.943994
O O8 0.681276 0.305214 0.569466
O O9 0.817867 0.378842 0.447365
O O10 0.813793 0.238898 0.653789
O O11 0.412139 0.654919 0.268938
O O12 0.448221 0.840670 0.081895
O O13 0.092608 0.848409 0.348976
O O14 0.047895 0.099012 0.465101
O O15 0.465756 0.648443 0.498943
O O16 0.060307 0.893264 0.122508
#
# Coordination Sequence:
#
# PCOD9340083 Si02
#       8
#     4   4   4   4   4   4   4   4
#     4  11  23  37  62  90 127 159 202 255 313 363
#     4  10  18  37  59  89 114 150 204 255 296 349
#     4   9  18  37  60  87 115 154 204 242 300 364
#     4  10  19  35  62  85 114 159 202 246 300 360
#     4  11  20  36  60  90 115 153 210 252 300 347
#     4  10  23  39  57  84 130 165 192 245 311 375
#     4  10  22  40  58  90 122 159 206 255 299 374
#     4   9  19  33  60  85 113 147 192 254 301 342
#
# _framework density 19.593675000000001
#
# number of rings (size 3 to 8) (size 9 to 14) (size 15 to 20)
#    0.000    2.000    2.500    2.250    3.500    0.000 
#    0.000    5.000    0.000    0.000    0.000    0.000 
#    0.000    0.000    0.000    0.000    0.000    0.000 
#
# Total GULP energy -178248.573069 kJ/mol
# GULP energy per Si atom -5570.267908 kJ/mol
# Density = 1.954908 g / cm^3
# Si number density = 19.593675 Si / 1000 Ang^3
#
#
#
# Elastic Constant Matrix: (Units=GPa)
#
#
# Indices 1 2 3 4 5 6 
#
# 1 49.3951 -1.2837 11.5732 0.0000 0.0000 0.0000
# 2 -1.2837 62.9345 28.1153 0.0000 0.0000 0.0000
# 3 11.5732 28.1153 72.6123 0.0000 0.0000 0.0000
# 4 0.0000 0.0000 0.0000 18.9580 0.0000 0.0000
# 5 0.0000 0.0000 0.0000 0.0000 20.6882 0.0000
# 6 0.0000 0.0000 0.0000 0.0000 0.0000 13.6727
#
#
#
# Elastic Compliance Matrix: (Units=1/GPa)
#
#
# Indices 1 2 3 4 5 6 
#
# 1 0.021316 0.002361 -0.004312 0.000000 0.000000 0.000000
# 2 0.002361 0.019474 -0.007917 0.000000 0.000000 0.000000
# 3 -0.004312 -0.007917 0.017524 0.000000 0.000000 0.000000
# 4 0.000000 0.000000 0.000000 0.052748 0.000000 0.000000
# 5 0.000000 0.000000 0.000000 0.000000 0.048337 0.000000
# 6 0.000000 0.000000 0.000000 0.000000 0.000000 0.073138
#
#
# Mechanical properties :
#
#
# Convention : Reuss Voigt Hill
#
# Bulk Modulus (GPa) = 25.91992 29.08351 27.50172
# Shear Modulus (GPa) = 18.85843 20.43293 19.64568
#
# Velocity S-wave (km/s) = 3.10574 3.23280 3.16991
# Velocity P-wave (km/s) = 5.11061 5.36751 5.24063
#
# Compressibility (1/GPa) = 0.03858037
#
# Stress axis : x y z
#
# Youngs Moduli (GPa) = 46.91205 51.34942 57.06356
#
# Poissons Ratio (x) = -0.12124 0.24604
# Poissons Ratio (y) = -0.11076 0.45176
# Poissons Ratio (z) = 0.20227 0.40652
#
# Static dielectric constant tensor:
#      x y z
#    x 1.744440 0.000000 0.000000 
#    y 0.000000 1.682060 0.000000 
#    z 0.000000 0.000000 1.739640 
# 
# From -- ./inp_files/3667.got.cif
#   From: 2010.05.17/outbox.cif.g08.bks.cpg/sg29_2_cif.got.tgz:3667.got - 2010.06.04 01:19:37.
