data_PCOD9340688
_publ_section_title
;
Structure prediction by ZEFSAII (Michael W. Deem and Ramdas Pophale) SiO2 
 PCOD9340688
Probable space group: P C A 21
;
_chemical_formula_sum "Si O2"
_cell_formula_units_Z 24
_cell_length_a 15.408820
_cell_length_b 13.492308
_cell_length_c 5.226460
_cell_angle_alpha 90.000000
_cell_angle_beta 90.000000
_cell_angle_gamma 90.000000
_cell_volume 1086.583884
_symmetry_space_group_name_H-M "P C A 21"
_symmetry_group_IT_number 29
_symmetry_cell_setting 'orthorhombic'
loop_
_space_group_symop_operation_xyz
x,y,z
-x,-y,1/2+z
1/2-x,y,1/2+z
1/2+x,-y,z
loop_
_atom_site_type_symbol
_atom_site_label
_atom_site_fract_x
_atom_site_fract_y
_atom_site_fract_z
Si Si1 0.554589 0.484770 0.945310
Si Si2 0.194027 0.353138 0.104815
Si Si3 0.715845 0.374550 0.864619
Si Si4 0.194570 0.132048 0.032067
Si Si5 0.794808 0.152268 0.817562
Si Si6 0.447580 0.979322 0.724489
O O1 0.515335 0.516766 0.672721
O O2 0.613591 0.384570 0.918151
O O3 0.622216 0.567193 0.038009
O O4 0.230585 0.360255 0.390989
O O5 0.157199 0.242329 0.068576
O O6 0.733338 0.425260 0.595069
O O7 0.765490 0.268397 0.828959
O O8 0.270874 0.123059 0.243653
O O9 0.123656 0.053083 0.109757
O O10 0.736778 0.110216 0.587117
O O11 0.894355 0.123676 0.768553
O O12 0.518443 0.979793 0.497280
#
# Coordination Sequence:
#
# PCOD9340688 Si02
#       6
#     4   4   4   4   4   4
#     4  12  24  40  62  99 136 166 210 284 334 374
#     4  10  21  41  67  87 119 172 221 255 314 402
#     4  10  21  41  65  90 124 180 224 256 319 411
#     4  10  21  41  67  87 119 172 221 255 314 402
#     4  10  21  41  65  90 124 180 224 256 319 411
#     4  12  24  40  62  99 136 166 210 284 334 374
#
# _framework density 22.087572999999999
#
# number of rings (size 3 to 8) (size 9 to 14) (size 15 to 20)
#    0.000    1.333    0.000    6.000    0.000    0.000 
#   18.000    0.000    0.000    0.000    0.000    0.000 
#    0.000    0.000    0.000    0.000    0.000    0.000 
#
# Total GULP energy -133944.751899 kJ/mol
# GULP energy per Si atom -5581.031329 kJ/mol
# Density = 2.203730 g / cm^3
# Si number density = 22.087573 Si / 1000 Ang^3
#
#
#
# Elastic Constant Matrix: (Units=GPa)
#
#
# Indices 1 2 3 4 5 6 
#
# 1 75.5942 33.7521 3.5656 0.0000 0.0000 0.0000
# 2 33.7521 98.2957 -0.2675 0.0000 0.0000 0.0000
# 3 3.5656 -0.2675 120.0875 0.0000 0.0000 0.0000
# 4 0.0000 0.0000 0.0000 18.7914 0.0000 0.0000
# 5 0.0000 0.0000 0.0000 0.0000 44.0569 0.0000
# 6 0.0000 0.0000 0.0000 0.0000 0.0000 36.6208
#
#
#
# Elastic Compliance Matrix: (Units=1/GPa)
#
#
# Indices 1 2 3 4 5 6 
#
# 1 0.015651 -0.005375 -0.000477 0.000000 0.000000 0.000000
# 2 -0.005375 0.012020 0.000186 0.000000 0.000000 0.000000
# 3 -0.000477 0.000186 0.008342 0.000000 0.000000 0.000000
# 4 0.000000 0.000000 0.000000 0.053216 0.000000 0.000000
# 5 0.000000 0.000000 0.000000 0.000000 0.022698 0.000000
# 6 0.000000 0.000000 0.000000 0.000000 0.000000 0.027307
#
#
# Mechanical properties :
#
#
# Convention : Reuss Voigt Hill
#
# Bulk Modulus (GPa) = 40.51686 40.89753 40.70720
# Shear Modulus (GPa) = 31.48776 37.02229 34.25503
#
# Velocity S-wave (km/s) = 3.77979 4.09853 3.94239
# Velocity P-wave (km/s) = 6.11822 6.39950 6.26044
#
# Compressibility (1/GPa) = 0.02468108
#
# Stress axis : x y z
#
# Youngs Moduli (GPa) = 63.89318 83.19678 119.87779
#
# Poissons Ratio (x) = 0.44722 0.05714
# Poissons Ratio (y) = 0.34346 -0.02234
# Poissons Ratio (z) = 0.03046 -0.01551
#
# Static dielectric constant tensor:
#      x y z
#    x 1.840520 0.000000 0.000000 
#    y 0.000000 1.992780 0.000000 
#    z 0.000000 0.000000 1.896370 
# 
# From -- ./inp_files/80.got.cif
#   From: 2010.05.17/outbox.cif.g08.bks.cpg/sg29_1_cif.got.tgz:80.got - 2010.06.04 01:19:37.
