data_PCOD9340208
_publ_section_title
;
Structure prediction by ZEFSAII (Michael W. Deem and Ramdas Pophale) SiO2 
 PCOD9340208
Probable space group: P C A 21
;
_chemical_formula_sum "Si O2"
_cell_formula_units_Z 32
_cell_length_a 14.631267
_cell_length_b 9.266266
_cell_length_c 10.844388
_cell_angle_alpha 90.000000
_cell_angle_beta 90.000000
_cell_angle_gamma 90.000000
_cell_volume 1470.251890
_symmetry_space_group_name_H-M "P C A 21"
_symmetry_group_IT_number 29
_symmetry_cell_setting 'orthorhombic'
loop_
_space_group_symop_operation_xyz
x,y,z
-x,-y,1/2+z
1/2-x,y,1/2+z
1/2+x,-y,z
loop_
_atom_site_type_symbol
_atom_site_label
_atom_site_fract_x
_atom_site_fract_y
_atom_site_fract_z
Si Si1 0.390887 0.933709 0.136540
Si Si2 0.979304 0.534609 0.242767
Si Si3 0.936160 0.754011 0.039133
Si Si4 0.913688 0.283379 0.916467
Si Si5 0.274567 0.800664 0.740532
Si Si6 0.406528 0.756103 0.356625
Si Si7 0.185419 0.489877 0.150063
Si Si8 0.708196 0.575142 0.413940
O O1 0.281426 0.916501 0.161743
O O2 0.436197 0.886179 0.265935
O O3 0.414629 0.091383 0.093704
O O4 0.419665 0.812304 0.037355
O O5 0.998013 0.640800 0.358254
O O6 0.077717 0.487597 0.184135
O O7 0.930919 0.627661 0.139092
O O8 0.928956 0.393321 0.288620
O O9 0.862910 0.704556 0.937583
O O10 0.037383 0.757418 0.981133
O O11 0.870268 0.182140 0.808741
O O12 0.847814 0.423900 0.931049
O O13 0.202446 0.770925 0.852706
O O14 0.285159 0.657484 0.658654
O O15 0.214614 0.425823 0.019187
O O16 0.234707 0.420162 0.270148
#
# Coordination Sequence:
#
# PCOD9340208 Si02
#       8
#     4   4   4   4   4   4   4   4
#     4  10  23  38  59  84 130 162 194 255 309 373
#     4  10  22  35  65  94 114 158 216 252 314 359
#     4  12  23  39  62  90 129 161 201 259 317 370
#     4  10  19  39  64  87 115 164 209 254 301 366
#     4   8  19  34  61  85 112 159 206 238 303 369
#     4  10  21  41  60  91 122 159 204 254 303 369
#     4  10  19  37  65  90 116 158 211 260 309 361
#     4  10  20  39  60  91 116 157 207 264 308 357
#
# _framework density 21.764979
#
# number of rings (size 3 to 8) (size 9 to 14) (size 15 to 20)
#    0.750    1.500    3.750    1.500    5.250    0.000 
#    2.250    0.000    2.750    0.000    0.000    0.000 
#    0.000    0.000    0.000    0.000    0.000    0.000 
#
# Total GULP energy -178518.336747 kJ/mol
# GULP energy per Si atom -5578.698023 kJ/mol
# Density = 2.171544 g / cm^3
# Si number density = 21.764979 Si / 1000 Ang^3
#
#
#
# Elastic Constant Matrix: (Units=GPa)
#
#
# Indices 1 2 3 4 5 6 
#
# 1 26.6916 11.2866 4.1987 0.0000 0.0000 0.0000
# 2 11.2866 79.5956 23.8739 0.0000 0.0000 0.0000
# 3 4.1987 23.8739 79.9531 0.0000 0.0000 0.0000
# 4 0.0000 0.0000 0.0000 29.0617 0.0000 0.0000
# 5 0.0000 0.0000 0.0000 0.0000 24.8031 0.0000
# 6 0.0000 0.0000 0.0000 0.0000 0.0000 17.3028
#
#
#
# Elastic Compliance Matrix: (Units=1/GPa)
#
#
# Indices 1 2 3 4 5 6 
#
# 1 0.039869 -0.005520 -0.000446 0.000000 0.000000 0.000000
# 2 -0.005520 0.014564 -0.004059 0.000000 0.000000 0.000000
# 3 -0.000446 -0.004059 0.013743 0.000000 0.000000 0.000000
# 4 0.000000 0.000000 0.000000 0.034410 0.000000 0.000000
# 5 0.000000 0.000000 0.000000 0.000000 0.040318 0.000000
# 6 0.000000 0.000000 0.000000 0.000000 0.000000 0.057794
#
#
# Mechanical properties :
#
#
# Convention : Reuss Voigt Hill
#
# Bulk Modulus (GPa) = 20.77827 29.43985 25.10906
# Shear Modulus (GPa) = 21.11602 24.02560 22.57081
#
# Velocity S-wave (km/s) = 3.11816 3.32605 3.22378
# Velocity P-wave (km/s) = 4.74671 5.32032 5.04168
#
# Compressibility (1/GPa) = 0.04812720
#
# Stress axis : x y z
#
# Youngs Moduli (GPa) = 25.08207 68.66433 72.76606
#
# Poissons Ratio (x) = 0.37901 0.03242
# Poissons Ratio (y) = 0.13845 0.29534
# Poissons Ratio (z) = 0.01117 0.27869
#
# Static dielectric constant tensor:
#      x y z
#    x 1.860390 0.000000 0.000000 
#    y 0.000000 1.744260 0.000000 
#    z 0.000000 0.000000 1.871380 
# 
# From -- ./inp_files/3688.got.cif
#   From: 2010.05.17/outbox.cif.g08.bks.cpg/sg29_2_cif.got.tgz:3688.got - 2010.06.04 01:19:37.
