data_PCOD9340227
_publ_section_title
;
Structure prediction by ZEFSAII (Michael W. Deem and Ramdas Pophale) SiO2 
 PCOD9340227
Probable space group: P C A 21
;
_chemical_formula_sum "Si O2"
_cell_formula_units_Z 28
_cell_length_a 25.855999
_cell_length_b 7.550391
_cell_length_c 5.370273
_cell_angle_alpha 90.000000
_cell_angle_beta 90.000000
_cell_angle_gamma 90.000000
_cell_volume 1048.400280
_symmetry_space_group_name_H-M "P C A 21"
_symmetry_group_IT_number 29
_symmetry_cell_setting 'orthorhombic'
loop_
_space_group_symop_operation_xyz
x,y,z
-x,-y,1/2+z
1/2-x,y,1/2+z
1/2+x,-y,z
loop_
_atom_site_type_symbol
_atom_site_label
_atom_site_fract_x
_atom_site_fract_y
_atom_site_fract_z
Si Si1 0.232057 0.759818 0.169200
Si Si2 0.618445 0.270282 0.101657
Si Si3 0.934819 0.489510 0.227221
Si Si4 0.884311 0.756689 0.891409
Si Si5 0.483416 0.780095 0.915697
Si Si6 0.269475 0.167932 0.074712
Si Si7 0.082580 0.056175 0.885619
O O1 0.263133 0.675940 0.396059
O O2 0.172148 0.742767 0.243047
O O3 0.253637 0.959962 0.118045
O O4 0.568808 0.210499 0.259880
O O5 0.620105 0.110694 0.902583
O O6 0.605056 0.445066 0.946527
O O7 0.904708 0.563742 0.983997
O O8 0.979048 0.627716 0.302600
O O9 0.964649 0.306881 0.172506
O O10 0.824327 0.792353 0.947382
O O11 0.911140 0.875852 0.104921
O O12 0.898676 0.817273 0.614186
O O13 0.520820 0.947146 0.930586
O O14 0.268658 0.238362 0.357684
#
# Coordination Sequence:
#
# PCOD9340227 Si02
#       7
#     4   4   4   4   4   4   4
#     4  10  22  42  67  98 138 179 237 306 371 423
#     4  12  27  43  73 110 144 197 244 315 373 435
#     4  11  25  45  69 101 149 200 238 292 371 461
#     4  11  24  46  72 104 142 195 238 299 375 446
#     4  11  25  44  70  98 149 193 235 288 366 450
#     4  10  19  38  68  98 132 176 237 298 361 429
#     4  11  26  42  73 107 144 184 249 302 361 442
#
# _framework density 26.707356000000001
#
# number of rings (size 3 to 8) (size 9 to 14) (size 15 to 20)
#    0.000    1.143    1.429    5.143   10.000    0.000 
#    0.000    1.429    0.000    0.000    0.000    0.000 
#    0.000    0.000    0.000    0.000    0.000    0.000 
#
# Total GULP energy -156555.360445 kJ/mol
# GULP energy per Si atom -5591.262873 kJ/mol
# Density = 2.664657 g / cm^3
# Si number density = 26.707356 Si / 1000 Ang^3
#
#
#
# Elastic Constant Matrix: (Units=GPa)
#
#
# Indices 1 2 3 4 5 6 
#
# 1 152.7972 13.3783 19.8656 0.0000 0.0000 0.0000
# 2 13.3783 69.9886 23.1262 0.0000 0.0000 0.0000
# 3 19.8656 23.1262 141.9170 0.0000 0.0000 0.0000
# 4 0.0000 0.0000 0.0000 27.4368 0.0000 0.0000
# 5 0.0000 0.0000 0.0000 0.0000 52.1510 0.0000
# 6 0.0000 0.0000 0.0000 0.0000 0.0000 28.8445
#
#
#
# Elastic Compliance Matrix: (Units=1/GPa)
#
#
# Indices 1 2 3 4 5 6 
#
# 1 0.006736 -0.001032 -0.000775 0.000000 0.000000 0.000000
# 2 -0.001032 0.015259 -0.002342 0.000000 0.000000 0.000000
# 3 -0.000775 -0.002342 0.007536 0.000000 0.000000 0.000000
# 4 0.000000 0.000000 0.000000 0.036447 0.000000 0.000000
# 5 0.000000 0.000000 0.000000 0.000000 0.019175 0.000000
# 6 0.000000 0.000000 0.000000 0.000000 0.000000 0.034669
#
#
# Mechanical properties :
#
#
# Convention : Reuss Voigt Hill
#
# Bulk Modulus (GPa) = 47.09343 53.04921 50.07132
# Shear Modulus (GPa) = 36.98294 42.24198 39.61246
#
# Velocity S-wave (km/s) = 3.72526 3.98132 3.85542
# Velocity P-wave (km/s) = 6.01455 6.40631 6.21352
#
# Compressibility (1/GPa) = 0.02123439
#
# Stress axis : x y z
#
# Youngs Moduli (GPa) = 148.46337 65.53452 132.68773
#
# Poissons Ratio (x) = 0.06760 0.10280
# Poissons Ratio (y) = 0.15314 0.31078
# Poissons Ratio (z) = 0.11502 0.15349
#
# Static dielectric constant tensor:
#      x y z
#    x 2.063980 0.000000 0.000000 
#    y 0.000000 2.330620 0.000000 
#    z 0.000000 0.000000 2.205690 
# 
# From -- ./inp_files/673.got.cif
#   From: 2010.05.17/outbox.cif.g08.bks.cpg/sg29_1_cif.got.tgz:673.got - 2010.06.04 01:19:37.
