data_PCOD9340277
_publ_section_title
;
Structure prediction by ZEFSAII (Michael W. Deem and Ramdas Pophale) SiO2 
 PCOD9340277
Probable space group: P C A 21
;
_chemical_formula_sum "Si O2"
_cell_formula_units_Z 32
_cell_length_a 9.324974
_cell_length_b 8.302395
_cell_length_c 15.567656
_cell_angle_alpha 90.000000
_cell_angle_beta 90.000000
_cell_angle_gamma 90.000000
_cell_volume 1205.241973
_symmetry_space_group_name_H-M "P C A 21"
_symmetry_group_IT_number 29
_symmetry_cell_setting 'orthorhombic'
loop_
_space_group_symop_operation_xyz
x,y,z
-x,-y,1/2+z
1/2-x,y,1/2+z
1/2+x,-y,z
loop_
_atom_site_type_symbol
_atom_site_label
_atom_site_fract_x
_atom_site_fract_y
_atom_site_fract_z
Si Si1 0.186652 0.965512 0.827200
Si Si2 0.418204 0.362911 0.983803
Si Si3 0.965432 0.153523 0.623160
Si Si4 0.706021 0.143928 0.498679
Si Si5 0.081798 0.137090 0.245043
Si Si6 0.813346 0.465511 0.401647
Si Si7 0.034567 0.653529 0.605686
Si Si8 0.793981 0.356067 0.730169
O O1 0.020280 0.912315 0.826253
O O2 0.253280 0.814045 0.775714
O O3 0.255195 0.112655 0.774167
O O4 0.253272 0.974376 0.921951
O O5 0.436568 0.204159 0.042401
O O6 0.486858 0.500018 0.046443
O O7 0.255197 0.387347 0.954680
O O8 0.520280 0.412321 0.902593
O O9 0.813825 0.116180 0.576835
O O10 0.944741 0.307010 0.687731
O O11 0.986861 0.000014 0.682404
O O12 0.746727 0.314040 0.453135
O O13 0.555260 0.192987 0.541114
O O14 0.063438 0.295840 0.186443
O O15 0.746725 0.474371 0.306897
O O16 0.186171 0.616190 0.652015
#
# Coordination Sequence:
#
# PCOD9340277 Si02
#       8
#     4   4   4   4   4   4   4   4
#     4   9  18  33  53  77 106 138 178 219 261 312
#     4  10  20  34  54  80 108 142 178 218 262 310
#     4   9  18  33  56  80 104 138 180 218 258 312
#     4   8  16  34  55  72 102 151 180 196 257 345
#     4  10  20  34  54  80 108 142 178 218 262 310
#     4   9  18  33  53  77 106 138 178 219 261 312
#     4   9  18  33  56  80 104 138 180 218 258 312
#     4   8  16  34  55  72 102 151 180 196 257 345
#
# _framework density 26.550685999999999
#
# number of rings (size 3 to 8) (size 9 to 14) (size 15 to 20)
#    0.000    3.000    0.000    1.500    0.000    3.000 
#    0.000    0.000    0.000   27.000    0.000    0.000 
#    0.000    0.000    0.000    0.000    0.000    0.000 
#
# Total GULP energy -178181.913283 kJ/mol
# GULP energy per Si atom -5568.184790 kJ/mol
# Density = 2.649026 g / cm^3
# Si number density = 26.550686 Si / 1000 Ang^3
#
#
#
# Elastic Constant Matrix: (Units=GPa)
#
#
# Indices 1 2 3 4 5 6 
#
# 1 57.0623 -9.8534 12.0898 0.0000 0.0000 0.0000
# 2 -9.8534 43.2389 10.2717 0.0000 0.0000 0.0000
# 3 12.0898 10.2717 105.1012 0.0000 0.0000 0.0000
# 4 0.0000 0.0000 0.0000 49.5708 0.0000 0.0000
# 5 0.0000 0.0000 0.0000 0.0000 29.6890 0.0000
# 6 0.0000 0.0000 0.0000 0.0000 0.0000 15.0034
#
#
#
# Elastic Compliance Matrix: (Units=1/GPa)
#
#
# Indices 1 2 3 4 5 6 
#
# 1 0.018944 0.004949 -0.002663 0.000000 0.000000 0.000000
# 2 0.004949 0.024970 -0.003010 0.000000 0.000000 0.000000
# 3 -0.002663 -0.003010 0.010115 0.000000 0.000000 0.000000
# 4 0.000000 0.000000 0.000000 0.020173 0.000000 0.000000
# 5 0.000000 0.000000 0.000000 0.000000 0.033683 0.000000
# 6 0.000000 0.000000 0.000000 0.000000 0.000000 0.066652
#
#
# Mechanical properties :
#
#
# Convention : Reuss Voigt Hill
#
# Bulk Modulus (GPa) = 19.01767 25.60208 22.30987
# Shear Modulus (GPa) = 25.83848 31.71225 28.77537
#
# Velocity S-wave (km/s) = 3.12296 3.45976 3.29567
# Velocity P-wave (km/s) = 4.49246 5.06198 4.78570
#
# Compressibility (1/GPa) = 0.05258268
#
# Stress axis : x y z
#
# Youngs Moduli (GPa) = 52.78848 40.04778 98.86230
#
# Poissons Ratio (x) = -0.19821 0.26325
# Poissons Ratio (y) = -0.26127 0.29755
# Poissons Ratio (z) = 0.14056 0.12053
#
# Static dielectric constant tensor:
#      x y z
#    x 2.127920 0.000000 0.000000 
#    y 0.000000 2.216780 0.000000 
#    z 0.000000 0.000000 2.154960 
# 
# From -- ./inp_files/5148.got.cif
#   From: 2010.05.17/outbox.cif.g08.bks.cpg/sg29_3_cif.got.tgz:5148.got - 2010.06.04 01:19:37.
