data_PCOD9340412
_publ_section_title
;
Structure prediction by ZEFSAII (Michael W. Deem and Ramdas Pophale) SiO2 
 PCOD9340412
Probable space group: P C A 21
;
_chemical_formula_sum "Si O2"
_cell_formula_units_Z 24
_cell_length_a 15.167756
_cell_length_b 7.938322
_cell_length_c 9.138850
_cell_angle_alpha 90.000000
_cell_angle_beta 90.000000
_cell_angle_gamma 90.000000
_cell_volume 1100.377227
_symmetry_space_group_name_H-M "P C A 21"
_symmetry_group_IT_number 29
_symmetry_cell_setting 'orthorhombic'
loop_
_space_group_symop_operation_xyz
x,y,z
-x,-y,1/2+z
1/2-x,y,1/2+z
1/2+x,-y,z
loop_
_atom_site_type_symbol
_atom_site_label
_atom_site_fract_x
_atom_site_fract_y
_atom_site_fract_z
Si Si1 0.907761 0.881722 0.347040
Si Si2 0.470223 0.875686 0.576071
Si Si3 0.845825 0.853596 0.912254
Si Si4 0.237566 0.966085 0.676744
Si Si5 0.766959 0.581055 0.283400
Si Si6 0.805815 0.358241 0.535583
O O1 0.846523 0.029758 0.281813
O O2 0.847856 0.714331 0.314456
O O3 0.991907 0.876086 0.240622
O O4 0.929913 0.948515 0.509862
O O5 0.555902 0.853840 0.472259
O O6 0.402967 0.719231 0.561668
O O7 0.818382 0.982738 0.782243
O O8 0.816894 0.674071 0.852818
O O9 0.783504 0.897274 0.051174
O O10 0.247036 0.796671 0.588368
O O11 0.792870 0.413904 0.370382
O O12 0.730548 0.517250 0.128083
#
# Coordination Sequence:
#
# PCOD9340412 Si02
#       6
#     4   4   4   4   4   4
#     4  10  23  43  64  93 126 165 213 260 312 377
#     4  11  23  39  64  93 121 158 214 269 309 359
#     4  10  21  41  64  88 120 165 213 256 303 371
#     4  10  20  39  64  86 119 168 216 248 299 381
#     4  11  24  42  62  89 131 170 203 249 323 390
#     4  12  23  38  62  93 125 162 207 260 316 376
#
# _framework density 21.810703
#
# number of rings (size 3 to 8) (size 9 to 14) (size 15 to 20)
#    0.000    1.333    0.000    8.000    0.000    4.000 
#    0.000    5.000    0.000    0.000    0.000    0.000 
#    0.000    0.000    0.000    0.000    0.000    0.000 
#
# Total GULP energy -133821.495535 kJ/mol
# GULP energy per Si atom -5575.895647 kJ/mol
# Density = 2.176106 g / cm^3
# Si number density = 21.810703 Si / 1000 Ang^3
#
#
#
# Elastic Constant Matrix: (Units=GPa)
#
#
# Indices 1 2 3 4 5 6 
#
# 1 87.0251 18.1878 9.8303 0.0000 0.0000 0.0000
# 2 18.1878 89.1273 13.7226 0.0000 0.0000 0.0000
# 3 9.8303 13.7226 92.7226 0.0000 0.0000 0.0000
# 4 0.0000 0.0000 0.0000 37.9987 0.0000 0.0000
# 5 0.0000 0.0000 0.0000 0.0000 40.2769 0.0000
# 6 0.0000 0.0000 0.0000 0.0000 0.0000 28.9904
#
#
#
# Elastic Compliance Matrix: (Units=1/GPa)
#
#
# Indices 1 2 3 4 5 6 
#
# 1 0.012082 -0.002321 -0.000937 0.000000 0.000000 0.000000
# 2 -0.002321 0.011927 -0.001519 0.000000 0.000000 0.000000
# 3 -0.000937 -0.001519 0.011109 0.000000 0.000000 0.000000
# 4 0.000000 0.000000 0.000000 0.026317 0.000000 0.000000
# 5 0.000000 0.000000 0.000000 0.000000 0.024828 0.000000
# 6 0.000000 0.000000 0.000000 0.000000 0.000000 0.034494
#
#
# Mechanical properties :
#
#
# Convention : Reuss Voigt Hill
#
# Bulk Modulus (GPa) = 39.11893 39.15073 39.13483
# Shear Modulus (GPa) = 36.01425 36.59548 36.30487
#
# Velocity S-wave (km/s) = 4.06793 4.10062 4.08431
# Velocity P-wave (km/s) = 6.32761 6.35683 6.34224
#
# Compressibility (1/GPa) = 0.02556307
#
# Stress axis : x y z
#
# Youngs Moduli (GPa) = 82.76812 83.83998 90.01661
#
# Poissons Ratio (x) = 0.19461 0.08438
# Poissons Ratio (y) = 0.19212 0.13675
# Poissons Ratio (z) = 0.07759 0.12736
#
# Static dielectric constant tensor:
#      x y z
#    x 1.829000 0.000000 0.000000 
#    y 0.000000 1.818590 0.000000 
#    z 0.000000 0.000000 1.884240 
# 
# From -- ./inp_files/1754.got.cif
#   From: 2010.05.17/outbox.cif.g08.bks.cpg/sg29_1_cif.got.tgz:1754.got - 2010.06.04 01:19:37.
