data_PCOD9340580
_publ_section_title
;
Structure prediction by ZEFSAII (Michael W. Deem and Ramdas Pophale) SiO2 
 PCOD9340580
Probable space group: P C A 21
;
_chemical_formula_sum "Si O2"
_cell_formula_units_Z 32
_cell_length_a 13.551147
_cell_length_b 8.411162
_cell_length_c 14.075422
_cell_angle_alpha 90.000000
_cell_angle_beta 90.000000
_cell_angle_gamma 90.000000
_cell_volume 1604.329165
_symmetry_space_group_name_H-M "P C A 21"
_symmetry_group_IT_number 29
_symmetry_cell_setting 'orthorhombic'
loop_
_space_group_symop_operation_xyz
x,y,z
-x,-y,1/2+z
1/2-x,y,1/2+z
1/2+x,-y,z
loop_
_atom_site_type_symbol
_atom_site_label
_atom_site_fract_x
_atom_site_fract_y
_atom_site_fract_z
Si Si1 0.613186 0.833363 0.290390
Si Si2 0.110069 0.887643 0.824855
Si Si3 0.616039 0.642927 0.706453
Si Si4 0.719352 0.972877 0.662613
Si Si5 0.605794 0.467367 0.218611
Si Si6 0.761519 0.550992 0.548833
Si Si7 0.222070 0.580789 0.849955
Si Si8 0.263404 0.107228 0.460679
O O1 0.505214 0.903470 0.306995
O O2 0.676006 0.924146 0.209415
O O3 0.602636 0.648581 0.259464
O O4 0.675991 0.851597 0.387111
O O5 0.139079 0.714051 0.861782
O O6 0.168727 0.892589 0.724873
O O7 0.154631 0.018285 0.897288
O O8 0.647797 0.823273 0.687210
O O9 0.501226 0.610165 0.716573
O O10 0.665938 0.556481 0.616280
O O11 0.672116 0.571107 0.798050
O O12 0.728921 0.998934 0.550549
O O13 0.652014 0.480541 0.113743
O O14 0.684337 0.375905 0.284710
O O15 0.740207 0.458224 0.453757
O O16 0.791166 0.728553 0.513814
#
# Coordination Sequence:
#
# PCOD9340580 Si02
#       8
#     4   4   4   4   4   4   4   4
#     4  11  20  40  63  88 122 163 202 256 314 360
#     4  11  25  37  63  94 124 166 205 254 310 376
#     4  10  21  38  64  90 114 166 207 250 314 366
#     4  10  22  44  64  84 129 168 201 254 311 376
#     4  11  21  38  66  90 119 160 212 258 313 360
#     4  10  21  40  63  87 122 161 207 257 308 368
#     4  11  21  38  60  90 126 150 205 269 297 362
#     4  10  21  41  63  87 124 168 203 246 319 376
#
# _framework density 19.946031999999999
#
# number of rings (size 3 to 8) (size 9 to 14) (size 15 to 20)
#    0.000    1.500    6.250    0.750    0.000    8.000 
#    0.000    1.250    0.000    0.000    0.000    0.000 
#    0.000    0.000    0.000    0.000    0.000    0.000 
#
# Total GULP energy -178626.817629 kJ/mol
# GULP energy per Si atom -5582.088051 kJ/mol
# Density = 1.990063 g / cm^3
# Si number density = 19.946032 Si / 1000 Ang^3
#
#
#
# Elastic Constant Matrix: (Units=GPa)
#
#
# Indices 1 2 3 4 5 6 
#
# 1 139.8961 18.1807 36.8852 0.0000 0.0000 0.0000
# 2 18.1807 15.1365 6.3855 0.0000 0.0000 0.0000
# 3 36.8852 6.3855 132.7117 0.0000 0.0000 0.0000
# 4 0.0000 0.0000 0.0000 -1.3051 0.0000 0.0000
# 5 0.0000 0.0000 0.0000 0.0000 11.8075 0.0000
# 6 0.0000 0.0000 0.0000 0.0000 0.0000 22.9437
#
#
#
# Elastic Compliance Matrix: (Units=1/GPa)
#
#
# Indices 1 2 3 4 5 6 
#
# 1 0.008969 -0.009923 -0.002015 0.000000 0.000000 0.000000
# 2 -0.009923 0.078412 -0.001015 0.000000 0.000000 0.000000
# 3 -0.002015 -0.001015 0.008144 0.000000 0.000000 0.000000
# 4 0.000000 0.000000 0.000000 -0.766228 0.000000 0.000000
# 5 0.000000 0.000000 0.000000 0.000000 0.084692 0.000000
# 6 0.000000 0.000000 0.000000 0.000000 0.000000 0.043585
#
#
# Mechanical properties :
#
#
# Convention : Reuss Voigt Hill
#
# Bulk Modulus (GPa) = 14.36393 45.62745 29.99569
# Shear Modulus (GPa) = -10.13553 21.77543 5.81995
#
# Velocity S-wave (km/s) = -2.25666 3.30770 1.71002
# Velocity P-wave (km/s) = 0.65346 6.12478 4.35545
#
# Compressibility (1/GPa) = 0.06961885
#
# Stress axis : x y z
#
# Youngs Moduli (GPa) = 111.49419 12.75321 122.78805
#
# Poissons Ratio (x) = 0.12655 0.24747
# Poissons Ratio (y) = 1.10632 0.12462
# Poissons Ratio (z) = 0.22470 0.01294
#
# Static dielectric constant tensor:
#      x y z
#    x 1.667630 0.000000 0.000000 
#    y 0.000000 1.764120 0.000000 
#    z 0.000000 0.000000 1.701540 
# 
# From -- ./inp_files/4546.got.cif
#   From: 2010.05.17/outbox.cif.g08.bks.cpg/sg29_3_cif.got.tgz:4546.got - 2010.06.04 01:19:37.
