data_PCOD9340179
_publ_section_title
;
Structure prediction by ZEFSAII (Michael W. Deem and Ramdas Pophale) SiO2 
 PCOD9340179
Probable space group: P C A 21
;
_chemical_formula_sum "Si O2"
_cell_formula_units_Z 32
_cell_length_a 13.986522
_cell_length_b 5.372501
_cell_length_c 17.058003
_cell_angle_alpha 90.000000
_cell_angle_beta 90.000000
_cell_angle_gamma 90.000000
_cell_volume 1281.782755
_symmetry_space_group_name_H-M "P C A 21"
_symmetry_group_IT_number 29
_symmetry_cell_setting 'orthorhombic'
loop_
_space_group_symop_operation_xyz
x,y,z
-x,-y,1/2+z
1/2-x,y,1/2+z
1/2+x,-y,z
loop_
_atom_site_type_symbol
_atom_site_label
_atom_site_fract_x
_atom_site_fract_y
_atom_site_fract_z
Si Si1 0.829239 0.246748 0.426560
Si Si2 0.392666 0.504999 0.281963
Si Si3 0.015160 0.467499 0.033178
Si Si4 0.680993 0.656053 0.142255
Si Si5 0.059654 0.118855 0.256572
Si Si6 0.432885 0.152233 0.146946
Si Si7 0.005910 0.140689 0.897015
Si Si8 0.777157 0.156402 0.078300
O O1 0.814589 0.380506 0.342243
O O2 0.742418 0.200646 0.485997
O O3 0.903242 0.409195 0.478485
O O4 0.893926 0.002913 0.411736
O O5 0.459957 0.729683 0.254679
O O6 0.372023 0.313890 0.211000
O O7 0.465243 0.355541 0.337430
O O8 0.971002 0.260946 0.976922
O O9 0.948419 0.675990 0.070662
O O10 0.075280 0.362336 0.104687
O O11 0.652624 0.731049 0.230468
O O12 0.732879 0.396056 0.123100
O O13 0.725682 0.895077 0.099457
O O14 0.032671 0.903866 0.192588
O O15 0.065507 0.026945 0.346197
O O16 0.379433 0.908273 0.115471
#
# Coordination Sequence:
#
# PCOD9340179 Si02
#       8
#     4   4   4   4   4   4   4   4
#     4   9  18  37  60  92 129 185 223 273 341 439
#     4   9  19  35  63  93 126 171 236 277 349 415
#     4  10  19  35  63  96 131 168 235 284 337 409
#     4  11  22  40  64  97 132 184 231 283 344 424
#     4  10  20  37  65  95 129 177 237 284 343 417
#     4  11  23  37  63 106 135 178 234 310 349 413
#     4   9  18  34  62  96 124 169 231 281 336 410
#     4  11  25  39  64 101 142 180 229 288 363 421
#
# _framework density 24.965229000000001
#
# number of rings (size 3 to 8) (size 9 to 14) (size 15 to 20)
#    0.000    2.000    2.500    1.500    3.500    0.000 
#    0.000    0.000    0.000   16.500    0.000    0.000 
#    0.000    0.000    0.000    0.000    0.000    0.000 
#
# Total GULP energy -178684.767141 kJ/mol
# GULP energy per Si atom -5583.898973 kJ/mol
# Density = 2.490841 g / cm^3
# Si number density = 24.965229 Si / 1000 Ang^3
#
#
#
# Elastic Constant Matrix: (Units=GPa)
#
#
# Indices 1 2 3 4 5 6 
#
# 1 61.5203 27.7027 20.9769 0.0000 0.0000 0.0000
# 2 27.7027 112.5450 54.5506 0.0000 0.0000 0.0000
# 3 20.9769 54.5506 110.7320 0.0000 0.0000 0.0000
# 4 0.0000 0.0000 0.0000 58.2240 0.0000 0.0000
# 5 0.0000 0.0000 0.0000 0.0000 25.9360 0.0000
# 6 0.0000 0.0000 0.0000 0.0000 0.0000 35.7489
#
#
#
# Elastic Compliance Matrix: (Units=1/GPa)
#
#
# Indices 1 2 3 4 5 6 
#
# 1 0.018510 -0.003753 -0.001658 0.000000 0.000000 0.000000
# 2 -0.003753 0.012433 -0.005414 0.000000 0.000000 0.000000
# 3 -0.001658 -0.005414 0.012012 0.000000 0.000000 0.000000
# 4 0.000000 0.000000 0.000000 0.017175 0.000000 0.000000
# 5 0.000000 0.000000 0.000000 0.000000 0.038556 0.000000
# 6 0.000000 0.000000 0.000000 0.000000 0.000000 0.027973
#
#
# Mechanical properties :
#
#
# Convention : Reuss Voigt Hill
#
# Bulk Modulus (GPa) = 46.93510 54.58419 50.75964
# Shear Modulus (GPa) = 32.17275 36.08623 34.12949
#
# Velocity S-wave (km/s) = 3.59374 3.80604 3.70142
# Velocity P-wave (km/s) = 6.00508 6.42076 6.21640
#
# Compressibility (1/GPa) = 0.02130602
#
# Stress axis : x y z
#
# Youngs Moduli (GPa) = 54.02516 80.42913 83.24939
#
# Poissons Ratio (x) = 0.30182 0.13801
# Poissons Ratio (y) = 0.20274 0.45073
# Poissons Ratio (z) = 0.08956 0.43546
#
# Static dielectric constant tensor:
#      x y z
#    x 2.009620 0.000000 0.000000 
#    y 0.000000 2.128340 0.000000 
#    z 0.000000 0.000000 2.084680 
# 
# From -- ./inp_files/5270.got.cif
#   From: 2010.05.17/outbox.cif.g08.bks.cpg/sg29_3_cif.got.tgz:5270.got - 2010.06.04 01:19:37.
