data_PCOD9340133
_publ_section_title
;
Structure prediction by ZEFSAII (Michael W. Deem and Ramdas Pophale) SiO2 
 PCOD9340133
Probable space group: P C A 21
;
_chemical_formula_sum "Si O2"
_cell_formula_units_Z 20
_cell_length_a 18.717783
_cell_length_b 9.334055
_cell_length_c 5.295658
_cell_angle_alpha 90.000000
_cell_angle_beta 90.000000
_cell_angle_gamma 90.000000
_cell_volume 925.219322
_symmetry_space_group_name_H-M "P C A 21"
_symmetry_group_IT_number 29
_symmetry_cell_setting 'orthorhombic'
loop_
_space_group_symop_operation_xyz
x,y,z
-x,-y,1/2+z
1/2-x,y,1/2+z
1/2+x,-y,z
loop_
_atom_site_type_symbol
_atom_site_label
_atom_site_fract_x
_atom_site_fract_y
_atom_site_fract_z
Si Si1 0.423445 0.905683 0.201080
Si Si2 0.459158 0.452127 0.053832
Si Si3 0.709778 0.908316 0.524868
Si Si4 0.973257 0.168815 0.700767
Si Si5 0.205836 0.437301 0.545738
O O1 0.415967 0.836019 0.475390
O O2 0.358288 0.002350 0.111888
O O3 0.490829 0.013233 0.230670
O O4 0.441529 0.797616 0.974785
O O5 0.504171 0.522403 0.282500
O O6 0.468133 0.283320 0.117801
O O7 0.375664 0.490152 0.052225
O O8 0.730438 0.942558 0.236789
O O9 0.700286 0.736820 0.541878
O O10 0.249123 0.478999 0.293767
#
# Coordination Sequence:
#
# PCOD9340133 Si02
#       5
#     4   4   4   4   4
#     4  10  19  35  57  81 119 142 181 236 286 365
#     4  12  24  40  63  90 122 158 210 257 291 357
#     4  10  19  32  56  86 116 148 186 239 297 353
#     4  10  21  35  56  84 112 151 183 231 300 333
#     4  10  21  38  60  87 119 151 198 255 306 350
#
# _framework density 21.616492999999998
#
# number of rings (size 3 to 8) (size 9 to 14) (size 15 to 20)
#    0.000    1.600    2.000    3.600    0.000    0.000 
#    0.000    0.000    0.000   24.000    0.000    0.000 
#    0.000    0.000    0.000    0.000    0.000    0.000 
#
# Total GULP energy -111650.518666 kJ/mol
# GULP energy per Si atom -5582.525933 kJ/mol
# Density = 2.156729 g / cm^3
# Si number density = 21.616493 Si / 1000 Ang^3
#
#
#
# Elastic Constant Matrix: (Units=GPa)
#
#
# Indices 1 2 3 4 5 6 
#
# 1 122.9657 9.1592 63.4039 0.0000 0.0000 0.0000
# 2 9.1592 20.3242 26.4969 0.0000 0.0000 0.0000
# 3 63.4039 26.4969 141.5674 0.0000 0.0000 0.0000
# 4 0.0000 0.0000 0.0000 22.1151 0.0000 0.0000
# 5 0.0000 0.0000 0.0000 0.0000 29.1283 0.0000
# 6 0.0000 0.0000 0.0000 0.0000 0.0000 22.6726
#
#
#
# Elastic Compliance Matrix: (Units=1/GPa)
#
#
# Indices 1 2 3 4 5 6 
#
# 1 0.010628 0.001873 -0.005111 0.000000 0.000000 0.000000
# 2 0.001873 0.065414 -0.013082 0.000000 0.000000 0.000000
# 3 -0.005111 -0.013082 0.011801 0.000000 0.000000 0.000000
# 4 0.000000 0.000000 0.000000 0.045218 0.000000 0.000000
# 5 0.000000 0.000000 0.000000 0.000000 0.034331 0.000000
# 6 0.000000 0.000000 0.000000 0.000000 0.000000 0.044106
#
#
# Mechanical properties :
#
#
# Convention : Reuss Voigt Hill
#
# Bulk Modulus (GPa) = 18.11473 53.66415 35.88944
# Shear Modulus (GPa) = 19.04481 27.16969 23.10725
#
# Velocity S-wave (km/s) = 2.97144 3.54912 3.27305
# Velocity P-wave (km/s) = 4.49119 6.45558 5.56081
#
# Compressibility (1/GPa) = 0.05520368
#
# Stress axis : x y z
#
# Youngs Moduli (GPa) = 94.09165 15.28725 84.73689
#
# Poissons Ratio (x) = -0.02864 0.43305
# Poissons Ratio (y) = -0.17625 1.10856
# Poissons Ratio (z) = 0.48086 0.19999
#
# Static dielectric constant tensor:
#      x y z
#    x 1.744440 0.000000 0.000000 
#    y 0.000000 1.801500 0.000000 
#    z 0.000000 0.000000 1.807580 
# 
# From -- ./inp_files/157.got.cif
#   From: 2010.05.17/outbox.cif.g08.bks.cpg/sg29_1_cif.got.tgz:157.got - 2010.06.04 01:19:37.
