data_PCOD9340313
_publ_section_title
;
Structure prediction by ZEFSAII (Michael W. Deem and Ramdas Pophale) SiO2 
 PCOD9340313
Probable space group: P C A 21
;
_chemical_formula_sum "Si O2"
_cell_formula_units_Z 32
_cell_length_a 17.846489
_cell_length_b 14.386675
_cell_length_c 5.369568
_cell_angle_alpha 90.000000
_cell_angle_beta 90.000000
_cell_angle_gamma 90.000000
_cell_volume 1378.645375
_symmetry_space_group_name_H-M "P C A 21"
_symmetry_group_IT_number 29
_symmetry_cell_setting 'orthorhombic'
loop_
_space_group_symop_operation_xyz
x,y,z
-x,-y,1/2+z
1/2-x,y,1/2+z
1/2+x,-y,z
loop_
_atom_site_type_symbol
_atom_site_label
_atom_site_fract_x
_atom_site_fract_y
_atom_site_fract_z
Si Si1 0.487411 0.883706 0.877120
Si Si2 0.420158 0.076691 0.872672
Si Si3 0.570267 0.277756 0.090177
Si Si4 0.784092 0.403994 0.139278
Si Si5 0.435685 0.567289 0.943893
Si Si6 0.941934 0.640109 0.768099
Si Si7 0.799151 0.771792 0.793657
Si Si8 0.775203 0.194572 0.532218
O O1 0.545207 0.898234 0.644607
O O2 0.452817 0.783706 0.828505
O O3 0.425716 0.965078 0.859581
O O4 0.526806 0.891974 0.142764
O O5 0.343092 0.129851 0.821127
O O6 0.593333 0.377044 0.203048
O O7 0.500736 0.294813 0.912665
O O8 0.638709 0.219488 0.979307
O O9 0.746269 0.446921 0.382135
O O10 0.873357 0.410902 0.150871
O O11 0.762722 0.295429 0.095605
O O12 0.516897 0.607555 0.014536
O O13 0.436917 0.457813 0.910480
O O14 0.864145 0.693974 0.761453
O O15 0.752545 0.763271 0.049497
O O16 0.737527 0.146255 0.297435
#
# Coordination Sequence:
#
# PCOD9340313 Si02
#       8
#     4   4   4   4   4   4   4   4
#     4  10  22  39  77 105 132 175 224 299 351 441
#     4  10  21  46  70 105 136 170 236 287 363 426
#     4  12  23  41  66  98 134 181 225 300 353 413
#     4  10  20  38  59  84 119 172 211 265 342 403
#     4  12  25  40  68  92 140 184 240 315 340 408
#     4  12  27  43  66 101 134 188 256 295 364 418
#     4  12  28  49  74 102 149 199 240 309 368 443
#     4  10  20  36  56  85 122 167 204 254 339 404
#
# _framework density 23.211189000000001
#
# number of rings (size 3 to 8) (size 9 to 14) (size 15 to 20)
#    0.000    1.000    5.000    3.000    1.750    1.000 
#    0.000    1.250    0.000    0.000    0.000    0.000 
#    0.000    0.000    0.000    0.000    0.000    0.000 
#
# Total GULP energy -178867.391969 kJ/mol
# GULP energy per Si atom -5589.605999 kJ/mol
# Density = 2.315836 g / cm^3
# Si number density = 23.211189 Si / 1000 Ang^3
#
#
#
# Elastic Constant Matrix: (Units=GPa)
#
#
# Indices 1 2 3 4 5 6 
#
# 1 133.8833 38.1571 51.6519 0.0000 0.0000 0.0000
# 2 38.1571 82.6208 25.3836 0.0000 0.0000 0.0000
# 3 51.6519 25.3836 150.8002 0.0000 0.0000 0.0000
# 4 0.0000 0.0000 0.0000 24.9369 0.0000 0.0000
# 5 0.0000 0.0000 0.0000 0.0000 37.9124 0.0000
# 6 0.0000 0.0000 0.0000 0.0000 0.0000 26.9824
#
#
#
# Elastic Compliance Matrix: (Units=1/GPa)
#
#
# Indices 1 2 3 4 5 6 
#
# 1 0.009514 -0.003578 -0.002656 0.000000 0.000000 0.000000
# 2 -0.003578 0.014109 -0.001150 0.000000 0.000000 0.000000
# 3 -0.002656 -0.001150 0.007735 0.000000 0.000000 0.000000
# 4 0.000000 0.000000 0.000000 0.040101 0.000000 0.000000
# 5 0.000000 0.000000 0.000000 0.000000 0.026377 0.000000
# 6 0.000000 0.000000 0.000000 0.000000 0.000000 0.037061
#
#
# Mechanical properties :
#
#
# Convention : Reuss Voigt Hill
#
# Bulk Modulus (GPa) = 60.27653 66.40993 63.34323
# Shear Modulus (GPa) = 32.21789 34.77379 33.49584
#
# Velocity S-wave (km/s) = 3.72967 3.87479 3.80292
# Velocity P-wave (km/s) = 6.67626 6.97796 6.82878
#
# Compressibility (1/GPa) = 0.01659021
#
# Stress axis : x y z
#
# Youngs Moduli (GPa) = 105.11221 70.87722 129.28835
#
# Poissons Ratio (x) = 0.25357 0.34344
# Poissons Ratio (y) = 0.37605 0.14862
# Poissons Ratio (z) = 0.27922 0.08147
#
# Static dielectric constant tensor:
#      x y z
#    x 1.889420 0.000000 0.000000 
#    y 0.000000 1.859710 0.000000 
#    z 0.000000 0.000000 1.986340 
# 
# From -- ./inp_files/460.got.cif
#   From: 2010.05.17/outbox.cif.g08.bks.cpg/sg29_1_cif.got.tgz:460.got - 2010.06.04 01:19:37.
