data_PCOD9340183
_publ_section_title
;
Structure prediction by ZEFSAII (Michael W. Deem and Ramdas Pophale) SiO2 
 PCOD9340183
Probable space group: P C A 21
;
_chemical_formula_sum "Si O2"
_cell_formula_units_Z 32
_cell_length_a 7.719498
_cell_length_b 18.208079
_cell_length_c 12.392136
_cell_angle_alpha 90.000000
_cell_angle_beta 90.000000
_cell_angle_gamma 90.000000
_cell_volume 1741.804303
_symmetry_space_group_name_H-M "P C A 21"
_symmetry_group_IT_number 29
_symmetry_cell_setting 'orthorhombic'
loop_
_space_group_symop_operation_xyz
x,y,z
-x,-y,1/2+z
1/2-x,y,1/2+z
1/2+x,-y,z
loop_
_atom_site_type_symbol
_atom_site_label
_atom_site_fract_x
_atom_site_fract_y
_atom_site_fract_z
Si Si1 0.103210 0.918158 0.407330
Si Si2 0.708227 0.435725 0.469998
Si Si3 0.715257 0.961623 0.035564
Si Si4 0.964917 0.095832 0.658357
Si Si5 0.302025 0.788088 0.512076
Si Si6 0.991877 0.330265 0.370338
Si Si7 0.943260 0.328279 0.119374
Si Si8 0.327404 0.399202 0.458421
O O1 0.943360 0.915417 0.490076
O O2 0.038998 0.911227 0.286044
O O3 0.234326 0.852895 0.434895
O O4 0.192089 0.996433 0.435472
O O5 0.864649 0.396281 0.408365
O O6 0.681273 0.397210 0.586959
O O7 0.522235 0.416371 0.414423
O O8 0.743226 0.521545 0.480733
O O9 0.848729 0.914639 0.104057
O O10 0.646505 0.028101 0.109927
O O11 0.885429 0.171302 0.614532
O O12 0.434908 0.737193 0.446477
O O13 0.142939 0.738465 0.553774
O O14 0.957046 0.314292 0.245191
O O15 0.190173 0.354333 0.388502
O O16 0.125115 0.352959 0.065944
#
# Coordination Sequence:
#
# PCOD9340183 Si02
#       8
#     4   4   4   4   4   4   4   4
#     4  10  19  36  60  79 117 149 185 239 291 335
#     4   9  20  39  59  86 117 140 190 241 287 340
#     4   9  20  34  56  89 112 137 197 240 279 350
#     4  10  19  36  57  84 109 155 184 236 295 331
#     4  10  22  38  56  82 117 151 195 235 279 348
#     4  11  20  41  59  80 119 153 188 241 285 341
#     4   9  22  38  57  85 111 153 194 227 291 346
#     4  10  20  40  58  89 116 144 191 243 285 345
#
# _framework density 18.371753999999999
#
# number of rings (size 3 to 8) (size 9 to 14) (size 15 to 20)
#    0.750    1.500    1.250    1.500    0.000    2.000 
#    4.500    6.250    0.000    0.000    0.000    0.000 
#    0.000    0.000    0.000    0.000    0.000    0.000 
#
# Total GULP energy -178238.040605 kJ/mol
# GULP energy per Si atom -5569.938769 kJ/mol
# Density = 1.832994 g / cm^3
# Si number density = 18.371754 Si / 1000 Ang^3
#
#
#
# Elastic Constant Matrix: (Units=GPa)
#
#
# Indices 1 2 3 4 5 6 
#
# 1 75.3231 3.8647 -6.6106 0.0000 0.0000 0.0000
# 2 3.8647 43.4146 -2.4932 0.0000 0.0000 0.0000
# 3 -6.6106 -2.4932 47.5852 0.0000 0.0000 0.0000
# 4 0.0000 0.0000 0.0000 9.1372 0.0000 0.0000
# 5 0.0000 0.0000 0.0000 0.0000 17.3787 0.0000
# 6 0.0000 0.0000 0.0000 0.0000 0.0000 25.6912
#
#
#
# Elastic Compliance Matrix: (Units=1/GPa)
#
#
# Indices 1 2 3 4 5 6 
#
# 1 0.013492 -0.001097 0.001817 0.000000 0.000000 0.000000
# 2 -0.001097 0.023192 0.001063 0.000000 0.000000 0.000000
# 3 0.001817 0.001063 0.021323 0.000000 0.000000 0.000000
# 4 0.000000 0.000000 0.000000 0.109442 0.000000 0.000000
# 5 0.000000 0.000000 0.000000 0.000000 0.057542 0.000000
# 6 0.000000 0.000000 0.000000 0.000000 0.000000 0.038924
#
#
# Mechanical properties :
#
#
# Convention : Reuss Voigt Hill
#
# Bulk Modulus (GPa) = 16.24085 17.31609 16.77847
# Shear Modulus (GPa) = 17.80159 21.87888 19.84024
#
# Velocity S-wave (km/s) = 3.11620 3.45468 3.28980
# Velocity P-wave (km/s) = 4.66979 5.03577 4.85623
#
# Compressibility (1/GPa) = 0.06157315
#
# Stress axis : x y z
#
# Youngs Moduli (GPa) = 74.11875 43.11759 46.89765
#
# Poissons Ratio (x) = 0.04729 -0.08521
# Poissons Ratio (y) = 0.08129 -0.04984
# Poissons Ratio (z) = -0.13466 -0.04582
#
# Static dielectric constant tensor:
#      x y z
#    x 1.658190 0.000000 0.000000 
#    y 0.000000 1.627640 0.000000 
#    z 0.000000 0.000000 1.600140 
# 
# From -- ./inp_files/2982.got.cif
#   From: 2010.05.17/outbox.cif.g08.bks.cpg/sg29_2_cif.got.tgz:2982.got - 2010.06.04 01:19:37.
