data_PCOD9340881
_publ_section_title
;
Structure prediction by ZEFSAII (Michael W. Deem and Ramdas Pophale) SiO2 
 PCOD9340881
Probable space group: P C A 21
;
_chemical_formula_sum "Si O2"
_cell_formula_units_Z 32
_cell_length_a 17.008254
_cell_length_b 9.193397
_cell_length_c 8.231659
_cell_angle_alpha 90.000000
_cell_angle_beta 90.000000
_cell_angle_gamma 90.000000
_cell_volume 1287.132093
_symmetry_space_group_name_H-M "P C A 21"
_symmetry_group_IT_number 29
_symmetry_cell_setting 'orthorhombic'
loop_
_space_group_symop_operation_xyz
x,y,z
-x,-y,1/2+z
1/2-x,y,1/2+z
1/2+x,-y,z
loop_
_atom_site_type_symbol
_atom_site_label
_atom_site_fract_x
_atom_site_fract_y
_atom_site_fract_z
Si Si1 0.695862 0.991169 0.472580
Si Si2 0.293426 0.794726 0.245444
Si Si3 0.035099 0.281792 0.253462
Si Si4 0.059933 0.199193 0.816296
Si Si5 0.308032 0.263412 0.548897
Si Si6 0.002230 0.430594 0.595439
Si Si7 0.056430 0.944352 0.574071
Si Si8 0.322901 0.599107 0.533923
O O1 0.658651 0.106706 0.613945
O O2 0.752432 0.084232 0.359483
O O3 0.609582 0.982997 0.407986
O O4 0.737269 0.854088 0.554724
O O5 0.329291 0.671536 0.357076
O O6 0.231061 0.707642 0.137357
O O7 0.996556 0.398252 0.124414
O O8 0.035536 0.365217 0.427704
O O9 0.972377 0.152815 0.240145
O O10 0.125687 0.258337 0.190207
O O11 0.147335 0.209447 0.887572
O O12 0.041519 0.359245 0.752414
O O13 0.048356 0.101382 0.659487
O O14 0.007739 0.134469 0.959088
O O15 0.288457 0.434943 0.532130
O O16 0.909419 0.397875 0.605108
#
# Coordination Sequence:
#
# PCOD9340881 Si02
#       8
#     4   4   4   4   4   4   4   4
#     4  11  23  41  63  91 130 176 219 270 334 406
#     4  10  23  39  62  90 124 173 223 271 328 398
#     4  10  22  40  67 100 132 173 222 281 339 408
#     4  11  24  41  64  96 129 170 221 281 338 399
#     4  10  24  44  65  97 138 172 224 289 346 405
#     4  11  21  41  69  97 133 172 219 279 343 404
#     4  11  23  40  62  92 127 171 221 267 332 401
#     4  10  22  42  64  93 131 175 225 280 338 409
#
# _framework density 24.861474000000001
#
# number of rings (size 3 to 8) (size 9 to 14) (size 15 to 20)
#    0.000    1.500    0.000    5.250    0.000   11.000 
#    0.000    6.250    0.000    0.000    0.000    0.000 
#    0.000    0.000    0.000    0.000    0.000    0.000 
#
# Total GULP energy -178388.261922 kJ/mol
# GULP energy per Si atom -5574.633185 kJ/mol
# Density = 2.480489 g / cm^3
# Si number density = 24.861474 Si / 1000 Ang^3
#
#
#
# Elastic Constant Matrix: (Units=GPa)
#
#
# Indices 1 2 3 4 5 6 
#
# 1 84.4442 43.4342 10.4498 0.0000 0.0000 0.0000
# 2 43.4342 116.6768 35.1069 0.0000 0.0000 0.0000
# 3 10.4498 35.1069 79.7582 0.0000 0.0000 0.0000
# 4 0.0000 0.0000 0.0000 37.1193 0.0000 0.0000
# 5 0.0000 0.0000 0.0000 0.0000 34.1312 0.0000
# 6 0.0000 0.0000 0.0000 0.0000 0.0000 43.3205
#
#
#
# Elastic Compliance Matrix: (Units=1/GPa)
#
#
# Indices 1 2 3 4 5 6 
#
# 1 0.014668 -0.005627 0.000555 0.000000 0.000000 0.000000
# 2 -0.005627 0.012038 -0.004561 0.000000 0.000000 0.000000
# 3 0.000555 -0.004561 0.014473 0.000000 0.000000 0.000000
# 4 0.000000 0.000000 0.000000 0.026940 0.000000 0.000000
# 5 0.000000 0.000000 0.000000 0.000000 0.029299 0.000000
# 6 0.000000 0.000000 0.000000 0.000000 0.000000 0.023084
#
#
# Mechanical properties :
#
#
# Convention : Reuss Voigt Hill
#
# Bulk Modulus (GPa) = 45.63777 50.98457 48.31117
# Shear Modulus (GPa) = 33.99684 35.70675 34.85180
#
# Velocity S-wave (km/s) = 3.70192 3.79387 3.74818
# Velocity P-wave (km/s) = 6.05549 6.30423 6.18111
#
# Compressibility (1/GPa) = 0.02191168
#
# Stress axis : x y z
#
# Youngs Moduli (GPa) = 68.17628 83.07023 69.09440
#
# Poissons Ratio (x) = 0.46746 -0.03836
# Poissons Ratio (y) = 0.38365 0.31517
# Poissons Ratio (z) = -0.03785 0.37892
#
# Static dielectric constant tensor:
#      x y z
#    x 1.958650 0.000000 0.000000 
#    y 0.000000 2.067460 0.000000 
#    z 0.000000 0.000000 2.046380 
# 
# From -- ./inp_files/2280.got.cif
#   From: 2010.05.17/outbox.cif.g08.bks.cpg/sg29_2_cif.got.tgz:2280.got - 2010.06.04 01:19:37.
