data_PCOD9340132
_publ_section_title
;
Structure prediction by ZEFSAII (Michael W. Deem and Ramdas Pophale) SiO2 
 PCOD9340132
Probable space group: P C A 21
;
_chemical_formula_sum "Si O2"
_cell_formula_units_Z 28
_cell_length_a 31.322764
_cell_length_b 7.971731
_cell_length_c 5.199562
_cell_angle_alpha 90.000000
_cell_angle_beta 90.000000
_cell_angle_gamma 90.000000
_cell_volume 1298.313207
_symmetry_space_group_name_H-M "P C A 21"
_symmetry_group_IT_number 29
_symmetry_cell_setting 'orthorhombic'
loop_
_space_group_symop_operation_xyz
x,y,z
-x,-y,1/2+z
1/2-x,y,1/2+z
1/2+x,-y,z
loop_
_atom_site_type_symbol
_atom_site_label
_atom_site_fract_x
_atom_site_fract_y
_atom_site_fract_z
Si Si1 0.725491 0.000143 0.752890
Si Si2 0.141040 0.672359 0.360773
Si Si3 0.403708 0.791595 0.371764
Si Si4 0.472722 0.513432 0.483994
Si Si5 0.261040 0.629422 0.800423
Si Si6 0.891427 0.681372 0.658361
Si Si7 0.370878 0.120256 0.167813
O O1 0.757624 0.939911 0.529277
O O2 0.731855 0.203069 0.778371
O O3 0.677015 0.956656 0.678836
O O4 0.123715 0.699630 0.647589
O O5 0.191171 0.689834 0.331999
O O6 0.129699 0.487083 0.266342
O O7 0.119175 0.791925 0.149258
O O8 0.446001 0.681201 0.413067
O O9 0.404477 0.979991 0.266246
O O10 0.504647 0.544723 0.721511
O O11 0.439732 0.374014 0.591197
O O12 0.254485 0.528300 0.543181
O O13 0.871726 0.738228 0.387803
O O14 0.884088 0.813864 0.887452
#
# Coordination Sequence:
#
# PCOD9340132 Si02
#       7
#     4   4   4   4   4   4   4
#     4  10  19  34  56  85 122 169 213 260 302 351
#     4  11  21  41  63  91 124 172 226 260 304 379
#     4  11  22  39  70  96 122 171 217 253 311 398
#     4  11  23  45  72  97 124 164 213 263 321 399
#     4  10  19  32  55  85 116 160 219 272 295 336
#     4  11  25  42  66  95 133 168 203 271 339 383
#     4  12  23  41  64  99 135 170 215 265 326 392
#
# _framework density 21.566445000000002
#
# number of rings (size 3 to 8) (size 9 to 14) (size 15 to 20)
#    0.000    1.143    0.000   10.286    0.000    0.000 
#    0.000    7.143    0.000    1.714    0.000    0.000 
#    0.000    0.000    0.000    0.000    0.000    0.000 
#
# Total GULP energy -156397.236481 kJ/mol
# GULP energy per Si atom -5585.615589 kJ/mol
# Density = 2.151736 g / cm^3
# Si number density = 21.566445 Si / 1000 Ang^3
#
#
#
# Elastic Constant Matrix: (Units=GPa)
#
#
# Indices 1 2 3 4 5 6 
#
# 1 70.2421 8.7763 25.0157 0.0000 0.0000 0.0000
# 2 8.7763 49.8255 9.9446 0.0000 0.0000 0.0000
# 3 25.0157 9.9446 136.9482 0.0000 0.0000 0.0000
# 4 0.0000 0.0000 0.0000 22.3503 0.0000 0.0000
# 5 0.0000 0.0000 0.0000 0.0000 49.5289 0.0000
# 6 0.0000 0.0000 0.0000 0.0000 0.0000 19.9568
#
#
#
# Elastic Compliance Matrix: (Units=1/GPa)
#
#
# Indices 1 2 3 4 5 6 
#
# 1 0.015459 -0.002191 -0.002665 0.000000 0.000000 0.000000
# 2 -0.002191 0.020676 -0.001101 0.000000 0.000000 0.000000
# 3 -0.002665 -0.001101 0.007869 0.000000 0.000000 0.000000
# 4 0.000000 0.000000 0.000000 0.044742 0.000000 0.000000
# 5 0.000000 0.000000 0.000000 0.000000 0.020190 0.000000
# 6 0.000000 0.000000 0.000000 0.000000 0.000000 0.050108
#
#
# Mechanical properties :
#
#
# Convention : Reuss Voigt Hill
#
# Bulk Modulus (GPa) = 31.16266 38.27656 34.71961
# Shear Modulus (GPa) = 27.52471 32.58582 30.05526
#
# Velocity S-wave (km/s) = 3.57637 3.89131 3.73716
# Velocity P-wave (km/s) = 5.61560 6.16250 5.89540
#
# Compressibility (1/GPa) = 0.03208968
#
# Stress axis : x y z
#
# Youngs Moduli (GPa) = 64.68613 48.36577 127.08491
#
# Poissons Ratio (x) = 0.10598 0.33865
# Poissons Ratio (y) = 0.14174 0.13994
# Poissons Ratio (z) = 0.17237 0.05326
#
# Static dielectric constant tensor:
#      x y z
#    x 1.748430 0.000000 0.000000 
#    y 0.000000 1.817050 0.000000 
#    z 0.000000 0.000000 1.887510 
# 
# From -- ./inp_files/878.got.cif
#   From: 2010.05.17/outbox.cif.g08.bks.cpg/sg29_1_cif.got.tgz:878.got - 2010.06.04 01:19:37.
