data_PCOD9340635
_publ_section_title
;
Structure prediction by ZEFSAII (Michael W. Deem and Ramdas Pophale) SiO2 
 PCOD9340635
Probable space group: P C A 21
;
_chemical_formula_sum "Si O2"
_cell_formula_units_Z 32
_cell_length_a 28.135832
_cell_length_b 6.223818
_cell_length_c 8.869792
_cell_angle_alpha 90.000000
_cell_angle_beta 90.000000
_cell_angle_gamma 90.000000
_cell_volume 1553.209657
_symmetry_space_group_name_H-M "P C A 21"
_symmetry_group_IT_number 29
_symmetry_cell_setting 'orthorhombic'
loop_
_space_group_symop_operation_xyz
x,y,z
-x,-y,1/2+z
1/2-x,y,1/2+z
1/2+x,-y,z
loop_
_atom_site_type_symbol
_atom_site_label
_atom_site_fract_x
_atom_site_fract_y
_atom_site_fract_z
Si Si1 0.074620 0.561915 0.327370
Si Si2 0.868044 0.047800 0.828435
Si Si3 0.903093 0.770529 0.093685
Si Si4 0.486478 0.113266 0.322297
Si Si5 0.199726 0.274736 0.735757
Si Si6 0.052850 0.176442 0.147217
Si Si7 0.269939 0.880277 0.752097
Si Si8 0.262410 0.552448 0.500938
O O1 0.122359 0.700315 0.314469
O O2 0.082027 0.410289 0.472012
O O3 0.063612 0.423742 0.178589
O O4 0.030000 0.720631 0.342342
O O5 0.814193 0.977955 0.806735
O O6 0.899746 0.941766 0.699878
O O7 0.888864 0.971832 0.988076
O O8 0.947549 0.814673 0.200893
O O9 0.855405 0.723313 0.188319
O O10 0.461839 0.102010 0.483327
O O11 0.511127 0.896887 0.261808
O O12 0.228343 0.415199 0.610828
O O13 0.206837 0.387740 0.899404
O O14 0.224496 0.037449 0.734600
O O15 0.284122 0.742414 0.604910
O O16 0.263727 0.698672 0.877854
#
# Coordination Sequence:
#
# PCOD9340635 Si02
#       8
#     4   4   4   4   4   4   4   4
#     4  10  21  40  61  84 116 157 200 252 310 366
#     4  10  22  39  61  87 118 158 200 248 309 374
#     4  11  23  39  63  90 121 162 208 254 318 385
#     4  11  22  39  60  87 120 154 199 254 307 374
#     4  11  23  41  63  92 129 169 212 269 321 381
#     4  10  22  38  59  87 117 153 199 247 306 367
#     4  11  22  41  63  88 127 166 205 262 318 369
#     4  10  23  39  62  91 122 165 217 254 311 388
#
# _framework density 20.602498000000001
#
# number of rings (size 3 to 8) (size 9 to 14) (size 15 to 20)
#    0.000    1.500    0.000    6.000    0.000    8.000 
#    0.000    1.250    0.000    0.000    0.000    0.000 
#    0.000    0.000    0.000    0.000    0.000    0.000 
#
# Total GULP energy -178589.624559 kJ/mol
# GULP energy per Si atom -5580.925767 kJ/mol
# Density = 2.055561 g / cm^3
# Si number density = 20.602498 Si / 1000 Ang^3
#
#
#
# Elastic Constant Matrix: (Units=GPa)
#
#
# Indices 1 2 3 4 5 6 
#
# 1 95.3002 7.0615 10.9200 0.0000 0.0000 0.0000
# 2 7.0615 53.4885 8.9343 0.0000 0.0000 0.0000
# 3 10.9200 8.9343 83.0937 0.0000 0.0000 0.0000
# 4 0.0000 0.0000 0.0000 21.4582 0.0000 0.0000
# 5 0.0000 0.0000 0.0000 0.0000 28.7740 0.0000
# 6 0.0000 0.0000 0.0000 0.0000 0.0000 18.8613
#
#
#
# Elastic Compliance Matrix: (Units=1/GPa)
#
#
# Indices 1 2 3 4 5 6 
#
# 1 0.010729 -0.001203 -0.001281 0.000000 0.000000 0.000000
# 2 -0.001203 0.019172 -0.001903 0.000000 0.000000 0.000000
# 3 -0.001281 -0.001903 0.012408 0.000000 0.000000 0.000000
# 4 0.000000 0.000000 0.000000 0.046602 0.000000 0.000000
# 5 0.000000 0.000000 0.000000 0.000000 0.034754 0.000000
# 6 0.000000 0.000000 0.000000 0.000000 0.000000 0.053019
#
#
# Mechanical properties :
#
#
# Convention : Reuss Voigt Hill
#
# Bulk Modulus (GPa) = 29.81899 31.74600 30.78249
# Shear Modulus (GPa) = 25.42784 27.48315 26.45549
#
# Velocity S-wave (km/s) = 3.51695 3.65632 3.58731
# Velocity P-wave (km/s) = 5.56748 5.76777 5.66851
#
# Compressibility (1/GPa) = 0.03353568
#
# Stress axis : x y z
#
# Youngs Moduli (GPa) = 93.20528 52.15862 80.59594
#
# Poissons Ratio (x) = 0.06272 0.10322
# Poissons Ratio (y) = 0.11208 0.15341
# Poissons Ratio (z) = 0.11937 0.09928
#
# Static dielectric constant tensor:
#      x y z
#    x 1.742180 0.000000 0.000000 
#    y 0.000000 1.781310 0.000000 
#    z 0.000000 0.000000 1.751540 
# 
# From -- ./inp_files/2589.got.cif
#   From: 2010.05.17/outbox.cif.g08.bks.cpg/sg29_2_cif.got.tgz:2589.got - 2010.06.04 01:19:37.
