data_PCOD9340701
_publ_section_title
;
Structure prediction by ZEFSAII (Michael W. Deem and Ramdas Pophale) SiO2 
 PCOD9340701
Probable space group: P C A 21
;
_chemical_formula_sum "Si O2"
_cell_formula_units_Z 28
_cell_length_a 25.258957
_cell_length_b 5.535128
_cell_length_c 8.373127
_cell_angle_alpha 90.000000
_cell_angle_beta 90.000000
_cell_angle_gamma 90.000000
_cell_volume 1170.659949
_symmetry_space_group_name_H-M "P C A 21"
_symmetry_group_IT_number 29
_symmetry_cell_setting 'orthorhombic'
loop_
_space_group_symop_operation_xyz
x,y,z
-x,-y,1/2+z
1/2-x,y,1/2+z
1/2+x,-y,z
loop_
_atom_site_type_symbol
_atom_site_label
_atom_site_fract_x
_atom_site_fract_y
_atom_site_fract_z
Si Si1 0.721212 0.818020 0.669670
Si Si2 0.565843 0.179400 0.688931
Si Si3 0.304245 0.559315 0.721743
Si Si4 0.949355 0.744912 0.799589
Si Si5 0.390487 0.326256 0.139406
Si Si6 0.415155 0.749726 0.812859
Si Si7 0.272858 0.847875 0.438959
O O1 0.780189 0.704715 0.686104
O O2 0.672586 0.659776 0.609137
O O3 0.705630 0.929389 0.838851
O O4 0.726773 0.035121 0.545878
O O5 0.509517 0.174971 0.775264
O O6 0.593934 0.431613 0.732128
O O7 0.563193 0.201248 0.493279
O O8 0.596024 0.929648 0.721759
O O9 0.356605 0.634282 0.814897
O O10 0.309959 0.699180 0.554745
O O11 0.254843 0.666893 0.818145
O O12 0.946227 0.471618 0.727804
O O13 0.917092 0.981077 0.737126
O O14 0.925346 0.696108 0.976550
#
# Coordination Sequence:
#
# PCOD9340701 Si02
#       7
#     4   4   4   4   4   4   4
#     4  11  24  42  70 102 146 190 237 293 354 443
#     4  10  21  41  68  96 128 177 235 292 355 424
#     4  11  24  42  70 102 146 190 237 293 354 443
#     4  10  21  41  68  96 128 177 235 292 355 424
#     4  10  23  39  69  98 134 178 226 286 368 418
#     4  10  23  39  69  98 134 178 226 286 368 418
#     4  10  24  40  66  98 146 182 244 280 352 414
#
# _framework density 23.918133999999998
#
# number of rings (size 3 to 8) (size 9 to 14) (size 15 to 20)
#    0.000    1.714    0.000    3.429   16.000    0.000 
#    0.000    8.571    0.000    0.000    0.000    0.000 
#    0.000    0.000    0.000    0.000    0.000    0.000 
#
# Total GULP energy -156043.864530 kJ/mol
# GULP energy per Si atom -5572.995162 kJ/mol
# Density = 2.386370 g / cm^3
# Si number density = 23.918134 Si / 1000 Ang^3
#
#
#
# Elastic Constant Matrix: (Units=GPa)
#
#
# Indices 1 2 3 4 5 6 
#
# 1 64.7038 -5.8577 9.1805 0.0000 0.0000 0.0000
# 2 -5.8577 152.4818 2.5947 0.0000 0.0000 0.0000
# 3 9.1805 2.5947 62.9389 0.0000 0.0000 0.0000
# 4 0.0000 0.0000 0.0000 21.3404 0.0000 0.0000
# 5 0.0000 0.0000 0.0000 0.0000 20.5365 0.0000
# 6 0.0000 0.0000 0.0000 0.0000 0.0000 31.0461
#
#
#
# Elastic Compliance Matrix: (Units=1/GPa)
#
#
# Indices 1 2 3 4 5 6 
#
# 1 0.015845 0.000649 -0.002338 0.000000 0.000000 0.000000
# 2 0.000649 0.006589 -0.000366 0.000000 0.000000 0.000000
# 3 -0.002338 -0.000366 0.016245 0.000000 0.000000 0.000000
# 4 0.000000 0.000000 0.000000 0.046859 0.000000 0.000000
# 5 0.000000 0.000000 0.000000 0.000000 0.048694 0.000000
# 6 0.000000 0.000000 0.000000 0.000000 0.000000 0.032210
#
#
# Mechanical properties :
#
#
# Convention : Reuss Voigt Hill
#
# Bulk Modulus (GPa) = 28.92865 32.43996 30.68430
# Shear Modulus (GPa) = 27.46094 32.86508 30.16301
#
# Velocity S-wave (km/s) = 3.39207 3.71086 3.55504
# Velocity P-wave (km/s) = 5.24048 5.65270 5.45049
#
# Compressibility (1/GPa) = 0.03456781
#
# Stress axis : x y z
#
# Youngs Moduli (GPa) = 63.10950 151.76109 61.55908
#
# Poissons Ratio (x) = -0.09842 0.14393
# Poissons Ratio (y) = -0.04093 0.02255
# Poissons Ratio (z) = 0.14755 0.05558
#
# Static dielectric constant tensor:
#      x y z
#    x 1.943360 0.000000 0.000000 
#    y 0.000000 2.030520 0.000000 
#    z 0.000000 0.000000 1.960970 
# 
# From -- ./inp_files/2401.got.cif
#   From: 2010.05.17/outbox.cif.g08.bks.cpg/sg29_2_cif.got.tgz:2401.got - 2010.06.04 01:19:37.
