data_PCOD9340376
_publ_section_title
;
Structure prediction by ZEFSAII (Michael W. Deem and Ramdas Pophale) SiO2 
 PCOD9340376
Probable space group: P C A 21
;
_chemical_formula_sum "Si O2"
_cell_formula_units_Z 24
_cell_length_a 13.951096
_cell_length_b 7.395481
_cell_length_c 9.331220
_cell_angle_alpha 90.000000
_cell_angle_beta 90.000000
_cell_angle_gamma 90.000000
_cell_volume 962.749234
_symmetry_space_group_name_H-M "P C A 21"
_symmetry_group_IT_number 29
_symmetry_cell_setting 'orthorhombic'
loop_
_space_group_symop_operation_xyz
x,y,z
-x,-y,1/2+z
1/2-x,y,1/2+z
1/2+x,-y,z
loop_
_atom_site_type_symbol
_atom_site_label
_atom_site_fract_x
_atom_site_fract_y
_atom_site_fract_z
Si Si1 0.085600 0.715050 0.305890
Si Si2 0.274509 0.485091 0.646419
Si Si3 0.948510 0.150815 0.277779
Si Si4 0.413356 0.005501 0.570710
Si Si5 0.616885 0.556540 0.858103
Si Si6 0.204922 0.884158 0.551338
O O1 0.147944 0.537587 0.267949
O O2 0.066463 0.821595 0.159719
O O3 0.150691 0.846938 0.402889
O O4 0.985191 0.652222 0.368931
O O5 0.324581 0.412508 0.503935
O O6 0.185111 0.389604 0.724269
O O7 0.237041 0.682394 0.596342
O O8 0.960988 0.028485 0.417308
O O9 0.909282 0.344524 0.330653
O O10 0.868963 0.061447 0.174443
O O11 0.041275 0.155177 0.175245
O O12 0.299183 0.005757 0.545889
#
# Coordination Sequence:
#
# PCOD9340376 Si02
#       6
#     4   4   4   4   4   4
#     4  11  22  39  68  98 131 179 226 276 346 428
#     4  10  20  38  60  94 133 170 220 270 341 409
#     4  11  23  38  66  96 127 178 233 280 335 410
#     4  11  22  42  63  96 133 176 230 281 343 410
#     4  11  23  40  68  99 133 177 231 282 342 415
#     4  10  20  41  67  91 129 182 220 265 343 422
#
# _framework density 24.928609000000002
#
# number of rings (size 3 to 8) (size 9 to 14) (size 15 to 20)
#    0.000    1.333    5.000    3.000    4.667    0.000 
#    0.000    1.667    0.000    4.000    0.000    0.000 
#    0.000    0.000    0.000    0.000    0.000    0.000 
#
# Total GULP energy -134307.488574 kJ/mol
# GULP energy per Si atom -5596.145357 kJ/mol
# Density = 2.487187 g / cm^3
# Si number density = 24.928609 Si / 1000 Ang^3
#
#
#
# Elastic Constant Matrix: (Units=GPa)
#
#
# Indices 1 2 3 4 5 6 
#
# 1 163.2868 26.0784 78.1571 0.0000 0.0000 0.0000
# 2 26.0784 67.2533 20.9556 0.0000 0.0000 0.0000
# 3 78.1571 20.9556 173.9791 0.0000 0.0000 0.0000
# 4 0.0000 0.0000 0.0000 22.6063 0.0000 0.0000
# 5 0.0000 0.0000 0.0000 0.0000 54.0310 0.0000
# 6 0.0000 0.0000 0.0000 0.0000 0.0000 36.0540
#
#
#
# Elastic Compliance Matrix: (Units=1/GPa)
#
#
# Indices 1 2 3 4 5 6 
#
# 1 0.008072 -0.002078 -0.003376 0.000000 0.000000 0.000000
# 2 -0.002078 0.015984 -0.000992 0.000000 0.000000 0.000000
# 3 -0.003376 -0.000992 0.007384 0.000000 0.000000 0.000000
# 4 0.000000 0.000000 0.000000 0.044235 0.000000 0.000000
# 5 0.000000 0.000000 0.000000 0.000000 0.018508 0.000000
# 6 0.000000 0.000000 0.000000 0.000000 0.000000 0.027736
#
#
# Mechanical properties :
#
#
# Convention : Reuss Voigt Hill
#
# Bulk Modulus (GPa) = 53.91306 72.76682 63.33994
# Shear Modulus (GPa) = 35.46266 41.16014 38.31140
#
# Velocity S-wave (km/s) = 3.77579 4.06781 3.92451
# Velocity P-wave (km/s) = 6.37830 7.16353 6.78229
#
# Compressibility (1/GPa) = 0.01854838
#
# Stress axis : x y z
#
# Youngs Moduli (GPa) = 123.88585 62.56259 135.43131
#
# Poissons Ratio (x) = 0.13001 0.45720
# Poissons Ratio (y) = 0.25745 0.13431
# Poissons Ratio (z) = 0.41822 0.06204
#
# Static dielectric constant tensor:
#      x y z
#    x 2.029360 0.000000 0.000000 
#    y 0.000000 1.999630 0.000000 
#    z 0.000000 0.000000 1.971810 
# 
# From -- ./inp_files/1427.got.cif
#   From: 2010.05.17/outbox.cif.g08.bks.cpg/sg29_1_cif.got.tgz:1427.got - 2010.06.04 01:19:37.
