data_PCOD9340360
_publ_section_title
;
Structure prediction by ZEFSAII (Michael W. Deem and Ramdas Pophale) SiO2 
 PCOD9340360
Probable space group: P C A 21
;
_chemical_formula_sum "Si O2"
_cell_formula_units_Z 28
_cell_length_a 17.475644
_cell_length_b 11.197027
_cell_length_c 5.287529
_cell_angle_alpha 90.000000
_cell_angle_beta 90.000000
_cell_angle_gamma 90.000000
_cell_volume 1034.638600
_symmetry_space_group_name_H-M "P C A 21"
_symmetry_group_IT_number 29
_symmetry_cell_setting 'orthorhombic'
loop_
_space_group_symop_operation_xyz
x,y,z
-x,-y,1/2+z
1/2-x,y,1/2+z
1/2+x,-y,z
loop_
_atom_site_type_symbol
_atom_site_label
_atom_site_fract_x
_atom_site_fract_y
_atom_site_fract_z
Si Si1 0.019638 0.077265 0.145810
Si Si2 0.166069 0.571567 0.099428
Si Si3 0.296184 0.811320 0.843439
Si Si4 0.443027 0.679781 0.223976
Si Si5 0.777966 0.637536 0.085533
Si Si6 0.432858 0.434834 0.975727
Si Si7 0.194037 0.069196 0.234317
O O1 0.108454 0.125313 0.185392
O O2 0.962667 0.192300 0.115258
O O3 0.990552 0.004982 0.395475
O O4 0.135528 0.638758 0.852987
O O5 0.240619 0.493122 0.036764
O O6 0.168462 0.681954 0.293368
O O7 0.112673 0.470448 0.221394
O O8 0.228729 0.816208 0.632985
O O9 0.337799 0.931492 0.763264
O O10 0.502762 0.662970 0.454800
O O11 0.463570 0.562967 0.060486
O O12 0.765076 0.699110 0.815573
O O13 0.865688 0.618705 0.148454
O O14 0.247368 0.077531 0.492505
#
# Coordination Sequence:
#
# PCOD9340360 Si02
#       7
#     4   4   4   4   4   4   4
#     4  12  29  51  77 114 152 206 262 318 387 456
#     4  11  22  38  62 100 138 179 230 302 363 439
#     4  10  21  34  61  96 130 173 222 300 366 408
#     4  12  26  44  73  99 153 195 240 311 372 453
#     4  10  20  37  61  93 141 169 228 290 349 444
#     4  11  24  43  64 104 139 186 234 285 379 439
#     4  10  22  45  70 102 145 196 260 314 368 453
#
# _framework density 27.062588000000002
#
# number of rings (size 3 to 8) (size 9 to 14) (size 15 to 20)
#    0.000    1.143    2.857    3.429    6.000    1.143 
#    0.000    2.857    0.000    0.000    0.000    0.000 
#    0.000    0.000    0.000    0.000    0.000    0.000 
#
# Total GULP energy -156339.368199 kJ/mol
# GULP energy per Si atom -5583.548864 kJ/mol
# Density = 2.700099 g / cm^3
# Si number density = 27.062588 Si / 1000 Ang^3
#
#
#
# Elastic Constant Matrix: (Units=GPa)
#
#
# Indices 1 2 3 4 5 6 
#
# 1 97.6230 -5.7959 19.7440 0.0000 0.0000 0.0000
# 2 -5.7959 66.1685 12.5224 0.0000 0.0000 0.0000
# 3 19.7440 12.5224 116.0634 0.0000 0.0000 0.0000
# 4 0.0000 0.0000 0.0000 40.9117 0.0000 0.0000
# 5 0.0000 0.0000 0.0000 0.0000 26.2072 0.0000
# 6 0.0000 0.0000 0.0000 0.0000 0.0000 45.4426
#
#
#
# Elastic Compliance Matrix: (Units=1/GPa)
#
#
# Indices 1 2 3 4 5 6 
#
# 1 0.010719 0.001311 -0.001965 0.000000 0.000000 0.000000
# 2 0.001311 0.015588 -0.001905 0.000000 0.000000 0.000000
# 3 -0.001965 -0.001905 0.009156 0.000000 0.000000 0.000000
# 4 0.000000 0.000000 0.000000 0.024443 0.000000 0.000000
# 5 0.000000 0.000000 0.000000 0.000000 0.038157 0.000000
# 6 0.000000 0.000000 0.000000 0.000000 0.000000 0.022006
#
#
# Mechanical properties :
#
#
# Convention : Reuss Voigt Hill
#
# Bulk Modulus (GPa) = 32.95457 36.97733 34.96595
# Shear Modulus (GPa) = 36.95449 39.40459 38.17954
#
# Velocity S-wave (km/s) = 3.69930 3.81997 3.76012
# Velocity P-wave (km/s) = 5.51816 5.75756 5.63913
#
# Compressibility (1/GPa) = 0.03034480
#
# Stress axis : x y z
#
# Youngs Moduli (GPa) = 93.29504 64.15099 109.22108
#
# Poissons Ratio (x) = -0.08408 0.21460
# Poissons Ratio (y) = -0.12228 0.20805
# Poissons Ratio (z) = 0.18331 0.12220
#
# Static dielectric constant tensor:
#      x y z
#    x 2.309560 0.000000 0.000000 
#    y 0.000000 2.143610 0.000000 
#    z 0.000000 0.000000 2.307470 
# 
# From -- ./inp_files/410.got.cif
#   From: 2010.05.17/outbox.cif.g08.bks.cpg/sg29_1_cif.got.tgz:410.got - 2010.06.04 01:19:37.
