data_PCOD9340734
_publ_section_title
;
Structure prediction by ZEFSAII (Michael W. Deem and Ramdas Pophale) SiO2 
 PCOD9340734
Probable space group: P C A 21
;
_chemical_formula_sum "Si O2"
_cell_formula_units_Z 32
_cell_length_a 13.104432
_cell_length_b 4.947080
_cell_length_c 19.384353
_cell_angle_alpha 90.000000
_cell_angle_beta 90.000000
_cell_angle_gamma 90.000000
_cell_volume 1256.661891
_symmetry_space_group_name_H-M "P C A 21"
_symmetry_group_IT_number 29
_symmetry_cell_setting 'orthorhombic'
loop_
_space_group_symop_operation_xyz
x,y,z
-x,-y,1/2+z
1/2-x,y,1/2+z
1/2+x,-y,z
loop_
_atom_site_type_symbol
_atom_site_label
_atom_site_fract_x
_atom_site_fract_y
_atom_site_fract_z
Si Si1 0.906106 0.695076 0.191900
Si Si2 0.458585 0.199492 0.681235
Si Si3 0.197539 0.889468 0.958046
Si Si4 0.338700 0.460718 0.801963
Si Si5 0.292056 0.986718 0.312719
Si Si6 0.079013 0.612892 0.435398
Si Si7 0.959875 0.915090 0.534666
Si Si8 0.342585 0.206648 0.043977
O O1 0.945659 0.391202 0.200726
O O2 0.849683 0.845511 0.254120
O O3 0.838919 0.687106 0.121833
O O4 0.007395 0.885737 0.184521
O O5 0.375641 0.300806 0.735132
O O6 0.422970 0.237585 0.602770
O O7 0.306776 0.746184 0.943616
O O8 0.150279 0.890294 0.881470
O O9 0.109554 0.825909 0.014119
O O10 0.239810 0.146691 0.002684
O O11 0.280621 0.223675 0.843552
O O12 0.427401 0.551084 0.854367
O O13 0.270518 0.724823 0.786451
O O14 0.091523 0.374461 0.489705
O O15 0.979777 0.769007 0.462006
O O16 0.079907 0.956247 0.555048
#
# Coordination Sequence:
#
# PCOD9340734 Si02
#       8
#     4   4   4   4   4   4   4   4
#     4  11  24  43  66  95 135 175 222 279 338 405
#     4  11  24  44  65  97 134 176 224 274 343 409
#     4  10  23  41  66  96 132 172 229 278 337 411
#     4  11  24  43  68  95 136 178 223 283 344 412
#     4  11  24  44  65  99 132 174 229 274 343 411
#     4  10  21  43  66  94 137 177 222 288 350 400
#     4  10  23  41  65 101 130 177 230 278 339 418
#     4  10  21  43  63  91 136 171 215 282 338 392
#
# _framework density 25.464289999999998
#
# number of rings (size 3 to 8) (size 9 to 14) (size 15 to 20)
#    0.000    1.500    2.500    1.500    3.500    2.000 
#    0.000    0.000    0.000    0.000    0.000    0.000 
#    0.000    0.000    0.000    0.000    0.000    0.000 
#
# Total GULP energy -178177.674478 kJ/mol
# GULP energy per Si atom -5568.052327 kJ/mol
# Density = 2.540633 g / cm^3
# Si number density = 25.464290 Si / 1000 Ang^3
#
#
#
# Elastic Constant Matrix: (Units=GPa)
#
#
# Indices 1 2 3 4 5 6 
#
# 1 48.6193 -0.2359 41.2916 0.0000 0.0000 0.0000
# 2 -0.2359 66.7970 -2.0774 0.0000 0.0000 0.0000
# 3 41.2916 -2.0774 139.5604 0.0000 0.0000 0.0000
# 4 0.0000 0.0000 0.0000 26.2339 0.0000 0.0000
# 5 0.0000 0.0000 0.0000 0.0000 25.8342 0.0000
# 6 0.0000 0.0000 0.0000 0.0000 0.0000 37.0900
#
#
#
# Elastic Compliance Matrix: (Units=1/GPa)
#
#
# Indices 1 2 3 4 5 6 
#
# 1 0.027472 -0.000156 -0.008131 0.000000 0.000000 0.000000
# 2 -0.000156 0.014979 0.000269 0.000000 0.000000 0.000000
# 3 -0.008131 0.000269 0.009575 0.000000 0.000000 0.000000
# 4 0.000000 0.000000 0.000000 0.038119 0.000000 0.000000
# 5 0.000000 0.000000 0.000000 0.000000 0.038708 0.000000
# 6 0.000000 0.000000 0.000000 0.000000 0.000000 0.026961
#
#
# Mechanical properties :
#
#
# Convention : Reuss Voigt Hill
#
# Bulk Modulus (GPa) = 27.78457 36.99259 32.38858
# Shear Modulus (GPa) = 27.19668 32.23149 29.71409
#
# Velocity S-wave (km/s) = 3.27162 3.56160 3.41969
# Velocity P-wave (km/s) = 5.02058 5.61000 5.32345
#
# Compressibility (1/GPa) = 0.03599120
#
# Stress axis : x y z
#
# Youngs Moduli (GPa) = 36.40030 66.76209 104.43942
#
# Poissons Ratio (x) = 0.01040 0.84915
# Poissons Ratio (y) = 0.00567 -0.02810
# Poissons Ratio (z) = 0.29595 -0.01796
#
# Static dielectric constant tensor:
#      x y z
#    x 2.231180 0.000000 0.000000 
#    y 0.000000 2.160830 0.000000 
#    z 0.000000 0.000000 2.094440 
# 
# From -- ./inp_files/5574.got.cif
#   From: 2010.05.17/outbox.cif.g08.bks.cpg/sg29_3_cif.got.tgz:5574.got - 2010.06.04 01:19:37.
