data_PCOD9340671
_publ_section_title
;
Structure prediction by ZEFSAII (Michael W. Deem and Ramdas Pophale) SiO2 
 PCOD9340671
Probable space group: P C A 21
;
_chemical_formula_sum "Si O2"
_cell_formula_units_Z 28
_cell_length_a 10.109374
_cell_length_b 10.114109
_cell_length_c 10.346832
_cell_angle_alpha 90.000000
_cell_angle_beta 90.000000
_cell_angle_gamma 90.000000
_cell_volume 1057.935745
_symmetry_space_group_name_H-M "P C A 21"
_symmetry_group_IT_number 29
_symmetry_cell_setting 'orthorhombic'
loop_
_space_group_symop_operation_xyz
x,y,z
-x,-y,1/2+z
1/2-x,y,1/2+z
1/2+x,-y,z
loop_
_atom_site_type_symbol
_atom_site_label
_atom_site_fract_x
_atom_site_fract_y
_atom_site_fract_z
Si Si1 0.086049 0.927550 0.935830
Si Si2 0.506606 0.523616 0.049676
Si Si3 0.332989 0.184884 0.271357
Si Si4 0.226916 0.330895 0.523206
Si Si5 0.892489 0.292228 0.824047
Si Si6 0.848806 0.081279 0.029293
Si Si7 0.111098 0.704153 0.742104
O O1 0.131797 0.037404 0.826510
O O2 0.078616 0.783328 0.871986
O O3 0.947502 0.963470 0.001610
O O4 0.194762 0.942608 0.049057
O O5 0.662936 0.549982 0.031463
O O6 0.418176 0.394236 0.030894
O O7 0.474078 0.581829 0.192590
O O8 0.438886 0.614987 0.939989
O O9 0.260156 0.255947 0.390863
O O10 0.254638 0.227423 0.142403
O O11 0.476249 0.251292 0.251488
O O12 0.764461 0.341279 0.748581
O O13 0.845677 0.158001 0.893126
O O14 0.902883 0.182330 0.133923
#
# Coordination Sequence:
#
# PCOD9340671 Si02
#       7
#     4   4   4   4   4   4   4
#     4  10  22  39  63  93 138 171 224 281 348 419
#     4  10  24  43  67  98 136 175 238 287 355 411
#     4  10  24  43  66 100 140 178 228 290 359 410
#     4  11  26  45  69  99 140 181 232 301 343 426
#     4   8  19  43  62  91 131 173 226 283 337 420
#     4   9  20  37  59  95 126 172 219 275 334 413
#     4  10  21  40  70  92 131 184 225 283 352 421
#
# _framework density 26.466635
#
# number of rings (size 3 to 8) (size 9 to 14) (size 15 to 20)
#    0.000    2.286    0.000    0.857    8.000    4.571 
#    0.000    0.000    0.000    0.000    0.000    0.000 
#    0.000    0.000    0.000    0.000    0.000    0.000 
#
# Total GULP energy -156584.023595 kJ/mol
# GULP energy per Si atom -5592.286557 kJ/mol
# Density = 2.640640 g / cm^3
# Si number density = 26.466635 Si / 1000 Ang^3
#
#
#
# Elastic Constant Matrix: (Units=GPa)
#
#
# Indices 1 2 3 4 5 6 
#
# 1 106.4943 43.2342 45.1845 0.0000 0.0000 0.0000
# 2 43.2342 93.3787 50.2693 0.0000 0.0000 0.0000
# 3 45.1845 50.2693 79.7824 0.0000 0.0000 0.0000
# 4 0.0000 0.0000 0.0000 55.3964 0.0000 0.0000
# 5 0.0000 0.0000 0.0000 0.0000 32.2671 0.0000
# 6 0.0000 0.0000 0.0000 0.0000 0.0000 44.1733
#
#
#
# Elastic Compliance Matrix: (Units=1/GPa)
#
#
# Indices 1 2 3 4 5 6 
#
# 1 0.012925 -0.003093 -0.005371 0.000000 0.000000 0.000000
# 2 -0.003093 0.016946 -0.008926 0.000000 0.000000 0.000000
# 3 -0.005371 -0.008926 0.021200 0.000000 0.000000 0.000000
# 4 0.000000 0.000000 0.000000 0.018052 0.000000 0.000000
# 5 0.000000 0.000000 0.000000 0.000000 0.030991 0.000000
# 6 0.000000 0.000000 0.000000 0.000000 0.000000 0.022638
#
#
# Mechanical properties :
#
#
# Convention : Reuss Voigt Hill
#
# Bulk Modulus (GPa) = 61.38219 61.89238 61.63729
# Shear Modulus (GPa) = 30.68198 35.76518 33.22358
#
# Velocity S-wave (km/s) = 3.40850 3.68003 3.54687
# Velocity P-wave (km/s) = 6.22359 6.44148 6.33348
#
# Compressibility (1/GPa) = 0.01629137
#
# Stress axis : x y z
#
# Youngs Moduli (GPa) = 77.37141 59.01063 47.16939
#
# Poissons Ratio (x) = 0.18249 0.25336
# Poissons Ratio (y) = 0.23927 0.42103
# Poissons Ratio (z) = 0.41559 0.52673
#
# Static dielectric constant tensor:
#      x y z
#    x 2.083060 0.000000 0.000000 
#    y 0.000000 2.094270 0.000000 
#    z 0.000000 0.000000 2.052700 
# 
# From -- ./inp_files/2886.got.cif
#   From: 2010.05.17/outbox.cif.g08.bks.cpg/sg29_2_cif.got.tgz:2886.got - 2010.06.04 01:19:37.
