data_PCOD9340492
_publ_section_title
;
Structure prediction by ZEFSAII (Michael W. Deem and Ramdas Pophale) SiO2 
 PCOD9340492
Probable space group: P C A 21
;
_chemical_formula_sum "Si O2"
_cell_formula_units_Z 32
_cell_length_a 10.729430
_cell_length_b 15.715266
_cell_length_c 9.769082
_cell_angle_alpha 90.000000
_cell_angle_beta 90.000000
_cell_angle_gamma 90.000000
_cell_volume 1647.222031
_symmetry_space_group_name_H-M "P C A 21"
_symmetry_group_IT_number 29
_symmetry_cell_setting 'orthorhombic'
loop_
_space_group_symop_operation_xyz
x,y,z
-x,-y,1/2+z
1/2-x,y,1/2+z
1/2+x,-y,z
loop_
_atom_site_type_symbol
_atom_site_label
_atom_site_fract_x
_atom_site_fract_y
_atom_site_fract_z
Si Si1 0.906061 0.813587 0.567900
Si Si2 0.629331 0.818972 0.520798
Si Si3 0.467151 0.351082 0.934412
Si Si4 0.336547 0.522387 0.944375
Si Si5 0.580247 0.343081 0.644947
Si Si6 0.948150 0.908636 0.283161
Si Si7 0.163080 0.046648 0.290338
Si Si8 0.839589 0.396088 0.644074
O O1 0.763519 0.781630 0.562647
O O2 0.939181 0.855022 0.422349
O O3 0.894972 0.889447 0.677739
O O4 0.999010 0.737373 0.602591
O O5 0.571085 0.746767 0.426582
O O6 0.553073 0.845139 0.654309
O O7 0.649345 0.904715 0.434497
O O8 0.363013 0.423197 0.933999
O O9 0.548173 0.369258 0.799457
O O10 0.535589 0.360491 0.080131
O O11 0.342530 0.563346 0.793786
O O12 0.432105 0.576662 0.041094
O O13 0.209948 0.537621 0.029126
O O14 0.728849 0.326177 0.641630
O O15 0.814098 0.959981 0.269603
O O16 0.072826 0.965335 0.286322
#
# Coordination Sequence:
#
# PCOD9340492 Si02
#       8
#     4   4   4   4   4   4   4   4
#     4  10  21  41  62  88 127 159 202 261 315 371
#     4  10  23  38  62  93 120 161 208 261 305 386
#     4  12  22  41  63  89 124 165 212 257 309 368
#     4  10  23  39  64  87 125 166 203 260 309 369
#     4  10  21  43  60  87 127 164 199 261 310 361
#     4  10  22  40  64  91 124 161 210 257 320 387
#     4  10  20  43  61  89 126 158 207 261 316 381
#     4  10  22  43  58  92 127 158 213 260 304 375
#
# _framework density 19.426646999999999
#
# number of rings (size 3 to 8) (size 9 to 14) (size 15 to 20)
#    0.750    1.000    2.500    1.500    1.750    2.000 
#    4.500    0.000    0.000    0.000    0.000    0.000 
#    0.000    0.000    0.000    0.000    0.000    0.000 
#
# Total GULP energy -178209.637880 kJ/mol
# GULP energy per Si atom -5569.051184 kJ/mol
# Density = 1.938243 g / cm^3
# Si number density = 19.426647 Si / 1000 Ang^3
#
#
#
# Elastic Constant Matrix: (Units=GPa)
#
#
# Indices 1 2 3 4 5 6 
#
# 1 45.1013 28.3858 0.4584 0.0000 0.0000 0.0000
# 2 28.3858 53.2344 15.6014 0.0000 0.0000 0.0000
# 3 0.4584 15.6014 110.3713 0.0000 0.0000 0.0000
# 4 0.0000 0.0000 0.0000 6.6127 0.0000 0.0000
# 5 0.0000 0.0000 0.0000 0.0000 18.9205 0.0000
# 6 0.0000 0.0000 0.0000 0.0000 0.0000 29.4440
#
#
#
# Elastic Compliance Matrix: (Units=1/GPa)
#
#
# Indices 1 2 3 4 5 6 
#
# 1 0.034035 -0.018889 0.002529 0.000000 0.000000 0.000000
# 2 -0.018889 0.030080 -0.004173 0.000000 0.000000 0.000000
# 3 0.002529 -0.004173 0.009640 0.000000 0.000000 0.000000
# 4 0.000000 0.000000 0.000000 0.151224 0.000000 0.000000
# 5 0.000000 0.000000 0.000000 0.000000 0.052853 0.000000
# 6 0.000000 0.000000 0.000000 0.000000 0.000000 0.033963
#
#
# Mechanical properties :
#
#
# Convention : Reuss Voigt Hill
#
# Bulk Modulus (GPa) = 30.59337 33.06646 31.82991
# Shear Modulus (GPa) = 13.74536 21.94620 17.84578
#
# Velocity S-wave (km/s) = 2.66287 3.36474 3.03417
# Velocity P-wave (km/s) = 5.02363 5.67040 5.35678
#
# Compressibility (1/GPa) = 0.03268682
#
# Stress axis : x y z
#
# Youngs Moduli (GPa) = 29.38129 33.24442 103.73703
#
# Poissons Ratio (x) = 0.62797 -0.26232
# Poissons Ratio (y) = 0.55500 0.43295
# Poissons Ratio (z) = -0.07430 0.13875
#
# Static dielectric constant tensor:
#      x y z
#    x 1.749040 0.000000 0.000000 
#    y 0.000000 1.691060 0.000000 
#    z 0.000000 0.000000 1.680270 
# 
# From -- ./inp_files/1540.got.cif
#   From: 2010.05.17/outbox.cif.g08.bks.cpg/sg29_1_cif.got.tgz:1540.got - 2010.06.04 01:19:37.
