data_PCOD9340640
_publ_section_title
;
Structure prediction by ZEFSAII (Michael W. Deem and Ramdas Pophale) SiO2 
 PCOD9340640
Probable space group: P C A 21
;
_chemical_formula_sum "Si O2"
_cell_formula_units_Z 28
_cell_length_a 19.058124
_cell_length_b 5.397465
_cell_length_c 9.834342
_cell_angle_alpha 90.000000
_cell_angle_beta 90.000000
_cell_angle_gamma 90.000000
_cell_volume 1011.615070
_symmetry_space_group_name_H-M "P C A 21"
_symmetry_group_IT_number 29
_symmetry_cell_setting 'orthorhombic'
loop_
_space_group_symop_operation_xyz
x,y,z
-x,-y,1/2+z
1/2-x,y,1/2+z
1/2+x,-y,z
loop_
_atom_site_type_symbol
_atom_site_label
_atom_site_fract_x
_atom_site_fract_y
_atom_site_fract_z
Si Si1 0.117078 0.650501 0.490700
Si Si2 0.749626 0.490177 0.406211
Si Si3 0.139680 0.794941 0.066422
Si Si4 0.593698 0.686299 0.728227
Si Si5 0.259070 0.172316 0.160632
Si Si6 0.040852 0.477164 0.268727
Si Si7 0.995061 0.958094 0.559886
O O1 0.193323 0.721064 0.441102
O O2 0.120510 0.552597 0.643255
O O3 0.088916 0.424883 0.398651
O O4 0.057381 0.850491 0.468628
O O5 0.823892 0.383146 0.455098
O O6 0.733676 0.712120 0.511034
O O7 0.736559 0.599793 0.258317
O O8 0.093500 0.650203 0.178710
O O9 0.200235 0.960683 0.140716
O O10 0.078957 0.962744 0.996070
O O11 0.662847 0.863262 0.728626
O O12 0.535764 0.566047 0.828595
O O13 0.535617 0.826934 0.638860
O O14 0.024672 0.247987 0.171723
#
# Coordination Sequence:
#
# PCOD9340640 Si02
#       7
#     4   4   4   4   4   4   4
#     4  10  21  40  62  88 127 169 214 270 331 395
#     4  11  24  43  67  98 136 175 225 285 340 405
#     4  11  23  41  66  96 131 175 224 278 341 404
#     4   9  22  39  62  92 123 166 215 269 330 397
#     4  11  25  44  67  98 134 175 225 279 344 410
#     4  10  22  41  62  90 127 168 216 272 330 398
#     4  10  21  40  62  92 128 168 223 275 334 405
#
# _framework density 27.678512999999999
#
# number of rings (size 3 to 8) (size 9 to 14) (size 15 to 20)
#    0.000    1.714    0.000    3.429    0.000   11.429 
#    0.000    8.571    0.000    0.000    0.000    0.000 
#    0.000    0.000    0.000    0.000    0.000    0.000 
#
# Total GULP energy -156296.730485 kJ/mol
# GULP energy per Si atom -5582.026089 kJ/mol
# Density = 2.761552 g / cm^3
# Si number density = 27.678513 Si / 1000 Ang^3
#
#
#
# Elastic Constant Matrix: (Units=GPa)
#
#
# Indices 1 2 3 4 5 6 
#
# 1 197.5125 40.7918 13.5552 0.0000 0.0000 0.0000
# 2 40.7918 74.6577 8.0771 0.0000 0.0000 0.0000
# 3 13.5552 8.0771 47.3158 0.0000 0.0000 0.0000
# 4 0.0000 0.0000 0.0000 28.9904 0.0000 0.0000
# 5 0.0000 0.0000 0.0000 0.0000 43.9074 0.0000
# 6 0.0000 0.0000 0.0000 0.0000 0.0000 51.8904
#
#
#
# Elastic Compliance Matrix: (Units=1/GPa)
#
#
# Indices 1 2 3 4 5 6 
#
# 1 0.005766 -0.003028 -0.001135 0.000000 0.000000 0.000000
# 2 -0.003028 0.015236 -0.001734 0.000000 0.000000 0.000000
# 3 -0.001135 -0.001734 0.021756 0.000000 0.000000 0.000000
# 4 0.000000 0.000000 0.000000 0.034494 0.000000 0.000000
# 5 0.000000 0.000000 0.000000 0.000000 0.022775 0.000000
# 6 0.000000 0.000000 0.000000 0.000000 0.000000 0.019271
#
#
# Mechanical properties :
#
#
# Convention : Reuss Voigt Hill
#
# Bulk Modulus (GPa) = 32.29400 49.37046 40.83223
# Shear Modulus (GPa) = 35.35731 42.09510 38.72620
#
# Velocity S-wave (km/s) = 3.57799 3.90405 3.74457
# Velocity P-wave (km/s) = 5.36304 6.18045 5.78620
#
# Compressibility (1/GPa) = 0.03096550
#
# Stress axis : x y z
#
# Youngs Moduli (GPa) = 173.42500 65.63258 45.96502
#
# Poissons Ratio (x) = 0.19872 0.05217
# Poissons Ratio (y) = 0.52509 0.07968
# Poissons Ratio (z) = 0.19685 0.11378
#
# Static dielectric constant tensor:
#      x y z
#    x 2.215010 0.000000 0.000000 
#    y 0.000000 2.300120 0.000000 
#    z 0.000000 0.000000 2.228740 
# 
# From -- ./inp_files/3591.got.cif
#   From: 2010.05.17/outbox.cif.g08.bks.cpg/sg29_2_cif.got.tgz:3591.got - 2010.06.04 01:19:37.
