data_PCOD9340419
_publ_section_title
;
Structure prediction by ZEFSAII (Michael W. Deem and Ramdas Pophale) SiO2 
 PCOD9340419
Probable space group: P C A 21
;
_chemical_formula_sum "Si O2"
_cell_formula_units_Z 28
_cell_length_a 15.521473
_cell_length_b 5.395621
_cell_length_c 14.496684
_cell_angle_alpha 90.000000
_cell_angle_beta 90.000000
_cell_angle_gamma 90.000000
_cell_volume 1214.068084
_symmetry_space_group_name_H-M "P C A 21"
_symmetry_group_IT_number 29
_symmetry_cell_setting 'orthorhombic'
loop_
_space_group_symop_operation_xyz
x,y,z
-x,-y,1/2+z
1/2-x,y,1/2+z
1/2+x,-y,z
loop_
_atom_site_type_symbol
_atom_site_label
_atom_site_fract_x
_atom_site_fract_y
_atom_site_fract_z
Si Si1 0.610216 0.881782 0.852350
Si Si2 0.682036 0.259437 0.719793
Si Si3 0.050950 0.592013 0.295526
Si Si4 0.461979 0.533378 0.111653
Si Si5 0.780594 0.623811 0.835163
Si Si6 0.022511 0.978219 0.029075
Si Si7 0.156288 0.000347 0.187307
O O1 0.541777 0.659642 0.837305
O O2 0.706179 0.790501 0.882414
O O3 0.622288 0.038964 0.758513
O O4 0.561813 0.044273 0.928093
O O5 0.629112 0.456170 0.662406
O O6 0.727512 0.379024 0.808889
O O7 0.761063 0.162183 0.660822
O O8 0.028735 0.451885 0.199049
O O9 0.121620 0.456162 0.360707
O O10 0.097315 0.845602 0.260295
O O11 0.466466 0.773970 0.045927
O O12 0.479340 0.275477 0.061578
O O13 0.802615 0.769366 0.740568
O O14 0.101548 0.034980 0.097097
#
# Coordination Sequence:
#
# PCOD9340419 Si02
#       7
#     4   4   4   4   4   4   4
#     4  11  24  40  68 101 143 181 234 297 363 405
#     4  10  21  39  70  93 125 186 243 274 335 440
#     4  10  20  39  69  93 128 181 234 277 328 438
#     4  11  22  42  68  96 132 183 236 273 346 425
#     4  10  20  39  68  96 124 179 241 283 335 428
#     4  11  25  42  65 101 145 179 218 305 359 394
#     4   9  20  39  64  94 129 177 232 281 338 418
#
# _framework density 23.062956
#
# number of rings (size 3 to 8) (size 9 to 14) (size 15 to 20)
#    0.000    1.714    2.857    1.714    4.000    0.000 
#    0.000    5.714    0.000    0.000    0.000    0.000 
#    0.000    0.000    0.000    0.000    0.000    0.000 
#
# Total GULP energy -156139.222656 kJ/mol
# GULP energy per Si atom -5576.400809 kJ/mol
# Density = 2.301046 g / cm^3
# Si number density = 23.062956 Si / 1000 Ang^3
#
#
#
# Elastic Constant Matrix: (Units=GPa)
#
#
# Indices 1 2 3 4 5 6 
#
# 1 103.8304 37.5631 11.6137 0.0000 0.0000 0.0000
# 2 37.5631 59.7246 -1.6178 0.0000 0.0000 0.0000
# 3 11.6137 -1.6178 24.4641 0.0000 0.0000 0.0000
# 4 0.0000 0.0000 0.0000 20.4507 0.0000 0.0000
# 5 0.0000 0.0000 0.0000 0.0000 19.7743 0.0000
# 6 0.0000 0.0000 0.0000 0.0000 0.0000 41.3184
#
#
#
# Elastic Compliance Matrix: (Units=1/GPa)
#
#
# Indices 1 2 3 4 5 6 
#
# 1 0.013574 -0.008727 -0.007021 0.000000 0.000000 0.000000
# 2 -0.008727 0.022385 0.005623 0.000000 0.000000 0.000000
# 3 -0.007021 0.005623 0.044581 0.000000 0.000000 0.000000
# 4 0.000000 0.000000 0.000000 0.048898 0.000000 0.000000
# 5 0.000000 0.000000 0.000000 0.000000 0.050571 0.000000
# 6 0.000000 0.000000 0.000000 0.000000 0.000000 0.024202
#
#
# Mechanical properties :
#
#
# Convention : Reuss Voigt Hill
#
# Bulk Modulus (GPa) = 16.58650 31.45968 24.02309
# Shear Modulus (GPa) = 20.44513 25.67267 23.05890
#
# Velocity S-wave (km/s) = 2.98063 3.34002 3.16543
# Velocity P-wave (km/s) = 4.36498 5.34272 4.87841
#
# Compressibility (1/GPa) = 0.06028999
#
# Stress axis : x y z
#
# Youngs Moduli (GPa) = 73.67204 44.67334 22.43101
#
# Poissons Ratio (x) = 0.38987 0.15749
# Poissons Ratio (y) = 0.64295 -0.12614
# Poissons Ratio (z) = 0.51724 -0.25121
#
# Static dielectric constant tensor:
#      x y z
#    x 1.887260 0.000000 0.000000 
#    y 0.000000 1.925420 0.000000 
#    z 0.000000 0.000000 1.853290 
# 
# From -- ./inp_files/5186.got.cif
#   From: 2010.05.17/outbox.cif.g08.bks.cpg/sg29_3_cif.got.tgz:5186.got - 2010.06.04 01:19:37.
