data_PCOD9340969
_publ_section_title
;
Structure prediction by ZEFSAII (Michael W. Deem and Ramdas Pophale) SiO2 
 PCOD9340969
Probable space group: P C A 21
;
_chemical_formula_sum "Si O2"
_cell_formula_units_Z 32
_cell_length_a 14.855659
_cell_length_b 10.389171
_cell_length_c 9.210565
_cell_angle_alpha 90.000000
_cell_angle_beta 90.000000
_cell_angle_gamma 90.000000
_cell_volume 1421.540012
_symmetry_space_group_name_H-M "P C A 21"
_symmetry_group_IT_number 29
_symmetry_cell_setting 'orthorhombic'
loop_
_space_group_symop_operation_xyz
x,y,z
-x,-y,1/2+z
1/2-x,y,1/2+z
1/2+x,-y,z
loop_
_atom_site_type_symbol
_atom_site_label
_atom_site_fract_x
_atom_site_fract_y
_atom_site_fract_z
Si Si1 0.817974 0.768471 0.503240
Si Si2 0.060490 0.379480 0.584390
Si Si3 0.658111 0.107535 0.552045
Si Si4 0.176101 0.950661 0.888706
Si Si5 0.995552 0.744783 0.628818
Si Si6 0.031000 0.112322 0.418905
Si Si7 0.245910 0.388521 0.747633
Si Si8 0.569712 0.490102 0.286044
O O1 0.925173 0.754089 0.498926
O O2 0.773479 0.656587 0.409689
O O3 0.786956 0.736096 0.665136
O O4 0.796606 0.907786 0.444160
O O5 0.062933 0.239936 0.505921
O O6 0.151150 0.413047 0.671451
O O7 0.051393 0.484347 0.455092
O O8 0.978429 0.377236 0.698798
O O9 0.747528 0.136573 0.461912
O O10 0.679135 0.056216 0.714385
O O11 0.595885 0.231079 0.578351
O O12 0.594436 0.004424 0.468439
O O13 0.075209 0.917838 0.942810
O O14 0.978912 0.613551 0.712620
O O15 0.968373 0.855068 0.746918
O O16 0.324418 0.494282 0.750826
#
# Coordination Sequence:
#
# PCOD9340969 Si02
#       8
#     4   4   4   4   4   4   4   4
#     4  11  20  38  63  95 125 165 209 268 315 376
#     4  11  23  44  66  92 131 170 211 273 324 374
#     4  11  23  40  61  94 129 171 213 266 327 396
#     4  11  23  36  63  93 130 173 208 262 329 392
#     4   9  22  41  61  89 129 164 217 272 312 381
#     4  10  22  43  62  96 133 171 217 266 327 390
#     4  11  23  40  67  97 125 162 222 267 317 382
#     4  10  24  42  67  94 126 168 221 272 319 379
#
# _framework density 22.510797
#
# number of rings (size 3 to 8) (size 9 to 14) (size 15 to 20)
#    0.000    1.500    2.500    2.250    8.750    0.000 
#    4.500    0.000    0.000    0.000    0.000    0.000 
#    0.000    0.000    0.000    0.000    0.000    0.000 
#
# Total GULP energy -178832.048223 kJ/mol
# GULP energy per Si atom -5588.501507 kJ/mol
# Density = 2.245956 g / cm^3
# Si number density = 22.510797 Si / 1000 Ang^3
#
#
#
# Elastic Constant Matrix: (Units=GPa)
#
#
# Indices 1 2 3 4 5 6 
#
# 1 155.1670 0.8994 44.7462 0.0000 0.0000 0.0000
# 2 0.8994 21.1960 3.1817 0.0000 0.0000 0.0000
# 3 44.7462 3.1817 63.7580 0.0000 0.0000 0.0000
# 4 0.0000 0.0000 0.0000 17.0521 0.0000 0.0000
# 5 0.0000 0.0000 0.0000 0.0000 42.3938 0.0000
# 6 0.0000 0.0000 0.0000 0.0000 0.0000 26.3966
#
#
#
# Elastic Compliance Matrix: (Units=1/GPa)
#
#
# Indices 1 2 3 4 5 6 
#
# 1 0.008085 0.000513 -0.005700 0.000000 0.000000 0.000000
# 2 0.000513 0.047567 -0.002733 0.000000 0.000000 0.000000
# 3 -0.005700 -0.002733 0.019821 0.000000 0.000000 0.000000
# 4 0.000000 0.000000 0.000000 0.058644 0.000000 0.000000
# 5 0.000000 0.000000 0.000000 0.000000 0.023588 0.000000
# 6 0.000000 0.000000 0.000000 0.000000 0.000000 0.037884
#
#
# Mechanical properties :
#
#
# Convention : Reuss Voigt Hill
#
# Bulk Modulus (GPa) = 16.76954 37.53063 27.15008
# Shear Modulus (GPa) = 21.61610 29.92141 25.76875
#
# Velocity S-wave (km/s) = 3.10216 3.64978 3.38705
# Velocity P-wave (km/s) = 4.50521 5.87109 5.23290
#
# Compressibility (1/GPa) = 0.05963193
#
# Stress axis : x y z
#
# Youngs Moduli (GPa) = 123.67891 21.02282 50.45128
#
# Poissons Ratio (x) = -0.01077 0.28758
# Poissons Ratio (y) = -0.06339 0.13791
# Poissons Ratio (z) = 0.70498 0.05747
#
# Static dielectric constant tensor:
#      x y z
#    x 1.890380 0.000000 0.000000 
#    y 0.000000 1.852750 0.000000 
#    z 0.000000 0.000000 1.827610 
# 
# From -- ./inp_files/1861.got.cif
#   From: 2010.05.17/outbox.cif.g08.bks.cpg/sg29_1_cif.got.tgz:1861.got - 2010.06.04 01:19:37.
