data_PCOD9340993
_publ_section_title
;
Structure prediction by ZEFSAII (Michael W. Deem and Ramdas Pophale) SiO2 
 PCOD9340993
Probable space group: P C A 21
;
_chemical_formula_sum "Si O2"
_cell_formula_units_Z 32
_cell_length_a 11.657832
_cell_length_b 7.402057
_cell_length_c 14.995906
_cell_angle_alpha 90.000000
_cell_angle_beta 90.000000
_cell_angle_gamma 90.000000
_cell_volume 1294.025775
_symmetry_space_group_name_H-M "P C A 21"
_symmetry_group_IT_number 29
_symmetry_cell_setting 'orthorhombic'
loop_
_space_group_symop_operation_xyz
x,y,z
-x,-y,1/2+z
1/2-x,y,1/2+z
1/2+x,-y,z
loop_
_atom_site_type_symbol
_atom_site_label
_atom_site_fract_x
_atom_site_fract_y
_atom_site_fract_z
Si Si1 0.394270 0.717824 0.233660
Si Si2 0.536354 0.881927 0.885971
Si Si3 0.582495 0.755199 0.524607
Si Si4 0.681128 0.250366 0.314275
Si Si5 0.831265 0.700434 0.223661
Si Si6 0.611752 0.649026 0.327880
Si Si7 0.334427 0.781330 0.474448
Si Si8 0.413731 0.816948 0.042452
O O1 0.270808 0.815976 0.240486
O O2 0.361302 0.509202 0.235761
O O3 0.489729 0.742552 0.309287
O O4 0.451974 0.767909 0.140487
O O5 0.404468 0.903161 0.848427
O O6 0.596076 0.814577 0.795447
O O7 0.622985 0.023459 0.934458
O O8 0.498854 0.740901 0.965707
O O9 0.643197 0.723742 0.618956
O O10 0.637194 0.677603 0.433244
O O11 0.447538 0.699498 0.519914
O O12 0.579084 0.971472 0.521838
O O13 0.610650 0.435407 0.301140
O O14 0.774680 0.308788 0.388979
O O15 0.703342 0.727564 0.259220
O O16 0.221939 0.776957 0.536514
#
# Coordination Sequence:
#
# PCOD9340993 Si02
#       8
#     4   4   4   4   4   4   4   4
#     4  11  24  44  67 108 140 192 242 292 378 438
#     4  10  22  44  67 103 142 187 244 304 371 432
#     4  11  25  44  66 106 137 190 251 298 370 437
#     4  10  22  43  71 100 140 196 237 306 371 432
#     4  11  26  40  71 102 140 190 247 303 362 447
#     4  11  24  46  68 102 151 189 244 306 372 444
#     4  10  22  43  71  99 141 190 237 301 369 434
#     4  10  25  42  69 102 147 190 240 300 367 438
#
# _framework density 24.729026999999999
#
# number of rings (size 3 to 8) (size 9 to 14) (size 15 to 20)
#    0.000    1.500    2.500    0.750    7.000    3.000 
#    0.000    0.000    0.000    0.000    0.000    0.000 
#    0.000    0.000    0.000    0.000    0.000    0.000 
#
# Total GULP energy -178294.637768 kJ/mol
# GULP energy per Si atom -5571.707430 kJ/mol
# Density = 2.467274 g / cm^3
# Si number density = 24.729027 Si / 1000 Ang^3
#
#
#
# Elastic Constant Matrix: (Units=GPa)
#
#
# Indices 1 2 3 4 5 6 
#
# 1 108.8609 9.5423 33.2557 0.0000 0.0000 0.0000
# 2 9.5423 51.8319 11.6002 0.0000 0.0000 0.0000
# 3 33.2557 11.6002 136.5649 0.0000 0.0000 0.0000
# 4 0.0000 0.0000 0.0000 30.1171 0.0000 0.0000
# 5 0.0000 0.0000 0.0000 0.0000 33.2934 0.0000
# 6 0.0000 0.0000 0.0000 0.0000 0.0000 26.0919
#
#
#
# Elastic Compliance Matrix: (Units=1/GPa)
#
#
# Indices 1 2 3 4 5 6 
#
# 1 0.010012 -0.001323 -0.002326 0.000000 0.000000 0.000000
# 2 -0.001323 0.019842 -0.001363 0.000000 0.000000 0.000000
# 3 -0.002326 -0.001363 0.008005 0.000000 0.000000 0.000000
# 4 0.000000 0.000000 0.000000 0.033204 0.000000 0.000000
# 5 0.000000 0.000000 0.000000 0.000000 0.030036 0.000000
# 6 0.000000 0.000000 0.000000 0.000000 0.000000 0.038326
#
#
# Mechanical properties :
#
#
# Convention : Reuss Voigt Hill
#
# Bulk Modulus (GPa) = 35.92583 45.11715 40.52149
# Shear Modulus (GPa) = 31.50063 34.09112 32.79588
#
# Velocity S-wave (km/s) = 3.57295 3.71696 3.64567
# Velocity P-wave (km/s) = 5.61967 6.05849 5.84320
#
# Compressibility (1/GPa) = 0.02783513
#
# Stress axis : x y z
#
# Youngs Moduli (GPa) = 99.87516 50.39875 124.92654
#
# Poissons Ratio (x) = 0.06667 0.29056
# Poissons Ratio (y) = 0.13211 0.17031
# Poissons Ratio (z) = 0.23229 0.06871
#
# Static dielectric constant tensor:
#      x y z
#    x 2.065600 0.000000 0.000000 
#    y 0.000000 2.062850 0.000000 
#    z 0.000000 0.000000 2.160350 
# 
# From -- ./inp_files/4600.got.cif
#   From: 2010.05.17/outbox.cif.g08.bks.cpg/sg29_3_cif.got.tgz:4600.got - 2010.06.04 01:19:37.
