data_PCOD9340847
_publ_section_title
;
Structure prediction by ZEFSAII (Michael W. Deem and Ramdas Pophale) SiO2 
 PCOD9340847
Probable space group: P C A 21
;
_chemical_formula_sum "Si O2"
_cell_formula_units_Z 32
_cell_length_a 26.607610
_cell_length_b 5.857879
_cell_length_c 9.089752
_cell_angle_alpha 90.000000
_cell_angle_beta 90.000000
_cell_angle_gamma 90.000000
_cell_volume 1416.766559
_symmetry_space_group_name_H-M "P C A 21"
_symmetry_group_IT_number 29
_symmetry_cell_setting 'orthorhombic'
loop_
_space_group_symop_operation_xyz
x,y,z
-x,-y,1/2+z
1/2-x,y,1/2+z
1/2+x,-y,z
loop_
_atom_site_type_symbol
_atom_site_label
_atom_site_fract_x
_atom_site_fract_y
_atom_site_fract_z
Si Si1 0.544188 0.502224 0.567070
Si Si2 0.630095 0.130513 0.570305
Si Si3 0.535335 0.861553 0.091024
Si Si4 0.800695 0.499226 0.741201
Si Si5 0.107228 0.239500 0.342034
Si Si6 0.445792 0.111869 0.264039
Si Si7 0.766947 0.778159 0.473343
Si Si8 0.225162 0.898849 0.715883
O O1 0.586016 0.309318 0.543921
O O2 0.490184 0.385949 0.563314
O O3 0.559917 0.684274 0.442902
O O4 0.551133 0.621243 0.724689
O O5 0.635008 0.964091 0.429810
O O6 0.606668 0.971918 0.698084
O O7 0.680116 0.241433 0.638539
O O8 0.584007 0.848361 0.191421
O O9 0.492543 0.004144 0.174877
O O10 0.548112 0.954015 0.931517
O O11 0.855356 0.550866 0.808339
O O12 0.788387 0.982071 0.370641
O O13 0.764047 0.627279 0.857400
O O14 0.800065 0.616187 0.578993
O O15 0.724132 0.249533 0.229993
O O16 0.733228 0.903652 0.595580
#
# Coordination Sequence:
#
# PCOD9340847 Si02
#       8
#     4   4   4   4   4   4   4   4
#     4  10  22  39  66  98 129 180 216 268 347 402
#     4  10  23  42  66  94 130 181 222 277 340 408
#     4  11  22  42  67  97 135 170 219 281 335 408
#     4  11  24  42  69 100 130 183 231 283 350 412
#     4  11  24  42  69  97 134 176 232 278 339 421
#     4  10  22  40  65  95 132 173 218 270 341 399
#     4  10  24  42  65  93 136 171 229 283 347 400
#     4  11  23  43  67  94 138 178 227 288 345 408
#
# _framework density 22.586639999999999
#
# number of rings (size 3 to 8) (size 9 to 14) (size 15 to 20)
#    0.000    1.500    1.250    3.750    5.250    2.000 
#    2.250    0.000    0.000    0.000    0.000    0.000 
#    0.000    0.000    0.000    0.000    0.000    0.000 
#
# Total GULP energy -178641.529539 kJ/mol
# GULP energy per Si atom -5582.547798 kJ/mol
# Density = 2.253523 g / cm^3
# Si number density = 22.586640 Si / 1000 Ang^3
#
#
#
# Elastic Constant Matrix: (Units=GPa)
#
#
# Indices 1 2 3 4 5 6 
#
# 1 73.2590 4.9040 38.3360 0.0000 0.0000 0.0000
# 2 4.9040 47.5003 23.9964 0.0000 0.0000 0.0000
# 3 38.3360 23.9964 162.4136 0.0000 0.0000 0.0000
# 4 0.0000 0.0000 0.0000 20.7442 0.0000 0.0000
# 5 0.0000 0.0000 0.0000 0.0000 34.0991 0.0000
# 6 0.0000 0.0000 0.0000 0.0000 0.0000 27.3645
#
#
#
# Elastic Compliance Matrix: (Units=1/GPa)
#
#
# Indices 1 2 3 4 5 6 
#
# 1 0.015577 0.000269 -0.003717 0.000000 0.000000 0.000000
# 2 0.000269 0.022755 -0.003426 0.000000 0.000000 0.000000
# 3 -0.003717 -0.003426 0.007541 0.000000 0.000000 0.000000
# 4 0.000000 0.000000 0.000000 0.048206 0.000000 0.000000
# 5 0.000000 0.000000 0.000000 0.000000 0.029326 0.000000
# 6 0.000000 0.000000 0.000000 0.000000 0.000000 0.036544
#
#
# Mechanical properties :
#
#
# Convention : Reuss Voigt Hill
#
# Bulk Modulus (GPa) = 31.12638 46.40509 38.76574
# Shear Modulus (GPa) = 27.11443 30.83735 28.97589
#
# Velocity S-wave (km/s) = 3.46853 3.69899 3.58561
# Velocity P-wave (km/s) = 5.46367 6.23164 5.86025
#
# Compressibility (1/GPa) = 0.03212709
#
# Stress axis : x y z
#
# Youngs Moduli (GPa) = 64.19707 43.94582 132.61694
#
# Poissons Ratio (x) = -0.01184 0.49288
# Poissons Ratio (y) = -0.01729 0.45430
# Poissons Ratio (z) = 0.23859 0.15054
#
# Static dielectric constant tensor:
#      x y z
#    x 1.851290 0.000000 0.000000 
#    y 0.000000 1.912580 0.000000 
#    z 0.000000 0.000000 1.841060 
# 
# From -- ./inp_files/2601.got.cif
#   From: 2010.05.17/outbox.cif.g08.bks.cpg/sg29_2_cif.got.tgz:2601.got - 2010.06.04 01:19:37.
