data_PCOD9340323
_publ_section_title
;
Structure prediction by ZEFSAII (Michael W. Deem and Ramdas Pophale) SiO2 
 PCOD9340323
Probable space group: P C A 21
;
_chemical_formula_sum "Si O2"
_cell_formula_units_Z 28
_cell_length_a 9.012091
_cell_length_b 10.285895
_cell_length_c 17.104282
_cell_angle_alpha 90.000000
_cell_angle_beta 90.000000
_cell_angle_gamma 90.000000
_cell_volume 1585.522842
_symmetry_space_group_name_H-M "P C A 21"
_symmetry_group_IT_number 29
_symmetry_cell_setting 'orthorhombic'
loop_
_space_group_symop_operation_xyz
x,y,z
-x,-y,1/2+z
1/2-x,y,1/2+z
1/2+x,-y,z
loop_
_atom_site_type_symbol
_atom_site_label
_atom_site_fract_x
_atom_site_fract_y
_atom_site_fract_z
Si Si1 0.301073 0.102180 0.847880
Si Si2 0.871667 0.682890 0.724001
Si Si3 0.871667 0.317110 0.833856
Si Si4 0.993029 0.899937 0.621687
Si Si5 0.698927 0.102180 0.209977
Si Si6 0.006971 0.899937 0.436170
Si Si7 0.875292 0.500000 0.278929
O O1 0.357783 0.229466 0.802720
O O2 0.154506 0.123962 0.898712
O O3 0.261680 0.000000 0.778929
O O4 0.426083 0.032275 0.899820
O O5 0.730888 0.588042 0.724996
O O6 0.888360 0.783566 0.653235
O O7 0.017438 0.594676 0.730747
O O8 0.857783 0.229466 0.755138
O O9 0.730888 0.411958 0.832861
O O10 0.888360 0.216434 0.904622
O O11 0.017438 0.405324 0.827110
O O12 0.154507 0.876038 0.659145
O O13 0.000000 0.905526 0.528929
O O14 0.926083 0.032275 0.658037
#
# Coordination Sequence:
#
# PCOD9340323 Si02
#       7
#     4   4   4   4   4   4   4
#     4  10  20  36  59  83 110 147 189 230 273 338
#     4  10  20  37  61  81 110 143 200 226 271 331
#     4  10  20  37  61  81 110 143 200 226 271 331
#     4  11  22  36  56  88 119 144 177 236 294 330
#     4  10  20  36  59  83 110 147 189 230 273 338
#     4  11  22  36  56  88 119 144 177 236 294 330
#     4  10  20  36  62  82 102 152 196 236 258 320
#
# _framework density 17.659790999999998
#
# number of rings (size 3 to 8) (size 9 to 14) (size 15 to 20)
#    0.000    1.714    2.857    3.429    4.000    0.000 
#    0.000    1.429    0.000    0.000    0.000    0.000 
#    0.000    0.000    0.000    0.000    0.000    0.000 
#
# Total GULP energy -156265.429729 kJ/mol
# GULP energy per Si atom -5580.908205 kJ/mol
# Density = 1.761960 g / cm^3
# Si number density = 17.659791 Si / 1000 Ang^3
#
#
#
# Elastic Constant Matrix: (Units=GPa)
#
#
# Indices 1 2 3 4 5 6 
#
# 1 83.8485 40.2647 32.7497 0.0000 0.0000 0.0000
# 2 40.2647 100.6982 37.5186 0.0000 0.0000 0.0000
# 3 32.7497 37.5186 127.2123 0.0000 0.0000 0.0000
# 4 0.0000 0.0000 0.0000 8.6951 0.0000 0.0000
# 5 0.0000 0.0000 0.0000 0.0000 18.1517 0.0000
# 6 0.0000 0.0000 0.0000 0.0000 0.0000 35.4900
#
#
#
# Elastic Compliance Matrix: (Units=1/GPa)
#
#
# Indices 1 2 3 4 5 6 
#
# 1 0.015392 -0.005256 -0.002413 0.000000 0.000000 0.000000
# 2 -0.005256 0.012951 -0.002467 0.000000 0.000000 0.000000
# 3 -0.002413 -0.002467 0.009209 0.000000 0.000000 0.000000
# 4 0.000000 0.000000 0.000000 0.115007 0.000000 0.000000
# 5 0.000000 0.000000 0.000000 0.000000 0.055091 0.000000
# 6 0.000000 0.000000 0.000000 0.000000 0.000000 0.028177
#
#
# Mechanical properties :
#
#
# Convention : Reuss Voigt Hill
#
# Bulk Modulus (GPa) = 57.86002 59.20278 58.53140
# Shear Modulus (GPa) = 19.09421 25.88242 22.48832
#
# Velocity S-wave (km/s) = 3.29177 3.83249 3.57237
# Velocity P-wave (km/s) = 6.87622 7.29251 7.08743
#
# Compressibility (1/GPa) = 0.01728309
#
# Stress axis : x y z
#
# Youngs Moduli (GPa) = 64.96676 77.21235 108.58421
#
# Poissons Ratio (x) = 0.40582 0.26196
# Poissons Ratio (y) = 0.34146 0.26784
# Poissons Ratio (z) = 0.15673 0.19045
#
# Static dielectric constant tensor:
#      x y z
#    x 1.623800 0.000000 0.000000 
#    y 0.000000 1.622190 0.000000 
#    z 0.000000 0.000000 1.551950 
# 
# From -- ./inp_files/4230.got.cif
#   From: 2010.05.17/outbox.cif.g08.bks.cpg/sg29_3_cif.got.tgz:4230.got - 2010.06.04 01:19:37.
