data_PCOD9340565
_publ_section_title
;
Structure prediction by ZEFSAII (Michael W. Deem and Ramdas Pophale) SiO2 
 PCOD9340565
Probable space group: P C A 21
;
_chemical_formula_sum "Si O2"
_cell_formula_units_Z 28
_cell_length_a 13.203310
_cell_length_b 10.196117
_cell_length_c 9.105941
_cell_angle_alpha 90.000000
_cell_angle_beta 90.000000
_cell_angle_gamma 90.000000
_cell_volume 1225.864484
_symmetry_space_group_name_H-M "P C A 21"
_symmetry_group_IT_number 29
_symmetry_cell_setting 'orthorhombic'
loop_
_space_group_symop_operation_xyz
x,y,z
-x,-y,1/2+z
1/2-x,y,1/2+z
1/2+x,-y,z
loop_
_atom_site_type_symbol
_atom_site_label
_atom_site_fract_x
_atom_site_fract_y
_atom_site_fract_z
Si Si1 0.562412 0.817797 0.861800
Si Si2 0.503607 0.533970 0.086947
Si Si3 0.870695 0.564749 0.856845
Si Si4 0.939931 0.819336 0.015678
Si Si5 0.143968 0.893472 0.516508
Si Si6 0.647377 0.104401 0.862540
Si Si7 0.360036 0.467751 0.356981
O O1 0.537451 0.811546 0.688821
O O2 0.619416 0.684139 0.900713
O O3 0.630143 0.947415 0.883955
O O4 0.459653 0.832943 0.953801
O O5 0.576519 0.606034 0.204109
O O6 0.419552 0.491628 0.206450
O O7 0.432030 0.549908 0.942616
O O8 0.590592 0.453795 0.994367
O O9 0.757842 0.516283 0.835384
O O10 0.880580 0.692267 0.959545
O O11 0.874001 0.950425 0.993239
O O12 0.045313 0.835463 0.929907
O O13 0.247828 0.854336 0.437571
O O14 0.151042 0.866508 0.689558
#
# Coordination Sequence:
#
# PCOD9340565 Si02
#       7
#     4   4   4   4   4   4   4
#     4  10  21  38  63  91 123 161 211 256 300 379
#     4  10  24  40  64  94 124 154 214 266 314 372
#     4  11  22  43  67  92 124 165 208 265 316 375
#     4  10  21  38  63  91 123 161 211 256 300 379
#     4  10  21  38  59  91 129 165 201 254 312 368
#     4  10  21  38  59  91 129 165 201 254 312 368
#     4  11  22  43  67  92 124 165 208 265 316 375
#
# _framework density 22.841023
#
# number of rings (size 3 to 8) (size 9 to 14) (size 15 to 20)
#    0.000    1.714    1.429    2.571    2.000    1.143 
#    0.000    8.571    0.000    0.000    0.000    0.000 
#    0.000    0.000    0.000    0.000    0.000    0.000 
#
# Total GULP energy -156118.480150 kJ/mol
# GULP energy per Si atom -5575.660005 kJ/mol
# Density = 2.278904 g / cm^3
# Si number density = 22.841023 Si / 1000 Ang^3
#
#
#
# Elastic Constant Matrix: (Units=GPa)
#
#
# Indices 1 2 3 4 5 6 
#
# 1 156.1776 -9.5166 45.9454 0.0000 0.0000 0.0000
# 2 -9.5166 39.2064 8.2500 0.0000 0.0000 0.0000
# 3 45.9454 8.2500 100.5785 0.0000 0.0000 0.0000
# 4 0.0000 0.0000 0.0000 22.6729 0.0000 0.0000
# 5 0.0000 0.0000 0.0000 0.0000 26.7873 0.0000
# 6 0.0000 0.0000 0.0000 0.0000 0.0000 19.1798
#
#
#
# Elastic Compliance Matrix: (Units=1/GPa)
#
#
# Indices 1 2 3 4 5 6 
#
# 1 0.007656 0.002640 -0.003714 0.000000 0.000000 0.000000
# 2 0.002640 0.026864 -0.003410 0.000000 0.000000 0.000000
# 3 -0.003714 -0.003410 0.011919 0.000000 0.000000 0.000000
# 4 0.000000 0.000000 0.000000 0.044106 0.000000 0.000000
# 5 0.000000 0.000000 0.000000 0.000000 0.037331 0.000000
# 6 0.000000 0.000000 0.000000 0.000000 0.000000 0.052138
#
#
# Mechanical properties :
#
#
# Convention : Reuss Voigt Hill
#
# Bulk Modulus (GPa) = 26.68641 42.81335 34.74988
# Shear Modulus (GPa) = 24.81729 30.48024 27.64876
#
# Velocity S-wave (km/s) = 3.29982 3.65698 3.48298
# Velocity P-wave (km/s) = 5.12126 6.05112 5.60551
#
# Compressibility (1/GPa) = 0.03747226
#
# Stress axis : x y z
#
# Youngs Moduli (GPa) = 130.60833 37.22413 83.90100
#
# Poissons Ratio (x) = -0.09827 0.31162
# Poissons Ratio (y) = -0.34481 0.28606
# Poissons Ratio (z) = 0.48509 0.12692
#
# Static dielectric constant tensor:
#      x y z
#    x 1.838350 0.000000 0.000000 
#    y 0.000000 1.999610 0.000000 
#    z 0.000000 0.000000 1.851840 
# 
# From -- ./inp_files/1482.got.cif
#   From: 2010.05.17/outbox.cif.g08.bks.cpg/sg29_1_cif.got.tgz:1482.got - 2010.06.04 01:19:37.
