data_PCOD9340910
_publ_section_title
;
Structure prediction by ZEFSAII (Michael W. Deem and Ramdas Pophale) SiO2 
 PCOD9340910
Probable space group: P C A 21
;
_chemical_formula_sum "Si O2"
_cell_formula_units_Z 24
_cell_length_a 14.546557
_cell_length_b 5.136814
_cell_length_c 12.415442
_cell_angle_alpha 90.000000
_cell_angle_beta 90.000000
_cell_angle_gamma 90.000000
_cell_volume 927.718547
_symmetry_space_group_name_H-M "P C A 21"
_symmetry_group_IT_number 29
_symmetry_cell_setting 'orthorhombic'
loop_
_space_group_symop_operation_xyz
x,y,z
-x,-y,1/2+z
1/2-x,y,1/2+z
1/2+x,-y,z
loop_
_atom_site_type_symbol
_atom_site_label
_atom_site_fract_x
_atom_site_fract_y
_atom_site_fract_z
Si Si1 0.533609 0.478770 0.169370
Si Si2 0.929998 0.945237 0.309126
Si Si3 0.523351 0.707787 0.462707
Si Si4 0.731342 0.083826 0.923294
Si Si5 0.869481 0.132623 0.101971
Si Si6 0.820615 0.569279 0.836937
O O1 0.497734 0.259387 0.254099
O O2 0.440591 0.644877 0.142317
O O3 0.629053 0.568189 0.222219
O O4 0.552646 0.389957 0.045852
O O5 0.867085 0.936994 0.416201
O O6 0.855745 0.983845 0.215035
O O7 0.989522 0.191535 0.347318
O O8 0.601973 0.502033 0.429089
O O9 0.569209 0.943605 0.527486
O O10 0.741975 0.353249 0.855188
O O11 0.793942 0.860226 0.869427
O O12 0.773390 0.154342 0.039815
#
# Coordination Sequence:
#
# PCOD9340910 Si02
#       6
#     4   4   4   4   4   4
#     4  11  22  42  73 100 132 195 246 284 347 433
#     4  11  25  43  70 102 144 182 234 299 361 417
#     4  10  22  41  67 102 131 186 242 292 336 427
#     4  11  26  45  66 106 146 180 224 301 365 413
#     4  10  22  43  68  98 139 182 236 287 352 425
#     4  11  23  44  68  98 142 183 234 287 347 419
#
# _framework density 25.869914999999999
#
# number of rings (size 3 to 8) (size 9 to 14) (size 15 to 20)
#    0.000    1.333    3.333    2.000    4.667    1.333 
#    0.000    0.000    0.000    0.000    0.000    0.000 
#    0.000    0.000    0.000    0.000    0.000    0.000 
#
# Total GULP energy -133637.130002 kJ/mol
# GULP energy per Si atom -5568.213750 kJ/mol
# Density = 2.581103 g / cm^3
# Si number density = 25.869915 Si / 1000 Ang^3
#
#
#
# Elastic Constant Matrix: (Units=GPa)
#
#
# Indices 1 2 3 4 5 6 
#
# 1 32.4104 -8.2994 11.0326 0.0000 0.0000 0.0000
# 2 -8.2994 71.9282 24.9929 0.0000 0.0000 0.0000
# 3 11.0326 24.9929 78.2617 0.0000 0.0000 0.0000
# 4 0.0000 0.0000 0.0000 42.9536 0.0000 0.0000
# 5 0.0000 0.0000 0.0000 0.0000 34.6396 0.0000
# 6 0.0000 0.0000 0.0000 0.0000 0.0000 25.2114
#
#
#
# Elastic Compliance Matrix: (Units=1/GPa)
#
#
# Indices 1 2 3 4 5 6 
#
# 1 0.034881 0.006449 -0.006977 0.000000 0.000000 0.000000
# 2 0.006449 0.016830 -0.006284 0.000000 0.000000 0.000000
# 3 -0.006977 -0.006284 0.015768 0.000000 0.000000 0.000000
# 4 0.000000 0.000000 0.000000 0.023281 0.000000 0.000000
# 5 0.000000 0.000000 0.000000 0.000000 0.028869 0.000000
# 6 0.000000 0.000000 0.000000 0.000000 0.000000 0.039665
#
#
# Mechanical properties :
#
#
# Convention : Reuss Voigt Hill
#
# Bulk Modulus (GPa) = 18.56821 26.45027 22.50924
# Shear Modulus (GPa) = 26.19613 30.88588 28.54100
#
# Velocity S-wave (km/s) = 3.18561 3.45902 3.32513
# Velocity P-wave (km/s) = 4.55235 5.11856 4.84373
#
# Compressibility (1/GPa) = 0.05385548
#
# Stress axis : x y z
#
# Youngs Moduli (GPa) = 28.66931 59.41669 63.42004
#
# Poissons Ratio (x) = -0.38317 0.44245
# Poissons Ratio (y) = -0.18488 0.39852
# Poissons Ratio (z) = 0.20001 0.37337
#
# Static dielectric constant tensor:
#      x y z
#    x 2.205380 0.000000 0.000000 
#    y 0.000000 2.171740 0.000000 
#    z 0.000000 0.000000 2.130750 
# 
# From -- ./inp_files/3347.got.cif
#   From: 2010.05.17/outbox.cif.g08.bks.cpg/sg29_2_cif.got.tgz:3347.got - 2010.06.04 01:19:37.
