data_PCOD9340745
_publ_section_title
;
Structure prediction by ZEFSAII (Michael W. Deem and Ramdas Pophale) SiO2 
 PCOD9340745
Probable space group: P C A 21
;
_chemical_formula_sum "Si O2"
_cell_formula_units_Z 24
_cell_length_a 8.101838
_cell_length_b 11.355754
_cell_length_c 11.447577
_cell_angle_alpha 90.000000
_cell_angle_beta 90.000000
_cell_angle_gamma 90.000000
_cell_volume 1053.205466
_symmetry_space_group_name_H-M "P C A 21"
_symmetry_group_IT_number 29
_symmetry_cell_setting 'orthorhombic'
loop_
_space_group_symop_operation_xyz
x,y,z
-x,-y,1/2+z
1/2-x,y,1/2+z
1/2+x,-y,z
loop_
_atom_site_type_symbol
_atom_site_label
_atom_site_fract_x
_atom_site_fract_y
_atom_site_fract_z
Si Si1 0.508030 0.748308 0.649950
Si Si2 0.970873 0.369909 0.399574
Si Si3 0.230724 0.838601 0.780993
Si Si4 0.017546 0.003889 0.397891
Si Si5 0.154503 0.369015 0.872135
Si Si6 0.782648 0.850236 0.523448
O O1 0.499527 0.674201 0.531686
O O2 0.330184 0.811078 0.663225
O O3 0.542708 0.670752 0.763679
O O4 0.673935 0.828410 0.638171
O O5 0.851511 0.278822 0.332706
O O6 0.897110 0.500086 0.405962
O O7 0.151231 0.371669 0.340021
O O8 0.378627 0.892443 0.857819
O O9 0.094310 0.940701 0.795565
O O10 0.912337 0.955765 0.508064
O O11 0.140317 0.106912 0.434069
O O12 0.141323 0.271483 0.975389
#
# Coordination Sequence:
#
# PCOD9340745 Si02
#       6
#     4   4   4   4   4   4
#     4  11  24  45  72 105 129 191 232 270 374 408
#     4  11  26  47  69 103 142 173 238 297 342 415
#     4  11  22  43  68 102 141 182 228 287 340 407
#     4  10  21  43  68  95 151 177 221 297 329 398
#     4  11  23  45  69  99 140 176 230 295 338 415
#     4  10  22  43  64 102 139 177 229 286 333 413
#
# _framework density 22.787576999999999
#
# number of rings (size 3 to 8) (size 9 to 14) (size 15 to 20)
#    0.000    1.333    5.000    1.000    0.000    6.667 
#    3.000    0.000    0.000    0.000    0.000    0.000 
#    0.000    0.000    0.000    0.000    0.000    0.000 
#
# Total GULP energy -133969.857775 kJ/mol
# GULP energy per Si atom -5582.077407 kJ/mol
# Density = 2.273571 g / cm^3
# Si number density = 22.787577 Si / 1000 Ang^3
#
#
#
# Elastic Constant Matrix: (Units=GPa)
#
#
# Indices 1 2 3 4 5 6 
#
# 1 79.1942 23.9064 -0.4778 0.0000 0.0000 0.0000
# 2 23.9064 132.9665 9.5744 0.0000 0.0000 0.0000
# 3 -0.4778 9.5744 27.8528 0.0000 0.0000 0.0000
# 4 0.0000 0.0000 0.0000 30.4712 0.0000 0.0000
# 5 0.0000 0.0000 0.0000 0.0000 107.6630 0.0000
# 6 0.0000 0.0000 0.0000 0.0000 0.0000 9273.5662
#
#
#
# Elastic Compliance Matrix: (Units=1/GPa)
#
#
# Indices 1 2 3 4 5 6 
#
# 1 0.013384 -0.002484 0.001084 0.000000 0.000000 0.000000
# 2 -0.002484 0.008173 -0.002852 0.000000 0.000000 0.000000
# 3 0.001084 -0.002852 0.036902 0.000000 0.000000 0.000000
# 4 0.000000 0.000000 0.000000 0.032818 0.000000 0.000000
# 5 0.000000 0.000000 0.000000 0.000000 0.009288 0.000000
# 6 0.000000 0.000000 0.000000 0.000000 0.000000 0.000108
#
#
# Mechanical properties :
#
#
# Convention : Reuss Voigt Hill
#
# Bulk Modulus (GPa) = 20.01887 34.00217 27.01052
# Shear Modulus (GPa) = 39.73657 1896.14078 967.93867
#
# Velocity S-wave (km/s) = 4.18039 28.87734 20.63221
# Velocity P-wave (km/s) = 5.66612 33.56816 24.07204
#
# Compressibility (1/GPa) = 0.04995287
#
# Stress axis : x y z
#
# Youngs Moduli (GPa) = 74.71795 122.35839 27.09884
#
# Poissons Ratio (x) = 0.30398 -0.02936
# Poissons Ratio (y) = 0.18562 0.07729
# Poissons Ratio (z) = -0.08096 0.34896
#
# Static dielectric constant tensor:
#      x y z
#    x 1.886290 0.000000 0.000000 
#    y 0.000000 1.880470 0.000000 
#    z 0.000000 0.000000 1.872540 
# 
# From -- ./inp_files/2820.got.cif
#   From: 2010.05.17/outbox.cif.g08.bks.cpg/sg29_2_cif.got.tgz:2820.got - 2010.06.04 01:19:37.
