data_PCOD9340806
_publ_section_title
;
Structure prediction by ZEFSAII (Michael W. Deem and Ramdas Pophale) SiO2 
 PCOD9340806
Probable space group: P C A 21
;
_chemical_formula_sum "Si O2"
_cell_formula_units_Z 32
_cell_length_a 5.196690
_cell_length_b 17.907734
_cell_length_c 15.079108
_cell_angle_alpha 90.000000
_cell_angle_beta 90.000000
_cell_angle_gamma 90.000000
_cell_volume 1403.275998
_symmetry_space_group_name_H-M "P C A 21"
_symmetry_group_IT_number 29
_symmetry_cell_setting 'orthorhombic'
loop_
_space_group_symop_operation_xyz
x,y,z
-x,-y,1/2+z
1/2-x,y,1/2+z
1/2+x,-y,z
loop_
_atom_site_type_symbol
_atom_site_label
_atom_site_fract_x
_atom_site_fract_y
_atom_site_fract_z
Si Si1 0.817270 0.471004 0.929030
Si Si2 0.267150 0.229577 0.639050
Si Si3 0.360978 0.174478 0.829513
Si Si4 0.793057 0.305504 0.379398
Si Si5 0.342047 0.947725 0.407567
Si Si6 0.044539 0.473392 0.629759
Si Si7 0.460052 0.829288 0.975746
Si Si8 0.719658 0.317757 0.171014
O O1 0.599882 0.523525 0.886183
O O2 0.706587 0.387714 0.920999
O O3 0.888135 0.501620 0.028163
O O4 0.269074 0.186035 0.730989
O O5 0.366463 0.178215 0.561012
O O6 0.488283 0.294380 0.648172
O O7 0.982496 0.261113 0.626472
O O8 0.450264 0.255904 0.865976
O O9 0.595567 0.115330 0.832494
O O10 0.141065 0.146060 0.894408
O O11 0.632643 0.252162 0.444150
O O12 0.690497 0.312798 0.278162
O O13 0.270757 0.888509 0.485725
O O14 0.595475 0.998512 0.406962
O O15 0.331215 0.470154 0.670043
O O16 0.886544 0.397149 0.638817
#
# Coordination Sequence:
#
# PCOD9340806 Si02
#       8
#     4   4   4   4   4   4   4   4
#     4  10  24  37  57  88 124 169 224 286 343 423
#     4  11  26  41  70 101 139 176 236 293 341 417
#     4  10  23  47  70 108 139 184 242 280 352 419
#     4  10  24  41  66  96 132 180 237 296 348 421
#     4  11  23  44  75 103 145 187 217 273 338 407
#     4  10  22  38  56  83 122 167 220 281 349 424
#     4  11  24  42  75 104 138 186 235 284 348 411
#     4  11  24  42  63  93 131 179 229 301 357 412
#
# _framework density 22.803782999999999
#
# number of rings (size 3 to 8) (size 9 to 14) (size 15 to 20)
#    0.000    1.500    2.500    0.750   12.250    1.000 
#    0.000    1.250    0.000    0.000    0.000    0.000 
#    0.000    0.000    0.000    0.000    0.000    0.000 
#
# Total GULP energy -178440.053477 kJ/mol
# GULP energy per Si atom -5576.251671 kJ/mol
# Density = 2.275188 g / cm^3
# Si number density = 22.803783 Si / 1000 Ang^3
#
#
#
# Elastic Constant Matrix: (Units=GPa)
#
#
# Indices 1 2 3 4 5 6 
#
# 1 148.3790 39.3053 9.8107 0.0000 0.0000 0.0000
# 2 39.3053 130.3635 13.3746 0.0000 0.0000 0.0000
# 3 9.8107 13.3746 66.0841 0.0000 0.0000 0.0000
# 4 0.0000 0.0000 0.0000 6.4455 0.0000 0.0000
# 5 0.0000 0.0000 0.0000 0.0000 20.8572 0.0000
# 6 0.0000 0.0000 0.0000 0.0000 0.0000 23.3755
#
#
#
# Elastic Compliance Matrix: (Units=1/GPa)
#
#
# Indices 1 2 3 4 5 6 
#
# 1 0.007352 -0.002149 -0.000656 0.000000 0.000000 0.000000
# 2 -0.002149 0.008462 -0.001393 0.000000 0.000000 0.000000
# 3 -0.000656 -0.001393 0.015512 0.000000 0.000000 0.000000
# 4 0.000000 0.000000 0.000000 0.155147 0.000000 0.000000
# 5 0.000000 0.000000 0.000000 0.000000 0.047945 0.000000
# 6 0.000000 0.000000 0.000000 0.000000 0.000000 0.042780
#
#
# Mechanical properties :
#
#
# Convention : Reuss Voigt Hill
#
# Bulk Modulus (GPa) = 43.61647 52.20086 47.90867
# Shear Modulus (GPa) = 17.05097 28.95803 23.00450
#
# Velocity S-wave (km/s) = 2.73742 3.56740 3.17961
# Velocity P-wave (km/s) = 5.39997 6.31740 5.87661
#
# Compressibility (1/GPa) = 0.02292712
#
# Stress axis : x y z
#
# Youngs Moduli (GPa) = 136.01224 118.17701 64.46743
#
# Poissons Ratio (x) = 0.25401 0.04232
# Poissons Ratio (y) = 0.29234 0.08983
# Poissons Ratio (z) = 0.08929 0.16468
#
# Static dielectric constant tensor:
#      x y z
#    x 1.972220 0.000000 0.000000 
#    y 0.000000 1.893470 0.000000 
#    z 0.000000 0.000000 1.896230 
# 
# From -- ./inp_files/4142.got.cif
#   From: 2010.05.17/outbox.cif.g08.bks.cpg/sg29_3_cif.got.tgz:4142.got - 2010.06.04 01:19:37.
