data_PCOD9340164
_publ_section_title
;
Structure prediction by ZEFSAII (Michael W. Deem and Ramdas Pophale) SiO2 
 PCOD9340164
Probable space group: P C A 21
;
_chemical_formula_sum "Si O2"
_cell_formula_units_Z 32
_cell_length_a 19.746242
_cell_length_b 8.906098
_cell_length_c 10.191955
_cell_angle_alpha 90.000000
_cell_angle_beta 90.000000
_cell_angle_gamma 90.000000
_cell_volume 1792.377248
_symmetry_space_group_name_H-M "P C A 21"
_symmetry_group_IT_number 29
_symmetry_cell_setting 'orthorhombic'
loop_
_space_group_symop_operation_xyz
x,y,z
-x,-y,1/2+z
1/2-x,y,1/2+z
1/2+x,-y,z
loop_
_atom_site_type_symbol
_atom_site_label
_atom_site_fract_x
_atom_site_fract_y
_atom_site_fract_z
Si Si1 0.807643 0.887968 0.574850
Si Si2 0.023347 0.865345 0.798162
Si Si3 0.023348 0.134654 0.594773
Si Si4 0.398120 0.327117 0.733008
Si Si5 0.692357 0.112032 0.318084
Si Si6 0.663734 0.172789 0.907890
Si Si7 0.101880 0.672884 0.159927
Si Si8 0.336266 0.172789 0.985044
O O1 0.792623 1.000000 0.696467
O O2 0.832221 0.000886 0.461610
O O3 0.865372 0.774596 0.619366
O O4 0.738875 0.801806 0.538634
O O5 0.102033 0.820877 0.806361
O O6 0.974287 0.729354 0.758348
O O7 0.012704 1.000000 0.696467
O O8 1.000000 0.909037 0.946467
O O9 0.102033 0.179123 0.586573
O O10 0.974287 0.270645 0.634586
O O11 0.394162 0.500000 0.696467
O O12 0.356364 0.280341 0.864050
O O13 0.761125 0.198194 0.354300
O O14 0.634628 0.225404 0.273568
O O15 0.667779 0.999113 0.431324
O O16 0.643636 0.280341 0.028884
#
# Coordination Sequence:
#
# PCOD9340164 Si02
#       8
#     4   4   4   4   4   4   4   4
#     4   9  17  33  55  78 100 129 174 227 275 314
#     4  10  19  35  56  79 104 137 180 224 268 317
#     4  10  19  35  56  79 104 137 180 224 268 317
#     4  10  20  33  48  72 109 143 170 212 270 325
#     4   9  17  33  55  78 100 129 174 227 275 314
#     4   9  18  33  55  77  99 133 179 225 266 319
#     4  10  20  33  48  72 109 143 170 212 270 325
#     4   9  18  33  55  77  99 133 179 225 266 319
#
# _framework density 17.853383999999998
#
# number of rings (size 3 to 8) (size 9 to 14) (size 15 to 20)
#    0.000    2.500    0.000    4.500    0.000    1.000 
#    0.000   12.500    0.000    0.000    0.000    0.000 
#    0.000    0.000    0.000    0.000    0.000    0.000 
#
# Total GULP energy -178427.731235 kJ/mol
# GULP energy per Si atom -5575.866601 kJ/mol
# Density = 1.781275 g / cm^3
# Si number density = 17.853384 Si / 1000 Ang^3
#
#
#
# Elastic Constant Matrix: (Units=GPa)
#
#
# Indices 1 2 3 4 5 6 
#
# 1 135.6758 40.7538 28.2401 0.0000 0.0000 0.0000
# 2 40.7538 88.2041 33.3342 0.0000 0.0000 0.0000
# 3 28.2401 33.3342 34.6797 0.0000 0.0000 0.0000
# 4 0.0000 0.0000 0.0000 8.0958 0.0000 0.0000
# 5 0.0000 0.0000 0.0000 0.0000 22.4906 0.0000
# 6 0.0000 0.0000 0.0000 0.0000 0.0000 6.2825
#
#
#
# Elastic Compliance Matrix: (Units=1/GPa)
#
#
# Indices 1 2 3 4 5 6 
#
# 1 0.009142 -0.002215 -0.005315 0.000000 0.000000 0.000000
# 2 -0.002215 0.018342 -0.015826 0.000000 0.000000 0.000000
# 3 -0.005315 -0.015826 0.048376 0.000000 0.000000 0.000000
# 4 0.000000 0.000000 0.000000 0.123522 0.000000 0.000000
# 5 0.000000 0.000000 0.000000 0.000000 0.044463 0.000000
# 6 0.000000 0.000000 0.000000 0.000000 0.000000 0.159173
#
#
# Mechanical properties :
#
#
# Convention : Reuss Voigt Hill
#
# Bulk Modulus (GPa) = 34.30980 51.46843 42.88911
# Shear Modulus (GPa) = 10.88263 17.78919 14.33591
#
# Velocity S-wave (km/s) = 2.47160 3.16001 2.83676
# Velocity P-wave (km/s) = 5.23491 6.49655 5.89956
#
# Compressibility (1/GPa) = 0.02914620
#
# Stress axis : x y z
#
# Youngs Moduli (GPa) = 109.38169 54.51946 20.67143
#
# Poissons Ratio (x) = 0.12078 0.10987
# Poissons Ratio (y) = 0.24232 0.32716
# Poissons Ratio (z) = 0.58139 0.86285
#
# Static dielectric constant tensor:
#      x y z
#    x 1.634450 0.000000 0.000000 
#    y 0.000000 1.561000 0.000000 
#    z 0.000000 0.000000 1.646180 
# 
# From -- ./inp_files/3918.got.cif
#   From: 2010.05.17/outbox.cif.g08.bks.cpg/sg29_2_cif.got.tgz:3918.got - 2010.06.04 01:19:37.
