data_PCOD9340789
_publ_section_title
;
Structure prediction by ZEFSAII (Michael W. Deem and Ramdas Pophale) SiO2 
 PCOD9340789
Probable space group: P C A 21
;
_chemical_formula_sum "Si O2"
_cell_formula_units_Z 24
_cell_length_a 21.407912
_cell_length_b 5.132984
_cell_length_c 8.469120
_cell_angle_alpha 90.000000
_cell_angle_beta 90.000000
_cell_angle_gamma 90.000000
_cell_volume 930.641699
_symmetry_space_group_name_H-M "P C A 21"
_symmetry_group_IT_number 29
_symmetry_cell_setting 'orthorhombic'
loop_
_space_group_symop_operation_xyz
x,y,z
-x,-y,1/2+z
1/2-x,y,1/2+z
1/2+x,-y,z
loop_
_atom_site_type_symbol
_atom_site_label
_atom_site_fract_x
_atom_site_fract_y
_atom_site_fract_z
Si Si1 0.719748 0.973897 0.198110
Si Si2 0.683644 0.263749 0.910443
Si Si3 0.386289 0.716191 0.108342
Si Si4 0.969200 0.144865 0.843061
Si Si5 0.217430 0.364055 0.465121
Si Si6 0.983212 0.622711 0.637986
O O1 0.776651 0.857125 0.096419
O O2 0.691548 0.742900 0.301319
O O3 0.753877 0.158918 0.322029
O O4 0.676318 0.122620 0.076752
O O5 0.629461 0.211204 0.787493
O O6 0.709368 0.554312 0.941818
O O7 0.414296 0.903473 0.973337
O O8 0.325380 0.579914 0.041104
O O9 0.445050 0.521485 0.123490
O O10 0.024293 0.264600 0.958673
O O11 0.950267 0.378210 0.721604
O O12 0.981862 0.878461 0.750042
#
# Coordination Sequence:
#
# PCOD9340789 Si02
#       6
#     4   4   4   4   4   4
#     4  10  22  34  67  88 148 177 222 270 326 388
#     4  11  20  42  60 100 138 175 223 276 324 426
#     4  10  24  40  75  86 140 181 222 282 376 394
#     4  10  23  46  72 100 134 174 235 301 350 418
#     4  11  20  42  60 100 138 175 223 276 324 426
#     4  10  23  46  72 100 134 174 235 301 350 418
#
# _framework density 25.788661999999999
#
# number of rings (size 3 to 8) (size 9 to 14) (size 15 to 20)
#    1.000    0.667    3.333    1.000    0.000    2.667 
#    3.000    3.333    0.000    0.000    0.000    0.000 
#    0.000    0.000    0.000    0.000    0.000    0.000 
#
# Total GULP energy -133834.481507 kJ/mol
# GULP energy per Si atom -5576.436729 kJ/mol
# Density = 2.572997 g / cm^3
# Si number density = 25.788662 Si / 1000 Ang^3
#
#
#
# Elastic Constant Matrix: (Units=GPa)
#
#
# Indices 1 2 3 4 5 6 
#
# 1 43.6780 12.7559 7.8693 0.0000 0.0000 0.0000
# 2 12.7559 99.6996 56.7451 0.0000 0.0000 0.0000
# 3 7.8693 56.7451 129.2615 0.0000 0.0000 0.0000
# 4 0.0000 0.0000 0.0000 49.8142 0.0000 0.0000
# 5 0.0000 0.0000 0.0000 0.0000 40.8955 0.0000
# 6 0.0000 0.0000 0.0000 0.0000 0.0000 14.5926
#
#
#
# Elastic Compliance Matrix: (Units=1/GPa)
#
#
# Indices 1 2 3 4 5 6 
#
# 1 0.023786 -0.002958 -0.000149 0.000000 0.000000 0.000000
# 2 -0.002958 0.013739 -0.005851 0.000000 0.000000 0.000000
# 3 -0.000149 -0.005851 0.010314 0.000000 0.000000 0.000000
# 4 0.000000 0.000000 0.000000 0.020075 0.000000 0.000000
# 5 0.000000 0.000000 0.000000 0.000000 0.024453 0.000000
# 6 0.000000 0.000000 0.000000 0.000000 0.000000 0.068528
#
#
# Mechanical properties :
#
#
# Convention : Reuss Voigt Hill
#
# Bulk Modulus (GPa) = 33.42140 47.48664 40.45402
# Shear Modulus (GPa) = 26.48517 34.07837 30.28177
#
# Velocity S-wave (km/s) = 3.20817 3.63912 3.43042
# Velocity P-wave (km/s) = 5.16827 6.00927 5.60457
#
# Compressibility (1/GPa) = 0.02992095
#
# Stress axis : x y z
#
# Youngs Moduli (GPa) = 42.04215 72.78615 96.95560
#
# Poissons Ratio (x) = 0.21531 0.01449
# Poissons Ratio (y) = 0.12437 0.56731
# Poissons Ratio (z) = 0.00628 0.42589
#
# Static dielectric constant tensor:
#      x y z
#    x 2.055880 0.000000 0.000000 
#    y 0.000000 2.093000 0.000000 
#    z 0.000000 0.000000 2.045960 
# 
# From -- ./inp_files/2377.got.cif
#   From: 2010.05.17/outbox.cif.g08.bks.cpg/sg29_2_cif.got.tgz:2377.got - 2010.06.04 01:19:37.
