data_PCOD9340915
_publ_section_title
;
Structure prediction by ZEFSAII (Michael W. Deem and Ramdas Pophale) SiO2 
 PCOD9340915
Probable space group: P C A 21
;
_chemical_formula_sum "Si O2"
_cell_formula_units_Z 16
_cell_length_a 8.699115
_cell_length_b 8.745848
_cell_length_c 8.013442
_cell_angle_alpha 90.000000
_cell_angle_beta 90.000000
_cell_angle_gamma 90.000000
_cell_volume 609.671783
_symmetry_space_group_name_H-M "P C A 21"
_symmetry_group_IT_number 29
_symmetry_cell_setting 'orthorhombic'
loop_
_space_group_symop_operation_xyz
x,y,z
-x,-y,1/2+z
1/2-x,y,1/2+z
1/2+x,-y,z
loop_
_atom_site_type_symbol
_atom_site_label
_atom_site_fract_x
_atom_site_fract_y
_atom_site_fract_z
Si Si1 0.053505 0.165508 0.251830
Si Si2 0.296837 0.660501 0.089430
Si Si3 0.016610 0.159374 0.884035
Si Si4 0.569962 0.667720 0.573033
O O1 0.114539 0.288210 0.384397
O O2 0.875681 0.216595 0.213757
O O3 0.056063 0.004437 0.345117
O O4 0.107926 0.153066 0.059441
O O5 0.356246 0.491157 0.127816
O O6 0.115928 0.659849 0.068423
O O7 0.389293 0.711037 0.922309
O O8 0.102253 0.207896 0.716508
#
# Coordination Sequence:
#
# PCOD9340915 Si02
#       4
#     4   4   4   4
#     4  10  22  41  68  93 131 178 225 279 334 392
#     4  10  25  40  74  94 140 180 217 282 336 402
#     4  10  22  41  68  93 131 178 225 279 334 392
#     4  12  21  48  64 104 138 176 227 274 342 402
#
# _framework density 26.243627
#
# number of rings (size 3 to 8) (size 9 to 14) (size 15 to 20)
#    1.500    0.000    2.500    3.000    0.000    0.000 
#    0.000   15.000    0.000    0.000    0.000    0.000 
#    0.000    0.000    0.000    0.000    0.000    0.000 
#
# Total GULP energy -89449.800371 kJ/mol
# GULP energy per Si atom -5590.612523 kJ/mol
# Density = 2.618390 g / cm^3
# Si number density = 26.243627 Si / 1000 Ang^3
#
#
#
# Elastic Constant Matrix: (Units=GPa)
#
#
# Indices 1 2 3 4 5 6 
#
# 1 102.8943 -2.9330 33.2187 0.0000 0.0000 0.0000
# 2 -2.9330 109.8153 18.8660 0.0000 0.0000 0.0000
# 3 33.2187 18.8660 168.3826 0.0000 0.0000 0.0000
# 4 0.0000 0.0000 0.0000 56.2733 0.0000 0.0000
# 5 0.0000 0.0000 0.0000 0.0000 46.5963 0.0000
# 6 0.0000 0.0000 0.0000 0.0000 0.0000 -14.9205
#
#
#
# Elastic Compliance Matrix: (Units=1/GPa)
#
#
# Indices 1 2 3 4 5 6 
#
# 1 0.010424 0.000644 -0.002129 0.000000 0.000000 0.000000
# 2 0.000644 0.009325 -0.001172 0.000000 0.000000 0.000000
# 3 -0.002129 -0.001172 0.006490 0.000000 0.000000 0.000000
# 4 0.000000 0.000000 0.000000 0.017770 0.000000 0.000000
# 5 0.000000 0.000000 0.000000 0.000000 0.021461 0.000000
# 6 0.000000 0.000000 0.000000 0.000000 0.000000 -0.067022
#
#
# Mechanical properties :
#
#
# Convention : Reuss Voigt Hill
#
# Bulk Modulus (GPa) = 47.78670 53.26617 50.52644
# Shear Modulus (GPa) = 465.69476 39.71920 252.70698
#
# Velocity S-wave (km/s) = 13.33551 3.89457 9.82353
# Velocity P-wave (km/s) = 15.98008 6.36902 12.16403
#
# Compressibility (1/GPa) = 0.02092632
#
# Stress axis : x y z
#
# Youngs Moduli (GPa) = 95.92966 107.24176 154.08084
#
# Poissons Ratio (x) = -0.06908 0.32799
# Poissons Ratio (y) = -0.06179 0.18056
# Poissons Ratio (z) = 0.20420 0.12567
#
# Static dielectric constant tensor:
#      x y z
#    x 2.044760 0.000000 0.000000 
#    y 0.000000 1.903890 0.000000 
#    z 0.000000 0.000000 2.110900 
# 
# From -- ./inp_files/1029.got.cif
#   From: 2010.05.17/outbox.cif.g08.bks.cpg/sg29_1_cif.got.tgz:1029.got - 2010.06.04 01:19:37.
