data_PCOD9340189
_publ_section_title
;
Structure prediction by ZEFSAII (Michael W. Deem and Ramdas Pophale) SiO2 
 PCOD9340189
Probable space group: P C A 21
;
_chemical_formula_sum "Si O2"
_cell_formula_units_Z 32
_cell_length_a 5.297443
_cell_length_b 16.796262
_cell_length_c 15.208726
_cell_angle_alpha 90.000000
_cell_angle_beta 90.000000
_cell_angle_gamma 90.000000
_cell_volume 1353.230472
_symmetry_space_group_name_H-M "P C A 21"
_symmetry_group_IT_number 29
_symmetry_cell_setting 'orthorhombic'
loop_
_space_group_symop_operation_xyz
x,y,z
-x,-y,1/2+z
1/2-x,y,1/2+z
1/2+x,-y,z
loop_
_atom_site_type_symbol
_atom_site_label
_atom_site_fract_x
_atom_site_fract_y
_atom_site_fract_z
Si Si1 0.520514 0.529195 0.789550
Si Si2 0.411679 0.202044 0.835096
Si Si3 0.138937 0.025496 0.562414
Si Si4 0.579084 0.464740 0.587665
Si Si5 0.391302 0.714920 0.783106
Si Si6 0.243524 0.717508 0.585734
Si Si7 0.235835 0.198351 0.529883
Si Si8 0.105126 0.960768 0.758644
O O1 0.292341 0.481339 0.832681
O O2 0.555148 0.490684 0.691326
O O3 0.441627 0.620736 0.786568
O O4 0.166646 0.245092 0.793258
O O5 0.308466 0.175118 0.929310
O O6 0.506298 0.125962 0.781574
O O7 0.663328 0.257002 0.846500
O O8 0.171755 0.118219 0.582974
O O9 0.121772 0.975287 0.653145
O O10 0.381055 0.992068 0.513034
O O11 0.303155 0.481149 0.550365
O O12 0.663522 0.374259 0.577270
O O13 0.271913 0.734433 0.688857
O O14 0.522222 0.736195 0.549997
O O15 0.016748 0.770415 0.547052
O O16 0.387048 0.978923 0.791264
#
# Coordination Sequence:
#
# PCOD9340189 Si02
#       8
#     4   4   4   4   4   4   4   4
#     4  10  19  36  61 104 133 163 229 300 339 377
#     4  12  28  46  67 101 149 186 223 285 368 425
#     4  10  23  42  67  99 132 170 233 286 333 405
#     4  10  19  36  61 104 133 163 229 300 339 377
#     4  12  25  41  75 104 133 184 242 291 340 413
#     4  12  25  41  75 104 133 184 242 291 340 413
#     4  12  28  46  67 101 149 186 223 285 368 425
#     4  10  23  42  67  99 132 170 233 286 333 405
#
# _framework density 23.647116
#
# number of rings (size 3 to 8) (size 9 to 14) (size 15 to 20)
#    0.000    1.000    2.500    4.500   14.000    1.000 
#    0.000    0.000    0.000   15.000    0.000    0.000 
#    0.000    0.000    0.000    0.000    0.000    0.000 
#
# Total GULP energy -178922.011002 kJ/mol
# GULP energy per Si atom -5591.312844 kJ/mol
# Density = 2.359329 g / cm^3
# Si number density = 23.647116 Si / 1000 Ang^3
#
#
#
# Elastic Constant Matrix: (Units=GPa)
#
#
# Indices 1 2 3 4 5 6 
#
# 1 190.6062 28.2019 -8.2594 0.0000 0.0000 0.0000
# 2 28.2019 114.8396 10.9591 0.0000 0.0000 0.0000
# 3 -8.2594 10.9591 37.0116 0.0000 0.0000 0.0000
# 4 0.0000 0.0000 0.0000 -10.0769 0.0000 0.0000
# 5 0.0000 0.0000 0.0000 0.0000 13.2044 0.0000
# 6 0.0000 0.0000 0.0000 0.0000 0.0000 51.2346
#
#
#
# Elastic Compliance Matrix: (Units=1/GPa)
#
#
# Indices 1 2 3 4 5 6 
#
# 1 0.005545 -0.001523 0.001688 0.000000 0.000000 0.000000
# 2 -0.001523 0.009379 -0.003117 0.000000 0.000000 0.000000
# 3 0.001688 -0.003117 0.028318 0.000000 0.000000 0.000000
# 4 0.000000 0.000000 0.000000 -0.099237 0.000000 0.000000
# 5 0.000000 0.000000 0.000000 0.000000 0.075732 0.000000
# 6 0.000000 0.000000 0.000000 0.000000 0.000000 0.019518
#
#
# Mechanical properties :
#
#
# Convention : Reuss Voigt Hill
#
# Bulk Modulus (GPa) = 26.78144 44.91783 35.84963
# Shear Modulus (GPa) = 86.79755 31.64280 59.22018
#
# Velocity S-wave (km/s) = 6.06507 3.66201 5.00976
# Velocity P-wave (km/s) = 7.77153 6.07591 6.97544
#
# Compressibility (1/GPa) = 0.03733930
#
# Stress axis : x y z
#
# Youngs Moduli (GPa) = 180.34624 106.61870 35.31295
#
# Poissons Ratio (x) = 0.16236 -0.05962
# Poissons Ratio (y) = 0.27463 0.11007
# Poissons Ratio (z) = -0.30448 0.33233
#
# Static dielectric constant tensor:
#      x y z
#    x 1.983120 0.000000 0.000000 
#    y 0.000000 1.886410 0.000000 
#    z 0.000000 0.000000 1.834950 
# 
# From -- ./inp_files/4100.got.cif
#   From: 2010.05.17/outbox.cif.g08.bks.cpg/sg29_3_cif.got.tgz:4100.got - 2010.06.04 01:19:37.
