data_PCOD9340446
_publ_section_title
;
Structure prediction by ZEFSAII (Michael W. Deem and Ramdas Pophale) SiO2 
 PCOD9340446
Probable space group: P C A 21
;
_chemical_formula_sum "Si O2"
_cell_formula_units_Z 28
_cell_length_a 10.787556
_cell_length_b 10.777002
_cell_length_c 9.679828
_cell_angle_alpha 90.000000
_cell_angle_beta 90.000000
_cell_angle_gamma 90.000000
_cell_volume 1125.352726
_symmetry_space_group_name_H-M "P C A 21"
_symmetry_group_IT_number 29
_symmetry_cell_setting 'orthorhombic'
loop_
_space_group_symop_operation_xyz
x,y,z
-x,-y,1/2+z
1/2-x,y,1/2+z
1/2+x,-y,z
loop_
_atom_site_type_symbol
_atom_site_label
_atom_site_fract_x
_atom_site_fract_y
_atom_site_fract_z
Si Si1 0.846678 0.631871 0.009830
Si Si2 0.994175 0.527574 0.228077
Si Si3 0.908926 0.709118 0.558368
Si Si4 0.124269 0.017475 0.119033
Si Si5 0.378815 0.957858 0.281265
Si Si6 0.911547 0.297088 0.386296
Si Si7 0.147228 0.654081 0.412344
O O1 0.713933 0.680476 0.972614
O O2 0.882522 0.608705 0.167609
O O3 0.857556 0.489547 0.959717
O O4 0.957698 0.718889 0.959487
O O5 0.061026 0.416450 0.143120
O O6 0.104206 0.626374 0.256164
O O7 0.923814 0.439677 0.337930
O O8 0.872345 0.833591 0.634049
O O9 0.032824 0.729273 0.472154
O O10 0.995549 0.980030 0.198943
O O11 0.247914 0.976456 0.202173
O O12 0.123689 0.987771 0.950265
O O13 0.401037 0.809118 0.273490
O O14 0.777145 0.290707 0.454321
#
# Coordination Sequence:
#
# PCOD9340446 Si02
#       7
#     4   4   4   4   4   4   4
#     4  10  22  38  66 102 142 189 236 296 375 458
#     4  10  20  40  66 106 146 192 240 304 374 470
#     4  11  24  43  69 101 150 190 253 308 382 457
#     4  12  30  53  81 111 153 200 268 334 393 461
#     4  12  30  53  81 111 153 200 268 334 393 461
#     4  11  24  43  69 101 150 190 253 308 382 457
#     4  10  22  38  66 102 142 189 236 296 375 458
#
# _framework density 24.881088999999999
#
# number of rings (size 3 to 8) (size 9 to 14) (size 15 to 20)
#    0.000    1.143    1.429    4.286    8.000    4.571 
#    0.000    0.000    0.000    0.000    0.000    0.000 
#    0.000    0.000    0.000    0.000    0.000    0.000 
#
# Total GULP energy -155881.697180 kJ/mol
# GULP energy per Si atom -5567.203471 kJ/mol
# Density = 2.482446 g / cm^3
# Si number density = 24.881089 Si / 1000 Ang^3
#
#
#
# Elastic Constant Matrix: (Units=GPa)
#
#
# Indices 1 2 3 4 5 6 
#
# 1 188.7719 23.9489 42.7180 0.0000 0.0000 0.0000
# 2 23.9489 53.3328 14.9628 0.0000 0.0000 0.0000
# 3 42.7180 14.9628 95.2269 0.0000 0.0000 0.0000
# 4 0.0000 0.0000 0.0000 19.5235 0.0000 0.0000
# 5 0.0000 0.0000 0.0000 0.0000 41.4408 0.0000
# 6 0.0000 0.0000 0.0000 0.0000 0.0000 17.0476
#
#
#
# Elastic Compliance Matrix: (Units=1/GPa)
#
#
# Indices 1 2 3 4 5 6 
#
# 1 0.006106 -0.002064 -0.002415 0.000000 0.000000 0.000000
# 2 -0.002064 0.020313 -0.002266 0.000000 0.000000 0.000000
# 3 -0.002415 -0.002266 0.011940 0.000000 0.000000 0.000000
# 4 0.000000 0.000000 0.000000 0.051220 0.000000 0.000000
# 5 0.000000 0.000000 0.000000 0.000000 0.024131 0.000000
# 6 0.000000 0.000000 0.000000 0.000000 0.000000 0.058659
#
#
# Mechanical properties :
#
#
# Convention : Reuss Voigt Hill
#
# Bulk Modulus (GPa) = 40.20950 55.62122 47.91536
# Shear Modulus (GPa) = 25.75349 32.64917 29.20133
#
# Velocity S-wave (km/s) = 3.22073 3.62637 3.42955
# Velocity P-wave (km/s) = 5.47965 6.31961 5.91456
#
# Compressibility (1/GPa) = 0.02486974
#
# Stress axis : x y z
#
# Youngs Moduli (GPa) = 163.78125 49.23000 83.74921
#
# Poissons Ratio (x) = 0.10163 0.20222
# Poissons Ratio (y) = 0.33810 0.18975
# Poissons Ratio (z) = 0.39547 0.11154
#
# Static dielectric constant tensor:
#      x y z
#    x 1.999980 0.000000 0.000000 
#    y 0.000000 1.906090 0.000000 
#    z 0.000000 0.000000 2.619830 
# 
# From -- ./inp_files/2855.got.cif
#   From: 2010.05.17/outbox.cif.g08.bks.cpg/sg29_2_cif.got.tgz:2855.got - 2010.06.04 01:19:37.
