data_PCOD9340976
_publ_section_title
;
Structure prediction by ZEFSAII (Michael W. Deem and Ramdas Pophale) SiO2 
 PCOD9340976
Probable space group: P C A 21
;
_chemical_formula_sum "Si O2"
_cell_formula_units_Z 28
_cell_length_a 23.303929
_cell_length_b 5.267972
_cell_length_c 8.553893
_cell_angle_alpha 90.000000
_cell_angle_beta 90.000000
_cell_angle_gamma 90.000000
_cell_volume 1050.113931
_symmetry_space_group_name_H-M "P C A 21"
_symmetry_group_IT_number 29
_symmetry_cell_setting 'orthorhombic'
loop_
_space_group_symop_operation_xyz
x,y,z
-x,-y,1/2+z
1/2-x,y,1/2+z
1/2+x,-y,z
loop_
_atom_site_type_symbol
_atom_site_label
_atom_site_fract_x
_atom_site_fract_y
_atom_site_fract_z
Si Si1 0.401289 0.311100 0.023240
Si Si2 0.058400 0.435408 0.988904
Si Si3 0.974701 0.303956 0.203318
Si Si4 0.782663 0.264807 0.211173
Si Si5 0.541253 0.107038 0.322340
Si Si6 0.167551 0.679949 0.365275
Si Si7 0.841277 0.784161 0.328730
O O1 0.426624 0.577822 0.088767
O O2 0.383745 0.171563 0.181089
O O3 0.444854 0.147999 0.925723
O O4 0.348625 0.389952 0.912455
O O5 0.118514 0.290978 0.974931
O O6 0.057863 0.670968 0.869454
O O7 0.030048 0.485916 0.156538
O O8 0.008375 0.270091 0.905948
O O9 0.005801 0.035434 0.187081
O O10 0.714432 0.286665 0.231437
O O11 0.807050 0.531181 0.277832
O O12 0.803167 0.033900 0.322456
O O13 0.805192 0.225740 0.032547
O O14 0.606929 0.203295 0.308733
#
# Coordination Sequence:
#
# PCOD9340976 Si02
#       7
#     4   4   4   4   4   4   4
#     4  10  22  43  66  98 143 187 232 293 371 438
#     4  11  26  40  70 101 146 187 239 298 373 443
#     4  11  23  41  62 104 141 186 230 295 367 447
#     4  11  26  47  76  98 143 191 248 304 363 429
#     4  12  23  41  74 101 146 187 246 293 381 448
#     4  11  25  47  70 103 136 195 244 307 365 436
#     4  10  25  45  72 101 141 191 239 294 368 435
#
# _framework density 26.663772000000002
#
# number of rings (size 3 to 8) (size 9 to 14) (size 15 to 20)
#    0.000    1.143    4.286    0.000   12.000    1.143 
#    5.143    0.000    0.000    0.000    0.000    0.000 
#    0.000    0.000    0.000    0.000    0.000    0.000 
#
# Total GULP energy -156262.135752 kJ/mol
# GULP energy per Si atom -5580.790563 kJ/mol
# Density = 2.660308 g / cm^3
# Si number density = 26.663772 Si / 1000 Ang^3
#
#
#
# Elastic Constant Matrix: (Units=GPa)
#
#
# Indices 1 2 3 4 5 6 
#
# 1 160.0956 45.9050 30.0929 0.0000 0.0000 0.0000
# 2 45.9050 68.7294 2.5379 0.0000 0.0000 0.0000
# 3 30.0929 2.5379 57.8431 0.0000 0.0000 0.0000
# 4 0.0000 0.0000 0.0000 32.1587 0.0000 0.0000
# 5 0.0000 0.0000 0.0000 0.0000 39.5613 0.0000
# 6 0.0000 0.0000 0.0000 0.0000 0.0000 35.1333
#
#
#
# Elastic Compliance Matrix: (Units=1/GPa)
#
#
# Indices 1 2 3 4 5 6 
#
# 1 0.008660 -0.005627 -0.004259 0.000000 0.000000 0.000000
# 2 -0.005627 0.018230 0.002128 0.000000 0.000000 0.000000
# 3 -0.004259 0.002128 0.019410 0.000000 0.000000 0.000000
# 4 0.000000 0.000000 0.000000 0.031096 0.000000 0.000000
# 5 0.000000 0.000000 0.000000 0.000000 0.025277 0.000000
# 6 0.000000 0.000000 0.000000 0.000000 0.000000 0.028463
#
#
# Mechanical properties :
#
#
# Convention : Reuss Voigt Hill
#
# Bulk Modulus (GPa) = 32.48423 49.30442 40.89433
# Shear Modulus (GPa) = 31.86471 35.24615 33.55543
#
# Velocity S-wave (km/s) = 3.46071 3.63970 3.55133
# Velocity P-wave (km/s) = 5.30830 6.01619 5.67330
#
# Compressibility (1/GPa) = 0.03078416
#
# Stress axis : x y z
#
# Youngs Moduli (GPa) = 115.47079 54.85598 51.51895
#
# Poissons Ratio (x) = 0.30867 0.21940
# Poissons Ratio (y) = 0.64975 -0.10961
# Poissons Ratio (z) = 0.49174 -0.11671
#
# Static dielectric constant tensor:
#      x y z
#    x 2.069280 0.000000 0.000000 
#    y 0.000000 2.272570 0.000000 
#    z 0.000000 0.000000 2.490130 
# 
# From -- ./inp_files/3769.got.cif
#   From: 2010.05.17/outbox.cif.g08.bks.cpg/sg29_2_cif.got.tgz:3769.got - 2010.06.04 01:19:37.
