data_PCOD9340952
_publ_section_title
;
Structure prediction by ZEFSAII (Michael W. Deem and Ramdas Pophale) SiO2 
 PCOD9340952
Probable space group: P C A 21
;
_chemical_formula_sum "Si O2"
_cell_formula_units_Z 28
_cell_length_a 25.565303
_cell_length_b 5.799664
_cell_length_c 8.170428
_cell_angle_alpha 90.000000
_cell_angle_beta 90.000000
_cell_angle_gamma 90.000000
_cell_volume 1211.430728
_symmetry_space_group_name_H-M "P C A 21"
_symmetry_group_IT_number 29
_symmetry_cell_setting 'orthorhombic'
loop_
_space_group_symop_operation_xyz
x,y,z
-x,-y,1/2+z
1/2-x,y,1/2+z
1/2+x,-y,z
loop_
_atom_site_type_symbol
_atom_site_label
_atom_site_fract_x
_atom_site_fract_y
_atom_site_fract_z
Si Si1 0.569190 0.903378 0.020050
Si Si2 0.429785 0.461641 0.769557
Si Si3 0.285804 0.962100 0.063011
Si Si4 0.390693 0.496655 0.295260
Si Si5 0.480658 0.694921 0.456882
Si Si6 0.168879 0.459811 0.464585
Si Si7 0.176253 0.862659 0.931752
O O1 0.564788 0.793685 0.196672
O O2 0.581627 0.712022 0.885388
O O3 0.515655 0.033678 0.980461
O O4 0.623271 0.042241 0.009059
O O5 0.452439 0.618321 0.625086
O O6 0.469472 0.457326 0.920526
O O7 0.369292 0.489878 0.810305
O O8 0.308459 0.961039 0.249599
O O9 0.303682 0.711716 0.986539
O O10 0.223507 0.929285 0.049994
O O11 0.300932 0.210116 0.976681
O O12 0.438272 0.677380 0.308878
O O13 0.340186 0.597331 0.393171
O O14 0.370155 0.442667 0.118483
#
# Coordination Sequence:
#
# PCOD9340952 Si02
#       7
#     4   4   4   4   4   4   4
#     4  10  22  42  67  97 132 179 228 289 343 415
#     4  11  25  41  68  96 143 175 236 285 352 423
#     4  11  26  42  71  99 137 182 233 284 350 419
#     4   9  20  44  65  92 133 175 228 286 344 407
#     4  10  23  43  65 100 130 186 227 288 351 417
#     4  11  25  44  66 104 136 183 228 289 344 413
#     4  10  23  42  66  96 137 176 230 287 350 410
#
# _framework density 23.113163
#
# number of rings (size 3 to 8) (size 9 to 14) (size 15 to 20)
#    0.000    1.714    1.429    0.857    6.000    5.714 
#    0.000    0.000    0.000    0.000    0.000    0.000 
#    0.000    0.000    0.000    0.000    0.000    0.000 
#
# Total GULP energy -155869.547828 kJ/mol
# GULP energy per Si atom -5566.769565 kJ/mol
# Density = 2.306056 g / cm^3
# Si number density = 23.113163 Si / 1000 Ang^3
#
#
#
# Elastic Constant Matrix: (Units=GPa)
#
#
# Indices 1 2 3 4 5 6 
#
# 1 58.3079 20.4942 0.0462 0.0000 0.0000 0.0000
# 2 20.4942 89.7780 13.2550 0.0000 0.0000 0.0000
# 3 0.0462 13.2550 37.0481 0.0000 0.0000 0.0000
# 4 0.0000 0.0000 0.0000 27.0482 0.0000 0.0000
# 5 0.0000 0.0000 0.0000 0.0000 37.1808 0.0000
# 6 0.0000 0.0000 0.0000 0.0000 0.0000 19.4114
#
#
#
# Elastic Compliance Matrix: (Units=1/GPa)
#
#
# Indices 1 2 3 4 5 6 
#
# 1 0.018735 -0.004512 0.001591 0.000000 0.000000 0.000000
# 2 -0.004512 0.012846 -0.004590 0.000000 0.000000 0.000000
# 3 0.001591 -0.004590 0.028632 0.000000 0.000000 0.000000
# 4 0.000000 0.000000 0.000000 0.036971 0.000000 0.000000
# 5 0.000000 0.000000 0.000000 0.000000 0.026896 0.000000
# 6 0.000000 0.000000 0.000000 0.000000 0.000000 0.051516
#
#
# Mechanical properties :
#
#
# Convention : Reuss Voigt Hill
#
# Bulk Modulus (GPa) = 22.12838 28.08052 25.10445
# Shear Modulus (GPa) = 24.30935 26.81733 25.56334
#
# Velocity S-wave (km/s) = 3.24659 3.40996 3.32928
# Velocity P-wave (km/s) = 4.86298 5.26111 5.06596
#
# Compressibility (1/GPa) = 0.04519083
#
# Stress axis : x y z
#
# Youngs Moduli (GPa) = 53.37659 77.84397 34.92559
#
# Poissons Ratio (x) = 0.35120 -0.05556
# Poissons Ratio (y) = 0.24081 0.16032
# Poissons Ratio (z) = -0.08491 0.35734
#
# Static dielectric constant tensor:
#      x y z
#    x 1.879210 0.000000 0.000000 
#    y 0.000000 2.135640 0.000000 
#    z 0.000000 0.000000 1.898660 
# 
# From -- ./inp_files/2415.got.cif
#   From: 2010.05.17/outbox.cif.g08.bks.cpg/sg29_2_cif.got.tgz:2415.got - 2010.06.04 01:19:37.
