data_PCOD9340040
_publ_section_title
;
Structure prediction by ZEFSAII (Michael W. Deem and Ramdas Pophale) SiO2 
 PCOD9340040
Probable space group: P C A 21
;
_chemical_formula_sum "Si O2"
_cell_formula_units_Z 28
_cell_length_a 5.551906
_cell_length_b 9.775383
_cell_length_c 19.246994
_cell_angle_alpha 90.000000
_cell_angle_beta 90.000000
_cell_angle_gamma 90.000000
_cell_volume 1044.573003
_symmetry_space_group_name_H-M "P C A 21"
_symmetry_group_IT_number 29
_symmetry_cell_setting 'orthorhombic'
loop_
_space_group_symop_operation_xyz
x,y,z
-x,-y,1/2+z
1/2-x,y,1/2+z
1/2+x,-y,z
loop_
_atom_site_type_symbol
_atom_site_label
_atom_site_fract_x
_atom_site_fract_y
_atom_site_fract_z
Si Si1 0.344038 0.696997 0.339120
Si Si2 0.176912 0.264111 0.139470
Si Si3 0.143549 0.481257 0.966512
Si Si4 0.244080 0.073700 0.019038
Si Si5 0.360363 0.995702 0.739086
Si Si6 0.677893 0.316408 0.191493
Si Si7 0.656955 0.798041 0.879225
O O1 0.359374 0.593686 0.403713
O O2 0.255276 0.628529 0.267445
O O3 0.610789 0.763225 0.330540
O O4 0.119790 0.798741 0.353783
O O5 0.151653 0.121593 0.184508
O O6 0.406422 0.348465 0.167965
O O7 0.916265 0.333556 0.145427
O O8 0.232696 0.213768 0.062135
O O9 0.393072 0.501981 0.005707
O O10 0.144401 0.338988 0.926806
O O11 0.232794 0.091291 0.936165
O O12 0.497524 0.004689 0.038137
O O13 0.610842 0.992819 0.779256
O O14 0.343484 0.850151 0.700330
#
# Coordination Sequence:
#
# PCOD9340040 Si02
#       7
#     4   4   4   4   4   4   4
#     4  10  19  35  57  85 113 141 184 240 296 348
#     4  10  19  33  51  74 105 147 191 226 272 328
#     4   8  16  32  56  80 102 137 185 230 283 343
#     4  12  23  38  57  78 115 159 200 239 276 333
#     4   8  14  25  39  60  88 125 166 198 241 297
#     4  10  18  30  51  78 105 135 179 230 277 333
#     4  10  21  37  55  83 112 150 195 235 287 338
#
# _framework density 26.805212000000001
#
# number of rings (size 3 to 8) (size 9 to 14) (size 15 to 20)
#    0.000    2.286    0.000    5.143    0.000    0.000 
#    0.000   12.857    0.000    0.000    0.000   54.000 
#    0.000    0.000    0.000    0.000    0.000    0.000 
#
# Total GULP energy -156480.550138 kJ/mol
# GULP energy per Si atom -5588.591076 kJ/mol
# Density = 2.674420 g / cm^3
# Si number density = 26.805212 Si / 1000 Ang^3
#
#
#
# Elastic Constant Matrix: (Units=GPa)
#
#
# Indices 1 2 3 4 5 6 
#
# 1 264.4650 22.1123 22.0989 0.0000 0.0000 0.0000
# 2 22.1123 69.8502 6.5077 0.0000 0.0000 0.0000
# 3 22.0989 6.5077 102.9639 0.0000 0.0000 0.0000
# 4 0.0000 0.0000 0.0000 36.9038 0.0000 0.0000
# 5 0.0000 0.0000 0.0000 0.0000 -20.4561 0.0000
# 6 0.0000 0.0000 0.0000 0.0000 0.0000 7.2618
#
#
#
# Elastic Compliance Matrix: (Units=1/GPa)
#
#
# Indices 1 2 3 4 5 6 
#
# 1 0.003944 -0.001177 -0.000772 0.000000 0.000000 0.000000
# 2 -0.001177 0.014752 -0.000680 0.000000 0.000000 0.000000
# 3 -0.000772 -0.000680 0.009921 0.000000 0.000000 0.000000
# 4 0.000000 0.000000 0.000000 0.027097 0.000000 0.000000
# 5 0.000000 0.000000 0.000000 0.000000 -0.048885 0.000000
# 6 0.000000 0.000000 0.000000 0.000000 0.000000 0.137708
#
#
# Mechanical properties :
#
#
# Convention : Reuss Voigt Hill
#
# Bulk Modulus (GPa) = 42.80850 59.85743 51.33297
# Shear Modulus (GPa) = 31.72970 30.51258 31.12114
#
# Velocity S-wave (km/s) = 3.44425 3.37754 3.41106
# Velocity P-wave (km/s) = 5.64110 6.13102 5.89115
#
# Compressibility (1/GPa) = 0.02335985
#
# Stress axis : x y z
#
# Youngs Moduli (GPa) = 253.54195 67.78657 100.79800
#
# Poissons Ratio (x) = 0.07976 0.07783
# Poissons Ratio (y) = 0.29833 0.06853
# Poissons Ratio (z) = 0.19577 0.04609
#
# Static dielectric constant tensor:
#      x y z
#    x 2.129610 0.000000 0.000000 
#    y 0.000000 2.159130 0.000000 
#    z 0.000000 0.000000 2.113300 
# 
# From -- ./inp_files/4891.got.cif
#   From: 2010.05.17/outbox.cif.g08.bks.cpg/sg29_3_cif.got.tgz:4891.got - 2010.06.04 01:19:37.
