data_PCOD9340522
_publ_section_title
;
Structure prediction by ZEFSAII (Michael W. Deem and Ramdas Pophale) SiO2 
 PCOD9340522
Probable space group: P C A 21
;
_chemical_formula_sum "Si O2"
_cell_formula_units_Z 28
_cell_length_a 12.606189
_cell_length_b 19.857656
_cell_length_c 4.855681
_cell_angle_alpha 90.000000
_cell_angle_beta 90.000000
_cell_angle_gamma 90.000000
_cell_volume 1215.519540
_symmetry_space_group_name_H-M "P C A 21"
_symmetry_group_IT_number 29
_symmetry_cell_setting 'orthorhombic'
loop_
_space_group_symop_operation_xyz
x,y,z
-x,-y,1/2+z
1/2-x,y,1/2+z
1/2+x,-y,z
loop_
_atom_site_type_symbol
_atom_site_label
_atom_site_fract_x
_atom_site_fract_y
_atom_site_fract_z
Si Si1 0.928126 0.572456 0.119520
Si Si2 0.000009 0.045208 0.457238
Si Si3 0.824968 0.145246 0.221055
Si Si4 0.174985 0.142715 0.706188
Si Si5 0.569869 0.426595 0.622738
Si Si6 0.683491 0.711522 0.587238
Si Si7 0.682527 0.293111 0.832213
O O1 0.876204 0.499433 0.177652
O O2 0.867095 0.641087 0.168647
O O3 0.033780 0.576772 0.307301
O O4 0.962311 0.571051 0.801888
O O5 0.910877 0.091770 0.317564
O O6 0.090042 0.089228 0.605935
O O7 0.955044 0.999090 0.704545
O O8 0.720708 0.138572 0.414982
O O9 0.868982 0.221352 0.260299
O O10 0.279283 0.136528 0.512058
O O11 0.128719 0.218287 0.665915
O O12 0.627493 0.360625 0.729941
O O13 0.707991 0.713679 0.264205
O O14 0.791518 0.292831 0.654447
#
# Coordination Sequence:
#
# PCOD9340522 Si02
#       7
#     4   4   4   4   4   4   4
#     4  10  21  36  55  85 120 157 199 246 301 353
#     4  12  26  42  66  98 122 164 212 240 314 386
#     4  10  23  43  63  92 129 160 203 258 304 360
#     4  10  23  43  63  92 129 160 203 258 304 360
#     4  10  21  36  55  85 120 157 199 246 301 353
#     4  10  21  38  59  86 116 156 202 244 301 356
#     4  10  21  38  59  86 116 156 202 244 301 356
#
# _framework density 23.035419000000001
#
# number of rings (size 3 to 8) (size 9 to 14) (size 15 to 20)
#    0.000    1.714    0.000    3.429    2.000    4.571 
#    2.571    0.000    0.000    0.000    0.000    0.000 
#    0.000    0.000    0.000    0.000    0.000    0.000 
#
# Total GULP energy -156392.797143 kJ/mol
# GULP energy per Si atom -5585.457041 kJ/mol
# Density = 2.298299 g / cm^3
# Si number density = 23.035419 Si / 1000 Ang^3
#
#
#
# Elastic Constant Matrix: (Units=GPa)
#
#
# Indices 1 2 3 4 5 6 
#
# 1 18.0907 36.0135 -8.9670 0.0000 0.0000 0.0000
# 2 36.0135 175.3980 14.3159 0.0000 0.0000 0.0000
# 3 -8.9670 14.3159 81.6613 0.0000 0.0000 0.0000
# 4 0.0000 0.0000 0.0000 36.2465 0.0000 0.0000
# 5 0.0000 0.0000 0.0000 0.0000 19.7614 0.0000
# 6 0.0000 0.0000 0.0000 0.0000 0.0000 33.0421
#
#
#
# Elastic Compliance Matrix: (Units=1/GPa)
#
#
# Indices 1 2 3 4 5 6 
#
# 1 0.111918 -0.024331 0.016555 0.000000 0.000000 0.000000
# 2 -0.024331 0.011074 -0.004613 0.000000 0.000000 0.000000
# 3 0.016555 -0.004613 0.014872 0.000000 0.000000 0.000000
# 4 0.000000 0.000000 0.000000 0.027589 0.000000 0.000000
# 5 0.000000 0.000000 0.000000 0.000000 0.050604 0.000000
# 6 0.000000 0.000000 0.000000 0.000000 0.000000 0.030264
#
#
# Mechanical properties :
#
#
# Convention : Reuss Voigt Hill
#
# Bulk Modulus (GPa) = 8.84280 39.76386 24.30333
# Shear Modulus (GPa) = 16.19199 33.39584 24.79392
#
# Velocity S-wave (km/s) = 2.65413 3.81170 3.28432
# Velocity P-wave (km/s) = 3.63864 6.05571 4.99556
#
# Compressibility (1/GPa) = 0.11308639
#
# Stress axis : x y z
#
# Youngs Moduli (GPa) = 8.93508 90.30538 67.23938
#
# Poissons Ratio (x) = 2.19720 -1.11314
# Poissons Ratio (y) = 0.21740 0.31017
# Poissons Ratio (z) = -0.14792 0.41658
#
# Static dielectric constant tensor:
#      x y z
#    x 1.850070 0.000000 0.000000 
#    y 0.000000 1.909160 0.000000 
#    z 0.000000 0.000000 1.807660 
# 
# From -- ./inp_files/100.got.cif
#   From: 2010.05.17/outbox.cif.g08.bks.cpg/sg29_1_cif.got.tgz:100.got - 2010.06.04 01:19:37.
