data_PCOD9340603
_publ_section_title
;
Structure prediction by ZEFSAII (Michael W. Deem and Ramdas Pophale) SiO2 
 PCOD9340603
Probable space group: P C A 21
;
_chemical_formula_sum "Si O2"
_cell_formula_units_Z 24
_cell_length_a 13.700530
_cell_length_b 9.696584
_cell_length_c 7.731103
_cell_angle_alpha 90.000000
_cell_angle_beta 90.000000
_cell_angle_gamma 90.000000
_cell_volume 1027.064200
_symmetry_space_group_name_H-M "P C A 21"
_symmetry_group_IT_number 29
_symmetry_cell_setting 'orthorhombic'
loop_
_space_group_symop_operation_xyz
x,y,z
-x,-y,1/2+z
1/2-x,y,1/2+z
1/2+x,-y,z
loop_
_atom_site_type_symbol
_atom_site_label
_atom_site_fract_x
_atom_site_fract_y
_atom_site_fract_z
Si Si1 0.100052 0.038671 0.979700
Si Si2 0.243737 0.145957 0.237049
Si Si3 0.930617 0.276788 0.512537
Si Si4 0.014984 0.686099 0.386929
Si Si5 0.846568 0.667311 0.986610
Si Si6 0.617872 0.447196 0.716615
O O1 0.195852 0.045900 0.858691
O O2 0.030914 0.162415 0.916661
O O3 0.059968 0.886154 0.984458
O O4 0.146180 0.078911 0.164034
O O5 0.210275 0.292188 0.316525
O O6 0.321391 0.195856 0.095425
O O7 0.857767 0.343188 0.372037
O O8 0.914541 0.306348 0.717024
O O9 0.037334 0.339385 0.464134
O O10 0.934607 0.575957 0.317331
O O11 0.054249 0.636757 0.573084
O O12 0.812698 0.529674 0.083417
#
# Coordination Sequence:
#
# PCOD9340603 Si02
#       6
#     4   4   4   4   4   4
#     4  11  24  42  66  98 129 178 223 275 333 399
#     4  10  22  40  64  90 139 172 218 263 339 411
#     4  11  24  41  67  99 128 168 230 276 324 375
#     4  11  22  38  66  98 123 164 214 276 323 381
#     4  10  21  39  63  96 122 175 214 271 325 389
#     4  11  21  40  64  95 127 157 217 275 320 383
#
# _framework density 23.367574999999999
#
# number of rings (size 3 to 8) (size 9 to 14) (size 15 to 20)
#    0.000    1.333    6.667    1.000    4.667    0.000 
#    3.000    1.667    0.000    0.000    0.000    0.000 
#    0.000    0.000    0.000    0.000    0.000    0.000 
#
# Total GULP energy -133710.910594 kJ/mol
# GULP energy per Si atom -5571.287941 kJ/mol
# Density = 2.331439 g / cm^3
# Si number density = 23.367575 Si / 1000 Ang^3
#
#
#
# Elastic Constant Matrix: (Units=GPa)
#
#
# Indices 1 2 3 4 5 6 
#
# 1 26.6646 7.2982 18.1272 0.0000 0.0000 0.0000
# 2 7.2982 134.5198 36.4262 0.0000 0.0000 0.0000
# 3 18.1272 36.4262 95.3720 0.0000 0.0000 0.0000
# 4 0.0000 0.0000 0.0000 24.7296 0.0000 0.0000
# 5 0.0000 0.0000 0.0000 0.0000 15.3567 0.0000
# 6 0.0000 0.0000 0.0000 0.0000 0.0000 12.2819
#
#
#
# Elastic Compliance Matrix: (Units=1/GPa)
#
#
# Indices 1 2 3 4 5 6 
#
# 1 0.043070 -0.000134 -0.008135 0.000000 0.000000 0.000000
# 2 -0.000134 0.008292 -0.003142 0.000000 0.000000 0.000000
# 3 -0.008135 -0.003142 0.013231 0.000000 0.000000 0.000000
# 4 0.000000 0.000000 0.000000 0.040437 0.000000 0.000000
# 5 0.000000 0.000000 0.000000 0.000000 0.065118 0.000000
# 6 0.000000 0.000000 0.000000 0.000000 0.000000 0.081420
#
#
# Mechanical properties :
#
#
# Convention : Reuss Voigt Hill
#
# Bulk Modulus (GPa) = 23.93935 42.25106 33.09520
# Shear Modulus (GPa) = 17.34219 23.45396 20.39808
#
# Velocity S-wave (km/s) = 2.72719 3.17155 2.95773
# Velocity P-wave (km/s) = 4.49263 5.61534 5.08506
#
# Compressibility (1/GPa) = 0.04177223
#
# Stress axis : x y z
#
# Youngs Moduli (GPa) = 23.21798 120.60118 75.57803
#
# Poissons Ratio (x) = 0.01614 0.61484
# Poissons Ratio (y) = 0.00311 0.23743
# Poissons Ratio (z) = 0.18888 0.37887
#
# Static dielectric constant tensor:
#      x y z
#    x 1.911700 0.000000 0.000000 
#    y 0.000000 1.858300 0.000000 
#    z 0.000000 0.000000 2.025490 
# 
# From -- ./inp_files/2026.got.cif
#   From: 2010.05.17/outbox.cif.g08.bks.cpg/sg29_2_cif.got.tgz:2026.got - 2010.06.04 01:19:37.
