data_PCOD9340672
_publ_section_title
;
Structure prediction by ZEFSAII (Michael W. Deem and Ramdas Pophale) SiO2 
 PCOD9340672
Probable space group: P C A 21
;
_chemical_formula_sum "Si O2"
_cell_formula_units_Z 32
_cell_length_a 14.319389
_cell_length_b 7.433290
_cell_length_c 12.379134
_cell_angle_alpha 90.000000
_cell_angle_beta 90.000000
_cell_angle_gamma 90.000000
_cell_volume 1317.637141
_symmetry_space_group_name_H-M "P C A 21"
_symmetry_group_IT_number 29
_symmetry_cell_setting 'orthorhombic'
loop_
_space_group_symop_operation_xyz
x,y,z
-x,-y,1/2+z
1/2-x,y,1/2+z
1/2+x,-y,z
loop_
_atom_site_type_symbol
_atom_site_label
_atom_site_fract_x
_atom_site_fract_y
_atom_site_fract_z
Si Si1 0.698004 0.453192 0.522830
Si Si2 0.929914 0.411583 0.817866
Si Si3 0.791005 0.151476 0.414682
Si Si4 0.115429 0.597630 0.752537
Si Si5 0.876411 0.990632 0.816880
Si Si6 0.008932 0.829802 0.988117
Si Si7 0.099763 0.466125 0.073500
Si Si8 0.488567 0.130017 0.635646
O O1 0.628783 0.481781 0.421704
O O2 0.731659 0.243108 0.511436
O O3 0.652117 0.482859 0.640135
O O4 0.797294 0.554094 0.525019
O O5 0.916582 0.195399 0.820046
O O6 0.892179 0.490704 0.702741
O O7 0.038688 0.471949 0.810515
O O8 0.807762 0.321316 0.332985
O O9 0.728861 0.005754 0.355653
O O10 0.891575 0.085983 0.451536
O O11 0.962092 0.710185 0.555153
O O12 0.060165 0.777431 0.716463
O O13 0.893981 0.920894 0.697475
O O14 0.935058 0.860854 0.894566
O O15 0.043510 0.636570 0.027144
O O16 0.971711 0.951035 0.084997
#
# Coordination Sequence:
#
# PCOD9340672 Si02
#       8
#     4   4   4   4   4   4   4   4
#     4  10  21  40  70  99 136 195 236 296 371 426
#     4  10  22  43  70 103 141 190 252 299 368 444
#     4  10  23  41  71 101 140 192 241 300 367 432
#     4  11  23  43  70 102 146 189 239 307 368 433
#     4  11  22  45  70 103 143 189 243 303 362 437
#     4  11  23  45  71  99 139 194 234 297 368 433
#     4  10  23  45  69 100 146 190 237 302 362 436
#     4  11  23  44  67 105 141 179 240 294 360 437
#
# _framework density 24.285896999999999
#
# number of rings (size 3 to 8) (size 9 to 14) (size 15 to 20)
#    0.000    1.500    2.500    3.000    1.750    6.000 
#    6.750    0.000    0.000    0.000    0.000    0.000 
#    0.000    0.000    0.000    0.000    0.000    0.000 
#
# Total GULP energy -178898.765364 kJ/mol
# GULP energy per Si atom -5590.586418 kJ/mol
# Density = 2.423062 g / cm^3
# Si number density = 24.285897 Si / 1000 Ang^3
#
#
#
# Elastic Constant Matrix: (Units=GPa)
#
#
# Indices 1 2 3 4 5 6 
#
# 1 104.8236 24.0711 29.7688 0.0000 0.0000 0.0000
# 2 24.0711 88.2789 26.1921 0.0000 0.0000 0.0000
# 3 29.7688 26.1921 89.4807 0.0000 0.0000 0.0000
# 4 0.0000 0.0000 0.0000 31.7506 0.0000 0.0000
# 5 0.0000 0.0000 0.0000 0.0000 39.6235 0.0000
# 6 0.0000 0.0000 0.0000 0.0000 0.0000 31.0583
#
#
#
# Elastic Compliance Matrix: (Units=1/GPa)
#
#
# Indices 1 2 3 4 5 6 
#
# 1 0.010870 -0.002071 -0.003010 0.000000 0.000000 0.000000
# 2 -0.002071 0.012800 -0.003058 0.000000 0.000000 0.000000
# 3 -0.003010 -0.003058 0.013072 0.000000 0.000000 0.000000
# 4 0.000000 0.000000 0.000000 0.031495 0.000000 0.000000
# 5 0.000000 0.000000 0.000000 0.000000 0.025238 0.000000
# 6 0.000000 0.000000 0.000000 0.000000 0.000000 0.032198
#
#
# Mechanical properties :
#
#
# Convention : Reuss Voigt Hill
#
# Bulk Modulus (GPa) = 48.86521 49.18302 49.02412
# Shear Modulus (GPa) = 33.60861 33.98988 33.79924
#
# Velocity S-wave (km/s) = 3.72408 3.74515 3.73463
# Velocity P-wave (km/s) = 6.21741 6.24477 6.23110
#
# Compressibility (1/GPa) = 0.02046446
#
# Stress axis : x y z
#
# Youngs Moduli (GPa) = 91.99420 78.12738 76.49911
#
# Poissons Ratio (x) = 0.16179 0.23028
# Poissons Ratio (y) = 0.19051 0.23391
# Poissons Ratio (z) = 0.27692 0.23889
#
# Static dielectric constant tensor:
#      x y z
#    x 1.952360 0.000000 0.000000 
#    y 0.000000 1.931860 0.000000 
#    z 0.000000 0.000000 2.014080 
# 
# From -- ./inp_files/3508.got.cif
#   From: 2010.05.17/outbox.cif.g08.bks.cpg/sg29_2_cif.got.tgz:3508.got - 2010.06.04 01:19:37.
