data_PCOD9340544
_publ_section_title
;
Structure prediction by ZEFSAII (Michael W. Deem and Ramdas Pophale) SiO2 
 PCOD9340544
Probable space group: P C A 21
;
_chemical_formula_sum "Si O2"
_cell_formula_units_Z 32
_cell_length_a 8.414891
_cell_length_b 19.513931
_cell_length_c 8.050301
_cell_angle_alpha 90.000000
_cell_angle_beta 90.000000
_cell_angle_gamma 90.000000
_cell_volume 1321.920625
_symmetry_space_group_name_H-M "P C A 21"
_symmetry_group_IT_number 29
_symmetry_cell_setting 'orthorhombic'
loop_
_space_group_symop_operation_xyz
x,y,z
-x,-y,1/2+z
1/2-x,y,1/2+z
1/2+x,-y,z
loop_
_atom_site_type_symbol
_atom_site_label
_atom_site_fract_x
_atom_site_fract_y
_atom_site_fract_z
Si Si1 0.467466 0.833100 0.258330
Si Si2 0.868755 0.956520 0.626703
Si Si3 0.965893 0.670046 0.250295
Si Si4 0.969441 0.917411 0.255990
Si Si5 0.131903 0.287819 0.119006
Si Si6 0.964860 0.580893 0.768279
Si Si7 0.865233 0.208462 0.625083
Si Si8 0.367862 0.462437 0.400638
O O1 0.519853 0.911359 0.247949
O O2 0.610676 0.788546 0.182680
O O3 0.314670 0.815283 0.147836
O O4 0.425948 0.808573 0.441918
O O5 0.929116 0.939852 0.442602
O O6 0.688417 0.932825 0.650215
O O7 0.892621 0.034915 0.679057
O O8 0.927024 0.700148 0.433076
O O9 0.812576 0.687726 0.138439
O O10 0.969495 0.588640 0.280893
O O11 0.110434 0.712280 0.173610
O O12 0.026765 0.839432 0.243841
O O13 0.030030 0.338141 0.239140
O O14 0.812504 0.561911 0.879824
O O15 0.926881 0.550810 0.585887
O O16 0.110990 0.540386 0.845041
#
# Coordination Sequence:
#
# PCOD9340544 Si02
#       8
#     4   4   4   4   4   4   4   4
#     4  12  25  42  63  90 122 159 200 247 298 353
#     4  12  25  44  67  94 126 162 202 246 295 351
#     4  10  21  39  61  87 117 155 198 245 297 355
#     4  12  25  44  67  94 126 162 202 246 295 351
#     4  10  21  39  61  87 117 155 198 245 297 355
#     4  10  21  37  59  85 117 154 197 244 297 355
#     4  12  25  42  63  90 122 159 200 247 298 353
#     4  10  21  37  59  85 117 154 197 244 297 355
#
# _framework density 24.207204999999998
#
# number of rings (size 3 to 8) (size 9 to 14) (size 15 to 20)
#    0.000    1.000    0.000    7.500    0.000    4.000 
#    0.000    0.000    0.000    0.000    0.000    0.000 
#    0.000    0.000    0.000    0.000    0.000    0.000 
#
# Total GULP energy -179337.205596 kJ/mol
# GULP energy per Si atom -5604.287675 kJ/mol
# Density = 2.415211 g / cm^3
# Si number density = 24.207205 Si / 1000 Ang^3
#
#
#
# Elastic Constant Matrix: (Units=GPa)
#
#
# Indices 1 2 3 4 5 6 
#
# 1 55.7290 6.0228 -12.3848 0.0000 0.0000 0.0000
# 2 6.0228 75.0286 0.7627 0.0000 0.0000 0.0000
# 3 -12.3848 0.7627 92.4569 0.0000 0.0000 0.0000
# 4 0.0000 0.0000 0.0000 34.0174 0.0000 0.0000
# 5 0.0000 0.0000 0.0000 0.0000 23.9243 0.0000
# 6 0.0000 0.0000 0.0000 0.0000 0.0000 18.7979
#
#
#
# Elastic Compliance Matrix: (Units=1/GPa)
#
#
# Indices 1 2 3 4 5 6 
#
# 1 0.018667 -0.001524 0.002513 0.000000 0.000000 0.000000
# 2 -0.001524 0.013454 -0.000315 0.000000 0.000000 0.000000
# 3 0.002513 -0.000315 0.011155 0.000000 0.000000 0.000000
# 4 0.000000 0.000000 0.000000 0.029397 0.000000 0.000000
# 5 0.000000 0.000000 0.000000 0.000000 0.041799 0.000000
# 6 0.000000 0.000000 0.000000 0.000000 0.000000 0.053197
#
#
# Mechanical properties :
#
#
# Convention : Reuss Voigt Hill
#
# Bulk Modulus (GPa) = 22.40951 23.55732 22.98342
# Shear Modulus (GPa) = 27.59450 30.60217 29.09833
#
# Velocity S-wave (km/s) = 3.37995 3.55938 3.47082
# Velocity P-wave (km/s) = 4.95071 5.16187 5.05739
#
# Compressibility (1/GPa) = 0.04462391
#
# Stress axis : x y z
#
# Youngs Moduli (GPa) = 53.56998 74.32852 89.64519
#
# Poissons Ratio (x) = 0.11328 -0.22529
# Poissons Ratio (y) = 0.08164 0.02825
# Poissons Ratio (z) = -0.13463 0.02342
#
# Static dielectric constant tensor:
#      x y z
#    x 1.891200 0.000000 0.000000 
#    y 0.000000 1.883300 0.000000 
#    z 0.000000 0.000000 1.904940 
# 
# From -- ./inp_files/1263.got.cif
#   From: 2010.05.17/outbox.cif.g08.bks.cpg/sg29_1_cif.got.tgz:1263.got - 2010.06.04 01:19:37.
