data_PCOD9340791
_publ_section_title
;
Structure prediction by ZEFSAII (Michael W. Deem and Ramdas Pophale) SiO2 
 PCOD9340791
Probable space group: P C A 21
;
_chemical_formula_sum "Si O2"
_cell_formula_units_Z 20
_cell_length_a 26.536433
_cell_length_b 5.055917
_cell_length_c 5.197586
_cell_angle_alpha 90.000000
_cell_angle_beta 90.000000
_cell_angle_gamma 90.000000
_cell_volume 697.339337
_symmetry_space_group_name_H-M "P C A 21"
_symmetry_group_IT_number 29
_symmetry_cell_setting 'orthorhombic'
loop_
_space_group_symop_operation_xyz
x,y,z
-x,-y,1/2+z
1/2-x,y,1/2+z
1/2+x,-y,z
loop_
_atom_site_type_symbol
_atom_site_label
_atom_site_fract_x
_atom_site_fract_y
_atom_site_fract_z
Si Si1 0.677142 0.885073 0.970160
Si Si2 0.409090 0.845662 0.223212
Si Si3 0.266318 0.771037 0.790573
Si Si4 0.112590 0.508826 0.224169
Si Si5 0.010915 0.326148 0.144697
O O1 0.632903 0.929352 0.762533
O O2 0.729311 0.970969 0.836923
O O3 0.818353 0.108423 0.695942
O O4 0.664428 0.623523 0.126527
O O5 0.406059 0.699864 0.497542
O O6 0.468087 0.899159 0.173246
O O7 0.392013 0.641500 0.001623
O O8 0.236636 0.627599 0.560927
O O9 0.069617 0.273944 0.203850
O O10 0.996960 0.541810 0.365572
#
# Coordination Sequence:
#
# PCOD9340791 Si02
#       5
#     4   4   4   4   4
#     4  10  22  40  62  80 122 152 200 244 302 356
#     4  10  22  36  61  86 115 157 196 240 302 362
#     4   8  20  36  58  78 118 150 184 264 298 322
#     4  10  22  36  61  86 115 157 196 240 302 362
#     4   8  16  36  52  80 118 142 184 246 286 344
#
# _framework density 28.680439
#
# number of rings (size 3 to 8) (size 9 to 14) (size 15 to 20)
#    1.200    1.600    0.000    0.000    5.600    0.000 
#    0.000   18.000    0.000    0.000    0.000    0.000 
#    0.000    0.000    0.000    0.000    0.000    0.000 
#
# Total GULP energy -111716.266876 kJ/mol
# GULP energy per Si atom -5585.813344 kJ/mol
# Density = 2.861516 g / cm^3
# Si number density = 28.680439 Si / 1000 Ang^3
#
#
#
# Elastic Constant Matrix: (Units=GPa)
#
#
# Indices 1 2 3 4 5 6 
#
# 1 115.7568 9.6350 22.5497 0.0000 0.0000 0.0000
# 2 9.6350 86.1995 36.4213 0.0000 0.0000 0.0000
# 3 22.5497 36.4213 197.4239 0.0000 0.0000 0.0000
# 4 0.0000 0.0000 0.0000 28.4224 0.0000 0.0000
# 5 0.0000 0.0000 0.0000 0.0000 46.2870 0.0000
# 6 0.0000 0.0000 0.0000 0.0000 0.0000 27.7066
#
#
#
# Elastic Compliance Matrix: (Units=1/GPa)
#
#
# Indices 1 2 3 4 5 6 
#
# 1 0.008865 -0.000611 -0.000900 0.000000 0.000000 0.000000
# 2 -0.000611 0.012624 -0.002259 0.000000 0.000000 0.000000
# 3 -0.000900 -0.002259 0.005585 0.000000 0.000000 0.000000
# 4 0.000000 0.000000 0.000000 0.035184 0.000000 0.000000
# 5 0.000000 0.000000 0.000000 0.000000 0.021604 0.000000
# 6 0.000000 0.000000 0.000000 0.000000 0.000000 0.036093
#
#
# Mechanical properties :
#
#
# Convention : Reuss Voigt Hill
#
# Bulk Modulus (GPa) = 51.19236 59.62137 55.40687
# Shear Modulus (GPa) = 37.31215 42.53481 39.92348
#
# Velocity S-wave (km/s) = 3.61080 3.85523 3.73501
# Velocity P-wave (km/s) = 5.93901 6.37576 6.16126
#
# Compressibility (1/GPa) = 0.01953416
#
# Stress axis : x y z
#
# Youngs Moduli (GPa) = 112.80408 79.21559 179.05760
#
# Poissons Ratio (x) = 0.04837 0.16113
# Poissons Ratio (y) = 0.06888 0.40451
# Poissons Ratio (z) = 0.10151 0.17896
#
# Static dielectric constant tensor:
#      x y z
#    x 2.355410 0.000000 0.000000 
#    y 0.000000 2.236260 0.000000 
#    z 0.000000 0.000000 2.255990 
# 
# From -- ./inp_files/727.got.cif
#   From: 2010.05.17/outbox.cif.g08.bks.cpg/sg29_1_cif.got.tgz:727.got - 2010.06.04 01:19:37.
