data_PCOD9340481
_publ_section_title
;
Structure prediction by ZEFSAII (Michael W. Deem and Ramdas Pophale) SiO2 
 PCOD9340481
Probable space group: P C A 21
;
_chemical_formula_sum "Si O2"
_cell_formula_units_Z 20
_cell_length_a 9.409460
_cell_length_b 6.291701
_cell_length_c 13.604888
_cell_angle_alpha 90.000000
_cell_angle_beta 90.000000
_cell_angle_gamma 90.000000
_cell_volume 805.429898
_symmetry_space_group_name_H-M "P C A 21"
_symmetry_group_IT_number 29
_symmetry_cell_setting 'orthorhombic'
loop_
_space_group_symop_operation_xyz
x,y,z
-x,-y,1/2+z
1/2-x,y,1/2+z
1/2+x,-y,z
loop_
_atom_site_type_symbol
_atom_site_label
_atom_site_fract_x
_atom_site_fract_y
_atom_site_fract_z
Si Si1 0.455594 0.980988 0.166040
Si Si2 0.400717 0.501341 0.845193
Si Si3 0.729839 0.346645 0.539322
Si Si4 0.778372 0.727556 0.668192
Si Si5 0.663384 0.229832 0.846708
O O1 0.371614 0.798586 0.104824
O O2 0.617693 0.924832 0.145962
O O3 0.410731 0.942250 0.279872
O O4 0.382233 0.204546 0.144990
O O5 0.317977 0.327785 0.780319
O O6 0.563767 0.439516 0.832768
O O7 0.324251 0.720042 0.811057
O O8 0.359704 0.513622 0.959499
O O9 0.811403 0.516874 0.605770
O O10 0.823451 0.204719 0.463578
#
# Coordination Sequence:
#
# PCOD9340481 Si02
#       5
#     4   4   4   4   4
#     4  11  24  41  63  93 126 163 204 254 308 366
#     4   9  20  38  61  87 119 158 200 247 303 359
#     4  10  20  42  66  88 118 162 208 256 296 368
#     4  11  24  41  63  93 126 163 204 254 308 366
#     4   9  20  38  61  87 119 158 200 247 303 359
#
# _framework density 24.831461999999998
#
# number of rings (size 3 to 8) (size 9 to 14) (size 15 to 20)
#    1.200    0.800    2.000    1.200    0.000    6.400 
#    0.000    4.000    0.000    0.000    0.000    0.000 
#    0.000    0.000    0.000    0.000    0.000    0.000 
#
# Total GULP energy -111432.503074 kJ/mol
# GULP energy per Si atom -5571.625154 kJ/mol
# Density = 2.477494 g / cm^3
# Si number density = 24.831462 Si / 1000 Ang^3
#
#
#
# Elastic Constant Matrix: (Units=GPa)
#
#
# Indices 1 2 3 4 5 6 
#
# 1 76.7068 14.2732 16.9756 0.0000 0.0000 0.0000
# 2 14.2732 39.9977 42.4425 0.0000 0.0000 0.0000
# 3 16.9756 42.4425 104.4855 0.0000 0.0000 0.0000
# 4 0.0000 0.0000 0.0000 34.0888 0.0000 0.0000
# 5 0.0000 0.0000 0.0000 0.0000 13.8685 0.0000
# 6 0.0000 0.0000 0.0000 0.0000 0.0000 39.3783
#
#
#
# Elastic Compliance Matrix: (Units=1/GPa)
#
#
# Indices 1 2 3 4 5 6 
#
# 1 0.013975 -0.004530 -0.000430 0.000000 0.000000 0.000000
# 2 -0.004530 0.045410 -0.017710 0.000000 0.000000 0.000000
# 3 -0.000430 -0.017710 0.016834 0.000000 0.000000 0.000000
# 4 0.000000 0.000000 0.000000 0.029335 0.000000 0.000000
# 5 0.000000 0.000000 0.000000 0.000000 0.072106 0.000000
# 6 0.000000 0.000000 0.000000 0.000000 0.000000 0.025395
#
#
# Mechanical properties :
#
#
# Convention : Reuss Voigt Hill
#
# Bulk Modulus (GPa) = 32.38478 40.95251 36.66864
# Shear Modulus (GPa) = 19.32819 27.30036 23.31428
#
# Velocity S-wave (km/s) = 2.79296 3.31936 3.06747
# Velocity P-wave (km/s) = 4.84469 5.58738 5.22924
#
# Compressibility (1/GPa) = 0.03087871
#
# Stress axis : x y z
#
# Youngs Moduli (GPa) = 71.55709 22.02137 59.40211
#
# Poissons Ratio (x) = 0.09977 0.02555
# Poissons Ratio (y) = 0.32419 1.05200
# Poissons Ratio (z) = 0.03078 0.39000
#
# Static dielectric constant tensor:
#      x y z
#    x 1.973380 0.000000 0.000000 
#    y 0.000000 1.932020 0.000000 
#    z 0.000000 0.000000 1.970440 
# 
# From -- ./inp_files/4184.got.cif
#   From: 2010.05.17/outbox.cif.g08.bks.cpg/sg29_3_cif.got.tgz:4184.got - 2010.06.04 01:19:37.
