data_PCOD9340582
_publ_section_title
;
Structure prediction by ZEFSAII (Michael W. Deem and Ramdas Pophale) SiO2 
 PCOD9340582
Probable space group: P C A 21
;
_chemical_formula_sum "Si O2"
_cell_formula_units_Z 16
_cell_length_a 17.178144
_cell_length_b 8.062998
_cell_length_c 5.003790
_cell_angle_alpha 90.000000
_cell_angle_beta 90.000000
_cell_angle_gamma 90.000000
_cell_volume 693.061646
_symmetry_space_group_name_H-M "P C A 21"
_symmetry_group_IT_number 29
_symmetry_cell_setting 'orthorhombic'
loop_
_space_group_symop_operation_xyz
x,y,z
-x,-y,1/2+z
1/2-x,y,1/2+z
1/2+x,-y,z
loop_
_atom_site_type_symbol
_atom_site_label
_atom_site_fract_x
_atom_site_fract_y
_atom_site_fract_z
Si Si1 0.698936 0.441322 0.121380
Si Si2 0.798274 0.839720 0.565111
Si Si3 0.523688 0.400008 0.027460
Si Si4 0.037058 0.072637 0.255137
O O1 0.735168 0.398769 0.406034
O O2 0.687331 0.641549 0.098629
O O3 0.614863 0.364731 0.067907
O O4 0.773120 0.876486 0.264184
O O5 0.874560 0.934383 0.658430
O O6 0.513358 0.543867 0.806501
O O7 0.479353 0.245685 0.901412
O O8 0.014631 0.943731 0.487692
#
# Coordination Sequence:
#
# PCOD9340582 Si02
#       4
#     4   4   4   4
#     4  10  21  38  64  99 127 163 220 280 323 378
#     4  10  21  40  66  94 125 173 223 266 319 398
#     4  12  24  42  69  97 130 171 224 272 329 385
#     4  12  26  44  65 100 138 175 217 272 333 395
#
# _framework density 23.085971000000001
#
# number of rings (size 3 to 8) (size 9 to 14) (size 15 to 20)
#    0.000    1.000    2.500    4.500    7.000    0.000 
#    0.000    7.500    0.000    0.000    0.000    0.000 
#    0.000    0.000    0.000    0.000    0.000    0.000 
#
# Total GULP energy -89637.999209 kJ/mol
# GULP energy per Si atom -5602.374951 kJ/mol
# Density = 2.303343 g / cm^3
# Si number density = 23.085971 Si / 1000 Ang^3
#
#
#
# Elastic Constant Matrix: (Units=GPa)
#
#
# Indices 1 2 3 4 5 6 
#
# 1 93.2379 6.6146 0.7132 0.0000 0.0000 0.0000
# 2 6.6146 32.8542 5.3994 0.0000 0.0000 0.0000
# 3 0.7132 5.3994 90.2754 0.0000 0.0000 0.0000
# 4 0.0000 0.0000 0.0000 72.5709 0.0000 0.0000
# 5 0.0000 0.0000 0.0000 0.0000 121.7929 0.0000
# 6 0.0000 0.0000 0.0000 0.0000 0.0000 15.0416
#
#
#
# Elastic Compliance Matrix: (Units=1/GPa)
#
#
# Indices 1 2 3 4 5 6 
#
# 1 0.010881 -0.002198 0.000046 0.000000 0.000000 0.000000
# 2 -0.002198 0.031184 -0.001848 0.000000 0.000000 0.000000
# 3 0.000046 -0.001848 0.011187 0.000000 0.000000 0.000000
# 4 0.000000 0.000000 0.000000 0.013780 0.000000 0.000000
# 5 0.000000 0.000000 0.000000 0.000000 0.008211 0.000000
# 6 0.000000 0.000000 0.000000 0.000000 0.000000 0.066482
#
#
# Mechanical properties :
#
#
# Convention : Reuss Voigt Hill
#
# Bulk Modulus (GPa) = 22.09886 26.86910 24.48398
# Shear Modulus (GPa) = 30.33814 55.45709 42.89762
#
# Velocity S-wave (km/s) = 3.62904 4.90654 4.31532
# Velocity P-wave (km/s) = 5.21086 6.61535 5.95466
#
# Compressibility (1/GPa) = 0.04525120
#
# Stress axis : x y z
#
# Youngs Moduli (GPa) = 91.90464 32.06801 89.38657
#
# Poissons Ratio (x) = 0.07049 -0.00407
# Poissons Ratio (y) = 0.20202 0.16516
# Poissons Ratio (z) = -0.00418 0.05925
#
# Static dielectric constant tensor:
#      x y z
#    x 1.796500 0.000000 0.000000 
#    y 0.000000 1.893540 0.000000 
#    z 0.000000 0.000000 1.801170 
# 
# From -- ./inp_files/135.got.cif
#   From: 2010.05.17/outbox.cif.g08.bks.cpg/sg29_1_cif.got.tgz:135.got - 2010.06.04 01:19:37.
