data_PCOD9340016
_publ_section_title
;
Structure prediction by ZEFSAII (Michael W. Deem and Ramdas Pophale) SiO2 
 PCOD9340016
Probable space group: P C A 21
;
_chemical_formula_sum "Si O2"
_cell_formula_units_Z 32
_cell_length_a 5.579426
_cell_length_b 9.198902
_cell_length_c 23.077045
_cell_angle_alpha 90.000000
_cell_angle_beta 90.000000
_cell_angle_gamma 90.000000
_cell_volume 1184.419942
_symmetry_space_group_name_H-M "P C A 21"
_symmetry_group_IT_number 29
_symmetry_cell_setting 'orthorhombic'
loop_
_space_group_symop_operation_xyz
x,y,z
-x,-y,1/2+z
1/2-x,y,1/2+z
1/2+x,-y,z
loop_
_atom_site_type_symbol
_atom_site_label
_atom_site_fract_x
_atom_site_fract_y
_atom_site_fract_z
Si Si1 0.820168 0.577283 0.101330
Si Si2 0.020325 0.129928 0.436311
Si Si3 0.671727 0.683456 0.716409
Si Si4 0.016369 0.948472 0.318959
Si Si5 0.019154 0.944435 0.553454
Si Si6 0.137377 0.664442 0.382388
Si Si7 0.395489 0.336508 0.488169
Si Si8 0.328850 0.645256 0.261015
O O1 0.586305 0.479681 0.113036
O O2 0.792092 0.705685 0.147977
O O3 0.795461 0.594159 0.032263
O O4 0.249377 0.224393 0.449368
O O5 0.802776 0.236232 0.423313
O O6 0.045439 0.038614 0.378683
O O7 0.991551 0.032872 0.492835
O O8 0.657203 0.508863 0.728183
O O9 0.916890 0.722834 0.749832
O O10 0.404615 0.729278 0.735632
O O11 0.992652 0.782995 0.343010
O O12 0.275545 0.986917 0.290752
O O13 0.032225 0.772437 0.534938
O O14 0.765164 0.995543 0.581521
O O15 0.011089 0.574310 0.434079
O O16 0.292328 0.600371 0.328957
#
# Coordination Sequence:
#
# PCOD9340016 Si02
#       8
#     4   4   4   4   4   4   4   4
#     4  12  25  45  66  82 114 157 211 264 297 347
#     4  10  18  34  52  84 134 157 192 219 281 377
#     4  10  20  47  60  79 100 148 211 257 284 332
#     4  10  17  30  51  74 123 159 180 218 262 355
#     4  10  17  32  54  80 125 159 191 224 268 369
#     4  11  20  33  53  92 125 148 190 229 299 370
#     4  11  22  35  58  92 126 160 192 239 310 365
#     4  10  21  36  68  79 107 146 199 246 293 337
#
# _framework density 27.017443
#
# number of rings (size 3 to 8) (size 9 to 14) (size 15 to 20)
#    0.000    1.500    6.250    1.500    3.500    0.000 
#    4.500    0.000    0.000    0.000    0.000   21.000 
#    0.000    0.000    0.000    0.000    0.000    0.000 
#
# Total GULP energy -178398.553005 kJ/mol
# GULP energy per Si atom -5574.954781 kJ/mol
# Density = 2.695595 g / cm^3
# Si number density = 27.017443 Si / 1000 Ang^3
#
#
#
# Elastic Constant Matrix: (Units=GPa)
#
#
# Indices 1 2 3 4 5 6 
#
# 1 192.5764 24.0835 22.0335 0.0000 0.0000 0.0000
# 2 24.0835 28.8393 19.5622 0.0000 0.0000 0.0000
# 3 22.0335 19.5622 100.0481 0.0000 0.0000 0.0000
# 4 0.0000 0.0000 0.0000 25.9418 0.0000 0.0000
# 5 0.0000 0.0000 0.0000 0.0000 26.4401 0.0000
# 6 0.0000 0.0000 0.0000 0.0000 0.0000 25.3733
#
#
#
# Elastic Compliance Matrix: (Units=1/GPa)
#
#
# Indices 1 2 3 4 5 6 
#
# 1 0.005811 -0.004594 -0.000381 0.000000 0.000000 0.000000
# 2 -0.004594 0.043609 -0.007515 0.000000 0.000000 0.000000
# 3 -0.000381 -0.007515 0.011549 0.000000 0.000000 0.000000
# 4 0.000000 0.000000 0.000000 0.038548 0.000000 0.000000
# 5 0.000000 0.000000 0.000000 0.000000 0.037821 0.000000
# 6 0.000000 0.000000 0.000000 0.000000 0.000000 0.039412
#
#
# Mechanical properties :
#
#
# Convention : Reuss Voigt Hill
#
# Bulk Modulus (GPa) = 27.78741 50.31358 39.05049
# Shear Modulus (GPa) = 23.39446 32.60334 27.99890
#
# Velocity S-wave (km/s) = 2.94581 3.47760 3.22270
# Velocity P-wave (km/s) = 4.67736 5.89814 5.32286
#
# Compressibility (1/GPa) = 0.03598753
#
# Stress axis : x y z
#
# Youngs Moduli (GPa) = 172.09035 22.93111 86.59044
#
# Poissons Ratio (x) = 0.10534 0.03303
# Poissons Ratio (y) = 0.79056 0.65073
# Poissons Ratio (z) = 0.06565 0.17233
#
# Static dielectric constant tensor:
#      x y z
#    x 2.432050 0.000000 0.000000 
#    y 0.000000 2.217530 0.000000 
#    z 0.000000 0.000000 2.210720 
# 
# From -- ./inp_files/5644.got.cif
#   From: 2010.05.17/outbox.cif.g08.bks.cpg/sg29_3_cif.got.tgz:5644.got - 2010.06.04 01:19:37.
