data_PCOD9340414
_publ_section_title
;
Structure prediction by ZEFSAII (Michael W. Deem and Ramdas Pophale) SiO2 
 PCOD9340414
Probable space group: P C A 21
;
_chemical_formula_sum "Si O2"
_cell_formula_units_Z 28
_cell_length_a 7.720816
_cell_length_b 8.930084
_cell_length_c 17.119976
_cell_angle_alpha 90.000000
_cell_angle_beta 90.000000
_cell_angle_gamma 90.000000
_cell_volume 1180.380152
_symmetry_space_group_name_H-M "P C A 21"
_symmetry_group_IT_number 29
_symmetry_cell_setting 'orthorhombic'
loop_
_space_group_symop_operation_xyz
x,y,z
-x,-y,1/2+z
1/2-x,y,1/2+z
1/2+x,-y,z
loop_
_atom_site_type_symbol
_atom_site_label
_atom_site_fract_x
_atom_site_fract_y
_atom_site_fract_z
Si Si1 0.005911 0.331514 0.560310
Si Si2 0.586879 0.738906 0.875196
Si Si3 0.589964 0.317176 0.761360
Si Si4 0.703712 0.642238 0.720519
Si Si5 0.175621 0.822269 0.610745
Si Si6 0.418835 0.457333 0.906343
Si Si7 0.318665 0.116968 0.526278
O O1 0.099543 0.356164 0.641650
O O2 0.019772 0.456393 0.495066
O O3 0.132075 0.200956 0.525751
O O4 0.805655 0.303765 0.578676
O O5 0.623437 0.758592 0.783621
O O6 0.420182 0.631249 0.879952
O O7 0.730628 0.616112 0.900654
O O8 0.611405 0.873996 0.936000
O O9 0.689988 0.471418 0.748210
O O10 0.404892 0.326156 0.717796
O O11 0.677474 0.190094 0.706174
O O12 0.528344 0.339474 0.851586
O O13 0.983648 0.816331 0.573370
O O14 0.269118 0.967559 0.573333
#
# Coordination Sequence:
#
# PCOD9340414 Si02
#       7
#     4   4   4   4   4   4   4
#     4  11  23  40  67  97 128 169 229 279 335 408
#     4   9  21  39  64  95 137 170 217 282 342 409
#     4  10  21  39  64  96 137 172 219 283 345 404
#     4  10  20  39  65 102 135 170 220 284 348 403
#     4  12  24  42  68  88 132 181 222 282 326 406
#     4   9  21  38  62  97 133 165 216 279 348 400
#     4  11  24  43  64  91 132 175 227 277 328 406
#
# _framework density 23.721171999999999
#
# number of rings (size 3 to 8) (size 9 to 14) (size 15 to 20)
#    0.000    1.714    2.857    0.857    4.000    2.286 
#    0.000    1.429    0.000    0.000    0.000    0.000 
#    0.000    0.000    0.000    0.000    0.000    0.000 
#
# Total GULP energy -155890.277172 kJ/mol
# GULP energy per Si atom -5567.509899 kJ/mol
# Density = 2.366718 g / cm^3
# Si number density = 23.721172 Si / 1000 Ang^3
#
#
#
# Elastic Constant Matrix: (Units=GPa)
#
#
# Indices 1 2 3 4 5 6 
#
# 1 102.2255 2.1164 11.1210 0.0000 0.0000 0.0000
# 2 2.1164 29.2252 40.1085 0.0000 0.0000 0.0000
# 3 11.1210 40.1085 152.6607 0.0000 0.0000 0.0000
# 4 0.0000 0.0000 0.0000 30.9204 0.0000 0.0000
# 5 0.0000 0.0000 0.0000 0.0000 -34.3637 0.0000
# 6 0.0000 0.0000 0.0000 0.0000 0.0000 17.2228
#
#
#
# Elastic Compliance Matrix: (Units=1/GPa)
#
#
# Indices 1 2 3 4 5 6 
#
# 1 0.009864 0.000425 -0.000830 0.000000 0.000000 0.000000
# 2 0.000425 0.053530 -0.014095 0.000000 0.000000 0.000000
# 3 -0.000830 -0.014095 0.010314 0.000000 0.000000 0.000000
# 4 0.000000 0.000000 0.000000 0.032341 0.000000 0.000000
# 5 0.000000 0.000000 0.000000 0.000000 -0.029100 0.000000
# 6 0.000000 0.000000 0.000000 0.000000 0.000000 0.058063
#
#
# Mechanical properties :
#
#
# Convention : Reuss Voigt Hill
#
# Bulk Modulus (GPa) = 22.36743 43.42258 32.89501
# Shear Modulus (GPa) = 27.94642 18.14027 23.04335
#
# Velocity S-wave (km/s) = 3.43610 2.76837 3.12015
# Velocity P-wave (km/s) = 5.01918 5.34450 5.18439
#
# Compressibility (1/GPa) = 0.04470786
#
# Stress axis : x y z
#
# Youngs Moduli (GPa) = 101.38061 18.68111 96.95459
#
# Poissons Ratio (x) = -0.00794 0.08050
# Poissons Ratio (y) = -0.04310 1.36657
# Poissons Ratio (z) = 0.08417 0.26331
#
# Static dielectric constant tensor:
#      x y z
#    x 1.959460 0.000000 0.000000 
#    y 0.000000 1.994400 0.000000 
#    z 0.000000 0.000000 2.017260 
# 
# From -- ./inp_files/4972.got.cif
#   From: 2010.05.17/outbox.cif.g08.bks.cpg/sg29_3_cif.got.tgz:4972.got - 2010.06.04 01:19:37.
