data_PCOD9340326
_publ_section_title
;
Structure prediction by ZEFSAII (Michael W. Deem and Ramdas Pophale) SiO2 
 PCOD9340326
Probable space group: P C A 21
;
_chemical_formula_sum "Si O2"
_cell_formula_units_Z 28
_cell_length_a 9.018080
_cell_length_b 9.926625
_cell_length_c 16.125547
_cell_angle_alpha 90.000000
_cell_angle_beta 90.000000
_cell_angle_gamma 90.000000
_cell_volume 1443.544428
_symmetry_space_group_name_H-M "P C A 21"
_symmetry_group_IT_number 29
_symmetry_cell_setting 'orthorhombic'
loop_
_space_group_symop_operation_xyz
x,y,z
-x,-y,1/2+z
1/2-x,y,1/2+z
1/2+x,-y,z
loop_
_atom_site_type_symbol
_atom_site_label
_atom_site_fract_x
_atom_site_fract_y
_atom_site_fract_z
Si Si1 0.247309 0.419358 0.387870
Si Si2 0.247309 0.580642 0.060146
Si Si3 0.390804 1.000000 0.724008
Si Si4 0.369114 0.180947 0.291769
Si Si5 0.959220 0.396207 0.290093
Si Si6 0.869114 0.180947 0.156247
Si Si7 0.459220 0.396207 0.157924
O O1 0.250000 0.500000 0.474008
O O2 0.345676 0.284855 0.368181
O O3 0.316897 0.529274 0.326212
O O4 0.081558 0.378739 0.360995
O O5 0.345676 0.715145 0.079836
O O6 0.316897 0.470726 0.121805
O O7 0.081558 0.621261 0.087022
O O8 0.282591 0.103409 0.771220
O O9 0.496810 0.074228 0.657043
O O10 0.496810 0.925772 0.790974
O O11 0.282591 0.896591 0.676796
O O12 0.409014 0.268494 0.210094
O O13 0.909014 0.268494 0.237922
O O14 0.028137 0.500000 0.224008
#
# Coordination Sequence:
#
# PCOD9340326 Si02
#       7
#     4   4   4   4   4   4   4
#     4  11  22  36  58  92 127 162 200 267 327 366
#     4  11  22  36  58  92 127 162 200 267 327 366
#     4  10  20  36  64  92 118 168 214 260 288 372
#     4  10  20  37  63  91 120 157 219 251 307 371
#     4  10  20  36  59  88 117 156 210 263 309 365
#     4  10  20  37  63  91 120 157 219 251 307 371
#     4  10  20  36  59  88 117 156 210 263 309 365
#
# _framework density 19.396701
#
# number of rings (size 3 to 8) (size 9 to 14) (size 15 to 20)
#    0.000    1.714    2.857    3.429    4.000    0.000 
#    0.000    0.000    0.000   10.286    0.000    0.000 
#    0.000    0.000    0.000    0.000    0.000    0.000 
#
# Total GULP energy -155960.766863 kJ/mol
# GULP energy per Si atom -5570.027388 kJ/mol
# Density = 1.935255 g / cm^3
# Si number density = 19.396701 Si / 1000 Ang^3
#
#
#
# Elastic Constant Matrix: (Units=GPa)
#
#
# Indices 1 2 3 4 5 6 
#
# 1 120.7373 57.7718 38.8366 0.0000 0.0000 0.0000
# 2 57.7718 115.1590 47.2818 0.0000 0.0000 0.0000
# 3 38.8366 47.2818 95.4317 0.0000 0.0000 0.0000
# 4 0.0000 0.0000 0.0000 32.7179 0.0000 0.0000
# 5 0.0000 0.0000 0.0000 0.0000 17.6081 0.0000
# 6 0.0000 0.0000 0.0000 0.0000 0.0000 -2.9815
#
#
#
# Elastic Compliance Matrix: (Units=1/GPa)
#
#
# Indices 1 2 3 4 5 6 
#
# 1 0.011268 -0.004733 -0.002241 0.000000 0.000000 0.000000
# 2 -0.004733 0.012889 -0.004460 0.000000 0.000000 0.000000
# 3 -0.002241 -0.004460 0.013600 0.000000 0.000000 0.000000
# 4 0.000000 0.000000 0.000000 0.030564 0.000000 0.000000
# 5 0.000000 0.000000 0.000000 0.000000 0.056792 0.000000
# 6 0.000000 0.000000 0.000000 0.000000 0.000000 -0.335402
#
#
# Mechanical properties :
#
#
# Convention : Reuss Voigt Hill
#
# Bulk Modulus (GPa) = 67.15705 68.78985 67.97345
# Shear Modulus (GPa) = -27.40344 21.96475 -2.71934
#
# Velocity S-wave (km/s) = -3.76279 3.36876 -1.18533
# Velocity P-wave (km/s) = 3.97744 7.11850 5.76598
#
# Compressibility (1/GPa) = 0.01489047
#
# Stress axis : x y z
#
# Youngs Moduli (GPa) = 88.74888 77.58524 73.52827
#
# Poissons Ratio (x) = 0.36719 0.16475
# Poissons Ratio (y) = 0.42002 0.32793
# Poissons Ratio (z) = 0.19886 0.34602
#
# Static dielectric constant tensor:
#      x y z
#    x 1.715140 0.000000 0.000000 
#    y 0.000000 1.728870 0.000000 
#    z 0.000000 0.000000 1.716610 
# 
# From -- ./inp_files/4244.got.cif
#   From: 2010.05.17/outbox.cif.g08.bks.cpg/sg29_3_cif.got.tgz:4244.got - 2010.06.04 01:19:37.
