data_PCOD9340037
_publ_section_title
;
Structure prediction by ZEFSAII (Michael W. Deem and Ramdas Pophale) SiO2 
 PCOD9340037
Probable space group: P C A 21
;
_chemical_formula_sum "Si O2"
_cell_formula_units_Z 32
_cell_length_a 27.829696
_cell_length_b 9.737615
_cell_length_c 5.417414
_cell_angle_alpha 90.000000
_cell_angle_beta 90.000000
_cell_angle_gamma 90.000000
_cell_volume 1468.091377
_symmetry_space_group_name_H-M "P C A 21"
_symmetry_group_IT_number 29
_symmetry_cell_setting 'orthorhombic'
loop_
_space_group_symop_operation_xyz
x,y,z
-x,-y,1/2+z
1/2-x,y,1/2+z
1/2+x,-y,z
loop_
_atom_site_type_symbol
_atom_site_label
_atom_site_fract_x
_atom_site_fract_y
_atom_site_fract_z
Si Si1 0.070512 0.400237 0.256430
Si Si2 0.035548 0.685032 0.317749
Si Si3 0.236839 0.346354 0.774318
Si Si4 0.370753 0.451211 0.253686
Si Si5 0.932073 0.097776 0.211552
Si Si6 0.275084 0.657928 0.763799
Si Si7 0.527049 0.853725 0.474305
Si Si8 0.630058 0.268170 0.988689
O O1 0.031883 0.520632 0.318627
O O2 0.106968 0.415937 0.488345
O O3 0.046216 0.252749 0.274646
O O4 0.096287 0.416112 0.992043
O O5 0.053017 0.764720 0.560883
O O6 0.080000 0.704870 0.129035
O O7 0.989433 0.759180 0.203661
O O8 0.248908 0.271472 0.522681
O O9 0.181045 0.383018 0.780030
O O10 0.268259 0.490432 0.768806
O O11 0.362066 0.614014 0.284711
O O12 0.882466 0.126689 0.351183
O O13 0.977877 0.072717 0.389804
O O14 0.933511 0.967176 0.035188
O O15 0.258453 0.703772 0.034029
O O16 0.327313 0.709680 0.682192
#
# Coordination Sequence:
#
# PCOD9340037 Si02
#       8
#     4   4   4   4   4   4   4   4
#     4  11  26  38  62  87 129 164 204 265 312 380
#     4  10  23  37  61  84 126 159 205 265 310 378
#     4  10  18  29  54  85 126 159 192 251 314 379
#     4  11  21  37  55  92 129 157 202 256 324 368
#     4  11  22  41  62  86 125 164 217 264 306 389
#     4  10  20  30  55  88 128 158 196 257 316 382
#     4  11  25  41  62  90 119 175 218 257 325 373
#     4  10  21  35  57  92 124 162 202 259 325 363
#
# _framework density 21.797007000000001
#
# number of rings (size 3 to 8) (size 9 to 14) (size 15 to 20)
#    0.000    1.500    5.000    0.750   10.500    0.000 
#    0.000    0.000    0.000    0.000    0.000    5.250 
#    0.000    0.000    0.000    0.000    0.000    0.000 
#
# Total GULP energy -178682.749562 kJ/mol
# GULP energy per Si atom -5583.835924 kJ/mol
# Density = 2.174740 g / cm^3
# Si number density = 21.797007 Si / 1000 Ang^3
#
#
#
# Elastic Constant Matrix: (Units=GPa)
#
#
# Indices 1 2 3 4 5 6 
#
# 1 50.8042 11.5863 23.5110 0.0000 0.0000 0.0000
# 2 11.5863 61.2896 4.5107 0.0000 0.0000 0.0000
# 3 23.5110 4.5107 116.1715 0.0000 0.0000 0.0000
# 4 0.0000 0.0000 0.0000 24.0684 0.0000 0.0000
# 5 0.0000 0.0000 0.0000 0.0000 38.7114 0.0000
# 6 0.0000 0.0000 0.0000 0.0000 0.0000 11.1787
#
#
#
# Elastic Compliance Matrix: (Units=1/GPa)
#
#
# Indices 1 2 3 4 5 6 
#
# 1 0.022634 -0.003953 -0.004427 0.000000 0.000000 0.000000
# 2 -0.003953 0.017053 0.000138 0.000000 0.000000 0.000000
# 3 -0.004427 0.000138 0.009499 0.000000 0.000000 0.000000
# 4 0.000000 0.000000 0.000000 0.041548 0.000000 0.000000
# 5 0.000000 0.000000 0.000000 0.000000 0.025832 0.000000
# 6 0.000000 0.000000 0.000000 0.000000 0.000000 0.089456
#
#
# Mechanical properties :
#
#
# Convention : Reuss Voigt Hill
#
# Bulk Modulus (GPa) = 30.58012 34.16458 32.37235
# Shear Modulus (GPa) = 21.42184 27.36884 24.39534
#
# Velocity S-wave (km/s) = 3.13835 3.54732 3.34908
# Velocity P-wave (km/s) = 5.21462 5.69965 5.46252
#
# Compressibility (1/GPa) = 0.03270099
#
# Stress axis : x y z
#
# Youngs Moduli (GPa) = 44.18191 58.64042 105.27879
#
# Poissons Ratio (x) = 0.23180 0.46609
# Poissons Ratio (y) = 0.17465 -0.01451
# Poissons Ratio (z) = 0.19560 -0.00808
#
# Static dielectric constant tensor:
#      x y z
#    x 1.813750 0.000000 0.000000 
#    y 0.000000 1.816100 0.000000 
#    z 0.000000 0.000000 1.904990 
# 
# From -- ./inp_files/891.got.cif
#   From: 2010.05.17/outbox.cif.g08.bks.cpg/sg29_1_cif.got.tgz:891.got - 2010.06.04 01:19:37.
