data_PCOD9340534
_publ_section_title
;
Structure prediction by ZEFSAII (Michael W. Deem and Ramdas Pophale) SiO2 
 PCOD9340534
Probable space group: P C A 21
;
_chemical_formula_sum "Si O2"
_cell_formula_units_Z 28
_cell_length_a 25.771087
_cell_length_b 8.509142
_cell_length_c 5.340763
_cell_angle_alpha 90.000000
_cell_angle_beta 90.000000
_cell_angle_gamma 90.000000
_cell_volume 1171.175057
_symmetry_space_group_name_H-M "P C A 21"
_symmetry_group_IT_number 29
_symmetry_cell_setting 'orthorhombic'
loop_
_space_group_symop_operation_xyz
x,y,z
-x,-y,1/2+z
1/2-x,y,1/2+z
1/2+x,-y,z
loop_
_atom_site_type_symbol
_atom_site_label
_atom_site_fract_x
_atom_site_fract_y
_atom_site_fract_z
Si Si1 0.932114 0.314341 0.044730
Si Si2 0.235166 0.904033 0.831855
Si Si3 0.880982 0.046917 0.276447
Si Si4 0.044926 0.285754 0.055240
Si Si5 0.226545 0.263683 0.433232
Si Si6 0.574957 0.003996 0.264764
Si Si7 0.110046 0.358881 0.550977
O O1 0.916259 0.202092 0.274354
O O2 0.890396 0.450664 0.041096
O O3 0.990631 0.375768 0.058844
O O4 0.933210 0.188351 0.816333
O O5 0.267141 0.827179 0.606298
O O6 0.257480 0.079506 0.891371
O O7 0.177592 0.912572 0.720533
O O8 0.881142 0.977867 0.553953
O O9 0.905779 0.953882 0.041390
O O10 0.079361 0.324112 0.294526
O O11 0.031312 0.100499 0.124863
O O12 0.077307 0.317144 0.803669
O O13 0.263425 0.329354 0.654587
O O14 0.168361 0.291751 0.532202
#
# Coordination Sequence:
#
# PCOD9340534 Si02
#       7
#     4   4   4   4   4   4   4
#     4  10  28  46  72 100 155 192 233 293 373 441
#     4  10  21  36  64  96 132 171 232 293 354 409
#     4  10  23  41  68  95 140 181 233 289 362 411
#     4  12  27  42  75 106 144 187 253 287 356 432
#     4  10  23  41  67  98 135 176 235 298 353 413
#     4  10  25  40  70  98 139 181 239 285 352 409
#     4  12  27  46  72 107 145 190 237 301 364 435
#
# _framework density 23.907612
#
# number of rings (size 3 to 8) (size 9 to 14) (size 15 to 20)
#    0.857    0.571    0.000    3.429   18.000    0.000 
#    0.000    1.429    0.000    0.000    0.000    0.000 
#    0.000    0.000    0.000    0.000    0.000    0.000 
#
# Total GULP energy -155917.934697 kJ/mol
# GULP energy per Si atom -5568.497668 kJ/mol
# Density = 2.385320 g / cm^3
# Si number density = 23.907612 Si / 1000 Ang^3
#
#
#
# Elastic Constant Matrix: (Units=GPa)
#
#
# Indices 1 2 3 4 5 6 
#
# 1 100.1235 0.3525 18.4511 0.0000 0.0000 0.0000
# 2 0.3525 49.9284 25.1046 0.0000 0.0000 0.0000
# 3 18.4511 25.1046 189.0059 0.0000 0.0000 0.0000
# 4 0.0000 0.0000 0.0000 15.6573 0.0000 0.0000
# 5 0.0000 0.0000 0.0000 0.0000 26.7476 0.0000
# 6 0.0000 0.0000 0.0000 0.0000 0.0000 20.3864
#
#
#
# Elastic Compliance Matrix: (Units=1/GPa)
#
#
# Indices 1 2 3 4 5 6 
#
# 1 0.010180 0.000458 -0.001055 0.000000 0.000000 0.000000
# 2 0.000458 0.021483 -0.002898 0.000000 0.000000 0.000000
# 3 -0.001055 -0.002898 0.005779 0.000000 0.000000 0.000000
# 4 0.000000 0.000000 0.000000 0.063868 0.000000 0.000000
# 5 0.000000 0.000000 0.000000 0.000000 0.037386 0.000000
# 6 0.000000 0.000000 0.000000 0.000000 0.000000 0.049052
#
#
# Mechanical properties :
#
#
# Convention : Reuss Voigt Hill
#
# Bulk Modulus (GPa) = 32.83753 47.43047 40.13400
# Shear Modulus (GPa) = 24.40351 32.23490 28.31920
#
# Velocity S-wave (km/s) = 3.19837 3.67592 3.44543
# Velocity P-wave (km/s) = 5.23492 6.15619 5.71415
#
# Compressibility (1/GPa) = 0.03045296
#
# Stress axis : x y z
#
# Youngs Moduli (GPa) = 98.22775 46.54908 173.04769
#
# Poissons Ratio (x) = -0.02134 0.18252
# Poissons Ratio (y) = -0.04503 0.50152
# Poissons Ratio (z) = 0.10360 0.13491
#
# Static dielectric constant tensor:
#      x y z
#    x 1.899570 0.000000 0.000000 
#    y 0.000000 2.240890 0.000000 
#    z 0.000000 0.000000 1.961520 
# 
# From -- ./inp_files/657.got.cif
#   From: 2010.05.17/outbox.cif.g08.bks.cpg/sg29_1_cif.got.tgz:657.got - 2010.06.04 01:19:37.
