data_PCOD9340380
_publ_section_title
;
Structure prediction by ZEFSAII (Michael W. Deem and Ramdas Pophale) SiO2 
 PCOD9340380
Probable space group: P C A 21
;
_chemical_formula_sum "Si O2"
_cell_formula_units_Z 32
_cell_length_a 13.597829
_cell_length_b 7.091880
_cell_length_c 14.602752
_cell_angle_alpha 90.000000
_cell_angle_beta 90.000000
_cell_angle_gamma 90.000000
_cell_volume 1408.204291
_symmetry_space_group_name_H-M "P C A 21"
_symmetry_group_IT_number 29
_symmetry_cell_setting 'orthorhombic'
loop_
_space_group_symop_operation_xyz
x,y,z
-x,-y,1/2+z
1/2-x,y,1/2+z
1/2+x,-y,z
loop_
_atom_site_type_symbol
_atom_site_label
_atom_site_fract_x
_atom_site_fract_y
_atom_site_fract_z
Si Si1 0.847687 0.968935 0.579040
Si Si2 0.122201 0.529599 0.479619
Si Si3 0.046208 0.936395 0.915859
Si Si4 0.650481 0.476415 0.941413
Si Si5 0.511594 0.521003 0.798292
Si Si6 0.622404 0.033813 0.542513
Si Si7 0.038470 0.635210 0.104435
Si Si8 0.997119 0.889529 0.718703
O O1 0.732557 0.969700 0.562383
O O2 0.897189 0.916872 0.481365
O O3 0.893896 0.179514 0.590022
O O4 0.889484 0.876804 0.671635
O O5 0.235733 0.491424 0.458356
O O6 0.120783 0.749169 0.509304
O O7 0.069705 0.409187 0.560777
O O8 0.062798 0.504729 0.384385
O O9 0.017872 0.994974 0.813787
O O10 0.111941 0.741973 0.916921
O O11 0.940494 0.920263 0.966921
O O12 0.610513 0.579947 0.850907
O O13 0.598399 0.512100 0.039833
O O14 0.470454 0.634754 0.713142
O O15 0.525389 0.321586 0.746781
O O16 0.564529 0.030778 0.638142
#
# Coordination Sequence:
#
# PCOD9340380 Si02
#       8
#     4   4   4   4   4   4   4   4
#     4  10  22  41  66  93 129 177 218 266 334 389
#     4  11  21  38  66  93 125 176 218 268 340 387
#     4   9  20  38  62  91 129 164 223 269 319 392
#     4   9  20  41  60  88 126 173 211 269 329 384
#     4  10  22  37  62  93 129 164 216 273 324 392
#     4  11  21  39  70  93 122 183 219 266 336 390
#     4  10  20  38  61  95 123 165 219 270 316 398
#     4  10  22  42  61  94 135 168 216 285 316 388
#
# _framework density 22.723974999999999
#
# number of rings (size 3 to 8) (size 9 to 14) (size 15 to 20)
#    0.000    2.000    3.750    0.750    1.750    4.000 
#    0.000   10.000    0.000    0.000    0.000    0.000 
#    0.000    0.000    0.000    0.000    0.000    0.000 
#
# Total GULP energy -178184.998592 kJ/mol
# GULP energy per Si atom -5568.281206 kJ/mol
# Density = 2.267225 g / cm^3
# Si number density = 22.723975 Si / 1000 Ang^3
#
#
#
# Elastic Constant Matrix: (Units=GPa)
#
#
# Indices 1 2 3 4 5 6 
#
# 1 172.6294 -8.5132 48.0169 0.0000 0.0000 0.0000
# 2 -8.5132 35.3919 8.1083 0.0000 0.0000 0.0000
# 3 48.0169 8.1083 191.3180 0.0000 0.0000 0.0000
# 4 0.0000 0.0000 0.0000 34.2106 0.0000 0.0000
# 5 0.0000 0.0000 0.0000 0.0000 46.3859 0.0000
# 6 0.0000 0.0000 0.0000 0.0000 0.0000 30.4289
#
#
#
# Elastic Compliance Matrix: (Units=1/GPa)
#
#
# Indices 1 2 3 4 5 6 
#
# 1 0.006353 0.001912 -0.001676 0.000000 0.000000 0.000000
# 2 0.001912 0.029107 -0.001713 0.000000 0.000000 0.000000
# 3 -0.001676 -0.001713 0.005720 0.000000 0.000000 0.000000
# 4 0.000000 0.000000 0.000000 0.029231 0.000000 0.000000
# 5 0.000000 0.000000 0.000000 0.000000 0.021558 0.000000
# 6 0.000000 0.000000 0.000000 0.000000 0.000000 0.032863
#
#
# Mechanical properties :
#
#
# Convention : Reuss Voigt Hill
#
# Bulk Modulus (GPa) = 26.15975 54.95148 40.55562
# Shear Modulus (GPa) = 35.57976 45.65356 40.61666
#
# Velocity S-wave (km/s) = 3.96123 4.48710 4.23234
# Velocity P-wave (km/s) = 5.69726 7.14704 6.46293
#
# Compressibility (1/GPa) = 0.03822666
#
# Stress axis : x y z
#
# Youngs Moduli (GPa) = 157.40353 34.35541 174.82380
#
# Poissons Ratio (x) = -0.06569 0.29292
# Poissons Ratio (y) = -0.30096 0.29956
# Poissons Ratio (z) = 0.26373 0.05887
#
# Static dielectric constant tensor:
#      x y z
#    x 1.806850 0.000000 0.000000 
#    y 0.000000 2.088680 0.000000 
#    z 0.000000 0.000000 1.948550 
# 
# From -- ./inp_files/4560.got.cif
#   From: 2010.05.17/outbox.cif.g08.bks.cpg/sg29_3_cif.got.tgz:4560.got - 2010.06.04 01:19:37.
