data_PCOD9340754
_publ_section_title
;
Structure prediction by ZEFSAII (Michael W. Deem and Ramdas Pophale) SiO2 
 PCOD9340754
Probable space group: P C A 21
;
_chemical_formula_sum "Si O2"
_cell_formula_units_Z 32
_cell_length_a 22.316684
_cell_length_b 5.140202
_cell_length_c 12.334972
_cell_angle_alpha 90.000000
_cell_angle_beta 90.000000
_cell_angle_gamma 90.000000
_cell_volume 1414.972561
_symmetry_space_group_name_H-M "P C A 21"
_symmetry_group_IT_number 29
_symmetry_cell_setting 'orthorhombic'
loop_
_space_group_symop_operation_xyz
x,y,z
-x,-y,1/2+z
1/2-x,y,1/2+z
1/2+x,-y,z
loop_
_atom_site_type_symbol
_atom_site_label
_atom_site_fract_x
_atom_site_fract_y
_atom_site_fract_z
Si Si1 0.080246 0.219471 0.233930
Si Si2 0.355359 0.512287 0.384636
Si Si3 0.812966 0.161823 0.174746
Si Si4 0.263693 0.610765 0.959605
Si Si5 0.713097 0.892548 0.309031
Si Si6 0.479005 0.701041 0.642427
Si Si7 0.910746 0.859110 0.251933
Si Si8 0.982560 0.254884 0.399580
O O1 0.149855 0.185298 0.256869
O O2 0.059835 0.438227 0.147892
O O3 0.044589 0.322280 0.340935
O O4 0.056764 0.934949 0.199565
O O5 0.332432 0.665349 0.278045
O O6 0.308809 0.600589 0.474785
O O7 0.359621 0.221405 0.338797
O O8 0.424978 0.557425 0.408399
O O9 0.758819 0.972580 0.212083
O O10 0.873313 0.995044 0.156538
O O11 0.794462 0.343098 0.074967
O O12 0.272662 0.347594 0.890093
O O13 0.285773 0.850300 0.884877
O O14 0.543514 0.651984 0.700178
O O15 0.494137 0.807628 0.523668
O O16 0.954250 0.038463 0.321708
#
# Coordination Sequence:
#
# PCOD9340754 Si02
#       8
#     4   4   4   4   4   4   4   4
#     4  11  25  45  64 100 141 172 228 289 337 406
#     4  10  21  44  67  96 137 173 231 289 328 411
#     4  10  24  42  68  99 138 180 229 285 345 417
#     4  11  25  42  71 102 130 190 226 272 363 408
#     4  11  25  46  64 102 143 172 227 293 334 412
#     4  11  25  42  69 100 128 189 225 275 359 406
#     4  10  21  45  67  96 139 175 233 293 332 413
#     4  10  24  42  66  97 134 177 227 282 338 407
#
# _framework density 22.615279999999998
#
# number of rings (size 3 to 8) (size 9 to 14) (size 15 to 20)
#    0.000    1.500    2.500    0.750    7.000    0.000 
#    2.250    0.000    0.000    0.000    0.000    0.000 
#    0.000    0.000    0.000    0.000    0.000    0.000 
#
# Total GULP energy -178333.456389 kJ/mol
# GULP energy per Si atom -5572.920512 kJ/mol
# Density = 2.256381 g / cm^3
# Si number density = 22.615280 Si / 1000 Ang^3
#
#
#
# Elastic Constant Matrix: (Units=GPa)
#
#
# Indices 1 2 3 4 5 6 
#
# 1 102.4608 18.2588 41.4174 0.0000 0.0000 0.0000
# 2 18.2588 90.8968 5.6593 0.0000 0.0000 0.0000
# 3 41.4174 5.6593 63.6227 0.0000 0.0000 0.0000
# 4 0.0000 0.0000 0.0000 -2.4905 0.0000 0.0000
# 5 0.0000 0.0000 0.0000 0.0000 25.0279 0.0000
# 6 0.0000 0.0000 0.0000 0.0000 0.0000 15.9945
#
#
#
# Elastic Compliance Matrix: (Units=1/GPa)
#
#
# Indices 1 2 3 4 5 6 
#
# 1 0.013671 -0.002204 -0.008703 0.000000 0.000000 0.000000
# 2 -0.002204 0.011418 0.000419 0.000000 0.000000 0.000000
# 3 -0.008703 0.000419 0.021346 0.000000 0.000000 0.000000
# 4 0.000000 0.000000 0.000000 -0.401532 0.000000 0.000000
# 5 0.000000 0.000000 0.000000 0.000000 0.039955 0.000000
# 6 0.000000 0.000000 0.000000 0.000000 0.000000 0.062522
#
#
# Mechanical properties :
#
#
# Convention : Reuss Voigt Hill
#
# Bulk Modulus (GPa) = 39.27983 43.07236 41.17609
# Shear Modulus (GPa) = -22.40571 20.48271 -0.96150
#
# Velocity S-wave (km/s) = -3.15101 3.01275 -0.65275
# Velocity P-wave (km/s) = 2.04156 5.58474 4.20460
#
# Compressibility (1/GPa) = 0.02545836
#
# Stress axis : x y z
#
# Youngs Moduli (GPa) = 73.14876 87.57977 46.84693
#
# Poissons Ratio (x) = 0.19305 0.40773
# Poissons Ratio (y) = 0.16124 -0.01964
# Poissons Ratio (z) = 0.63664 -0.03672
#
# Static dielectric constant tensor:
#      x y z
#    x 1.903850 0.000000 0.000000 
#    y 0.000000 1.920590 0.000000 
#    z 0.000000 0.000000 1.877060 
# 
# From -- ./inp_files/3861.got.cif
#   From: 2010.05.17/outbox.cif.g08.bks.cpg/sg29_2_cif.got.tgz:3861.got - 2010.06.04 01:19:37.
