data_PCOD9340724
_publ_section_title
;
Structure prediction by ZEFSAII (Michael W. Deem and Ramdas Pophale) SiO2 
 PCOD9340724
Probable space group: P C A 21
;
_chemical_formula_sum "Si O2"
_cell_formula_units_Z 32
_cell_length_a 10.988212
_cell_length_b 12.499614
_cell_length_c 9.194656
_cell_angle_alpha 90.000000
_cell_angle_beta 90.000000
_cell_angle_gamma 90.000000
_cell_volume 1262.871369
_symmetry_space_group_name_H-M "P C A 21"
_symmetry_group_IT_number 29
_symmetry_cell_setting 'orthorhombic'
loop_
_space_group_symop_operation_xyz
x,y,z
-x,-y,1/2+z
1/2-x,y,1/2+z
1/2+x,-y,z
loop_
_atom_site_type_symbol
_atom_site_label
_atom_site_fract_x
_atom_site_fract_y
_atom_site_fract_z
Si Si1 0.668593 0.609713 0.784330
Si Si2 0.849660 0.972443 0.912470
Si Si3 0.000825 0.138744 0.005281
Si Si4 0.866916 0.533796 0.582981
Si Si5 0.321920 0.689412 0.517455
Si Si6 0.252216 0.166512 0.658148
Si Si7 0.306300 0.836301 0.259164
Si Si8 0.060159 0.635914 0.434624
O O1 0.766828 0.534644 0.707477
O O2 0.686582 0.725136 0.708761
O O3 0.525023 0.581887 0.812203
O O4 0.703008 0.599309 0.953938
O O5 0.982026 0.028124 0.920332
O O6 0.828249 0.920290 0.071413
O O7 0.764314 0.069617 0.848000
O O8 0.819119 0.880582 0.799588
O O9 0.911234 0.131690 0.144525
O O10 0.134662 0.172009 0.048035
O O11 0.955280 0.237826 0.911229
O O12 0.904350 0.412627 0.546324
O O13 0.991455 0.602202 0.584466
O O14 0.363103 0.763703 0.386098
O O15 0.282237 0.763037 0.654659
O O16 0.201108 0.627130 0.460111
#
# Coordination Sequence:
#
# PCOD9340724 Si02
#       8
#     4   4   4   4   4   4   4   4
#     4  10  21  43  64  94 132 170 214 275 321 390
#     4  12  24  42  66  98 128 173 225 272 333 397
#     4  11  23  43  66  91 138 170 212 277 332 386
#     4  10  21  42  66  95 127 170 219 262 330 394
#     4  11  22  44  67  94 130 173 214 274 329 394
#     4  12  24  42  68  95 133 176 222 276 331 396
#     4  11  22  44  64  93 131 167 214 273 327 384
#     4   9  21  42  65  86 137 169 204 271 335 365
#
# _framework density 25.339079999999999
#
# number of rings (size 3 to 8) (size 9 to 14) (size 15 to 20)
#    0.750    0.500    5.000    2.250    1.750    1.000 
#    6.750    0.000    0.000    0.000    0.000    0.000 
#    0.000    0.000    0.000    0.000    0.000    0.000 
#
# Total GULP energy -178346.063569 kJ/mol
# GULP energy per Si atom -5573.314487 kJ/mol
# Density = 2.528141 g / cm^3
# Si number density = 25.339080 Si / 1000 Ang^3
#
#
#
# Elastic Constant Matrix: (Units=GPa)
#
#
# Indices 1 2 3 4 5 6 
#
# 1 36.7349 -16.1070 0.5866 0.0000 0.0000 0.0000
# 2 -16.1070 73.6646 1.9548 0.0000 0.0000 0.0000
# 3 0.5866 1.9548 96.9392 0.0000 0.0000 0.0000
# 4 0.0000 0.0000 0.0000 44.7333 0.0000 0.0000
# 5 0.0000 0.0000 0.0000 0.0000 43.0246 0.0000
# 6 0.0000 0.0000 0.0000 0.0000 0.0000 13.2113
#
#
#
# Elastic Compliance Matrix: (Units=1/GPa)
#
#
# Indices 1 2 3 4 5 6 
#
# 1 0.030118 0.006594 -0.000315 0.000000 0.000000 0.000000
# 2 0.006594 0.015026 -0.000343 0.000000 0.000000 0.000000
# 3 -0.000315 -0.000343 0.010325 0.000000 0.000000 0.000000
# 4 0.000000 0.000000 0.000000 0.022355 0.000000 0.000000
# 5 0.000000 0.000000 0.000000 0.000000 0.023243 0.000000
# 6 0.000000 0.000000 0.000000 0.000000 0.000000 0.075693
#
#
# Mechanical properties :
#
#
# Convention : Reuss Voigt Hill
#
# Bulk Modulus (GPa) = 14.85001 20.02306 17.43654
# Shear Modulus (GPa) = 26.69026 34.92080 30.80553
#
# Velocity S-wave (km/s) = 3.24902 3.71636 3.49052
# Velocity P-wave (km/s) = 4.46632 5.13169 4.81053
#
# Compressibility (1/GPa) = 0.06734002
#
# Stress axis : x y z
#
# Youngs Moduli (GPa) = 33.20251 66.55183 96.85632
#
# Poissons Ratio (x) = -0.43883 0.03053
# Poissons Ratio (y) = -0.21893 0.03321
# Poissons Ratio (z) = 0.01047 0.02282
#
# Static dielectric constant tensor:
#      x y z
#    x 2.063780 0.000000 0.000000 
#    y 0.000000 2.008540 0.000000 
#    z 0.000000 0.000000 2.125920 
# 
# From -- ./inp_files/1877.got.cif
#   From: 2010.05.17/outbox.cif.g08.bks.cpg/sg29_1_cif.got.tgz:1877.got - 2010.06.04 01:19:37.
