data_PCOD9340896
_publ_section_title
;
Structure prediction by ZEFSAII (Michael W. Deem and Ramdas Pophale) SiO2 
 PCOD9340896
Probable space group: P C A 21
;
_chemical_formula_sum "Si O2"
_cell_formula_units_Z 32
_cell_length_a 24.376550
_cell_length_b 4.927233
_cell_length_c 11.309114
_cell_angle_alpha 90.000000
_cell_angle_beta 90.000000
_cell_angle_gamma 90.000000
_cell_volume 1358.325713
_symmetry_space_group_name_H-M "P C A 21"
_symmetry_group_IT_number 29
_symmetry_cell_setting 'orthorhombic'
loop_
_space_group_symop_operation_xyz
x,y,z
-x,-y,1/2+z
1/2-x,y,1/2+z
1/2+x,-y,z
loop_
_atom_site_type_symbol
_atom_site_label
_atom_site_fract_x
_atom_site_fract_y
_atom_site_fract_z
Si Si1 0.390475 0.323905 0.631870
Si Si2 0.111144 0.718237 0.902332
Si Si3 0.229517 0.193634 0.097472
Si Si4 0.231364 0.687894 0.928372
Si Si5 0.560788 0.177200 0.245926
Si Si6 0.565693 0.776443 0.787873
Si Si7 0.343512 0.333043 0.101473
Si Si8 0.653183 0.155869 0.437269
O O1 0.387701 0.529770 0.519536
O O2 0.327201 0.259354 0.662321
O O3 0.425404 0.511177 0.718366
O O4 0.419377 0.030938 0.643823
O O5 0.174567 0.726731 0.859470
O O6 0.070963 0.538170 0.822966
O O7 0.090277 0.024699 0.888595
O O8 0.230530 0.388510 0.982154
O O9 0.228058 0.891102 0.043312
O O10 0.284852 0.280010 0.165324
O O11 0.290283 0.754573 0.871659
O O12 0.496473 0.145410 0.264741
O O13 0.599292 0.132506 0.359023
O O14 0.606399 0.782879 0.676657
O O15 0.351711 0.632194 0.047366
O O16 0.337867 0.139772 0.988860
#
# Coordination Sequence:
#
# PCOD9340896 Si02
#       8
#     4   4   4   4   4   4   4   4
#     4  11  23  42  65  90 123 159 201 261 314 358
#     4  11  23  42  65  90 123 159 201 261 314 358
#     4   9  18  36  62  91 119 153 201 249 310 377
#     4   9  18  36  62  91 119 153 201 249 310 377
#     4  12  26  41  61  93 124 164 218 247 293 379
#     4  12  26  41  61  93 124 164 218 247 293 379
#     4  10  22  41  63  89 125 161 198 256 312 360
#     4  10  22  41  63  89 125 161 198 256 312 360
#
# _framework density 23.558413000000002
#
# number of rings (size 3 to 8) (size 9 to 14) (size 15 to 20)
#    0.000    1.500    0.000    6.000    0.000    5.000 
#    0.000    0.000    0.000    0.000    0.000    0.000 
#    0.000    0.000    0.000    0.000    0.000    0.000 
#
# Total GULP energy -178579.226239 kJ/mol
# GULP energy per Si atom -5580.600820 kJ/mol
# Density = 2.350479 g / cm^3
# Si number density = 23.558413 Si / 1000 Ang^3
#
#
#
# Elastic Constant Matrix: (Units=GPa)
#
#
# Indices 1 2 3 4 5 6 
#
# 1 207.1689 21.0714 35.8870 0.0000 0.0000 0.0000
# 2 21.0714 123.3961 12.2676 0.0000 0.0000 0.0000
# 3 35.8870 12.2676 33.7342 0.0000 0.0000 0.0000
# 4 0.0000 0.0000 0.0000 29.5714 0.0000 0.0000
# 5 0.0000 0.0000 0.0000 0.0000 20.9942 0.0000
# 6 0.0000 0.0000 0.0000 0.0000 0.0000 58.1621
#
#
#
# Elastic Compliance Matrix: (Units=1/GPa)
#
#
# Indices 1 2 3 4 5 6 
#
# 1 0.005936 -0.000400 -0.006170 0.000000 0.000000 0.000000
# 2 -0.000400 0.008435 -0.002642 0.000000 0.000000 0.000000
# 3 -0.006170 -0.002642 0.037168 0.000000 0.000000 0.000000
# 4 0.000000 0.000000 0.000000 0.033816 0.000000 0.000000
# 5 0.000000 0.000000 0.000000 0.000000 0.047632 0.000000
# 6 0.000000 0.000000 0.000000 0.000000 0.000000 0.017193
#
#
# Mechanical properties :
#
#
# Convention : Reuss Voigt Hill
#
# Bulk Modulus (GPa) = 30.19700 55.86122 43.02911
# Shear Modulus (GPa) = 27.83302 41.41708 34.62505
#
# Velocity S-wave (km/s) = 3.44095 4.19747 3.83790
# Velocity P-wave (km/s) = 5.35094 6.87422 6.15985
#
# Compressibility (1/GPa) = 0.03311587
#
# Stress axis : x y z
#
# Youngs Moduli (GPa) = 168.45072 118.55423 26.90516
#
# Poissons Ratio (x) = 0.04746 0.16600
# Poissons Ratio (y) = 0.06744 0.07107
# Poissons Ratio (z) = 1.03929 0.31316
#
# Static dielectric constant tensor:
#      x y z
#    x 1.913040 0.000000 0.000000 
#    y 0.000000 1.827280 0.000000 
#    z 0.000000 0.000000 2.031200 
# 
# From -- ./inp_files/3837.got.cif
#   From: 2010.05.17/outbox.cif.g08.bks.cpg/sg29_2_cif.got.tgz:3837.got - 2010.06.04 01:19:37.
