data_PCOD9340429
_publ_section_title
;
Structure prediction by ZEFSAII (Michael W. Deem and Ramdas Pophale) SiO2 
 PCOD9340429
Probable space group: P C A 21
;
_chemical_formula_sum "Si O2"
_cell_formula_units_Z 32
_cell_length_a 9.076151
_cell_length_b 14.698450
_cell_length_c 11.920073
_cell_angle_alpha 90.000000
_cell_angle_beta 90.000000
_cell_angle_gamma 90.000000
_cell_volume 1590.201530
_symmetry_space_group_name_H-M "P C A 21"
_symmetry_group_IT_number 29
_symmetry_cell_setting 'orthorhombic'
loop_
_space_group_symop_operation_xyz
x,y,z
-x,-y,1/2+z
1/2-x,y,1/2+z
1/2+x,-y,z
loop_
_atom_site_type_symbol
_atom_site_label
_atom_site_fract_x
_atom_site_fract_y
_atom_site_fract_z
Si Si1 0.004766 0.383510 0.691540
Si Si2 0.440585 0.174228 0.126911
Si Si3 0.731222 0.480497 0.574329
Si Si4 0.703192 0.053777 0.050606
Si Si5 0.631403 0.801730 0.026964
Si Si6 0.996569 0.914236 0.684241
Si Si7 0.956759 0.603196 0.452225
Si Si8 0.602771 0.952530 0.848882
O O1 0.026656 0.276428 0.667353
O O2 0.142171 0.441173 0.641565
O O3 0.851418 0.422137 0.642388
O O4 0.003813 0.399274 0.823134
O O5 0.584122 0.134348 0.063727
O O6 0.304085 0.178841 0.041583
O O7 0.394054 0.107952 0.232792
O O8 0.602620 0.419016 0.523073
O O9 0.829781 0.530982 0.481173
O O10 0.850016 0.076670 0.117854
O O11 0.623386 0.976339 0.123114
O O12 0.720915 0.010224 0.926314
O O13 0.561578 0.814942 0.151785
O O14 0.602605 0.702015 0.983854
O O15 0.561133 0.873499 0.937900
O O16 0.011468 0.959325 0.805276
#
# Coordination Sequence:
#
# PCOD9340429 Si02
#       8
#     4   4   4   4   4   4   4   4
#     4  11  22  44  68  99 131 171 213 265 335 390
#     4  11  23  38  61  93 126 164 211 263 316 384
#     4  10  24  42  72  96 132 168 214 272 322 404
#     4  10  22  37  57  84 117 162 212 255 310 369
#     4  11  23  38  61  93 126 164 211 263 316 384
#     4  10  22  37  57  84 117 162 212 255 310 369
#     4  11  22  44  68  99 131 171 213 265 335 390
#     4  10  20  40  60  82 122 168 204 258 312 370
#
# _framework density 20.123235000000001
#
# number of rings (size 3 to 8) (size 9 to 14) (size 15 to 20)
#    0.000    1.500    2.500    3.750    1.750    9.000 
#    0.000    0.000    5.500    0.000    0.000    0.000 
#    0.000    0.000    0.000    0.000    0.000    0.000 
#
# Total GULP energy -178144.281194 kJ/mol
# GULP energy per Si atom -5567.008787 kJ/mol
# Density = 2.007743 g / cm^3
# Si number density = 20.123235 Si / 1000 Ang^3
#
#
#
# Elastic Constant Matrix: (Units=GPa)
#
#
# Indices 1 2 3 4 5 6 
#
# 1 121.8828 28.4807 30.0485 0.0000 0.0000 0.0000
# 2 28.4807 72.4171 38.6222 0.0000 0.0000 0.0000
# 3 30.0485 38.6222 74.6230 0.0000 0.0000 0.0000
# 4 0.0000 0.0000 0.0000 31.0392 0.0000 0.0000
# 5 0.0000 0.0000 0.0000 0.0000 16.1048 0.0000
# 6 0.0000 0.0000 0.0000 0.0000 0.0000 11.6532
#
#
#
# Elastic Compliance Matrix: (Units=1/GPa)
#
#
# Indices 1 2 3 4 5 6 
#
# 1 0.009381 -0.002313 -0.002580 0.000000 0.000000 0.000000
# 2 -0.002313 0.019644 -0.009236 0.000000 0.000000 0.000000
# 3 -0.002580 -0.009236 0.019220 0.000000 0.000000 0.000000
# 4 0.000000 0.000000 0.000000 0.032217 0.000000 0.000000
# 5 0.000000 0.000000 0.000000 0.000000 0.062093 0.000000
# 6 0.000000 0.000000 0.000000 0.000000 0.000000 0.085813
#
#
# Mechanical properties :
#
#
# Convention : Reuss Voigt Hill
#
# Bulk Modulus (GPa) = 50.03316 51.46953 50.75134
# Shear Modulus (GPa) = 18.99041 23.21085 21.10063
#
# Velocity S-wave (km/s) = 3.07531 3.39991 3.24168
# Velocity P-wave (km/s) = 6.12596 6.40665 6.26788
#
# Compressibility (1/GPa) = 0.01998675
#
# Stress axis : x y z
#
# Youngs Moduli (GPa) = 106.59490 50.90507 52.02977
#
# Poissons Ratio (x) = 0.11777 0.13425
# Poissons Ratio (y) = 0.24660 0.48053
# Poissons Ratio (z) = 0.27504 0.47014
#
# Static dielectric constant tensor:
#      x y z
#    x 1.731100 0.000000 0.000000 
#    y 0.000000 1.735720 0.000000 
#    z 0.000000 0.000000 1.740970 
# 
# From -- ./inp_files/2906.got.cif
#   From: 2010.05.17/outbox.cif.g08.bks.cpg/sg29_2_cif.got.tgz:2906.got - 2010.06.04 01:19:37.
