data_PCOD9340320
_publ_section_title
;
Structure prediction by ZEFSAII (Michael W. Deem and Ramdas Pophale) SiO2 
 PCOD9340320
Probable space group: P C A 21
;
_chemical_formula_sum "Si O2"
_cell_formula_units_Z 28
_cell_length_a 8.484606
_cell_length_b 8.292998
_cell_length_c 16.883546
_cell_angle_alpha 90.000000
_cell_angle_beta 90.000000
_cell_angle_gamma 90.000000
_cell_volume 1187.973918
_symmetry_space_group_name_H-M "P C A 21"
_symmetry_group_IT_number 29
_symmetry_cell_setting 'orthorhombic'
loop_
_space_group_symop_operation_xyz
x,y,z
-x,-y,1/2+z
1/2-x,y,1/2+z
1/2+x,-y,z
loop_
_atom_site_type_symbol
_atom_site_label
_atom_site_fract_x
_atom_site_fract_y
_atom_site_fract_z
Si Si1 0.371330 0.153705 0.400770
Si Si2 0.848941 0.046080 0.799898
Si Si3 0.615869 0.329360 0.475970
Si Si4 0.048667 0.760622 0.748924
Si Si5 0.849337 0.548948 0.174966
Si Si6 0.823860 0.564465 0.843823
Si Si7 0.596951 0.417944 0.068190
O O1 0.489176 0.129633 0.326144
O O2 0.495573 0.178985 0.471780
O O3 0.276546 0.320201 0.399726
O O4 0.238292 0.022005 0.380011
O O5 0.715761 0.153254 0.760239
O O6 0.910604 0.894878 0.747208
O O7 0.653605 0.395660 0.387259
O O8 0.521261 0.481850 0.512941
O O9 0.782398 0.305928 0.519843
O O10 0.989707 0.650178 0.823080
O O11 0.076485 0.631639 0.680233
O O12 0.768816 0.568861 0.260105
O O13 0.713097 0.543472 0.110972
O O14 0.990982 0.655833 0.139770
#
# Coordination Sequence:
#
# PCOD9340320 Si02
#       7
#     4   4   4   4   4   4   4
#     4  10  20  36  58  87 121 146 204 248 287 351
#     4   9  21  36  56  94 111 165 198 256 282 335
#     4  11  21  39  57  95 121 159 194 258 317 373
#     4  10  20  36  58  87 121 146 204 248 287 351
#     4  11  21  39  57  95 121 159 194 258 317 373
#     4  11  21  34  64  94 115 155 200 260 312 363
#     4  10  24  36  56  88 132 158 190 240 344 368
#
# _framework density 23.569538999999999
#
# number of rings (size 3 to 8) (size 9 to 14) (size 15 to 20)
#    0.000    1.714    2.857    1.714    4.000    0.000 
#    0.000    0.000    0.000    6.857    0.000    0.000 
#    0.000    0.000    0.000    0.000    0.000    0.000 
#
# Total GULP energy -155965.167225 kJ/mol
# GULP energy per Si atom -5570.184544 kJ/mol
# Density = 2.351589 g / cm^3
# Si number density = 23.569539 Si / 1000 Ang^3
#
#
#
# Elastic Constant Matrix: (Units=GPa)
#
#
# Indices 1 2 3 4 5 6 
#
# 1 139.3671 22.1837 25.7704 0.0000 0.0000 0.0000
# 2 22.1837 45.2741 0.1933 0.0000 0.0000 0.0000
# 3 25.7704 0.1933 56.8143 0.0000 0.0000 0.0000
# 4 0.0000 0.0000 0.0000 16.1363 0.0000 0.0000
# 5 0.0000 0.0000 0.0000 0.0000 50.6657 0.0000
# 6 0.0000 0.0000 0.0000 0.0000 0.0000 37.3497
#
#
#
# Elastic Compliance Matrix: (Units=1/GPa)
#
#
# Indices 1 2 3 4 5 6 
#
# 1 0.008555 -0.004175 -0.003866 0.000000 0.000000 0.000000
# 2 -0.004175 0.024126 0.001812 0.000000 0.000000 0.000000
# 3 -0.003866 0.001812 0.019349 0.000000 0.000000 0.000000
# 4 0.000000 0.000000 0.000000 0.061972 0.000000 0.000000
# 5 0.000000 0.000000 0.000000 0.000000 0.019737 0.000000
# 6 0.000000 0.000000 0.000000 0.000000 0.000000 0.026774
#
#
# Mechanical properties :
#
#
# Convention : Reuss Voigt Hill
#
# Bulk Modulus (GPa) = 25.27172 37.52783 31.39978
# Shear Modulus (GPa) = 26.85838 33.71755 30.28796
#
# Velocity S-wave (km/s) = 3.37937 3.78637 3.58864
# Velocity P-wave (km/s) = 5.09630 5.92218 5.52470
#
# Compressibility (1/GPa) = 0.03956992
#
# Stress axis : x y z
#
# Youngs Moduli (GPa) = 116.89381 41.44952 51.68315
#
# Poissons Ratio (x) = 0.17306 0.19981
# Poissons Ratio (y) = 0.48806 -0.09364
# Poissons Ratio (z) = 0.45193 -0.07510
#
# Static dielectric constant tensor:
#      x y z
#    x 1.953980 0.000000 0.000000 
#    y 0.000000 1.909570 0.000000 
#    z 0.000000 0.000000 1.973340 
# 
# From -- ./inp_files/4976.got.cif
#   From: 2010.05.17/outbox.cif.g08.bks.cpg/sg29_3_cif.got.tgz:4976.got - 2010.06.04 01:19:37.
