data_PCOD9340560
_publ_section_title
;
Structure prediction by ZEFSAII (Michael W. Deem and Ramdas Pophale) SiO2 
 PCOD9340560
Probable space group: P C A 21
;
_chemical_formula_sum "Si O2"
_cell_formula_units_Z 32
_cell_length_a 5.648356
_cell_length_b 16.201122
_cell_length_c 13.619302
_cell_angle_alpha 90.000000
_cell_angle_beta 90.000000
_cell_angle_gamma 90.000000
_cell_volume 1246.298304
_symmetry_space_group_name_H-M "P C A 21"
_symmetry_group_IT_number 29
_symmetry_cell_setting 'orthorhombic'
loop_
_space_group_symop_operation_xyz
x,y,z
-x,-y,1/2+z
1/2-x,y,1/2+z
1/2+x,-y,z
loop_
_atom_site_type_symbol
_atom_site_label
_atom_site_fract_x
_atom_site_fract_y
_atom_site_fract_z
Si Si1 0.378215 0.674975 0.967190
Si Si2 0.372621 0.503311 0.853983
Si Si3 0.008526 0.949416 0.969395
Si Si4 0.613909 0.680573 0.695801
Si Si5 0.082039 0.123316 0.675972
Si Si6 0.582804 0.119602 0.756466
Si Si7 0.884805 0.312094 0.203648
Si Si8 0.877214 0.670157 0.962324
O O1 0.376563 0.581068 0.929118
O O2 0.126579 0.711225 0.933268
O O3 0.629095 0.713162 0.933651
O O4 0.380187 0.680000 0.085356
O O5 0.122617 0.499802 0.798273
O O6 0.374439 0.422509 0.923008
O O7 0.016220 0.900864 0.867334
O O8 0.263411 0.997008 0.973889
O O9 0.987083 0.889827 0.063087
O O10 0.603137 0.779858 0.700567
O O11 0.364487 0.651229 0.739505
O O12 0.619615 0.662128 0.580158
O O13 0.864419 0.652849 0.738818
O O14 0.349092 0.090068 0.695347
O O15 0.852569 0.088695 0.734763
O O16 0.605967 0.215781 0.728977
#
# Coordination Sequence:
#
# PCOD9340560 Si02
#       8
#     4   4   4   4   4   4   4   4
#     4   8  12  18  29  48  75 109 146 184 230 277
#     4   8  12  16  24  42  72 108 140 180 230 270
#     4  12  26  40  58  84 108 136 176 216 262 324
#     4   8  14  25  42  62  85 119 157 194 241 289
#     4  10  21  38  58  79 106 139 172 215 264 312
#     4  10  21  38  58  79 106 139 172 215 264 312
#     4   8  14  25  42  62  85 119 157 194 241 289
#     4   8  12  18  29  48  75 109 146 184 230 277
#
# _framework density 25.676037000000001
#
# number of rings (size 3 to 8) (size 9 to 14) (size 15 to 20)
#    0.000    3.000    0.000    1.500    0.000    3.000 
#    0.000    0.000    0.000    0.000    0.000    0.000 
#    0.000    0.000    0.000  110.250    0.000   19.500 
#
# Total GULP energy -178762.056439 kJ/mol
# GULP energy per Si atom -5586.314264 kJ/mol
# Density = 2.561760 g / cm^3
# Si number density = 25.676037 Si / 1000 Ang^3
#
#
#
# Elastic Constant Matrix: (Units=GPa)
#
#
# Indices 1 2 3 4 5 6 
#
# 1 338.1909 34.1272 32.1776 0.0000 0.0000 0.0000
# 2 34.1272 78.1282 36.8733 0.0000 0.0000 0.0000
# 3 32.1776 36.8733 95.4478 0.0000 0.0000 0.0000
# 4 0.0000 0.0000 0.0000 33.1974 0.0000 0.0000
# 5 0.0000 0.0000 0.0000 0.0000 46.0448 0.0000
# 6 0.0000 0.0000 0.0000 0.0000 0.0000 -17.2334
#
#
#
# Elastic Compliance Matrix: (Units=1/GPa)
#
#
# Indices 1 2 3 4 5 6 
#
# 1 0.003125 -0.001061 -0.000644 0.000000 0.000000 0.000000
# 2 -0.001061 0.016014 -0.005829 0.000000 0.000000 0.000000
# 3 -0.000644 -0.005829 0.012946 0.000000 0.000000 0.000000
# 4 0.000000 0.000000 0.000000 0.030123 0.000000 0.000000
# 5 0.000000 0.000000 0.000000 0.000000 0.021718 0.000000
# 6 0.000000 0.000000 0.000000 0.000000 0.000000 -0.058027
#
#
# Mechanical properties :
#
#
# Convention : Reuss Voigt Hill
#
# Bulk Modulus (GPa) = 58.76277 79.79146 69.27711
# Shear Modulus (GPa) = 107.20724 39.64103 73.42413
#
# Velocity S-wave (km/s) = 6.46873 3.93350 5.35336
# Velocity P-wave (km/s) = 8.87291 7.19539 8.07781
#
# Compressibility (1/GPa) = 0.01701758
#
# Stress axis : x y z
#
# Youngs Moduli (GPa) = 319.97447 62.44533 77.24627
#
# Poissons Ratio (x) = 0.06628 0.04971
# Poissons Ratio (y) = 0.33962 0.45024
# Poissons Ratio (z) = 0.20592 0.36397
#
# Static dielectric constant tensor:
#      x y z
#    x 2.196110 0.000000 0.000000 
#    y 0.000000 1.967330 0.000000 
#    z 0.000000 0.000000 1.945890 
# 
# From -- ./inp_files/132.got.cif
#   From: 2010.05.17/outbox.cif.g08.bks.cpg/sg29_1_cif.got.tgz:132.got - 2010.06.04 01:19:37.
