data_PCOD9340327
_publ_section_title
;
Structure prediction by ZEFSAII (Michael W. Deem and Ramdas Pophale) SiO2 
 PCOD9340327
Probable space group: P C A 21
;
_chemical_formula_sum "Si O2"
_cell_formula_units_Z 28
_cell_length_a 9.051734
_cell_length_b 8.038255
_cell_length_c 19.819647
_cell_angle_alpha 90.000000
_cell_angle_beta 90.000000
_cell_angle_gamma 90.000000
_cell_volume 1442.080411
_symmetry_space_group_name_H-M "P C A 21"
_symmetry_group_IT_number 29
_symmetry_cell_setting 'orthorhombic'
loop_
_space_group_symop_operation_xyz
x,y,z
-x,-y,1/2+z
1/2-x,y,1/2+z
1/2+x,-y,z
loop_
_atom_site_type_symbol
_atom_site_label
_atom_site_fract_x
_atom_site_fract_y
_atom_site_fract_z
Si Si1 0.325577 0.366343 0.287340
Si Si2 0.327995 0.632956 0.391025
Si Si3 0.245544 0.363595 0.499924
Si Si4 0.614451 0.827590 0.380347
Si Si5 0.113276 0.825434 0.300993
Si Si6 0.259400 0.632822 0.679832
Si Si7 0.501987 0.461294 0.589798
O O1 0.394366 0.504507 0.336793
O O2 0.184025 0.297876 0.325954
O O3 0.446777 0.223020 0.281059
O O4 0.278465 0.464892 0.221532
O O5 0.288877 0.525315 0.455570
O O6 0.447729 0.777334 0.399327
O O7 0.180937 0.702561 0.356989
O O8 0.209270 0.212778 0.448355
O O9 0.386050 0.346890 0.548876
O O10 0.102471 0.421660 0.541950
O O11 0.619798 0.000118 0.339919
O O12 0.208164 0.780235 0.233495
O O13 0.402815 0.582734 0.636481
O O14 0.117052 0.650926 0.632165
#
# Coordination Sequence:
#
# PCOD9340327 Si02
#       7
#     4   4   4   4   4   4   4
#     4  10  20  36  59  89 116 156 207 261 305 359
#     4  10  20  36  59  89 116 156 207 261 305 359
#     4  10  20  37  63  93 117 163 209 253 295 372
#     4  11  22  36  58  91 126 157 196 263 324 359
#     4  11  22  36  58  91 126 157 196 263 324 359
#     4  10  20  37  63  93 117 163 209 253 295 372
#     4  10  20  36  64  94 120 162 218 246 290 362
#
# _framework density 19.416394
#
# number of rings (size 3 to 8) (size 9 to 14) (size 15 to 20)
#    0.000    1.714    2.857    3.429    4.000    0.000 
#    0.000    0.000    0.000   10.286    0.000    0.000 
#    0.000    0.000    0.000    0.000    0.000    0.000 
#
# Total GULP energy -156011.577117 kJ/mol
# GULP energy per Si atom -5571.842040 kJ/mol
# Density = 1.937220 g / cm^3
# Si number density = 19.416394 Si / 1000 Ang^3
#
#
#
# Elastic Constant Matrix: (Units=GPa)
#
#
# Indices 1 2 3 4 5 6 
#
# 1 105.5399 18.9496 37.5034 0.0000 0.0000 0.0000
# 2 18.9496 69.9847 20.8802 0.0000 0.0000 0.0000
# 3 37.5034 20.8802 86.8172 0.0000 0.0000 0.0000
# 4 0.0000 0.0000 0.0000 29.3697 0.0000 0.0000
# 5 0.0000 0.0000 0.0000 0.0000 0.9257 0.0000
# 6 0.0000 0.0000 0.0000 0.0000 0.0000 8.8939
#
#
#
# Elastic Compliance Matrix: (Units=1/GPa)
#
#
# Indices 1 2 3 4 5 6 
#
# 1 0.011387 -0.001740 -0.004500 0.000000 0.000000 0.000000
# 2 -0.001740 0.015659 -0.003014 0.000000 0.000000 0.000000
# 3 -0.004500 -0.003014 0.014187 0.000000 0.000000 0.000000
# 4 0.000000 0.000000 0.000000 0.034049 0.000000 0.000000
# 5 0.000000 0.000000 0.000000 0.000000 1.080235 0.000000
# 6 0.000000 0.000000 0.000000 0.000000 0.000000 0.112437
#
#
# Mechanical properties :
#
#
# Convention : Reuss Voigt Hill
#
# Bulk Modulus (GPa) = 44.00742 46.33424 45.17083
# Shear Modulus (GPa) = 3.86387 20.17177 12.01782
#
# Velocity S-wave (km/s) = 1.41221 3.22670 2.49057
# Velocity P-wave (km/s) = 5.03720 6.14796 5.62009
#
# Compressibility (1/GPa) = 0.02272344
#
# Stress axis : x y z
#
# Youngs Moduli (GPa) = 87.82132 63.85919 70.48477
#
# Poissons Ratio (x) = 0.11115 0.31720
# Poissons Ratio (y) = 0.15285 0.21247
# Poissons Ratio (z) = 0.39522 0.19249
#
# Static dielectric constant tensor:
#      x y z
#    x 1.704810 0.000000 0.000000 
#    y 0.000000 1.700710 0.000000 
#    z 0.000000 0.000000 1.709600 
# 
# From -- ./inp_files/5384.got.cif
#   From: 2010.05.17/outbox.cif.g08.bks.cpg/sg29_3_cif.got.tgz:5384.got - 2010.06.04 01:19:37.
