data_PCOD9340850
_publ_section_title
;
Structure prediction by ZEFSAII (Michael W. Deem and Ramdas Pophale) SiO2 
 PCOD9340850
Probable space group: P C A 21
;
_chemical_formula_sum "Si O2"
_cell_formula_units_Z 28
_cell_length_a 18.754110
_cell_length_b 5.146452
_cell_length_c 10.629305
_cell_angle_alpha 90.000000
_cell_angle_beta 90.000000
_cell_angle_gamma 90.000000
_cell_volume 1025.909980
_symmetry_space_group_name_H-M "P C A 21"
_symmetry_group_IT_number 29
_symmetry_cell_setting 'orthorhombic'
loop_
_space_group_symop_operation_xyz
x,y,z
-x,-y,1/2+z
1/2-x,y,1/2+z
1/2+x,-y,z
loop_
_atom_site_type_symbol
_atom_site_label
_atom_site_fract_x
_atom_site_fract_y
_atom_site_fract_z
Si Si1 0.563648 0.359089 0.092630
Si Si2 0.059390 0.255273 0.747907
Si Si3 0.802888 0.100180 0.690456
Si Si4 0.507790 0.231581 0.855766
Si Si5 0.336054 0.270828 0.465696
Si Si6 0.793662 0.433194 0.052711
Si Si7 0.852118 0.923641 0.939067
O O1 0.480054 0.366719 0.124128
O O2 0.619794 0.241620 0.191241
O O3 0.563132 0.179321 0.968725
O O4 0.598614 0.629123 0.053759
O O5 0.133904 0.249483 0.823869
O O6 0.014801 0.461820 0.835058
O O7 0.035170 0.955454 0.745849
O O8 0.801281 0.948136 0.556639
O O9 0.800964 0.924215 0.814869
O O10 0.740005 0.311652 0.679054
O O11 0.429314 0.143304 0.887229
O O12 0.277211 0.500659 0.471951
O O13 0.834671 0.706210 0.044568
O O14 0.842838 0.209502 0.995293
#
# Coordination Sequence:
#
# PCOD9340850 Si02
#       7
#     4   4   4   4   4   4   4
#     4  10  22  39  69 101 131 175 216 278 345 403
#     4  11  22  40  67 101 131 169 215 273 338 395
#     4  11  22  44  73  92 131 183 228 272 344 404
#     4  11  23  40  65 101 133 163 225 275 327 404
#     4  10  22  44  70  97 134 171 227 273 328 405
#     4  11  26  44  64  98 131 179 231 275 320 401
#     4  12  25  43  70  94 137 178 226 274 338 404
#
# _framework density 27.292839000000001
#
# number of rings (size 3 to 8) (size 9 to 14) (size 15 to 20)
#    0.000    1.143    4.286    1.714    4.000    0.000 
#    5.143    0.000    0.000    0.000    0.000    0.000 
#    0.000    0.000    0.000    0.000    0.000    0.000 
#
# Total GULP energy -156167.529191 kJ/mol
# GULP energy per Si atom -5577.411757 kJ/mol
# Density = 2.723072 g / cm^3
# Si number density = 27.292839 Si / 1000 Ang^3
#
#
#
# Elastic Constant Matrix: (Units=GPa)
#
#
# Indices 1 2 3 4 5 6 
#
# 1 45.9542 1.4306 -23.4869 0.0000 0.0000 0.0000
# 2 1.4306 124.1858 10.1772 0.0000 0.0000 0.0000
# 3 -23.4869 10.1772 54.0146 0.0000 0.0000 0.0000
# 4 0.0000 0.0000 0.0000 37.3268 0.0000 0.0000
# 5 0.0000 0.0000 0.0000 0.0000 27.0116 0.0000
# 6 0.0000 0.0000 0.0000 0.0000 0.0000 36.4147
#
#
#
# Elastic Compliance Matrix: (Units=1/GPa)
#
#
# Indices 1 2 3 4 5 6 
#
# 1 0.028200 -0.001351 0.012517 0.000000 0.000000 0.000000
# 2 -0.001351 0.008243 -0.002140 0.000000 0.000000 0.000000
# 3 0.012517 -0.002140 0.024359 0.000000 0.000000 0.000000
# 4 0.000000 0.000000 0.000000 0.026790 0.000000 0.000000
# 5 0.000000 0.000000 0.000000 0.000000 0.037021 0.000000
# 6 0.000000 0.000000 0.000000 0.000000 0.000000 0.027461
#
#
# Mechanical properties :
#
#
# Convention : Reuss Voigt Hill
#
# Bulk Modulus (GPa) = 12.68173 22.26627 17.47400
# Shear Modulus (GPa) = 31.18972 35.88621 33.53796
#
# Velocity S-wave (km/s) = 3.38417 3.63003 3.50925
# Velocity P-wave (km/s) = 4.46394 5.07400 4.77872
#
# Compressibility (1/GPa) = 0.07885358
#
# Stress axis : x y z
#
# Youngs Moduli (GPa) = 35.46105 121.30889 41.05210
#
# Poissons Ratio (x) = 0.16384 -0.51383
# Poissons Ratio (y) = 0.04789 0.08787
# Poissons Ratio (z) = -0.44385 0.25966
#
# Static dielectric constant tensor:
#      x y z
#    x 2.317560 0.000000 0.000000 
#    y 0.000000 2.145830 0.000000 
#    z 0.000000 0.000000 2.330620 
# 
# From -- ./inp_files/3740.got.cif
#   From: 2010.05.17/outbox.cif.g08.bks.cpg/sg29_2_cif.got.tgz:3740.got - 2010.06.04 01:19:37.
