data_PCOD9340649
_publ_section_title
;
Structure prediction by ZEFSAII (Michael W. Deem and Ramdas Pophale) SiO2 
 PCOD9340649
Probable space group: P C A 21
;
_chemical_formula_sum "Si O2"
_cell_formula_units_Z 28
_cell_length_a 22.685251
_cell_length_b 5.113912
_cell_length_c 11.232880
_cell_angle_alpha 90.000000
_cell_angle_beta 90.000000
_cell_angle_gamma 90.000000
_cell_volume 1303.130647
_symmetry_space_group_name_H-M "P C A 21"
_symmetry_group_IT_number 29
_symmetry_cell_setting 'orthorhombic'
loop_
_space_group_symop_operation_xyz
x,y,z
-x,-y,1/2+z
1/2-x,y,1/2+z
1/2+x,-y,z
loop_
_atom_site_type_symbol
_atom_site_label
_atom_site_fract_x
_atom_site_fract_y
_atom_site_fract_z
Si Si1 0.840492 0.897698 0.983430
Si Si2 0.290248 0.274616 0.546933
Si Si3 0.556352 0.911130 0.670591
Si Si4 0.647576 0.216833 0.119879
Si Si5 0.899775 0.866308 0.434559
Si Si6 0.504103 0.409759 0.553274
Si Si7 0.108715 0.601290 0.368475
O O1 0.867638 0.689906 0.890280
O O2 0.848021 0.190255 0.933521
O O3 0.775335 0.805683 0.015720
O O4 0.882276 0.885335 0.099091
O O5 0.303523 0.562748 0.594105
O O6 0.333236 0.242912 0.432016
O O7 0.317981 0.058590 0.636884
O O8 0.569563 0.884104 0.808802
O O9 0.515443 0.688204 0.612947
O O10 0.528683 0.191646 0.643447
O O11 0.610089 0.310223 0.232176
O O12 0.608818 0.140634 0.003915
O O13 0.939178 0.680934 0.517920
O O14 0.546026 0.385837 0.435894
#
# Coordination Sequence:
#
# PCOD9340649 Si02
#       7
#     4   4   4   4   4   4   4
#     4  10  21  43  62  90 124 162 209 252 310 376
#     4  10  23  39  59  97 123 161 210 250 319 366
#     4  10  24  42  64  90 125 168 207 259 315 368
#     4  10  23  39  59  96 118 161 202 254 313 367
#     4  10  26  39  65  91 133 158 215 254 321 371
#     4  10  24  40  63  92 120 169 207 257 311 372
#     4  10  21  40  64  88 121 161 208 252 309 368
#
# _framework density 21.486716000000001
#
# number of rings (size 3 to 8) (size 9 to 14) (size 15 to 20)
#    0.857    1.143    0.000    1.714    6.000    2.286 
#    2.571    0.000    0.000    0.000    0.000    0.000 
#    0.000    0.000    0.000    0.000    0.000    0.000 
#
# Total GULP energy -156349.994148 kJ/mol
# GULP energy per Si atom -5583.928362 kJ/mol
# Density = 2.143781 g / cm^3
# Si number density = 21.486716 Si / 1000 Ang^3
#
#
#
# Elastic Constant Matrix: (Units=GPa)
#
#
# Indices 1 2 3 4 5 6 
#
# 1 90.1012 -9.8341 -1.2078 0.0000 0.0000 0.0000
# 2 -9.8341 61.5842 -14.9297 0.0000 0.0000 0.0000
# 3 -1.2078 -14.9297 80.2425 0.0000 0.0000 0.0000
# 4 0.0000 0.0000 0.0000 21.5335 0.0000 0.0000
# 5 0.0000 0.0000 0.0000 0.0000 9.3087 0.0000
# 6 0.0000 0.0000 0.0000 0.0000 0.0000 22.9855
#
#
#
# Elastic Compliance Matrix: (Units=1/GPa)
#
#
# Indices 1 2 3 4 5 6 
#
# 1 0.011317 0.001936 0.000531 0.000000 0.000000 0.000000
# 2 0.001936 0.017336 0.003255 0.000000 0.000000 0.000000
# 3 0.000531 0.003255 0.013076 0.000000 0.000000 0.000000
# 4 0.000000 0.000000 0.000000 0.046439 0.000000 0.000000
# 5 0.000000 0.000000 0.000000 0.000000 0.107427 0.000000
# 6 0.000000 0.000000 0.000000 0.000000 0.000000 0.043506
#
#
# Mechanical properties :
#
#
# Convention : Reuss Voigt Hill
#
# Bulk Modulus (GPa) = 18.80736 19.99831 19.40284
# Shear Modulus (GPa) = 20.37637 27.95883 24.16760
#
# Velocity S-wave (km/s) = 3.08283 3.61115 3.35740
# Velocity P-wave (km/s) = 4.63074 5.16863 4.90706
#
# Compressibility (1/GPa) = 0.05317066
#
# Stress axis : x y z
#
# Youngs Moduli (GPa) = 88.36250 57.68322 76.47743
#
# Poissons Ratio (x) = -0.11166 -0.04057
# Poissons Ratio (y) = -0.17105 -0.24891
# Poissons Ratio (z) = -0.04688 -0.18774
#
# Static dielectric constant tensor:
#      x y z
#    x 1.776610 0.000000 0.000000 
#    y 0.000000 1.774140 0.000000 
#    z 0.000000 0.000000 1.767420 
# 
# From -- ./inp_files/3938.got.cif
#   From: 2010.05.17/outbox.cif.g08.bks.cpg/sg29_2_cif.got.tgz:3938.got - 2010.06.04 01:19:37.
