data_PCOD9340821
_publ_section_title
;
Structure prediction by ZEFSAII (Michael W. Deem and Ramdas Pophale) SiO2 
 PCOD9340821
Probable space group: P C A 21
;
_chemical_formula_sum "Si O2"
_cell_formula_units_Z 28
_cell_length_a 20.716629
_cell_length_b 4.924904
_cell_length_c 10.703576
_cell_angle_alpha 90.000000
_cell_angle_beta 90.000000
_cell_angle_gamma 90.000000
_cell_volume 1092.058127
_symmetry_space_group_name_H-M "P C A 21"
_symmetry_group_IT_number 29
_symmetry_cell_setting 'orthorhombic'
loop_
_space_group_symop_operation_xyz
x,y,z
-x,-y,1/2+z
1/2-x,y,1/2+z
1/2+x,-y,z
loop_
_atom_site_type_symbol
_atom_site_label
_atom_site_fract_x
_atom_site_fract_y
_atom_site_fract_z
Si Si1 0.047560 0.426063 0.250000
Si Si2 0.615391 0.085520 0.886230
Si Si3 0.615390 0.085547 0.337490
Si Si4 0.793991 0.502117 0.111856
Si Si5 0.121205 0.997912 0.611859
Si Si6 0.047560 0.426099 0.973726
Si Si7 0.249998 0.223078 0.361854
O O1 0.109179 0.618666 0.279626
O O2 0.000001 0.499974 0.361866
O O3 0.071088 0.119167 0.260451
O O4 0.022669 0.487625 0.111865
O O5 0.589617 0.077064 0.742953
O O6 0.609179 0.381294 0.944105
O O7 0.571090 0.880791 0.963262
O O8 0.686970 0.963847 0.880531
O O9 0.589617 0.077065 0.480766
O O10 0.686968 0.963862 0.343181
O O11 0.813602 0.188255 0.111858
O O12 0.759835 0.594553 0.238576
O O13 0.859506 0.686392 0.111859
O O14 0.759839 0.594548 0.985131
#
# Coordination Sequence:
#
# PCOD9340821 Si02
#       7
#     4   4   4   4   4   4   4
#     4  12  29  49  77 106 145 196 256 316 372 432
#     4  11  25  46  76 108 149 191 248 300 381 445
#     4  11  25  46  76 108 149 191 248 300 381 445
#     4  10  22  38  64 101 146 193 228 276 361 436
#     4  10  22  42  68 101 140 195 230 278 361 442
#     4  12  29  49  77 106 145 196 256 316 372 432
#     4  10  24  44  70 112 152 188 234 304 372 456
#
# _framework density 25.639661
#
# number of rings (size 3 to 8) (size 9 to 14) (size 15 to 20)
#    0.000    1.143    0.000    5.143    8.000   10.286 
#    0.000    0.000    0.000    0.000    0.000    0.000 
#    0.000    0.000    0.000    0.000    0.000    0.000 
#
# Total GULP energy -157063.989593 kJ/mol
# GULP energy per Si atom -5609.428200 kJ/mol
# Density = 2.558130 g / cm^3
# Si number density = 25.639661 Si / 1000 Ang^3
#
#
#
# Elastic Constant Matrix: (Units=GPa)
#
#
# Indices 1 2 3 4 5 6 
#
# 1 98.5484 9.3211 33.9722 0.0000 0.0000 0.0000
# 2 9.3211 75.7134 18.7215 0.0000 0.0000 0.0000
# 3 33.9722 18.7215 217.6176 0.0000 0.0000 0.0000
# 4 0.0000 0.0000 0.0000 38.0226 0.0000 0.0000
# 5 0.0000 0.0000 0.0000 0.0000 40.9785 0.0000
# 6 0.0000 0.0000 0.0000 0.0000 0.0000 26.9074
#
#
#
# Elastic Compliance Matrix: (Units=1/GPa)
#
#
# Indices 1 2 3 4 5 6 
#
# 1 0.010788 -0.000932 -0.001604 0.000000 0.000000 0.000000
# 2 -0.000932 0.013575 -0.001022 0.000000 0.000000 0.000000
# 3 -0.001604 -0.001022 0.004934 0.000000 0.000000 0.000000
# 4 0.000000 0.000000 0.000000 0.026300 0.000000 0.000000
# 5 0.000000 0.000000 0.000000 0.000000 0.024403 0.000000
# 6 0.000000 0.000000 0.000000 0.000000 0.000000 0.037165
#
#
# Mechanical properties :
#
#
# Convention : Reuss Voigt Hill
#
# Bulk Modulus (GPa) = 45.08338 57.32323 51.20331
# Shear Modulus (GPa) = 37.97239 43.17265 40.57252
#
# Velocity S-wave (km/s) = 3.85255 4.10789 3.98227
# Velocity P-wave (km/s) = 6.11647 6.70116 6.41548
#
# Compressibility (1/GPa) = 0.02218112
#
# Stress axis : x y z
#
# Youngs Moduli (GPa) = 92.69247 73.66378 202.69250
#
# Poissons Ratio (x) = 0.06862 0.32512
# Poissons Ratio (y) = 0.08635 0.20724
# Poissons Ratio (z) = 0.14868 0.07532
#
# Static dielectric constant tensor:
#      x y z
#    x 2.018760 0.000000 0.000000 
#    y 0.000000 1.932530 0.000000 
#    z 0.000000 0.000000 2.038790 
# 
# From -- ./inp_files/3765.got.cif
#   From: 2010.05.17/outbox.cif.g08.bks.cpg/sg29_2_cif.got.tgz:3765.got - 2010.06.04 01:19:37.
