data_PCOD9340991
_publ_section_title
;
Structure prediction by ZEFSAII (Michael W. Deem and Ramdas Pophale) SiO2 
 PCOD9340991
Probable space group: P C A 21
;
_chemical_formula_sum "Si O2"
_cell_formula_units_Z 20
_cell_length_a 9.178699
_cell_length_b 9.941388
_cell_length_c 7.855536
_cell_angle_alpha 90.000000
_cell_angle_beta 90.000000
_cell_angle_gamma 90.000000
_cell_volume 716.809868
_symmetry_space_group_name_H-M "P C A 21"
_symmetry_group_IT_number 29
_symmetry_cell_setting 'orthorhombic'
loop_
_space_group_symop_operation_xyz
x,y,z
-x,-y,1/2+z
1/2-x,y,1/2+z
1/2+x,-y,z
loop_
_atom_site_type_symbol
_atom_site_label
_atom_site_fract_x
_atom_site_fract_y
_atom_site_fract_z
Si Si1 0.826273 0.186560 0.437770
Si Si2 0.749103 0.803234 0.656230
Si Si3 0.096464 0.025600 0.384646
Si Si4 0.533035 0.373840 0.645957
Si Si5 0.468703 0.672770 0.763973
O O1 0.666589 0.114228 0.440450
O O2 0.877830 0.294452 0.292924
O O3 0.874191 0.251296 0.618274
O O4 0.926960 0.056465 0.387789
O O5 0.869712 0.687809 0.645075
O O6 0.616644 0.759070 0.778356
O O7 0.839625 0.936903 0.702608
O O8 0.659684 0.849273 0.492075
O O9 0.519095 0.529854 0.689180
O O10 0.592909 0.362160 0.452178
#
# Coordination Sequence:
#
# PCOD9340991 Si02
#       5
#     4   4   4   4   4
#     4  10  24  45  70 108 144 187 236 290 360 420
#     4  10  22  44  66  94 138 186 224 286 364 414
#     4  10  22  43  70  98 142 187 228 288 354 430
#     4  11  22  42  72 101 137 185 238 295 354 420
#     4  11  22  42  72 101 137 185 238 295 354 420
#
# _framework density 27.901402000000001
#
# number of rings (size 3 to 8) (size 9 to 14) (size 15 to 20)
#    0.000    1.600    4.000    0.000    0.000    6.400 
#    3.600    6.000    0.000    0.000    0.000    0.000 
#    0.000    0.000    0.000    0.000    0.000    0.000 
#
# Total GULP energy -111994.237684 kJ/mol
# GULP energy per Si atom -5599.711884 kJ/mol
# Density = 2.783790 g / cm^3
# Si number density = 27.901402 Si / 1000 Ang^3
#
#
#
# Elastic Constant Matrix: (Units=GPa)
#
#
# Indices 1 2 3 4 5 6 
#
# 1 85.0362 19.4863 13.3597 0.0000 0.0000 0.0000
# 2 19.4863 193.0773 30.5568 0.0000 0.0000 0.0000
# 3 13.3597 30.5568 149.1655 0.0000 0.0000 0.0000
# 4 0.0000 0.0000 0.0000 49.7971 0.0000 0.0000
# 5 0.0000 0.0000 0.0000 0.0000 49.5998 0.0000
# 6 0.0000 0.0000 0.0000 0.0000 0.0000 29.0348
#
#
#
# Elastic Compliance Matrix: (Units=1/GPa)
#
#
# Indices 1 2 3 4 5 6 
#
# 1 0.012145 -0.001089 -0.000865 0.000000 0.000000 0.000000
# 2 -0.001089 0.005450 -0.001019 0.000000 0.000000 0.000000
# 3 -0.000865 -0.001019 0.006990 0.000000 0.000000 0.000000
# 4 0.000000 0.000000 0.000000 0.020081 0.000000 0.000000
# 5 0.000000 0.000000 0.000000 0.000000 0.020161 0.000000
# 6 0.000000 0.000000 0.000000 0.000000 0.000000 0.034441
#
#
# Mechanical properties :
#
#
# Convention : Reuss Voigt Hill
#
# Bulk Modulus (GPa) = 53.64668 61.56496 57.60582
# Shear Modulus (GPa) = 44.87177 49.94475 47.40826
#
# Velocity S-wave (km/s) = 4.01462 4.23548 4.12653
# Velocity P-wave (km/s) = 6.38424 6.78470 6.58751
#
# Compressibility (1/GPa) = 0.01864048
#
# Stress axis : x y z
#
# Youngs Moduli (GPa) = 82.33796 183.47142 143.05842
#
# Poissons Ratio (x) = 0.19978 0.12370
# Poissons Ratio (y) = 0.08966 0.14578
# Poissons Ratio (z) = 0.07120 0.18696
#
# Static dielectric constant tensor:
#      x y z
#    x 2.353640 0.000000 0.000000 
#    y 0.000000 2.076860 0.000000 
#    z 0.000000 0.000000 2.258190 
# 
# From -- ./inp_files/1388.got.cif
#   From: 2010.05.17/outbox.cif.g08.bks.cpg/sg29_1_cif.got.tgz:1388.got - 2010.06.04 01:19:37.
