data_PCOD9340487
_publ_section_title
;
Structure prediction by ZEFSAII (Michael W. Deem and Ramdas Pophale) SiO2 
 PCOD9340487
Probable space group: P C A 21
;
_chemical_formula_sum "Si O2"
_cell_formula_units_Z 28
_cell_length_a 19.403805
_cell_length_b 5.773220
_cell_length_c 10.878982
_cell_angle_alpha 90.000000
_cell_angle_beta 90.000000
_cell_angle_gamma 90.000000
_cell_volume 1218.690055
_symmetry_space_group_name_H-M "P C A 21"
_symmetry_group_IT_number 29
_symmetry_cell_setting 'orthorhombic'
loop_
_space_group_symop_operation_xyz
x,y,z
-x,-y,1/2+z
1/2-x,y,1/2+z
1/2+x,-y,z
loop_
_atom_site_type_symbol
_atom_site_label
_atom_site_fract_x
_atom_site_fract_y
_atom_site_fract_z
Si Si1 0.059518 0.255282 0.772570
Si Si2 0.596565 0.324076 0.180922
Si Si3 0.559518 0.255282 0.905896
Si Si4 0.718036 0.609086 0.208472
Si Si5 0.694920 0.000000 0.339233
Si Si6 0.403435 0.324076 0.997544
Si Si7 0.281964 0.609086 0.969994
O O1 0.081410 0.500000 0.839233
O O2 0.095181 0.248561 0.639107
O O3 0.979026 0.301568 0.737779
O O4 0.066018 1.000000 0.839233
O O5 0.635148 0.572723 0.190854
O O6 0.646590 0.167841 0.261778
O O7 0.595181 0.248561 0.039359
O O8 0.479025 0.301568 0.940687
O O9 0.737470 0.871323 0.234902
O O10 0.739804 0.500000 0.339233
O O11 0.750000 0.500000 0.089233
O O12 0.646590 0.832159 0.416688
O O13 0.737470 0.128678 0.443564
O O14 0.364852 0.572723 0.987612
#
# Coordination Sequence:
#
# PCOD9340487 Si02
#       7
#     4   4   4   4   4   4   4
#     4  11  24  40  65 103 136 177 221 276 341 412
#     4  10  23  39  66  92 134 174 220 280 341 414
#     4  11  24  40  65 103 136 177 221 276 341 412
#     4  10  23  42  64  95 127 181 231 289 343 414
#     4  10  20  42  68  86 130 176 224 274 356 406
#     4  10  23  39  66  92 134 174 220 280 341 414
#     4  10  23  42  64  95 127 181 231 289 343 414
#
# _framework density 22.975491000000002
#
# number of rings (size 3 to 8) (size 9 to 14) (size 15 to 20)
#    0.000    1.714    1.429    2.571    4.000    8.000 
#    2.571    0.000    0.000    0.000    0.000    0.000 
#    0.000    0.000    0.000    0.000    0.000    0.000 
#
# Total GULP energy -155966.923785 kJ/mol
# GULP energy per Si atom -5570.247278 kJ/mol
# Density = 2.292320 g / cm^3
# Si number density = 22.975491 Si / 1000 Ang^3
#
#
#
# Elastic Constant Matrix: (Units=GPa)
#
#
# Indices 1 2 3 4 5 6 
#
# 1 46.2893 19.9891 33.2981 0.0000 0.0000 0.0000
# 2 19.9891 126.4601 89.6229 0.0000 0.0000 0.0000
# 3 33.2981 89.6229 211.7814 0.0000 0.0000 0.0000
# 4 0.0000 0.0000 0.0000 47.2778 0.0000 0.0000
# 5 0.0000 0.0000 0.0000 0.0000 10.7418 0.0000
# 6 0.0000 0.0000 0.0000 0.0000 0.0000 1.6730
#
#
#
# Elastic Compliance Matrix: (Units=1/GPa)
#
#
# Indices 1 2 3 4 5 6 
#
# 1 0.024594 -0.001638 -0.003173 0.000000 0.000000 0.000000
# 2 -0.001638 0.011404 -0.004569 0.000000 0.000000 0.000000
# 3 -0.003173 -0.004569 0.007154 0.000000 0.000000 0.000000
# 4 0.000000 0.000000 0.000000 0.021152 0.000000 0.000000
# 5 0.000000 0.000000 0.000000 0.000000 0.093094 0.000000
# 6 0.000000 0.000000 0.000000 0.000000 0.000000 0.597726
#
#
# Mechanical properties :
#
#
# Convention : Reuss Voigt Hill
#
# Bulk Modulus (GPa) = 40.99824 74.48344 57.74084
# Shear Modulus (GPa) = 6.39374 28.04658 17.22016
#
# Velocity S-wave (km/s) = 1.67000 3.49767 2.74067
# Velocity P-wave (km/s) = 4.64775 6.98574 5.93305
#
# Compressibility (1/GPa) = 0.02439129
#
# Stress axis : x y z
#
# Youngs Moduli (GPa) = 40.66100 87.68569 139.77879
#
# Poissons Ratio (x) = 0.14366 0.44358
# Poissons Ratio (y) = 0.06662 0.63859
# Poissons Ratio (z) = 0.12904 0.40060
#
# Static dielectric constant tensor:
#      x y z
#    x 1.884120 0.000000 0.000000 
#    y 0.000000 2.429570 0.000000 
#    z 0.000000 0.000000 1.876260 
# 
# From -- ./inp_files/3928.got.cif
#   From: 2010.05.17/outbox.cif.g08.bks.cpg/sg29_2_cif.got.tgz:3928.got - 2010.06.04 01:19:37.
