data_PCOD9340912
_publ_section_title
;
Structure prediction by ZEFSAII (Michael W. Deem and Ramdas Pophale) SiO2 
 PCOD9340912
Probable space group: P C A 21
;
_chemical_formula_sum "Si O2"
_cell_formula_units_Z 32
_cell_length_a 11.334703
_cell_length_b 11.126548
_cell_length_c 11.391891
_cell_angle_alpha 90.000000
_cell_angle_beta 90.000000
_cell_angle_gamma 90.000000
_cell_volume 1436.701058
_symmetry_space_group_name_H-M "P C A 21"
_symmetry_group_IT_number 29
_symmetry_cell_setting 'orthorhombic'
loop_
_space_group_symop_operation_xyz
x,y,z
-x,-y,1/2+z
1/2-x,y,1/2+z
1/2+x,-y,z
loop_
_atom_site_type_symbol
_atom_site_label
_atom_site_fract_x
_atom_site_fract_y
_atom_site_fract_z
Si Si1 0.829532 0.369569 0.864510
Si Si2 0.815971 0.786737 0.382797
Si Si3 0.609355 0.638930 0.306391
Si Si4 0.402797 0.771474 0.404482
Si Si5 0.261991 0.962736 0.990947
Si Si6 0.454555 0.928143 0.172496
Si Si7 0.526322 0.689239 0.056009
Si Si8 0.929951 0.143128 0.784678
O O1 0.844595 0.507012 0.832577
O O2 0.696938 0.329543 0.890127
O O3 0.871635 0.273829 0.763984
O O4 0.915079 0.348658 0.977240
O O5 0.718025 0.731348 0.298005
O O6 0.856444 0.685160 0.476739
O O7 0.936440 0.823924 0.319938
O O8 0.770501 0.905838 0.446431
O O9 0.525355 0.698231 0.406878
O O10 0.539835 0.630304 0.183000
O O11 0.345863 0.867072 0.494659
O O12 0.420936 0.857559 0.290982
O O13 0.350547 0.908690 0.891301
O O14 0.334970 0.971171 0.110772
O O15 0.509775 0.829405 0.087153
O O16 0.547190 0.032283 0.198921
#
# Coordination Sequence:
#
# PCOD9340912 Si02
#       8
#     4   4   4   4   4   4   4   4
#     4  10  23  48  65  95 139 179 226 286 326 409
#     4  11  23  40  67  98 134 172 222 287 332 397
#     4  11  26  45  70  95 135 184 233 277 336 411
#     4  10  22  42  67  98 129 177 226 281 345 397
#     4  11  21  40  64 100 137 169 218 286 340 411
#     4  11  20  40  69  97 134 173 216 278 351 403
#     4  10  23  46  69  96 134 180 220 280 347 388
#     4  10  22  41  67  97 134 174 221 275 343 402
#
# _framework density 22.273250999999998
#
# number of rings (size 3 to 8) (size 9 to 14) (size 15 to 20)
#    0.000    1.500    5.000    1.500    5.250    2.000 
#    9.000    0.000    0.000    0.000    0.000    0.000 
#    0.000    0.000    0.000    0.000    0.000    0.000 
#
# Total GULP energy -178639.801807 kJ/mol
# GULP energy per Si atom -5582.493806 kJ/mol
# Density = 2.222256 g / cm^3
# Si number density = 22.273251 Si / 1000 Ang^3
#
#
#
# Elastic Constant Matrix: (Units=GPa)
#
#
# Indices 1 2 3 4 5 6 
#
# 1 79.0914 19.7053 4.6028 0.0000 0.0000 0.0000
# 2 19.7053 109.9869 12.2393 0.0000 0.0000 0.0000
# 3 4.6028 12.2393 23.0740 0.0000 0.0000 0.0000
# 4 0.0000 0.0000 0.0000 22.2272 0.0000 0.0000
# 5 0.0000 0.0000 0.0000 0.0000 27.5126 0.0000
# 6 0.0000 0.0000 0.0000 0.0000 0.0000 27.2746
#
#
#
# Elastic Compliance Matrix: (Units=1/GPa)
#
#
# Indices 1 2 3 4 5 6 
#
# 1 0.013281 -0.002215 -0.001474 0.000000 0.000000 0.000000
# 2 -0.002215 0.010032 -0.004879 0.000000 0.000000 0.000000
# 3 -0.001474 -0.004879 0.046221 0.000000 0.000000 0.000000
# 4 0.000000 0.000000 0.000000 0.044990 0.000000 0.000000
# 5 0.000000 0.000000 0.000000 0.000000 0.036347 0.000000
# 6 0.000000 0.000000 0.000000 0.000000 0.000000 0.036664
#
#
# Mechanical properties :
#
#
# Convention : Reuss Voigt Hill
#
# Bulk Modulus (GPa) = 19.08532 31.69413 25.38973
# Shear Modulus (GPa) = 22.50847 27.10989 24.80918
#
# Velocity S-wave (km/s) = 3.18238 3.49255 3.34107
# Velocity P-wave (km/s) = 4.70008 5.52490 5.12909
#
# Compressibility (1/GPa) = 0.05239628
#
# Stress axis : x y z
#
# Youngs Moduli (GPa) = 75.29344 99.68217 21.63519
#
# Poissons Ratio (x) = 0.22084 0.03189
# Poissons Ratio (y) = 0.16681 0.10557
# Poissons Ratio (z) = 0.11100 0.48638
#
# Static dielectric constant tensor:
#      x y z
#    x 1.839530 0.000000 0.000000 
#    y 0.000000 1.804750 0.000000 
#    z 0.000000 0.000000 1.904740 
# 
# From -- ./inp_files/3204.got.cif
#   From: 2010.05.17/outbox.cif.g08.bks.cpg/sg29_2_cif.got.tgz:3204.got - 2010.06.04 01:19:37.
