data_PCOD9340819
_publ_section_title
;
Structure prediction by ZEFSAII (Michael W. Deem and Ramdas Pophale) SiO2 
 PCOD9340819
Probable space group: P C A 21
;
_chemical_formula_sum "Si O2"
_cell_formula_units_Z 28
_cell_length_a 5.506853
_cell_length_b 15.122328
_cell_length_c 13.303273
_cell_angle_alpha 90.000000
_cell_angle_beta 90.000000
_cell_angle_gamma 90.000000
_cell_volume 1107.849180
_symmetry_space_group_name_H-M "P C A 21"
_symmetry_group_IT_number 29
_symmetry_cell_setting 'orthorhombic'
loop_
_space_group_symop_operation_xyz
x,y,z
-x,-y,1/2+z
1/2-x,y,1/2+z
1/2+x,-y,z
loop_
_atom_site_type_symbol
_atom_site_label
_atom_site_fract_x
_atom_site_fract_y
_atom_site_fract_z
Si Si1 0.021595 0.638864 0.380590
Si Si2 0.168637 0.773936 0.017073
Si Si3 0.870107 0.970351 0.294801
Si Si4 0.697210 0.316320 0.701652
Si Si5 0.854062 0.786817 0.834323
Si Si6 0.890149 0.040686 0.066206
Si Si7 0.092475 0.451700 0.077902
O O1 0.187402 0.703708 0.448811
O O2 0.181861 0.618306 0.282850
O O3 0.928013 0.566044 0.457880
O O4 0.799998 0.697808 0.342177
O O5 0.114234 0.722476 0.120275
O O6 0.331790 0.857424 0.045983
O O7 0.948728 0.805460 0.947237
O O8 0.801145 0.867664 0.292738
O O9 0.635588 0.018370 0.341590
O O10 0.899280 0.015943 0.185400
O O11 0.580769 0.234953 0.762833
O O12 0.485990 0.365049 0.639671
O O13 0.655164 0.986420 0.029410
O O14 0.864312 0.516659 0.100302
#
# Coordination Sequence:
#
# PCOD9340819 Si02
#       7
#     4   4   4   4   4   4   4
#     4  10  26  45  74 106 146 190 246 295 372 446
#     4  10  24  43  66 101 142 192 243 308 365 437
#     4  10  23  41  64  98 139 190 245 305 360 417
#     4  10  24  46  74 106 137 197 244 291 370 452
#     4  11  25  43  73 101 151 195 252 314 366 444
#     4  10  22  38  62  93 134 184 242 299 357 414
#     4  11  28  50  77 111 153 182 232 300 368 448
#
# _framework density 25.274198999999999
#
# number of rings (size 3 to 8) (size 9 to 14) (size 15 to 20)
#    0.000    1.714    0.000    1.714   18.000    3.429 
#    0.000    0.000    0.000    0.000    0.000    0.000 
#    0.000    0.000    0.000    0.000    0.000    0.000 
#
# Total GULP energy -156744.386712 kJ/mol
# GULP energy per Si atom -5598.013811 kJ/mol
# Density = 2.521667 g / cm^3
# Si number density = 25.274199 Si / 1000 Ang^3
#
#
#
# Elastic Constant Matrix: (Units=GPa)
#
#
# Indices 1 2 3 4 5 6 
#
# 1 95.8505 9.4145 27.4713 0.0000 0.0000 0.0000
# 2 9.4145 48.6304 15.8782 0.0000 0.0000 0.0000
# 3 27.4713 15.8782 123.8268 0.0000 0.0000 0.0000
# 4 0.0000 0.0000 0.0000 16.3246 0.0000 0.0000
# 5 0.0000 0.0000 0.0000 0.0000 30.3303 0.0000
# 6 0.0000 0.0000 0.0000 0.0000 0.0000 18.9471
#
#
#
# Elastic Compliance Matrix: (Units=1/GPa)
#
#
# Indices 1 2 3 4 5 6 
#
# 1 0.011235 -0.001421 -0.002310 0.000000 0.000000 0.000000
# 2 -0.001421 0.021641 -0.002460 0.000000 0.000000 0.000000
# 3 -0.002310 -0.002460 0.008904 0.000000 0.000000 0.000000
# 4 0.000000 0.000000 0.000000 0.061257 0.000000 0.000000
# 5 0.000000 0.000000 0.000000 0.000000 0.032970 0.000000
# 6 0.000000 0.000000 0.000000 0.000000 0.000000 0.052779
#
#
# Mechanical properties :
#
#
# Convention : Reuss Voigt Hill
#
# Bulk Modulus (GPa) = 34.01562 41.53731 37.77646
# Shear Modulus (GPa) = 23.70038 27.48997 25.59518
#
# Velocity S-wave (km/s) = 3.06556 3.30156 3.18575
# Velocity P-wave (km/s) = 5.10079 5.56813 5.33958
#
# Compressibility (1/GPa) = 0.02939826
#
# Stress axis : x y z
#
# Youngs Moduli (GPa) = 89.01089 46.20759 112.31204
#
# Poissons Ratio (x) = 0.06564 0.25947
# Poissons Ratio (y) = 0.12645 0.27628
# Poissons Ratio (z) = 0.20564 0.11367
#
# Static dielectric constant tensor:
#      x y z
#    x 1.996080 0.000000 0.000000 
#    y 0.000000 1.957070 0.000000 
#    z 0.000000 0.000000 2.206710 
# 
# From -- ./inp_files/4073.got.cif
#   From: 2010.05.17/outbox.cif.g08.bks.cpg/sg29_3_cif.got.tgz:4073.got - 2010.06.04 01:19:37.
