data_PCOD9340359
_publ_section_title
;
Structure prediction by ZEFSAII (Michael W. Deem and Ramdas Pophale) SiO2 
 PCOD9340359
Probable space group: P C A 21
;
_chemical_formula_sum "Si O2"
_cell_formula_units_Z 32
_cell_length_a 23.113800
_cell_length_b 7.499083
_cell_length_c 7.664587
_cell_angle_alpha 90.000000
_cell_angle_beta 90.000000
_cell_angle_gamma 90.000000
_cell_volume 1328.520529
_symmetry_space_group_name_H-M "P C A 21"
_symmetry_group_IT_number 29
_symmetry_cell_setting 'orthorhombic'
loop_
_space_group_symop_operation_xyz
x,y,z
-x,-y,1/2+z
1/2-x,y,1/2+z
1/2+x,-y,z
loop_
_atom_site_type_symbol
_atom_site_label
_atom_site_fract_x
_atom_site_fract_y
_atom_site_fract_z
Si Si1 0.421241 0.547349 0.689310
Si Si2 0.329464 0.112035 0.001504
Si Si3 0.128500 0.777306 0.915488
Si Si4 0.486452 0.276591 0.429235
Si Si5 0.056683 0.008130 0.640720
Si Si6 0.683131 0.530956 0.717758
Si Si7 0.254872 0.934143 0.289112
Si Si8 0.801564 0.431359 0.846192
O O1 0.406384 0.733601 0.590292
O O2 0.462675 0.597736 0.850968
O O3 0.358700 0.487140 0.761900
O O4 0.449041 0.402756 0.558264
O O5 0.332049 0.286767 0.122642
O O6 0.395520 0.052094 0.992167
O O7 0.290678 0.980384 0.118081
O O8 0.289940 0.094389 0.831032
O O9 0.088394 0.880500 0.780235
O O10 0.141673 0.576674 0.844816
O O11 0.190271 0.880094 0.915458
O O12 0.508262 0.110140 0.546560
O O13 0.459556 0.183047 0.254948
O O14 0.743974 0.545025 0.815614
O O15 0.689153 0.405367 0.549898
O O16 0.215256 0.760212 0.272471
#
# Coordination Sequence:
#
# PCOD9340359 Si02
#       8
#     4   4   4   4   4   4   4   4
#     4  12  25  44  69  96 129 177 230 285 338 394
#     4  11  22  37  60  91 128 163 206 262 321 391
#     4  10  21  41  67  94 133 172 216 274 341 408
#     4  12  27  45  69  96 131 178 239 288 337 399
#     4  11  25  45  67  94 132 177 224 283 338 392
#     4  11  22  38  63 101 135 170 217 266 335 425
#     4  10  20  37  61  93 127 164 204 252 326 411
#     4  11  22  39  64  93 131 175 214 266 338 408
#
# _framework density 24.086942000000001
#
# number of rings (size 3 to 8) (size 9 to 14) (size 15 to 20)
#    0.000    1.000    0.000    9.000    0.000    4.000 
#    0.000    2.500    0.000    0.000    0.000    0.000 
#    0.000    0.000    0.000    0.000    0.000    0.000 
#
# Total GULP energy -178680.822467 kJ/mol
# GULP energy per Si atom -5583.775702 kJ/mol
# Density = 2.403212 g / cm^3
# Si number density = 24.086942 Si / 1000 Ang^3
#
#
#
# Elastic Constant Matrix: (Units=GPa)
#
#
# Indices 1 2 3 4 5 6 
#
# 1 73.8119 13.2368 7.1139 0.0000 0.0000 0.0000
# 2 13.2368 81.3851 -22.9305 0.0000 0.0000 0.0000
# 3 7.1139 -22.9305 42.7868 0.0000 0.0000 0.0000
# 4 0.0000 0.0000 0.0000 36.3177 0.0000 0.0000
# 5 0.0000 0.0000 0.0000 0.0000 1467.0511 0.0000
# 6 0.0000 0.0000 0.0000 0.0000 0.0000 -45.9059
#
#
#
# Elastic Compliance Matrix: (Units=1/GPa)
#
#
# Indices 1 2 3 4 5 6 
#
# 1 0.014615 -0.003606 -0.004363 0.000000 0.000000 0.000000
# 2 -0.003606 0.015362 0.008833 0.000000 0.000000 0.000000
# 3 -0.004363 0.008833 0.028831 0.000000 0.000000 0.000000
# 4 0.000000 0.000000 0.000000 0.027535 0.000000 0.000000
# 5 0.000000 0.000000 0.000000 0.000000 0.000682 0.000000
# 6 0.000000 0.000000 0.000000 0.000000 0.000000 -0.021784
#
#
# Mechanical properties :
#
#
# Convention : Reuss Voigt Hill
#
# Bulk Modulus (GPa) = 16.51915 21.42493 18.97204
# Shear Modulus (GPa) = 59.74285 304.86349 182.30317
#
# Velocity S-wave (km/s) = 4.98566 11.26245 8.70918
# Velocity P-wave (km/s) = 6.32578 13.34308 10.44158
#
# Compressibility (1/GPa) = 0.06053579
#
# Stress axis : x y z
#
# Youngs Moduli (GPa) = 68.42223 65.09382 34.68528
#
# Poissons Ratio (x) = 0.23475 0.15132
# Poissons Ratio (y) = 0.24675 -0.30636
# Poissons Ratio (z) = 0.29850 -0.57495
#
# Static dielectric constant tensor:
#      x y z
#    x -2.396470 0.000000 0.000000 
#    y 0.000000 1.976500 0.000000 
#    z 0.000000 0.000000 1.973830 
# 
# From -- ./inp_files/2488.got.cif
#   From: 2010.05.17/outbox.cif.g08.bks.cpg/sg29_2_cif.got.tgz:2488.got - 2010.06.04 01:19:37.
