data_PCOD9340539
_publ_section_title
;
Structure prediction by ZEFSAII (Michael W. Deem and Ramdas Pophale) SiO2 
 PCOD9340539
Probable space group: P C A 21
;
_chemical_formula_sum "Si O2"
_cell_formula_units_Z 32
_cell_length_a 5.214028
_cell_length_b 19.320345
_cell_length_c 14.170178
_cell_angle_alpha 90.000000
_cell_angle_beta 90.000000
_cell_angle_gamma 90.000000
_cell_volume 1427.458668
_symmetry_space_group_name_H-M "P C A 21"
_symmetry_group_IT_number 29
_symmetry_cell_setting 'orthorhombic'
loop_
_space_group_symop_operation_xyz
x,y,z
-x,-y,1/2+z
1/2-x,y,1/2+z
1/2+x,-y,z
loop_
_atom_site_type_symbol
_atom_site_label
_atom_site_fract_x
_atom_site_fract_y
_atom_site_fract_z
Si Si1 0.302712 0.179631 0.500000
Si Si2 0.385692 0.330797 0.499900
Si Si3 0.031418 0.035164 0.077932
Si Si4 0.190979 0.477369 0.054061
Si Si5 0.279244 0.535709 0.763336
Si Si6 0.885366 0.330885 0.370622
Si Si7 0.022061 0.965288 0.801474
Si Si8 0.803106 0.178973 0.378073
O O1 0.351645 0.255067 0.545101
O O2 0.370643 0.112285 0.559508
O O3 0.511013 0.177480 0.414579
O O4 0.010589 0.177673 0.463771
O O5 0.340012 0.395930 0.567705
O O6 0.665312 0.336395 0.451954
O O7 0.164591 0.335821 0.419152
O O8 0.005455 0.025169 0.189696
O O9 0.748326 0.017634 0.040524
O O10 0.449352 0.493089 0.999881
O O11 0.210045 0.522823 0.149761
O O12 0.567342 0.520141 0.795568
O O13 0.176305 0.609515 0.795949
O O14 0.852475 0.253230 0.330067
O O15 0.126893 0.888880 0.819958
O O16 0.237310 0.018725 0.838711
#
# Coordination Sequence:
#
# PCOD9340539 Si02
#       8
#     4   4   4   4   4   4   4   4
#     4  10  21  37  58  85 116 147 192 236 282 338
#     4  10  21  37  58  83 114 149 186 233 286 339
#     4  10  21  37  57  83 118 152 192 233 280 336
#     4  10  21  37  56  81 114 143 185 238 275 339
#     4  10  21  37  56  81 114 143 185 238 275 339
#     4  10  21  37  58  83 114 149 186 233 286 339
#     4  10  21  37  57  83 118 152 192 233 280 336
#     4  10  21  37  58  85 116 147 192 236 282 338
#
# _framework density 22.417459999999998
#
# number of rings (size 3 to 8) (size 9 to 14) (size 15 to 20)
#    0.000    2.000    0.000    3.000    0.000    6.000 
#    4.500    0.000   11.000    0.000    0.000    0.000 
#    0.000    0.000    0.000    0.000    0.000    0.000 
#
# Total GULP energy -178674.459332 kJ/mol
# GULP energy per Si atom -5583.576854 kJ/mol
# Density = 2.236644 g / cm^3
# Si number density = 22.417460 Si / 1000 Ang^3
#
#
#
# Elastic Constant Matrix: (Units=GPa)
#
#
# Indices 1 2 3 4 5 6 
#
# 1 113.7832 31.4403 -3.0205 0.0000 0.0000 0.0000
# 2 31.4403 124.3713 -13.1650 0.0000 0.0000 0.0000
# 3 -3.0205 -13.1650 34.3424 0.0000 0.0000 0.0000
# 4 0.0000 0.0000 0.0000 22.7769 0.0000 0.0000
# 5 0.0000 0.0000 0.0000 0.0000 7.8222 0.0000
# 6 0.0000 0.0000 0.0000 0.0000 0.0000 32.6472
#
#
#
# Elastic Compliance Matrix: (Units=1/GPa)
#
#
# Indices 1 2 3 4 5 6 
#
# 1 0.009449 -0.002398 -0.000088 0.000000 0.000000 0.000000
# 2 -0.002398 0.008989 0.003235 0.000000 0.000000 0.000000
# 3 -0.000088 0.003235 0.030351 0.000000 0.000000 0.000000
# 4 0.000000 0.000000 0.000000 0.043904 0.000000 0.000000
# 5 0.000000 0.000000 0.000000 0.000000 0.127842 0.000000
# 6 0.000000 0.000000 0.000000 0.000000 0.000000 0.030631
#
#
# Mechanical properties :
#
#
# Convention : Reuss Voigt Hill
#
# Bulk Modulus (GPa) = 19.88605 33.66738 26.77672
# Shear Modulus (GPa) = 18.76665 29.79871 24.28268
#
# Velocity S-wave (km/s) = 2.89648 3.64986 3.29478
# Velocity P-wave (km/s) = 4.48065 5.72826 5.14243
#
# Compressibility (1/GPa) = 0.05028651
#
# Stress axis : x y z
#
# Youngs Moduli (GPa) = 105.83238 111.24631 32.94802
#
# Poissons Ratio (x) = 0.26676 0.00291
# Poissons Ratio (y) = 0.25378 -0.10659
# Poissons Ratio (z) = 0.00933 -0.35988
#
# Static dielectric constant tensor:
#      x y z
#    x 1.913310 0.000000 0.000000 
#    y 0.000000 1.843740 0.000000 
#    z 0.000000 0.000000 1.821800 
# 
# From -- ./inp_files/4124.got.cif
#   From: 2010.05.17/outbox.cif.g08.bks.cpg/sg29_3_cif.got.tgz:4124.got - 2010.06.04 01:19:37.
