data_PCOD9340613
_publ_section_title
;
Structure prediction by ZEFSAII (Michael W. Deem and Ramdas Pophale) SiO2 
 PCOD9340613
Probable space group: P C A 21
;
_chemical_formula_sum "Si O2"
_cell_formula_units_Z 20
_cell_length_a 13.703129
_cell_length_b 11.138640
_cell_length_c 5.236445
_cell_angle_alpha 90.000000
_cell_angle_beta 90.000000
_cell_angle_gamma 90.000000
_cell_volume 799.260702
_symmetry_space_group_name_H-M "P C A 21"
_symmetry_group_IT_number 29
_symmetry_cell_setting 'orthorhombic'
loop_
_space_group_symop_operation_xyz
x,y,z
-x,-y,1/2+z
1/2-x,y,1/2+z
1/2+x,-y,z
loop_
_atom_site_type_symbol
_atom_site_label
_atom_site_fract_x
_atom_site_fract_y
_atom_site_fract_z
Si Si1 0.181915 0.739274 0.393710
Si Si2 0.999285 0.921504 0.335694
Si Si3 0.782008 0.920090 0.204912
Si Si4 0.556325 0.501658 0.412423
Si Si5 0.201429 0.341191 0.178714
O O1 0.244389 0.752089 0.654222
O O2 0.134713 0.605163 0.397219
O O3 0.086048 0.825765 0.366655
O O4 0.893051 0.879130 0.235197
O O5 0.977662 0.982551 0.610730
O O6 0.740410 0.989509 0.446313
O O7 0.716896 0.800920 0.176105
O O8 0.525558 0.527811 0.701040
O O9 0.598305 0.622690 0.285842
O O10 0.274292 0.387658 0.399226
#
# Coordination Sequence:
#
# PCOD9340613 Si02
#       5
#     4   4   4   4   4
#     4  12  28  51  76 108 157 208 249 306 388 461
#     4  12  28  48  75 110 144 195 259 313 372 438
#     4  10  23  40  71 103 138 176 236 298 363 421
#     4  12  26  42  75 109 152 195 243 302 372 451
#     4  10  21  39  65  98 141 174 227 285 355 425
#
# _framework density 25.023126000000001
#
# number of rings (size 3 to 8) (size 9 to 14) (size 15 to 20)
#    0.000    0.800    0.000    6.000   11.200    4.800 
#    0.000    0.000    0.000    0.000    0.000    0.000 
#    0.000    0.000    0.000    0.000    0.000    0.000 
#
# Total GULP energy -111871.969776 kJ/mol
# GULP energy per Si atom -5593.598489 kJ/mol
# Density = 2.496617 g / cm^3
# Si number density = 25.023126 Si / 1000 Ang^3
#
#
#
# Elastic Constant Matrix: (Units=GPa)
#
#
# Indices 1 2 3 4 5 6 
#
# 1 111.0632 44.6049 61.6060 0.0000 0.0000 0.0000
# 2 44.6049 91.7550 15.8915 0.0000 0.0000 0.0000
# 3 61.6060 15.8915 184.2297 0.0000 0.0000 0.0000
# 4 0.0000 0.0000 0.0000 25.8767 0.0000 0.0000
# 5 0.0000 0.0000 0.0000 0.0000 58.6650 0.0000
# 6 0.0000 0.0000 0.0000 0.0000 0.0000 57.5758
#
#
#
# Elastic Compliance Matrix: (Units=1/GPa)
#
#
# Indices 1 2 3 4 5 6 
#
# 1 0.013627 -0.005924 -0.004046 0.000000 0.000000 0.000000
# 2 -0.005924 0.013639 0.000804 0.000000 0.000000 0.000000
# 3 -0.004046 0.000804 0.006712 0.000000 0.000000 0.000000
# 4 0.000000 0.000000 0.000000 0.038645 0.000000 0.000000
# 5 0.000000 0.000000 0.000000 0.000000 0.017046 0.000000
# 6 0.000000 0.000000 0.000000 0.000000 0.000000 0.017368
#
#
# Mechanical properties :
#
#
# Convention : Reuss Voigt Hill
#
# Bulk Modulus (GPa) = 63.90955 70.13918 67.02437
# Shear Modulus (GPa) = 38.28970 46.08655 42.18812
#
# Velocity S-wave (km/s) = 3.91599 4.29623 4.11051
# Velocity P-wave (km/s) = 6.78544 7.25952 7.02648
#
# Compressibility (1/GPa) = 0.01564711
#
# Stress axis : x y z
#
# Youngs Moduli (GPa) = 73.38230 73.31891 148.99651
#
# Poissons Ratio (x) = 0.43433 0.60283
# Poissons Ratio (y) = 0.43471 -0.11986
# Poissons Ratio (z) = 0.29690 -0.05898
#
# Static dielectric constant tensor:
#      x y z
#    x 2.039550 0.000000 0.000000 
#    y 0.000000 1.976420 0.000000 
#    z 0.000000 0.000000 2.167960 
# 
# From -- ./inp_files/66.got.cif
#   From: 2010.05.17/outbox.cif.g08.bks.cpg/sg29_1_cif.got.tgz:66.got - 2010.06.04 01:19:37.
