data_PCOD9340044
_publ_section_title
;
Structure prediction by ZEFSAII (Michael W. Deem and Ramdas Pophale) SiO2 
 PCOD9340044
Probable space group: P C A 21
;
_chemical_formula_sum "Si O2"
_cell_formula_units_Z 32
_cell_length_a 8.133606
_cell_length_b 20.954213
_cell_length_c 8.209385
_cell_angle_alpha 90.000000
_cell_angle_beta 90.000000
_cell_angle_gamma 90.000000
_cell_volume 1399.152680
_symmetry_space_group_name_H-M "P C A 21"
_symmetry_group_IT_number 29
_symmetry_cell_setting 'orthorhombic'
loop_
_space_group_symop_operation_xyz
x,y,z
-x,-y,1/2+z
1/2-x,y,1/2+z
1/2+x,-y,z
loop_
_atom_site_type_symbol
_atom_site_label
_atom_site_fract_x
_atom_site_fract_y
_atom_site_fract_z
Si Si1 0.163870 0.825435 0.562790
Si Si2 0.983711 0.426531 0.113609
Si Si3 0.829524 0.929510 0.255777
Si Si4 0.502702 0.955136 0.102948
Si Si5 0.500192 0.198752 0.213470
Si Si6 0.634858 0.452765 0.249649
Si Si7 0.423577 0.701717 0.223264
Si Si8 0.549513 0.326254 0.103124
O O1 0.358385 0.814033 0.579177
O O2 0.098948 0.810397 0.382431
O O3 0.061762 0.775413 0.674165
O O4 0.128791 0.898164 0.609738
O O5 0.826396 0.436190 0.231821
O O6 0.025111 0.351525 0.122776
O O7 0.114104 0.476854 0.177836
O O8 0.924077 0.445171 0.934022
O O9 0.638526 0.944081 0.241185
O O10 0.904199 0.945640 0.431875
O O11 0.865404 0.856210 0.211310
O O12 0.921794 0.976879 0.131810
O O13 0.441522 0.271425 0.189548
O O14 0.529680 0.400334 0.147568
O O15 0.452239 0.686628 0.411518
O O16 0.233180 0.688459 0.172433
#
# Coordination Sequence:
#
# PCOD9340044 Si02
#       8
#     4   4   4   4   4   4   4   4
#     4  10  20  35  56  83 110 142 181 226 275 328
#     4  11  21  36  56  81 112 147 187 232 279 331
#     4  11  24  40  60  84 114 148 186 228 276 328
#     4  11  24  40  60  84 114 148 186 228 276 328
#     4  10  20  35  56  83 110 142 181 226 275 328
#     4  11  21  36  56  81 112 147 187 232 279 331
#     4  10  18  31  53  80 108 143 183 226 274 329
#     4  10  18  31  53  80 108 143 183 226 274 329
#
# _framework density 22.870987
#
# number of rings (size 3 to 8) (size 9 to 14) (size 15 to 20)
#    0.000    1.500    0.000    9.750    0.000    6.000 
#    0.000    1.250    0.000    3.000    0.000    0.000 
#    0.000    0.000    0.000    0.000    0.000    0.000 
#
# Total GULP energy -178882.129690 kJ/mol
# GULP energy per Si atom -5590.066553 kJ/mol
# Density = 2.281893 g / cm^3
# Si number density = 22.870987 Si / 1000 Ang^3
#
#
#
# Elastic Constant Matrix: (Units=GPa)
#
#
# Indices 1 2 3 4 5 6 
#
# 1 17.9572 1.0132 -13.9329 0.0000 0.0000 0.0000
# 2 1.0132 84.6094 5.7580 0.0000 0.0000 0.0000
# 3 -13.9329 5.7580 77.6712 0.0000 0.0000 0.0000
# 4 0.0000 0.0000 0.0000 12.9362 0.0000 0.0000
# 5 0.0000 0.0000 0.0000 0.0000 15.9986 0.0000
# 6 0.0000 0.0000 0.0000 0.0000 0.0000 30.8813
#
#
#
# Elastic Compliance Matrix: (Units=1/GPa)
#
#
# Indices 1 2 3 4 5 6 
#
# 1 0.064901 -0.001577 0.011759 0.000000 0.000000 0.000000
# 2 -0.001577 0.011917 -0.001166 0.000000 0.000000 0.000000
# 3 0.011759 -0.001166 0.015071 0.000000 0.000000 0.000000
# 4 0.000000 0.000000 0.000000 0.077302 0.000000 0.000000
# 5 0.000000 0.000000 0.000000 0.000000 0.062505 0.000000
# 6 0.000000 0.000000 0.000000 0.000000 0.000000 0.032382
#
#
# Mechanical properties :
#
#
# Convention : Reuss Voigt Hill
#
# Bulk Modulus (GPa) = 9.09758 18.43493 13.76625
# Shear Modulus (GPa) = 17.68734 24.45653 21.07194
#
# Velocity S-wave (km/s) = 2.78394 3.27360 3.03865
# Velocity P-wave (km/s) = 3.78420 4.72933 4.28291
#
# Compressibility (1/GPa) = 0.10991938
#
# Stress axis : x y z
#
# Youngs Moduli (GPa) = 15.40809 83.91170 66.35414
#
# Poissons Ratio (x) = 0.13237 -0.78027
# Poissons Ratio (y) = 0.02431 0.07740
# Poissons Ratio (z) = -0.18119 0.09788
#
# Static dielectric constant tensor:
#      x y z
#    x 1.853740 0.000000 0.000000 
#    y 0.000000 1.941160 0.000000 
#    z 0.000000 0.000000 1.852880 
# 
# From -- ./inp_files/1271.got.cif
#   From: 2010.05.17/outbox.cif.g08.bks.cpg/sg29_1_cif.got.tgz:1271.got - 2010.06.04 01:19:37.
