data_PCOD9340681
_publ_section_title
;
Structure prediction by ZEFSAII (Michael W. Deem and Ramdas Pophale) SiO2 
 PCOD9340681
Probable space group: P C A 21
;
_chemical_formula_sum "Si O2"
_cell_formula_units_Z 32
_cell_length_a 18.702544
_cell_length_b 6.839221
_cell_length_c 9.745682
_cell_angle_alpha 90.000000
_cell_angle_beta 90.000000
_cell_angle_gamma 90.000000
_cell_volume 1246.578290
_symmetry_space_group_name_H-M "P C A 21"
_symmetry_group_IT_number 29
_symmetry_cell_setting 'orthorhombic'
loop_
_space_group_symop_operation_xyz
x,y,z
-x,-y,1/2+z
1/2-x,y,1/2+z
1/2+x,-y,z
loop_
_atom_site_type_symbol
_atom_site_label
_atom_site_fract_x
_atom_site_fract_y
_atom_site_fract_z
Si Si1 0.231324 0.065840 0.570600
Si Si2 0.362266 0.318808 0.506500
Si Si3 0.811275 0.581882 0.236149
Si Si4 0.810846 0.310613 0.677211
Si Si5 0.431757 0.573918 0.058201
Si Si6 0.422644 0.005495 0.969033
Si Si7 0.563485 0.063842 0.093028
Si Si8 0.016517 0.709283 0.853198
O O1 0.291408 0.188353 0.495712
O O2 0.217714 0.202042 0.703237
O O3 0.158028 0.064654 0.489397
O O4 0.259839 0.849578 0.602826
O O5 0.345251 0.500149 0.603739
O O6 0.370010 0.404401 0.355568
O O7 0.418150 0.160509 0.558258
O O8 0.748018 0.426683 0.271668
O O9 0.854366 0.512291 0.100483
O O10 0.967117 0.376412 0.205369
O O11 0.881587 0.172473 0.695511
O O12 0.459008 0.112013 0.840783
O O13 0.423139 0.775479 0.979447
O O14 0.478524 0.440991 0.957629
O O15 0.476545 0.077223 0.093894
O O16 0.577045 0.181382 0.945057
#
# Coordination Sequence:
#
# PCOD9340681 Si02
#       8
#     4   4   4   4   4   4   4   4
#     4  10  21  43  64  97 139 174 238 291 359 432
#     4  10  23  39  68  98 134 181 242 291 354 441
#     4  11  22  39  73  94 131 191 239 295 362 452
#     4  10  21  41  62  95 132 173 230 291 352 428
#     4  12  24  44  74 104 148 198 250 304 372 454
#     4  10  23  42  67 102 140 191 238 303 371 430
#     4   9  22  41  65  95 142 180 235 298 365 429
#     4  10  26  43  71 107 144 192 244 307 371 440
#
# _framework density 25.670266999999999
#
# number of rings (size 3 to 8) (size 9 to 14) (size 15 to 20)
#    0.750    1.000    2.500    0.750    5.250    3.000 
#    2.250    1.250    0.000    0.000    0.000    0.000 
#    0.000    0.000    0.000    0.000    0.000    0.000 
#
# Total GULP energy -178564.777448 kJ/mol
# GULP energy per Si atom -5580.149295 kJ/mol
# Density = 2.561184 g / cm^3
# Si number density = 25.670267 Si / 1000 Ang^3
#
#
#
# Elastic Constant Matrix: (Units=GPa)
#
#
# Indices 1 2 3 4 5 6 
#
# 1 109.2521 15.2161 4.2690 0.0000 0.0000 0.0000
# 2 15.2161 157.0030 22.4437 0.0000 0.0000 0.0000
# 3 4.2690 22.4437 86.1008 0.0000 0.0000 0.0000
# 4 0.0000 0.0000 0.0000 19.1604 0.0000 0.0000
# 5 0.0000 0.0000 0.0000 0.0000 26.5993 0.0000
# 6 0.0000 0.0000 0.0000 0.0000 0.0000 47.0405
#
#
#
# Elastic Compliance Matrix: (Units=1/GPa)
#
#
# Indices 1 2 3 4 5 6 
#
# 1 0.009283 -0.000866 -0.000234 0.000000 0.000000 0.000000
# 2 -0.000866 0.006697 -0.001703 0.000000 0.000000 0.000000
# 3 -0.000234 -0.001703 0.012070 0.000000 0.000000 0.000000
# 4 0.000000 0.000000 0.000000 0.052191 0.000000 0.000000
# 5 0.000000 0.000000 0.000000 0.000000 0.037595 0.000000
# 6 0.000000 0.000000 0.000000 0.000000 0.000000 0.021258
#
#
# Mechanical properties :
#
#
# Convention : Reuss Voigt Hill
#
# Bulk Modulus (GPa) = 44.55779 48.46816 46.51298
# Shear Modulus (GPa) = 32.85560 39.25519 36.05540
#
# Velocity S-wave (km/s) = 3.58146 3.91475 3.75181
# Velocity P-wave (km/s) = 5.87349 6.27342 6.07675
#
# Compressibility (1/GPa) = 0.02244276
#
# Stress axis : x y z
#
# Youngs Moduli (GPa) = 107.72458 149.32858 82.85180
#
# Poissons Ratio (x) = 0.12934 0.01943
# Poissons Ratio (y) = 0.09330 0.14107
# Poissons Ratio (z) = 0.02526 0.25425
#
# Static dielectric constant tensor:
#      x y z
#    x 2.055270 0.000000 0.000000 
#    y 0.000000 2.028900 0.000000 
#    z 0.000000 0.000000 2.116320 
# 
# From -- ./inp_files/4861.got.cif
#   From: 2010.05.17/outbox.cif.g08.bks.cpg/sg29_3_cif.got.tgz:4861.got - 2010.06.04 01:19:37.
