data_PCOD9340373
_publ_section_title
;
Structure prediction by ZEFSAII (Michael W. Deem and Ramdas Pophale) SiO2 
 PCOD9340373
Probable space group: P C A 21
;
_chemical_formula_sum "Si O2"
_cell_formula_units_Z 32
_cell_length_a 8.464781
_cell_length_b 12.715302
_cell_length_c 14.041392
_cell_angle_alpha 90.000000
_cell_angle_beta 90.000000
_cell_angle_gamma 90.000000
_cell_volume 1511.306569
_symmetry_space_group_name_H-M "P C A 21"
_symmetry_group_IT_number 29
_symmetry_cell_setting 'orthorhombic'
loop_
_space_group_symop_operation_xyz
x,y,z
-x,-y,1/2+z
1/2-x,y,1/2+z
1/2+x,-y,z
loop_
_atom_site_type_symbol
_atom_site_label
_atom_site_fract_x
_atom_site_fract_y
_atom_site_fract_z
Si Si1 0.293712 0.604555 0.500000
Si Si2 0.623085 0.553993 0.830904
Si Si3 0.704312 0.691441 0.205148
Si Si4 0.948805 0.845354 0.584782
Si Si5 0.928577 0.260483 0.910510
Si Si6 0.466429 0.139019 0.230606
Si Si7 0.241630 0.975512 0.640807
Si Si8 0.995939 0.482242 0.124591
O O1 0.333974 0.526723 0.412916
O O2 0.244101 0.716254 0.454524
O O3 0.137626 0.569542 0.558923
O O4 0.436255 0.586823 0.574200
O O5 0.768692 0.632400 0.804947
O O6 0.482343 0.629432 0.864404
O O7 0.572112 0.502700 0.730259
O O8 0.573937 0.779815 0.182675
O O9 0.865875 0.759531 0.193588
O O10 0.645006 0.597466 0.136526
O O11 0.954897 0.768371 0.496343
O O12 0.110607 0.907827 0.589404
O O13 0.811024 0.930349 0.577536
O O14 0.958376 0.173088 0.830898
O O15 0.613777 0.098584 0.169534
O O16 0.344596 0.040141 0.226876
#
# Coordination Sequence:
#
# PCOD9340373 Si02
#       8
#     4   4   4   4   4   4   4   4
#     4  12  24  42  63  96 130 181 230 269 327 402
#     4  11  24  42  63  94 134 184 222 279 328 389
#     4  10  20  38  60  89 123 172 211 270 329 376
#     4  10  20  39  63  90 123 158 213 273 327 409
#     4  11  23  38  60  93 130 160 222 274 318 391
#     4   9  21  39  64  89 126 163 212 274 335 407
#     4   9  20  41  65  90 117 167 214 261 353 410
#     4  12  24  41  66  91 137 185 220 272 337 388
#
# _framework density 21.173731
#
# number of rings (size 3 to 8) (size 9 to 14) (size 15 to 20)
#    0.000    1.500    3.750    0.750    0.000    4.000 
#    0.000    0.000    0.000    0.000    0.000    0.000 
#    0.000    0.000    0.000    0.000    0.000    0.000 
#
# Total GULP energy -178248.708407 kJ/mol
# GULP energy per Si atom -5570.272138 kJ/mol
# Density = 2.112554 g / cm^3
# Si number density = 21.173731 Si / 1000 Ang^3
#
#
#
# Elastic Constant Matrix: (Units=GPa)
#
#
# Indices 1 2 3 4 5 6 
#
# 1 54.4120 16.0459 13.6651 0.0000 0.0000 0.0000
# 2 16.0459 58.8287 24.6511 0.0000 0.0000 0.0000
# 3 13.6651 24.6511 86.0100 0.0000 0.0000 0.0000
# 4 0.0000 0.0000 0.0000 32.0999 0.0000 0.0000
# 5 0.0000 0.0000 0.0000 0.0000 29.7003 0.0000
# 6 0.0000 0.0000 0.0000 0.0000 0.0000 24.5464
#
#
#
# Elastic Compliance Matrix: (Units=1/GPa)
#
#
# Indices 1 2 3 4 5 6 
#
# 1 0.020243 -0.004743 -0.001857 0.000000 0.000000 0.000000
# 2 -0.004743 0.020430 -0.005102 0.000000 0.000000 0.000000
# 3 -0.001857 -0.005102 0.013384 0.000000 0.000000 0.000000
# 4 0.000000 0.000000 0.000000 0.031153 0.000000 0.000000
# 5 0.000000 0.000000 0.000000 0.000000 0.033670 0.000000
# 6 0.000000 0.000000 0.000000 0.000000 0.000000 0.040739
#
#
# Mechanical properties :
#
#
# Convention : Reuss Voigt Hill
#
# Bulk Modulus (GPa) = 32.62287 34.21942 33.42114
# Shear Modulus (GPa) = 25.87447 26.92857 26.40152
#
# Velocity S-wave (km/s) = 3.49952 3.57009 3.53498
# Velocity P-wave (km/s) = 5.63644 5.76111 5.69912
#
# Compressibility (1/GPa) = 0.03065334
#
# Stress axis : x y z
#
# Youngs Moduli (GPa) = 49.39871 48.94727 74.71740
#
# Poissons Ratio (x) = 0.23218 0.13873
# Poissons Ratio (y) = 0.23432 0.38119
# Poissons Ratio (z) = 0.09172 0.24972
#
# Static dielectric constant tensor:
#      x y z
#    x 1.805820 0.000000 0.000000 
#    y 0.000000 1.782590 0.000000 
#    z 0.000000 0.000000 1.763750 
# 
# From -- ./inp_files/4330.got.cif
#   From: 2010.05.17/outbox.cif.g08.bks.cpg/sg29_3_cif.got.tgz:4330.got - 2010.06.04 01:19:37.
