data_PCOD9340199
_publ_section_title
;
Structure prediction by ZEFSAII (Michael W. Deem and Ramdas Pophale) SiO2 
 PCOD9340199
Probable space group: P C A 21
;
_chemical_formula_sum "Si O2"
_cell_formula_units_Z 32
_cell_length_a 17.165339
_cell_length_b 9.872620
_cell_length_c 9.143565
_cell_angle_alpha 90.000000
_cell_angle_beta 90.000000
_cell_angle_gamma 90.000000
_cell_volume 1549.531333
_symmetry_space_group_name_H-M "P C A 21"
_symmetry_group_IT_number 29
_symmetry_cell_setting 'orthorhombic'
loop_
_space_group_symop_operation_xyz
x,y,z
-x,-y,1/2+z
1/2-x,y,1/2+z
1/2+x,-y,z
loop_
_atom_site_type_symbol
_atom_site_label
_atom_site_fract_x
_atom_site_fract_y
_atom_site_fract_z
Si Si1 0.190070 0.177490 0.542400
Si Si2 0.737144 0.644342 0.289394
Si Si3 0.041317 0.104699 0.255908
Si Si4 0.176500 0.991172 0.093096
Si Si5 0.576678 0.067113 0.498704
Si Si6 0.683713 0.465817 0.033029
Si Si7 0.410924 0.760187 0.415653
Si Si8 0.701845 0.231605 0.636098
O O1 0.209799 0.252613 0.694030
O O2 0.185147 0.286584 0.414499
O O3 0.265665 0.085911 0.502069
O O4 0.118494 0.074007 0.545624
O O5 0.684376 0.568937 0.168513
O O6 0.791758 0.543544 0.384869
O O7 0.129101 0.092953 0.197231
O O8 0.037835 0.962874 0.344338
O O9 0.998309 0.213726 0.359390
O O10 0.987920 0.104802 0.114338
O O11 0.235151 0.885949 0.171823
O O12 0.118688 0.894475 0.001882
O O13 0.645311 0.176007 0.508449
O O14 0.751582 0.359564 0.077280
O O15 0.607308 0.373807 0.008937
O O16 0.352587 0.747472 0.276498
#
# Coordination Sequence:
#
# PCOD9340199 Si02
#       8
#     4   4   4   4   4   4   4   4
#     4  10  22  37  59  88 119 149 191 249 279 350
#     4  10  21  35  58  87 110 153 197 245 284 317
#     4  11  21  36  53  90 119 159 177 227 296 375
#     4  10  21  33  59  88 116 147 188 228 307 349
#     4  10  22  36  57  87 126 146 188 225 310 349
#     4  10  19  37  57  86 111 146 201 245 280 330
#     4  10  20  35  55  87 122 148 183 245 290 343
#     4   9  20  33  60  87 115 144 183 254 286 335
#
# _framework density 20.651405
#
# number of rings (size 3 to 8) (size 9 to 14) (size 15 to 20)
#    0.000    2.000    2.500    0.750   10.500    0.000 
#    0.000    0.000    0.000    4.500    9.750    0.000 
#    0.000    0.000    0.000    0.000    0.000    0.000 
#
# Total GULP energy -178407.362365 kJ/mol
# GULP energy per Si atom -5575.230074 kJ/mol
# Density = 2.060440 g / cm^3
# Si number density = 20.651405 Si / 1000 Ang^3
#
#
#
# Elastic Constant Matrix: (Units=GPa)
#
#
# Indices 1 2 3 4 5 6 
#
# 1 32.5746 -6.8305 -9.2209 0.0000 0.0000 0.0000
# 2 -6.8305 54.4563 1.1042 0.0000 0.0000 0.0000
# 3 -9.2209 1.1042 59.3441 0.0000 0.0000 0.0000
# 4 0.0000 0.0000 0.0000 36.6712 0.0000 0.0000
# 5 0.0000 0.0000 0.0000 0.0000 21.8135 0.0000
# 6 0.0000 0.0000 0.0000 0.0000 0.0000 11.2889
#
#
#
# Elastic Compliance Matrix: (Units=1/GPa)
#
#
# Indices 1 2 3 4 5 6 
#
# 1 0.032974 0.004034 0.005048 0.000000 0.000000 0.000000
# 2 0.004034 0.018864 0.000276 0.000000 0.000000 0.000000
# 3 0.005048 0.000276 0.017630 0.000000 0.000000 0.000000
# 4 0.000000 0.000000 0.000000 0.027269 0.000000 0.000000
# 5 0.000000 0.000000 0.000000 0.000000 0.045843 0.000000
# 6 0.000000 0.000000 0.000000 0.000000 0.000000 0.088582
#
#
# Mechanical properties :
#
#
# Convention : Reuss Voigt Hill
#
# Bulk Modulus (GPa) = 11.34009 12.94230 12.14120
# Shear Modulus (GPa) = 20.67472 24.70954 22.69213
#
# Velocity S-wave (km/s) = 3.16749 3.46281 3.31844
# Velocity P-wave (km/s) = 4.34517 4.71897 4.53592
#
# Compressibility (1/GPa) = 0.08818269
#
# Stress axis : x y z
#
# Youngs Moduli (GPa) = 30.32729 53.01189 56.72095
#
# Poissons Ratio (x) = -0.21382 -0.28635
# Poissons Ratio (y) = -0.12233 -0.01564
# Poissons Ratio (z) = -0.15310 -0.01462
#
# Static dielectric constant tensor:
#      x y z
#    x 1.743530 0.000000 0.000000 
#    y 0.000000 1.774110 0.000000 
#    z 0.000000 0.000000 1.778840 
# 
# From -- ./inp_files/2193.got.cif
#   From: 2010.05.17/outbox.cif.g08.bks.cpg/sg29_2_cif.got.tgz:2193.got - 2010.06.04 01:19:37.
