data_PCOD9340305
_publ_section_title
;
Structure prediction by ZEFSAII (Michael W. Deem and Ramdas Pophale) SiO2 
 PCOD9340305
Probable space group: P C A 21
;
_chemical_formula_sum "Si O2"
_cell_formula_units_Z 32
_cell_length_a 7.521723
_cell_length_b 11.845082
_cell_length_c 13.489750
_cell_angle_alpha 90.000000
_cell_angle_beta 90.000000
_cell_angle_gamma 90.000000
_cell_volume 1201.875019
_symmetry_space_group_name_H-M "P C A 21"
_symmetry_group_IT_number 29
_symmetry_cell_setting 'orthorhombic'
loop_
_space_group_symop_operation_xyz
x,y,z
-x,-y,1/2+z
1/2-x,y,1/2+z
1/2+x,-y,z
loop_
_atom_site_type_symbol
_atom_site_label
_atom_site_fract_x
_atom_site_fract_y
_atom_site_fract_z
Si Si1 0.750063 0.061571 0.356700
Si Si2 0.440832 0.740584 0.772687
Si Si3 0.662140 0.346028 0.634518
Si Si4 0.803480 0.627716 0.412122
Si Si5 0.589818 0.858113 0.604055
Si Si6 0.134954 0.169222 0.381219
Si Si7 0.675627 0.103979 0.575469
Si Si8 0.481482 0.544620 0.525586
O O1 0.642705 0.135825 0.280273
O O2 0.642258 0.075428 0.460419
O O3 0.939040 0.122372 0.364075
O O4 0.756420 0.929060 0.336535
O O5 0.278191 0.661052 0.735832
O O6 0.527287 0.703092 0.875762
O O7 0.587773 0.759806 0.686219
O O8 0.586711 0.219747 0.613812
O O9 0.523625 0.444945 0.606462
O O10 0.825611 0.372635 0.558791
O O11 0.661624 0.701944 0.347767
O O12 0.670375 0.601565 0.503974
O O13 0.912887 0.511159 0.422709
O O14 0.683888 0.830414 0.499138
O O15 0.383581 0.870124 0.575829
O O16 0.642781 0.986522 0.631550
#
# Coordination Sequence:
#
# PCOD9340305 Si02
#       8
#     4   4   4   4   4   4   4   4
#     4  10  20  35  61  95 126 158 202 244 308 387
#     4  11  23  39  62  98 131 155 199 266 318 362
#     4  10  22  41  63  86 122 162 208 264 310 362
#     4  11  23  40  66  90 121 164 213 265 308 359
#     4   9  20  36  59  89 123 156 197 239 302 382
#     4  10  21  41  64  89 127 172 204 245 311 391
#     4   9  18  36  58  83 118 160 193 233 296 376
#     4  10  23  44  65  86 116 169 224 252 303 377
#
# _framework density 26.625066
#
# number of rings (size 3 to 8) (size 9 to 14) (size 15 to 20)
#    0.000    2.000    0.000    3.750    0.000   10.000 
#    0.000    3.750    0.000    0.000    0.000    0.000 
#    0.000    0.000    0.000    0.000    0.000    0.000 
#
# Total GULP energy -178161.312782 kJ/mol
# GULP energy per Si atom -5567.541024 kJ/mol
# Density = 2.656447 g / cm^3
# Si number density = 26.625066 Si / 1000 Ang^3
#
#
#
# Elastic Constant Matrix: (Units=GPa)
#
#
# Indices 1 2 3 4 5 6 
#
# 1 76.8776 22.9948 17.0715 0.0000 0.0000 0.0000
# 2 22.9948 135.8055 18.5037 0.0000 0.0000 0.0000
# 3 17.0715 18.5037 74.1916 0.0000 0.0000 0.0000
# 4 0.0000 0.0000 0.0000 33.7441 0.0000 0.0000
# 5 0.0000 0.0000 0.0000 0.0000 27.7733 0.0000
# 6 0.0000 0.0000 0.0000 0.0000 0.0000 33.4349
#
#
#
# Elastic Compliance Matrix: (Units=1/GPa)
#
#
# Indices 1 2 3 4 5 6 
#
# 1 0.014230 -0.002032 -0.002767 0.000000 0.000000 0.000000
# 2 -0.002032 0.007913 -0.001506 0.000000 0.000000 0.000000
# 3 -0.002767 -0.001506 0.014491 0.000000 0.000000 0.000000
# 4 0.000000 0.000000 0.000000 0.029635 0.000000 0.000000
# 5 0.000000 0.000000 0.000000 0.000000 0.036006 0.000000
# 6 0.000000 0.000000 0.000000 0.000000 0.000000 0.029909
#
#
# Mechanical properties :
#
#
# Convention : Reuss Voigt Hill
#
# Bulk Modulus (GPa) = 41.62763 44.89051 43.25907
# Shear Modulus (GPa) = 32.72204 34.21078 33.46641
#
# Velocity S-wave (km/s) = 3.50950 3.58845 3.54920
# Velocity P-wave (km/s) = 5.66488 5.83662 5.75139
#
# Compressibility (1/GPa) = 0.02402250
#
# Stress axis : x y z
#
# Youngs Moduli (GPa) = 70.27333 126.37800 69.00848
#
# Poissons Ratio (x) = 0.25685 0.19098
# Poissons Ratio (y) = 0.14282 0.10391
# Poissons Ratio (z) = 0.19448 0.19030
#
# Static dielectric constant tensor:
#      x y z
#    x 2.049950 0.000000 0.000000 
#    y 0.000000 2.138660 0.000000 
#    z 0.000000 0.000000 2.218740 
# 
# From -- ./inp_files/4339.got.cif
#   From: 2010.05.17/outbox.cif.g08.bks.cpg/sg29_3_cif.got.tgz:4339.got - 2010.06.04 01:19:37.
