data_PCOD9340211
_publ_section_title
;
Structure prediction by ZEFSAII (Michael W. Deem and Ramdas Pophale) SiO2 
 PCOD9340211
Probable space group: P C A 21
;
_chemical_formula_sum "Si O2"
_cell_formula_units_Z 32
_cell_length_a 5.703462
_cell_length_b 16.925604
_cell_length_c 12.890905
_cell_angle_alpha 90.000000
_cell_angle_beta 90.000000
_cell_angle_gamma 90.000000
_cell_volume 1244.417575
_symmetry_space_group_name_H-M "P C A 21"
_symmetry_group_IT_number 29
_symmetry_cell_setting 'orthorhombic'
loop_
_space_group_symop_operation_xyz
x,y,z
-x,-y,1/2+z
1/2-x,y,1/2+z
1/2+x,-y,z
loop_
_atom_site_type_symbol
_atom_site_label
_atom_site_fract_x
_atom_site_fract_y
_atom_site_fract_z
Si Si1 0.297675 0.809650 0.829360
Si Si2 0.627335 0.511336 0.678342
Si Si3 0.649533 0.283540 0.000728
Si Si4 0.617023 0.692666 0.716652
Si Si5 0.136524 0.543031 0.903221
Si Si6 0.496480 0.204113 0.641647
Si Si7 0.155025 0.037663 0.159437
Si Si8 0.606177 0.018844 0.394544
O O1 0.468807 0.736434 0.804556
O O2 0.197976 0.830508 0.716094
O O3 0.415750 0.888094 0.871772
O O4 0.101422 0.779324 0.910052
O O5 0.377908 0.498511 0.622825
O O6 0.621906 0.599239 0.724722
O O7 0.634037 0.452744 0.776624
O O8 0.488411 0.287652 0.102394
O O9 0.895729 0.249623 0.044780
O O10 0.653507 0.370886 0.953845
O O11 0.871368 0.730109 0.710838
O O12 0.379901 0.495700 0.925694
O O13 0.334536 0.128807 0.622923
O O14 0.400069 0.997012 0.130254
O O15 0.138756 0.029351 0.286019
O O16 0.362803 0.991609 0.444200
#
# Coordination Sequence:
#
# PCOD9340211 Si02
#       8
#     4   4   4   4   4   4   4   4
#     4  11  23  44  72  99 144 195 242 302 372 444
#     4  10  23  43  72 102 133 183 247 293 360 446
#     4  11  28  45  67 111 149 188 243 314 374 448
#     4  11  26  44  72 103 145 191 246 306 381 456
#     4  10  23  44  70  97 138 188 236 294 363 432
#     4  11  25  43  71 104 146 193 243 302 378 443
#     4  10  19  38  69  99 135 188 243 295 357 433
#     4  10  19  37  67 101 132 184 248 294 351 432
#
# _framework density 25.714839999999999
#
# number of rings (size 3 to 8) (size 9 to 14) (size 15 to 20)
#    0.000    1.500    2.500    3.000   10.500    2.000 
#    0.000    1.250    0.000    0.000    0.000    0.000 
#    0.000    0.000    0.000    0.000    0.000    0.000 
#
# Total GULP energy -179011.364878 kJ/mol
# GULP energy per Si atom -5594.105152 kJ/mol
# Density = 2.565631 g / cm^3
# Si number density = 25.714840 Si / 1000 Ang^3
#
#
#
# Elastic Constant Matrix: (Units=GPa)
#
#
# Indices 1 2 3 4 5 6 
#
# 1 177.5164 32.7108 40.3400 0.0000 0.0000 0.0000
# 2 32.7108 107.9811 -0.4108 0.0000 0.0000 0.0000
# 3 40.3400 -0.4108 97.9957 0.0000 0.0000 0.0000
# 4 0.0000 0.0000 0.0000 18.4470 0.0000 0.0000
# 5 0.0000 0.0000 0.0000 0.0000 48.9782 0.0000
# 6 0.0000 0.0000 0.0000 0.0000 0.0000 39.7487
#
#
#
# Elastic Compliance Matrix: (Units=1/GPa)
#
#
# Indices 1 2 3 4 5 6 
#
# 1 0.006627 -0.002018 -0.002736 0.000000 0.000000 0.000000
# 2 -0.002018 0.009875 0.000872 0.000000 0.000000 0.000000
# 3 -0.002736 0.000872 0.011335 0.000000 0.000000 0.000000
# 4 0.000000 0.000000 0.000000 0.054209 0.000000 0.000000
# 5 0.000000 0.000000 0.000000 0.000000 0.020417 0.000000
# 6 0.000000 0.000000 0.000000 0.000000 0.000000 0.025158
#
#
# Mechanical properties :
#
#
# Convention : Reuss Voigt Hill
#
# Bulk Modulus (GPa) = 49.81940 58.75258 54.28599
# Shear Modulus (GPa) = 35.19211 42.15831 38.67521
#
# Velocity S-wave (km/s) = 3.70341 4.05341 3.88236
# Velocity P-wave (km/s) = 6.14026 6.69359 6.42289
#
# Compressibility (1/GPa) = 0.02007250
#
# Stress axis : x y z
#
# Youngs Moduli (GPa) = 150.89845 101.26085 88.22501
#
# Poissons Ratio (x) = 0.20434 0.24142
# Poissons Ratio (y) = 0.30450 -0.07694
# Poissons Ratio (z) = 0.41293 -0.08831
#
# Static dielectric constant tensor:
#      x y z
#    x 2.081760 0.000000 0.000000 
#    y 0.000000 1.974280 0.000000 
#    z 0.000000 0.000000 2.123060 
# 
# From -- ./inp_files/4113.got.cif
#   From: 2010.05.17/outbox.cif.g08.bks.cpg/sg29_3_cif.got.tgz:4113.got - 2010.06.04 01:19:37.
