data_PCOD9340880
_publ_section_title
;
Structure prediction by ZEFSAII (Michael W. Deem and Ramdas Pophale) SiO2 
 PCOD9340880
Probable space group: P C A 21
;
_chemical_formula_sum "Si O2"
_cell_formula_units_Z 32
_cell_length_a 10.662823
_cell_length_b 15.818145
_cell_length_c 8.395811
_cell_angle_alpha 90.000000
_cell_angle_beta 90.000000
_cell_angle_gamma 90.000000
_cell_volume 1416.088533
_symmetry_space_group_name_H-M "P C A 21"
_symmetry_group_IT_number 29
_symmetry_cell_setting 'orthorhombic'
loop_
_space_group_symop_operation_xyz
x,y,z
-x,-y,1/2+z
1/2-x,y,1/2+z
1/2+x,-y,z
loop_
_atom_site_type_symbol
_atom_site_label
_atom_site_fract_x
_atom_site_fract_y
_atom_site_fract_z
Si Si1 0.297739 0.341287 0.964430
Si Si2 0.060400 0.353281 0.795724
Si Si3 0.868869 0.236747 0.668066
Si Si4 0.638209 0.474041 0.370150
Si Si5 0.989237 0.768953 0.835245
Si Si6 0.169305 0.952431 0.157575
Si Si7 0.842028 0.373171 0.185029
Si Si8 0.430445 0.954665 0.292635
O O1 0.149479 0.351183 0.947556
O O2 0.352334 0.426515 0.884811
O O3 0.346709 0.258308 0.871488
O O4 0.350402 0.341272 0.142900
O O5 0.959044 0.278121 0.799205
O O6 0.977918 0.437461 0.770339
O O7 0.949167 0.225237 0.509720
O O8 0.817782 0.145611 0.710952
O O9 0.763285 0.305317 0.631059
O O10 0.768399 0.435202 0.305376
O O11 0.616788 0.430309 0.539598
O O12 0.053508 0.687826 0.755706
O O13 0.023464 0.858138 0.756453
O O14 0.311316 0.985016 0.186213
O O15 0.122408 0.959297 0.974325
O O16 0.056430 0.991695 0.261539
#
# Coordination Sequence:
#
# PCOD9340880 Si02
#       8
#     4   4   4   4   4   4   4   4
#     4  11  25  42  60  89 135 169 223 272 333 395
#     4  10  25  42  59  91 123 174 214 270 331 395
#     4   9  20  42  66  93 128 163 223 271 327 395
#     4  11  25  37  66  91 129 167 222 274 330 387
#     4  10  22  40  66  92 129 174 215 272 326 399
#     4  11  23  43  70 104 138 177 226 287 338 419
#     4  11  20  40  64  97 120 167 221 268 323 388
#     4  11  24  44  71 103 140 177 228 278 350 408
#
# _framework density 22.597455
#
# number of rings (size 3 to 8) (size 9 to 14) (size 15 to 20)
#    0.000    1.500    2.500    1.500    5.250    1.000 
#    4.500    2.500    0.000    0.000    0.000    0.000 
#    0.000    0.000    0.000    0.000    0.000    0.000 
#
# Total GULP energy -178794.033969 kJ/mol
# GULP energy per Si atom -5587.313562 kJ/mol
# Density = 2.254602 g / cm^3
# Si number density = 22.597455 Si / 1000 Ang^3
#
#
#
# Elastic Constant Matrix: (Units=GPa)
#
#
# Indices 1 2 3 4 5 6 
#
# 1 88.4576 26.7593 16.6560 0.0000 0.0000 0.0000
# 2 26.7593 68.6636 9.6595 0.0000 0.0000 0.0000
# 3 16.6560 9.6595 44.2243 0.0000 0.0000 0.0000
# 4 0.0000 0.0000 0.0000 16.4867 0.0000 0.0000
# 5 0.0000 0.0000 0.0000 0.0000 36.2619 0.0000
# 6 0.0000 0.0000 0.0000 0.0000 0.0000 29.3824
#
#
#
# Elastic Compliance Matrix: (Units=1/GPa)
#
#
# Indices 1 2 3 4 5 6 
#
# 1 0.013486 -0.004685 -0.004056 0.000000 0.000000 0.000000
# 2 -0.004685 0.016653 -0.001873 0.000000 0.000000 0.000000
# 3 -0.004056 -0.001873 0.024549 0.000000 0.000000 0.000000
# 4 0.000000 0.000000 0.000000 0.060655 0.000000 0.000000
# 5 0.000000 0.000000 0.000000 0.000000 0.027577 0.000000
# 6 0.000000 0.000000 0.000000 0.000000 0.000000 0.034034
#
#
# Mechanical properties :
#
#
# Convention : Reuss Voigt Hill
#
# Bulk Modulus (GPa) = 29.88641 34.16614 32.02628
# Shear Modulus (GPa) = 23.88522 26.31090 25.09806
#
# Velocity S-wave (km/s) = 3.25466 3.41593 3.33627
# Velocity P-wave (km/s) = 5.23240 5.54170 5.38927
#
# Compressibility (1/GPa) = 0.03346002
#
# Stress axis : x y z
#
# Youngs Moduli (GPa) = 74.15198 60.04891 40.73556
#
# Poissons Ratio (x) = 0.28133 0.16521
# Poissons Ratio (y) = 0.34741 0.07629
# Poissons Ratio (z) = 0.30074 0.11246
#
# Static dielectric constant tensor:
#      x y z
#    x 1.873650 0.000000 0.000000 
#    y 0.000000 1.837260 0.000000 
#    z 0.000000 0.000000 1.878670 
# 
# From -- ./inp_files/1558.got.cif
#   From: 2010.05.17/outbox.cif.g08.bks.cpg/sg29_1_cif.got.tgz:1558.got - 2010.06.04 01:19:37.
