data_PCOD9340171
_publ_section_title
;
Structure prediction by ZEFSAII (Michael W. Deem and Ramdas Pophale) SiO2 
 PCOD9340171
Probable space group: P C A 21
;
_chemical_formula_sum "Si O2"
_cell_formula_units_Z 24
_cell_length_a 9.692978
_cell_length_b 13.834857
_cell_length_c 8.419351
_cell_angle_alpha 90.000000
_cell_angle_beta 90.000000
_cell_angle_gamma 90.000000
_cell_volume 1129.043090
_symmetry_space_group_name_H-M "P C A 21"
_symmetry_group_IT_number 29
_symmetry_cell_setting 'orthorhombic'
loop_
_space_group_symop_operation_xyz
x,y,z
-x,-y,1/2+z
1/2-x,y,1/2+z
1/2+x,-y,z
loop_
_atom_site_type_symbol
_atom_site_label
_atom_site_fract_x
_atom_site_fract_y
_atom_site_fract_z
Si Si1 0.916360 0.083245 0.450570
Si Si2 0.101870 0.459163 0.602951
Si Si3 0.044548 0.276696 0.444678
Si Si4 0.667221 0.990026 0.261703
Si Si5 0.196037 0.223218 0.130686
Si Si6 0.598448 0.602682 0.968944
O O1 0.804385 0.030105 0.341660
O O2 0.886670 0.066205 0.634344
O O3 0.927668 0.197553 0.417604
O O4 0.060921 0.035226 0.401222
O O5 0.010065 0.383776 0.498600
O O6 0.259264 0.441520 0.544205
O O7 0.091065 0.430006 0.786612
O O8 0.033925 0.561567 0.562758
O O9 0.140314 0.275357 0.288681
O O10 0.145287 0.238407 0.584697
O O11 0.677518 0.889814 0.162598
O O12 0.112121 0.281375 0.995017
#
# Coordination Sequence:
#
# PCOD9340171 Si02
#       6
#     4   4   4   4   4   4
#     4  11  23  39  62  88 123 161 205 256 315 375
#     4  11  22  40  62  92 125 163 210 261 317 378
#     4  10  20  36  59  87 120 160 207 258 312 380
#     4  11  22  39  60  89 120 160 206 260 312 378
#     4  10  19  35  60  86 116 160 209 251 308 381
#     4  11  22  39  65  92 124 166 211 264 316 380
#
# _framework density 21.256938000000002
#
# number of rings (size 3 to 8) (size 9 to 14) (size 15 to 20)
#    0.000    1.333    0.000   10.000    0.000    1.333 
#    0.000    8.333    0.000    0.000    0.000    0.000 
#    0.000    0.000    0.000    0.000    0.000    0.000 
#
# Total GULP energy -133989.812417 kJ/mol
# GULP energy per Si atom -5582.908851 kJ/mol
# Density = 2.120856 g / cm^3
# Si number density = 21.256938 Si / 1000 Ang^3
#
#
#
# Elastic Constant Matrix: (Units=GPa)
#
#
# Indices 1 2 3 4 5 6 
#
# 1 55.1815 29.8226 5.1287 0.0000 0.0000 0.0000
# 2 29.8226 60.9975 12.2443 0.0000 0.0000 0.0000
# 3 5.1287 12.2443 108.4501 0.0000 0.0000 0.0000
# 4 0.0000 0.0000 0.0000 34.0440 0.0000 0.0000
# 5 0.0000 0.0000 0.0000 0.0000 27.9258 0.0000
# 6 0.0000 0.0000 0.0000 0.0000 0.0000 37.8676
#
#
#
# Elastic Compliance Matrix: (Units=1/GPa)
#
#
# Indices 1 2 3 4 5 6 
#
# 1 0.024634 -0.012084 0.000199 0.000000 0.000000 0.000000
# 2 -0.012084 0.022702 -0.001992 0.000000 0.000000 0.000000
# 3 0.000199 -0.001992 0.009436 0.000000 0.000000 0.000000
# 4 0.000000 0.000000 0.000000 0.029374 0.000000 0.000000
# 5 0.000000 0.000000 0.000000 0.000000 0.035809 0.000000
# 6 0.000000 0.000000 0.000000 0.000000 0.000000 0.026408
#
#
# Mechanical properties :
#
#
# Convention : Reuss Voigt Hill
#
# Bulk Modulus (GPa) = 34.45928 35.44671 34.95300
# Shear Modulus (GPa) = 26.91221 31.79637 29.35429
#
# Velocity S-wave (km/s) = 3.56201 3.87177 3.72011
# Velocity P-wave (km/s) = 5.75876 6.05797 5.91026
#
# Compressibility (1/GPa) = 0.02901976
#
# Stress axis : x y z
#
# Youngs Moduli (GPa) = 40.59389 44.04900 105.97415
#
# Poissons Ratio (x) = 0.53229 -0.02112
# Poissons Ratio (y) = 0.49054 0.21106
# Poissons Ratio (z) = -0.00809 0.08773
#
# Static dielectric constant tensor:
#      x y z
#    x 1.765930 0.000000 0.000000 
#    y 0.000000 1.841930 0.000000 
#    z 0.000000 0.000000 1.774750 
# 
# From -- ./inp_files/1170.got.cif
#   From: 2010.05.17/outbox.cif.g08.bks.cpg/sg29_1_cif.got.tgz:1170.got - 2010.06.04 01:19:37.
