data_PCOD9340314
_publ_section_title
;
Structure prediction by ZEFSAII (Michael W. Deem and Ramdas Pophale) SiO2 
 PCOD9340314
Probable space group: P C A 21
;
_chemical_formula_sum "Si O2"
_cell_formula_units_Z 32
_cell_length_a 5.097521
_cell_length_b 17.705421
_cell_length_c 14.469070
_cell_angle_alpha 90.000000
_cell_angle_beta 90.000000
_cell_angle_gamma 90.000000
_cell_volume 1305.887904
_symmetry_space_group_name_H-M "P C A 21"
_symmetry_group_IT_number 29
_symmetry_cell_setting 'orthorhombic'
loop_
_space_group_symop_operation_xyz
x,y,z
-x,-y,1/2+z
1/2-x,y,1/2+z
1/2+x,-y,z
loop_
_atom_site_type_symbol
_atom_site_label
_atom_site_fract_x
_atom_site_fract_y
_atom_site_fract_z
Si Si1 0.791339 0.696144 0.294200
Si Si2 0.727737 0.142123 0.648386
Si Si3 0.100420 0.291320 0.093858
Si Si4 0.897035 0.826368 0.996149
Si Si5 0.470539 0.459256 0.815536
Si Si6 0.007135 0.049243 0.995922
Si Si7 0.485727 0.544644 0.090869
Si Si8 0.713111 0.207016 0.834960
O O1 0.783188 0.688084 0.182218
O O2 0.676091 0.619079 0.335900
O O3 0.574025 0.759268 0.313736
O O4 0.071620 0.727423 0.325129
O O5 0.594089 0.223588 0.623882
O O6 0.004829 0.142740 0.595338
O O7 0.548918 0.077633 0.602079
O O8 0.766967 0.143916 0.757754
O O9 0.278593 0.255881 0.014483
O O10 0.954933 0.367746 0.066388
O O11 0.670719 0.879512 0.955782
O O12 0.159926 0.823072 0.936635
O O13 0.766883 0.475577 0.846062
O O14 0.503903 0.459223 0.703337
O O15 0.219855 0.983778 0.974561
O O16 0.257844 0.489930 0.058085
#
# Coordination Sequence:
#
# PCOD9340314 Si02
#       8
#     4   4   4   4   4   4   4   4
#     4  10  20  36  56  88 122 159 210 273 319 378
#     4  10  22  42  67  97 126 170 212 261 319 377
#     4   9  20  35  61  88 123 165 214 264 322 379
#     4  11  23  41  68  96 129 172 211 264 316 373
#     4   9  16  28  50  77 111 154 205 257 323 387
#     4  11  23  43  71  95 128 165 202 247 310 377
#     4   9  18  29  49  83 116 154 206 263 317 378
#     4  11  24  38  62  94 129 159 216 265 310 375
#
# _framework density 24.504401000000001
#
# number of rings (size 3 to 8) (size 9 to 14) (size 15 to 20)
#    0.000    2.000    2.500    0.750    5.250    3.000 
#    0.000    1.250    0.000    4.500    0.000    0.000 
#    0.000    0.000    0.000    0.000    0.000    0.000 
#
# Total GULP energy -178727.412067 kJ/mol
# GULP energy per Si atom -5585.231627 kJ/mol
# Density = 2.444863 g / cm^3
# Si number density = 24.504401 Si / 1000 Ang^3
#
#
#
# Elastic Constant Matrix: (Units=GPa)
#
#
# Indices 1 2 3 4 5 6 
#
# 1 83.4247 -31.8532 -27.6138 0.0000 0.0000 0.0000
# 2 -31.8532 20.2581 -35.3710 0.0000 0.0000 0.0000
# 3 -27.6138 -35.3710 37.9661 0.0000 0.0000 0.0000
# 4 0.0000 0.0000 0.0000 16.2869 0.0000 0.0000
# 5 0.0000 0.0000 0.0000 0.0000 20.6694 0.0000
# 6 0.0000 0.0000 0.0000 0.0000 0.0000 35.0914
#
#
#
# Elastic Compliance Matrix: (Units=1/GPa)
#
#
# Indices 1 2 3 4 5 6 
#
# 1 0.003082 -0.013977 -0.010780 0.000000 0.000000 0.000000
# 2 -0.013977 -0.015376 -0.024491 0.000000 0.000000 0.000000
# 3 -0.010780 -0.024491 -0.004318 0.000000 0.000000 0.000000
# 4 0.000000 0.000000 0.000000 0.061399 0.000000 0.000000
# 5 0.000000 0.000000 0.000000 0.000000 0.048381 0.000000
# 6 0.000000 0.000000 0.000000 0.000000 0.000000 0.028497
#
#
# Mechanical properties :
#
#
# Convention : Reuss Voigt Hill
#
# Bulk Modulus (GPa) = -8.68743 -5.33636 -7.01189
# Shear Modulus (GPa) = 27.50405 30.17535 28.83970
#
# Velocity S-wave (km/s) = 3.35388 3.51297 3.43435
# Velocity P-wave (km/s) = 3.38305 3.77786 3.58589
#
# Compressibility (1/GPa) = -0.11510889
#
# Stress axis : x y z
#
# Youngs Moduli (GPa) = 324.49285 -65.03792 -231.57131
#
# Poissons Ratio (x) = -0.90905 -2.49643
# Poissons Ratio (y) = 4.53551 -5.67134
# Poissons Ratio (z) = 3.49816 -1.59282
#
# Static dielectric constant tensor:
#      x y z
#    x 1.914220 0.000000 0.000000 
#    y 0.000000 1.979020 0.000000 
#    z 0.000000 0.000000 2.429690 
# 
# From -- ./inp_files/4128.got.cif
#   From: 2010.05.17/outbox.cif.g08.bks.cpg/sg29_3_cif.got.tgz:4128.got - 2010.06.04 01:19:37.
