data_PCOD9340030
_publ_section_title
;
Structure prediction by ZEFSAII (Michael W. Deem and Ramdas Pophale) SiO2 
 PCOD9340030
Probable space group: P C A 21
;
_chemical_formula_sum "Si O2"
_cell_formula_units_Z 32
_cell_length_a 18.121604
_cell_length_b 6.051955
_cell_length_c 14.056712
_cell_angle_alpha 90.000000
_cell_angle_beta 90.000000
_cell_angle_gamma 90.000000
_cell_volume 1541.615516
_symmetry_space_group_name_H-M "P C A 21"
_symmetry_group_IT_number 29
_symmetry_cell_setting 'orthorhombic'
loop_
_space_group_symop_operation_xyz
x,y,z
-x,-y,1/2+z
1/2-x,y,1/2+z
1/2+x,-y,z
loop_
_atom_site_type_symbol
_atom_site_label
_atom_site_fract_x
_atom_site_fract_y
_atom_site_fract_z
Si Si1 0.593653 0.504212 0.631290
Si Si2 0.770865 0.188418 0.088043
Si Si3 0.716587 0.859081 0.411630
Si Si4 0.297854 0.186328 0.235283
Si Si5 0.969572 0.764346 0.733620
Si Si6 0.582125 0.551679 0.429907
Si Si7 0.902126 0.161381 0.810241
Si Si8 0.836536 0.510954 0.664559
O O1 0.658808 0.349423 0.589205
O O2 0.629115 0.700321 0.693228
O O3 0.542233 0.346325 0.693056
O O4 0.554367 0.597369 0.536262
O O5 0.698768 0.347271 0.086138
O O6 0.780515 0.046798 0.185089
O O7 0.770903 0.005064 0.005211
O O8 0.789560 0.822749 0.349117
O O9 0.667470 0.640341 0.429767
O O10 0.661805 0.998167 0.343951
O O11 0.232406 0.349866 0.202263
O O12 0.956439 0.675043 0.841538
O O13 0.904170 0.683787 0.661531
O O14 0.962075 0.025598 0.750356
O O15 0.571950 0.295271 0.402656
O O16 0.866223 0.344358 0.743952
#
# Coordination Sequence:
#
# PCOD9340030 Si02
#       8
#     4   4   4   4   4   4   4   4
#     4  11  24  39  61  97 127 168 215 272 320 378
#     4  11  22  34  62  97 124 161 210 271 326 378
#     4  11  19  36  62  93 120 158 208 259 316 391
#     4  11  21  38  62  94 124 153 215 271 317 373
#     4  10  22  39  62  90 128 172 217 260 316 390
#     4  10  20  39  66  86 118 171 212 251 321 389
#     4  10  17  36  62  86 111 166 208 244 305 385
#     4  10  19  37  61  87 120 163 207 256 319 380
#
# _framework density 20.757446000000002
#
# number of rings (size 3 to 8) (size 9 to 14) (size 15 to 20)
#    0.000    1.500    7.500    0.000    0.000    2.000 
#    0.000    3.750    0.000    0.000    0.000    0.000 
#    0.000    0.000    0.000    0.000    0.000    0.000 
#
# Total GULP energy -178294.038608 kJ/mol
# GULP energy per Si atom -5571.688707 kJ/mol
# Density = 2.071020 g / cm^3
# Si number density = 20.757446 Si / 1000 Ang^3
#
#
#
# Elastic Constant Matrix: (Units=GPa)
#
#
# Indices 1 2 3 4 5 6 
#
# 1 29.5590 5.7764 23.4404 0.0000 0.0000 0.0000
# 2 5.7764 67.6367 7.4473 0.0000 0.0000 0.0000
# 3 23.4404 7.4473 85.0751 0.0000 0.0000 0.0000
# 4 0.0000 0.0000 0.0000 30.7833 0.0000 0.0000
# 5 0.0000 0.0000 0.0000 0.0000 20.7560 0.0000
# 6 0.0000 0.0000 0.0000 0.0000 0.0000 18.7755
#
#
#
# Elastic Compliance Matrix: (Units=1/GPa)
#
#
# Indices 1 2 3 4 5 6 
#
# 1 0.043681 -0.002429 -0.011823 0.000000 0.000000 0.000000
# 2 -0.002429 0.015064 -0.000649 0.000000 0.000000 0.000000
# 3 -0.011823 -0.000649 0.015069 0.000000 0.000000 0.000000
# 4 0.000000 0.000000 0.000000 0.032485 0.000000 0.000000
# 5 0.000000 0.000000 0.000000 0.000000 0.048179 0.000000
# 6 0.000000 0.000000 0.000000 0.000000 0.000000 0.053261
#
#
# Mechanical properties :
#
#
# Convention : Reuss Voigt Hill
#
# Bulk Modulus (GPa) = 22.72131 28.39987 25.56059
# Shear Modulus (GPa) = 19.82478 23.77008 21.79743
#
# Velocity S-wave (km/s) = 3.09377 3.38766 3.24404
# Velocity P-wave (km/s) = 4.87152 5.38638 5.13541
#
# Compressibility (1/GPa) = 0.04401155
#
# Stress axis : x y z
#
# Youngs Moduli (GPa) = 22.89349 66.38428 66.36324
#
# Poissons Ratio (x) = 0.16123 0.78458
# Poissons Ratio (y) = 0.05560 0.04310
# Poissons Ratio (z) = 0.27066 0.04312
#
# Static dielectric constant tensor:
#      x y z
#    x 1.767490 0.000000 0.000000 
#    y 0.000000 1.813370 0.000000 
#    z 0.000000 0.000000 1.807210 
# 
# From -- ./inp_files/4814.got.cif
#   From: 2010.05.17/outbox.cif.g08.bks.cpg/sg29_3_cif.got.tgz:4814.got - 2010.06.04 01:19:37.
