data_PCOD9340344
_publ_section_title
;
Structure prediction by ZEFSAII (Michael W. Deem and Ramdas Pophale) SiO2 
 PCOD9340344
Probable space group: P C A 21
;
_chemical_formula_sum "Si O2"
_cell_formula_units_Z 32
_cell_length_a 10.804097
_cell_length_b 15.617690
_cell_length_c 8.883460
_cell_angle_alpha 90.000000
_cell_angle_beta 90.000000
_cell_angle_gamma 90.000000
_cell_volume 1498.950958
_symmetry_space_group_name_H-M "P C A 21"
_symmetry_group_IT_number 29
_symmetry_cell_setting 'orthorhombic'
loop_
_space_group_symop_operation_xyz
x,y,z
-x,-y,1/2+z
1/2-x,y,1/2+z
1/2+x,-y,z
loop_
_atom_site_type_symbol
_atom_site_label
_atom_site_fract_x
_atom_site_fract_y
_atom_site_fract_z
Si Si1 0.252408 0.589306 0.948950
Si Si2 0.140438 0.082403 0.635704
Si Si3 0.100586 0.308223 0.218220
Si Si4 0.922437 0.358693 0.703861
Si Si5 0.411488 0.109308 0.693937
Si Si6 0.073732 0.532137 0.689793
Si Si7 0.990247 0.023468 0.902839
Si Si8 0.353764 0.276502 0.061743
O O1 0.342171 0.649586 0.852631
O O2 0.161943 0.540722 0.834579
O O3 0.170609 0.643414 0.063867
O O4 0.336865 0.525448 0.046105
O O5 0.268860 0.082954 0.729262
O O6 0.151448 0.173734 0.551980
O O7 0.023040 0.079968 0.752421
O O8 0.124015 0.004753 0.515637
O O9 0.064159 0.209928 0.186522
O O10 0.229631 0.316330 0.130384
O O11 0.120717 0.314137 0.397548
O O12 0.002846 0.380018 0.173372
O O13 0.980945 0.453894 0.704409
O O14 0.035577 0.296824 0.675933
O O15 0.427157 0.066956 0.530063
O O16 0.502748 0.067801 0.817590
#
# Coordination Sequence:
#
# PCOD9340344 Si02
#       8
#     4   4   4   4   4   4   4   4
#     4  10  24  42  62  90 128 180 198 276 318 370
#     4  10  21  39  65  93 128 161 212 265 316 371
#     4  11  25  41  67 100 128 166 219 278 322 377
#     4  11  24  42  69  92 133 170 221 262 320 392
#     4  10  21  39  65  93 128 161 212 265 316 371
#     4  11  24  42  69  92 133 170 221 262 320 392
#     4  10  20  36  66  88 124 164 194 258 326 384
#     4  11  25  41  67 100 128 166 219 278 322 377
#
# _framework density 21.348262999999999
#
# number of rings (size 3 to 8) (size 9 to 14) (size 15 to 20)
#    0.000    1.500    2.500    1.500   10.500    0.000 
#    0.000    0.000   55.000    0.000    0.000    0.000 
#    0.000    0.000    0.000    0.000    0.000    0.000 
#
# Total GULP energy -178284.544521 kJ/mol
# GULP energy per Si atom -5571.392016 kJ/mol
# Density = 2.129967 g / cm^3
# Si number density = 21.348263 Si / 1000 Ang^3
#
#
#
# Elastic Constant Matrix: (Units=GPa)
#
#
# Indices 1 2 3 4 5 6 
#
# 1 72.9335 37.8962 18.5428 0.0000 0.0000 0.0000
# 2 37.8962 64.7602 6.0643 0.0000 0.0000 0.0000
# 3 18.5428 6.0643 75.3354 0.0000 0.0000 0.0000
# 4 0.0000 0.0000 0.0000 11.1327 0.0000 0.0000
# 5 0.0000 0.0000 0.0000 0.0000 51.4533 0.0000
# 6 0.0000 0.0000 0.0000 0.0000 0.0000 17.2613
#
#
#
# Elastic Compliance Matrix: (Units=1/GPa)
#
#
# Indices 1 2 3 4 5 6 
#
# 1 0.020942 -0.011862 -0.004200 0.000000 0.000000 0.000000
# 2 -0.011862 0.022277 0.001126 0.000000 0.000000 0.000000
# 3 -0.004200 0.001126 0.014217 0.000000 0.000000 0.000000
# 4 0.000000 0.000000 0.000000 0.089825 0.000000 0.000000
# 5 0.000000 0.000000 0.000000 0.000000 0.019435 0.000000
# 6 0.000000 0.000000 0.000000 0.000000 0.000000 0.057933
#
#
# Mechanical properties :
#
#
# Convention : Reuss Voigt Hill
#
# Bulk Modulus (GPa) = 36.27623 37.55953 36.91788
# Shear Modulus (GPa) = 18.96174 26.00452 22.48313
#
# Velocity S-wave (km/s) = 2.98352 3.49393 3.24876
# Velocity P-wave (km/s) = 5.37569 5.82311 5.60387
#
# Compressibility (1/GPa) = 0.02756626
#
# Stress axis : x y z
#
# Youngs Moduli (GPa) = 47.75050 44.88883 70.33814
#
# Poissons Ratio (x) = 0.53245 0.29541
# Poissons Ratio (y) = 0.56640 -0.07922
# Poissons Ratio (z) = 0.20054 -0.05056
#
# Static dielectric constant tensor:
#      x y z
#    x 1.778510 0.000000 0.000000 
#    y 0.000000 1.745520 0.000000 
#    z 0.000000 0.000000 1.818870 
# 
# From -- ./inp_files/1549.got.cif
#   From: 2010.05.17/outbox.cif.g08.bks.cpg/sg29_1_cif.got.tgz:1549.got - 2010.06.04 01:19:37.
