data_PCOD9340882
_publ_section_title
;
Structure prediction by ZEFSAII (Michael W. Deem and Ramdas Pophale) SiO2 
 PCOD9340882
Probable space group: P C A 21
;
_chemical_formula_sum "Si O2"
_cell_formula_units_Z 32
_cell_length_a 11.321791
_cell_length_b 5.113944
_cell_length_c 20.116413
_cell_angle_alpha 90.000000
_cell_angle_beta 90.000000
_cell_angle_gamma 90.000000
_cell_volume 1164.720300
_symmetry_space_group_name_H-M "P C A 21"
_symmetry_group_IT_number 29
_symmetry_cell_setting 'orthorhombic'
loop_
_space_group_symop_operation_xyz
x,y,z
-x,-y,1/2+z
1/2-x,y,1/2+z
1/2+x,-y,z
loop_
_atom_site_type_symbol
_atom_site_label
_atom_site_fract_x
_atom_site_fract_y
_atom_site_fract_z
Si Si1 0.033824 0.961519 0.321370
Si Si2 0.046305 0.974919 0.068980
Si Si3 0.734763 0.351483 0.254309
Si Si4 0.084838 0.521476 0.865023
Si Si5 0.690588 0.632183 0.130996
Si Si6 0.115340 0.022841 0.692075
Si Si7 0.733447 0.190637 0.975110
Si Si8 0.154948 0.318960 0.501038
O O1 0.979193 0.755344 0.373602
O O2 0.161758 0.868973 0.295277
O O3 0.013088 0.264130 0.339809
O O4 0.946302 0.907349 0.260056
O O5 0.957652 0.860662 0.014773
O O6 0.171050 0.847361 0.047946
O O7 0.977776 0.915458 0.135974
O O8 0.080163 0.275014 0.085383
O O9 0.805100 0.497186 0.313098
O O10 0.652232 0.464086 0.195310
O O11 0.844721 0.274048 0.205520
O O12 0.141244 0.662452 0.928495
O O13 0.787847 0.608207 0.072606
O O14 0.758416 0.855813 0.173924
O O15 0.843326 0.390747 0.972173
O O16 0.765307 0.889598 0.959592
#
# Coordination Sequence:
#
# PCOD9340882 Si02
#       8
#     4   4   4   4   4   4   4   4
#     4  11  25  42  71 102 137 191 241 302 372 442
#     4  10  24  43  72 107 144 199 244 309 381 448
#     4  11  25  40  70 104 145 192 234 310 381 443
#     4  11  26  47  70 103 144 191 254 303 363 448
#     4  10  22  40  67 100 147 181 237 294 373 449
#     4  10  22  42  62 102 143 184 235 299 371 447
#     4  11  25  49  70 102 145 195 252 307 363 446
#     4  10  25  43  70 104 141 189 243 308 372 439
#
# _framework density 27.474405000000001
#
# number of rings (size 3 to 8) (size 9 to 14) (size 15 to 20)
#    0.000    1.500    1.250    1.500   12.250    4.000 
#    2.250    0.000    0.000    0.000    0.000    0.000 
#    0.000    0.000    0.000    0.000    0.000    0.000 
#
# Total GULP energy -178278.864722 kJ/mol
# GULP energy per Si atom -5571.214523 kJ/mol
# Density = 2.741187 g / cm^3
# Si number density = 27.474405 Si / 1000 Ang^3
#
#
#
# Elastic Constant Matrix: (Units=GPa)
#
#
# Indices 1 2 3 4 5 6 
#
# 1 69.6885 20.1930 14.9163 0.0000 0.0000 0.0000
# 2 20.1930 82.7670 5.4156 0.0000 0.0000 0.0000
# 3 14.9163 5.4156 72.6611 0.0000 0.0000 0.0000
# 4 0.0000 0.0000 0.0000 33.9719 0.0000 0.0000
# 5 0.0000 0.0000 0.0000 0.0000 26.8810 0.0000
# 6 0.0000 0.0000 0.0000 0.0000 0.0000 30.6682
#
#
#
# Elastic Compliance Matrix: (Units=1/GPa)
#
#
# Indices 1 2 3 4 5 6 
#
# 1 0.016076 -0.003724 -0.003023 0.000000 0.000000 0.000000
# 2 -0.003724 0.013004 -0.000205 0.000000 0.000000 0.000000
# 3 -0.003023 -0.000205 0.014398 0.000000 0.000000 0.000000
# 4 0.000000 0.000000 0.000000 0.029436 0.000000 0.000000
# 5 0.000000 0.000000 0.000000 0.000000 0.037201 0.000000
# 6 0.000000 0.000000 0.000000 0.000000 0.000000 0.032607
#
#
# Mechanical properties :
#
#
# Convention : Reuss Voigt Hill
#
# Bulk Modulus (GPa) = 33.81225 34.01849 33.91537
# Shear Modulus (GPa) = 30.03302 30.61036 30.32169
#
# Velocity S-wave (km/s) = 3.30983 3.34150 3.32570
# Velocity P-wave (km/s) = 5.19040 5.22458 5.20752
#
# Compressibility (1/GPa) = 0.02957508
#
# Stress axis : x y z
#
# Youngs Moduli (GPa) = 62.20583 76.89862 69.45289
#
# Poissons Ratio (x) = 0.28639 0.20992
# Poissons Ratio (y) = 0.23167 0.01422
# Poissons Ratio (z) = 0.18802 0.01574
#
# Static dielectric constant tensor:
#      x y z
#    x 2.237190 0.000000 0.000000 
#    y 0.000000 2.370550 0.000000 
#    z 0.000000 0.000000 2.173950 
# 
# From -- ./inp_files/5705.got.cif
#   From: 2010.05.17/outbox.cif.g08.bks.cpg/sg29_3_cif.got.tgz:5705.got - 2010.06.04 01:19:37.
