data_PCOD9340070
_publ_section_title
;
Structure prediction by ZEFSAII (Michael W. Deem and Ramdas Pophale) SiO2 
 PCOD9340070
Probable space group: P C A 21
;
_chemical_formula_sum "Si O2"
_cell_formula_units_Z 32
_cell_length_a 16.370302
_cell_length_b 5.492948
_cell_length_c 13.838067
_cell_angle_alpha 90.000000
_cell_angle_beta 90.000000
_cell_angle_gamma 90.000000
_cell_volume 1244.335834
_symmetry_space_group_name_H-M "P C A 21"
_symmetry_group_IT_number 29
_symmetry_cell_setting 'orthorhombic'
loop_
_space_group_symop_operation_xyz
x,y,z
-x,-y,1/2+z
1/2-x,y,1/2+z
1/2+x,-y,z
loop_
_atom_site_type_symbol
_atom_site_label
_atom_site_fract_x
_atom_site_fract_y
_atom_site_fract_z
Si Si1 0.263080 0.432324 0.972400
Si Si2 0.688699 0.164582 0.338594
Si Si3 0.828645 0.785439 0.318865
Si Si4 0.098055 0.949087 0.663722
Si Si5 0.036004 0.798228 0.054211
Si Si6 0.428066 0.205479 0.877420
Si Si7 0.731080 0.398363 0.676942
Si Si8 0.441458 0.301069 0.648420
O O1 0.184385 0.299457 0.927093
O O2 0.350663 0.331658 0.932871
O O3 0.264887 0.701682 0.925577
O O4 0.256678 0.433463 0.085983
O O5 0.744106 0.936309 0.306605
O O6 0.600505 0.077273 0.371377
O O7 0.693054 0.331615 0.244484
O O8 0.897258 0.956634 0.274052
O O9 0.825020 0.546937 0.252327
O O10 0.053405 0.157119 0.603688
O O11 0.186793 0.846362 0.640002
O O12 0.039919 0.723057 0.643584
O O13 0.076232 0.552767 0.094145
O O14 0.009600 0.771927 0.941889
O O15 0.081831 0.044318 0.093696
O O16 0.428577 0.284809 0.764730
#
# Coordination Sequence:
#
# PCOD9340070 Si02
#       8
#     4   4   4   4   4   4   4   4
#     4  10  20  32  62  90 120 164 215 260 330 396
#     4   9  21  35  57  93 119 166 205 280 317 397
#     4   9  18  33  53  84 122 154 206 253 323 379
#     4   9  18  34  60  80 124 153 212 258 317 367
#     4  10  23  40  64  97 116 169 220 267 325 381
#     4  11  22  39  67  87 130 169 225 270 339 396
#     4  10  18  35  61  90 126 158 219 263 322 393
#     4  10  24  38  64  93 127 163 224 277 319 387
#
# _framework density 25.716531
#
# number of rings (size 3 to 8) (size 9 to 14) (size 15 to 20)
#    0.750    1.500    0.000    3.000    3.500    3.000 
#    0.000    0.000   19.250    0.000    0.000    0.000 
#    0.000    0.000    0.000    0.000    0.000    0.000 
#
# Total GULP energy -178308.279904 kJ/mol
# GULP energy per Si atom -5572.133747 kJ/mol
# Density = 2.565800 g / cm^3
# Si number density = 25.716531 Si / 1000 Ang^3
#
#
#
# Elastic Constant Matrix: (Units=GPa)
#
#
# Indices 1 2 3 4 5 6 
#
# 1 20.6991 15.7100 5.8008 0.0000 0.0000 0.0000
# 2 15.7100 117.4358 50.8542 0.0000 0.0000 0.0000
# 3 5.8008 50.8542 125.4275 0.0000 0.0000 0.0000
# 4 0.0000 0.0000 0.0000 31.2723 0.0000 0.0000
# 5 0.0000 0.0000 0.0000 0.0000 37.6353 0.0000
# 6 0.0000 0.0000 0.0000 0.0000 0.0000 24.5907
#
#
#
# Elastic Compliance Matrix: (Units=1/GPa)
#
#
# Indices 1 2 3 4 5 6 
#
# 1 0.053799 -0.007423 0.000521 0.000000 0.000000 0.000000
# 2 -0.007423 0.011353 -0.004260 0.000000 0.000000 0.000000
# 3 0.000521 -0.004260 0.009676 0.000000 0.000000 0.000000
# 4 0.000000 0.000000 0.000000 0.031977 0.000000 0.000000
# 5 0.000000 0.000000 0.000000 0.000000 0.026571 0.000000
# 6 0.000000 0.000000 0.000000 0.000000 0.000000 0.040666
#
#
# Mechanical properties :
#
#
# Convention : Reuss Voigt Hill
#
# Bulk Modulus (GPa) = 19.04572 45.36584 32.20578
# Shear Modulus (GPa) = 23.37925 31.44614 27.41270
#
# Velocity S-wave (km/s) = 3.01842 3.50065 3.26844
# Velocity P-wave (km/s) = 4.42379 5.83253 5.17631
#
# Compressibility (1/GPa) = 0.05250525
#
# Stress axis : x y z
#
# Youngs Moduli (GPa) = 18.58782 88.08329 103.35164
#
# Poissons Ratio (x) = 0.65382 -0.05389
# Poissons Ratio (y) = 0.13797 0.44025
# Poissons Ratio (z) = -0.00969 0.37521
#
# Static dielectric constant tensor:
#      x y z
#    x 2.013190 0.000000 0.000000 
#    y 0.000000 2.109290 0.000000 
#    z 0.000000 0.000000 2.034720 
# 
# From -- ./inp_files/4865.got.cif
#   From: 2010.05.17/outbox.cif.g08.bks.cpg/sg29_3_cif.got.tgz:4865.got - 2010.06.04 01:19:37.
