data_PCOD9340727
_publ_section_title
;
Structure prediction by ZEFSAII (Michael W. Deem and Ramdas Pophale) SiO2 
 PCOD9340727
Probable space group: P C A 21
;
_chemical_formula_sum "Si O2"
_cell_formula_units_Z 28
_cell_length_a 17.957105
_cell_length_b 6.790152
_cell_length_c 9.160229
_cell_angle_alpha 90.000000
_cell_angle_beta 90.000000
_cell_angle_gamma 90.000000
_cell_volume 1116.920210
_symmetry_space_group_name_H-M "P C A 21"
_symmetry_group_IT_number 29
_symmetry_cell_setting 'orthorhombic'
loop_
_space_group_symop_operation_xyz
x,y,z
-x,-y,1/2+z
1/2-x,y,1/2+z
1/2+x,-y,z
loop_
_atom_site_type_symbol
_atom_site_label
_atom_site_fract_x
_atom_site_fract_y
_atom_site_fract_z
Si Si1 0.468172 0.409680 0.447270
Si Si2 0.380336 0.790111 0.421881
Si Si3 0.784706 0.354330 0.982563
Si Si4 0.537145 0.911606 0.719245
Si Si5 0.084971 0.898175 0.440107
Si Si6 0.258638 0.383731 0.264871
Si Si7 0.337726 0.182937 0.543101
O O1 0.449280 0.304195 0.290157
O O2 0.547963 0.316224 0.481063
O O3 0.411692 0.312180 0.562609
O O4 0.445719 0.634173 0.445456
O O5 0.302099 0.673612 0.432747
O O6 0.363201 0.960475 0.536056
O O7 0.406584 0.924947 0.286911
O O8 0.828712 0.150724 0.959854
O O9 0.789211 0.459812 0.140851
O O10 0.806995 0.505245 0.854281
O O11 0.552527 0.941513 0.551064
O O12 0.455361 0.949410 0.788122
O O13 0.303938 0.267240 0.390315
O O14 0.222839 0.217507 0.164380
#
# Coordination Sequence:
#
# PCOD9340727 Si02
#       7
#     4   4   4   4   4   4   4
#     4   9  21  46  68  96 143 190 223 292 363 427
#     4  11  21  45  72  97 139 198 225 295 362 438
#     4  11  23  42  74 106 138 185 251 290 367 433
#     4   9  23  45  72 103 146 185 243 289 377 422
#     4  10  23  47  69 111 139 192 242 300 360 444
#     4  10  21  42  67 106 137 179 238 310 349 430
#     4  10  22  43  68  97 138 183 230 294 362 418
#
# _framework density 25.068936000000001
#
# number of rings (size 3 to 8) (size 9 to 14) (size 15 to 20)
#    0.857    1.143    2.857    0.857    0.000    4.571 
#    7.714    1.429    0.000    0.000    7.429    0.000 
#    0.000    0.000    0.000    0.000    0.000    0.000 
#
# Total GULP energy -155988.984128 kJ/mol
# GULP energy per Si atom -5571.035147 kJ/mol
# Density = 2.501188 g / cm^3
# Si number density = 25.068936 Si / 1000 Ang^3
#
#
#
# Elastic Constant Matrix: (Units=GPa)
#
#
# Indices 1 2 3 4 5 6 
#
# 1 65.4935 17.9199 38.2343 0.0000 0.0000 0.0000
# 2 17.9199 126.5079 25.8503 0.0000 0.0000 0.0000
# 3 38.2343 25.8503 124.1809 0.0000 0.0000 0.0000
# 4 0.0000 0.0000 0.0000 4.1203 0.0000 0.0000
# 5 0.0000 0.0000 0.0000 0.0000 -5.3944 0.0000
# 6 0.0000 0.0000 0.0000 0.0000 0.0000 32.5389
#
#
#
# Elastic Compliance Matrix: (Units=1/GPa)
#
#
# Indices 1 2 3 4 5 6 
#
# 1 0.018903 -0.001554 -0.005496 0.000000 0.000000 0.000000
# 2 -0.001554 0.008384 -0.001267 0.000000 0.000000 0.000000
# 3 -0.005496 -0.001267 0.010009 0.000000 0.000000 0.000000
# 4 0.000000 0.000000 0.000000 0.242699 0.000000 0.000000
# 5 0.000000 0.000000 0.000000 0.000000 -0.185379 0.000000
# 6 0.000000 0.000000 0.000000 0.000000 0.000000 0.030732
#
#
# Mechanical properties :
#
#
# Convention : Reuss Voigt Hill
#
# Bulk Modulus (GPa) = 48.40226 53.35458 50.87842
# Shear Modulus (GPa) = 33.58647 21.86483 27.72565
#
# Velocity S-wave (km/s) = 3.66425 2.95649 3.32923
# Velocity P-wave (km/s) = 6.10343 5.74315 5.92603
#
# Compressibility (1/GPa) = 0.02066019
#
# Stress axis : x y z
#
# Youngs Moduli (GPa) = 52.90238 119.27979 99.91274
#
# Poissons Ratio (x) = 0.18542 0.54916
# Poissons Ratio (y) = 0.08223 0.12655
# Poissons Ratio (z) = 0.29077 0.15108
#
# Static dielectric constant tensor:
#      x y z
#    x 2.111530 0.000000 0.000000 
#    y 0.000000 2.152860 0.000000 
#    z 0.000000 0.000000 2.060710 
# 
# From -- ./inp_files/2233.got.cif
#   From: 2010.05.17/outbox.cif.g08.bks.cpg/sg29_2_cif.got.tgz:2233.got - 2010.06.04 01:19:37.
