data_PCOD9340177
_publ_section_title
;
Structure prediction by ZEFSAII (Michael W. Deem and Ramdas Pophale) SiO2 
 PCOD9340177
Probable space group: P C A 21
;
_chemical_formula_sum "Si O2"
_cell_formula_units_Z 32
_cell_length_a 23.039917
_cell_length_b 5.204114
_cell_length_c 13.786932
_cell_angle_alpha 90.000000
_cell_angle_beta 90.000000
_cell_angle_gamma 90.000000
_cell_volume 1653.085610
_symmetry_space_group_name_H-M "P C A 21"
_symmetry_group_IT_number 29
_symmetry_cell_setting 'orthorhombic'
loop_
_space_group_symop_operation_xyz
x,y,z
-x,-y,1/2+z
1/2-x,y,1/2+z
1/2+x,-y,z
loop_
_atom_site_type_symbol
_atom_site_label
_atom_site_fract_x
_atom_site_fract_y
_atom_site_fract_z
Si Si1 0.446247 0.220894 0.680850
Si Si2 0.798992 0.214314 0.540867
Si Si3 0.279100 0.979476 0.329591
Si Si4 0.432466 0.705682 0.555264
Si Si5 0.814291 0.809003 0.714600
Si Si6 0.877193 0.704869 0.270838
Si Si7 0.050414 0.792482 0.829440
Si Si8 0.788285 0.437069 0.168671
O O1 0.458906 0.449768 0.603886
O O2 0.381012 0.259691 0.720616
O O3 0.490844 0.221899 0.769640
O O4 0.445285 0.948309 0.624818
O O5 0.792574 0.147416 0.429883
O O6 0.862442 0.344279 0.551683
O O7 0.738316 0.349918 0.567559
O O8 0.804025 0.975185 0.616269
O O9 0.300283 0.805297 0.238731
O O10 0.212295 0.033050 0.304669
O O11 0.319004 0.234419 0.332053
O O12 0.452808 0.783517 0.446802
O O13 0.770135 0.572485 0.709243
O O14 0.913124 0.461278 0.304058
O O15 0.844318 0.621599 0.171002
O O16 0.916576 0.954476 0.288594
#
# Coordination Sequence:
#
# PCOD9340177 Si02
#       8
#     4   4   4   4   4   4   4   4
#     4  11  24  43  65  91 130 167 213 274 317 370
#     4  10  19  35  62  95 121 165 208 260 307 385
#     4  10  20  36  62  95 126 160 205 264 314 379
#     4  11  22  40  66  98 117 165 230 257 311 391
#     4   9  21  35  59  89 127 159 206 256 320 376
#     4  11  21  38  61  96 124 163 208 263 317 376
#     4  12  24  41  70  92 128 172 216 270 319 372
#     4  10  19  36  61  90 131 155 204 260 325 367
#
# _framework density 19.357737
#
# number of rings (size 3 to 8) (size 9 to 14) (size 15 to 20)
#    0.000    1.500    3.750    1.500    1.750    2.000 
#    0.000    1.250   11.000    0.000    0.000    0.000 
#    0.000    0.000    0.000    0.000    0.000    0.000 
#
# Total GULP energy -178203.462830 kJ/mol
# GULP energy per Si atom -5568.858213 kJ/mol
# Density = 1.931368 g / cm^3
# Si number density = 19.357737 Si / 1000 Ang^3
#
#
#
# Elastic Constant Matrix: (Units=GPa)
#
#
# Indices 1 2 3 4 5 6 
#
# 1 87.3426 26.4726 38.2561 0.0000 0.0000 0.0000
# 2 26.4726 81.7019 1.1288 0.0000 0.0000 0.0000
# 3 38.2561 1.1288 49.7143 0.0000 0.0000 0.0000
# 4 0.0000 0.0000 0.0000 14.4196 0.0000 0.0000
# 5 0.0000 0.0000 0.0000 0.0000 22.9758 0.0000
# 6 0.0000 0.0000 0.0000 0.0000 0.0000 26.9133
#
#
#
# Elastic Compliance Matrix: (Units=1/GPa)
#
#
# Indices 1 2 3 4 5 6 
#
# 1 0.020049 -0.006285 -0.015285 0.000000 0.000000 0.000000
# 2 -0.006285 0.014214 0.004514 0.000000 0.000000 0.000000
# 3 -0.015285 0.004514 0.031775 0.000000 0.000000 0.000000
# 4 0.000000 0.000000 0.000000 0.069350 0.000000 0.000000
# 5 0.000000 0.000000 0.000000 0.000000 0.043524 0.000000
# 6 0.000000 0.000000 0.000000 0.000000 0.000000 0.037156
#
#
# Mechanical properties :
#
#
# Convention : Reuss Voigt Hill
#
# Bulk Modulus (GPa) = 31.32427 38.94155 35.13291
# Shear Modulus (GPa) = 19.17007 23.05515 21.11261
#
# Velocity S-wave (km/s) = 3.15033 3.45484 3.30609
# Velocity P-wave (km/s) = 5.42675 6.00625 5.72384
#
# Compressibility (1/GPa) = 0.03192413
#
# Stress axis : x y z
#
# Youngs Moduli (GPa) = 49.87745 70.35468 31.47139
#
# Poissons Ratio (x) = 0.44218 0.48106
# Poissons Ratio (y) = 0.31348 -0.14205
# Poissons Ratio (z) = 0.76240 -0.31756
#
# Static dielectric constant tensor:
#      x y z
#    x 1.696020 0.000000 0.000000 
#    y 0.000000 1.791380 0.000000 
#    z 0.000000 0.000000 1.700580 
# 
# From -- ./inp_files/3899.got.cif
#   From: 2010.05.17/outbox.cif.g08.bks.cpg/sg29_2_cif.got.tgz:3899.got - 2010.06.04 01:19:37.
