data_PCOD9340118
_publ_section_title
;
Structure prediction by ZEFSAII (Michael W. Deem and Ramdas Pophale) SiO2 
 PCOD9340118
Probable space group: P C A 21
;
_chemical_formula_sum "Si O2"
_cell_formula_units_Z 32
_cell_length_a 26.716768
_cell_length_b 12.159558
_cell_length_c 5.506776
_cell_angle_alpha 90.000000
_cell_angle_beta 90.000000
_cell_angle_gamma 90.000000
_cell_volume 1788.953774
_symmetry_space_group_name_H-M "P C A 21"
_symmetry_group_IT_number 29
_symmetry_cell_setting 'orthorhombic'
loop_
_space_group_symop_operation_xyz
x,y,z
-x,-y,1/2+z
1/2-x,y,1/2+z
1/2+x,-y,z
loop_
_atom_site_type_symbol
_atom_site_label
_atom_site_fract_x
_atom_site_fract_y
_atom_site_fract_z
Si Si1 0.621621 0.713131 0.788000
Si Si2 0.452579 0.445111 0.009811
Si Si3 0.234493 0.529749 0.225046
Si Si4 0.541761 0.885294 0.888425
Si Si5 0.727022 0.719109 0.628795
Si Si6 0.560424 0.369848 0.852385
Si Si7 0.628673 0.526772 0.129328
Si Si8 0.019899 0.861764 0.886260
O O1 0.576942 0.634574 0.692549
O O2 0.594415 0.822497 0.875558
O O3 0.667180 0.733503 0.605214
O O4 0.646857 0.634655 0.988166
O O5 0.509740 0.410974 0.987763
O O6 0.420427 0.433272 0.768867
O O7 0.446816 0.571435 0.092415
O O8 0.260352 0.583944 0.458082
O O9 0.259655 0.410958 0.162671
O O10 0.175795 0.513471 0.282249
O O11 0.510877 0.853969 0.641300
O O12 0.544427 0.017633 0.884417
O O13 0.514691 0.854032 0.143220
O O14 0.753372 0.765060 0.387033
O O15 0.557984 0.239569 0.864379
O O16 0.609042 0.426855 0.964788
#
# Coordination Sequence:
#
# PCOD9340118 Si02
#       8
#     4   4   4   4   4   4   4   4
#     4  11  21  32  55  78 109 141 186 219 273 332
#     4  11  21  32  47  77 111 147 176 213 266 320
#     4  10  19  35  50  70 106 140 174 220 264 321
#     4  10  22  37  58  77  99 149 182 227 258 315
#     4  10  19  32  50  76 107 138 166 224 278 323
#     4  11  22  32  49  76 112 149 174 221 258 326
#     4  11  22  32  51  78 110 147 177 213 277 329
#     4  10  22  40  54  74 110 143 187 217 264 304
#
# _framework density 17.887550000000001
#
# number of rings (size 3 to 8) (size 9 to 14) (size 15 to 20)
#    0.000    1.500    5.000    2.250    5.250    0.000 
#    0.000    0.000    0.000    0.000    0.000    1.750 
#    0.000    0.000    0.000    0.000    0.000    0.000 
#
# Total GULP energy -178245.457520 kJ/mol
# GULP energy per Si atom -5570.170548 kJ/mol
# Density = 1.784684 g / cm^3
# Si number density = 17.887550 Si / 1000 Ang^3
#
#
#
# Elastic Constant Matrix: (Units=GPa)
#
#
# Indices 1 2 3 4 5 6 
#
# 1 81.7777 15.7366 9.7357 0.0000 0.0000 0.0000
# 2 15.7366 72.2150 6.7919 0.0000 0.0000 0.0000
# 3 9.7357 6.7919 87.1566 0.0000 0.0000 0.0000
# 4 0.0000 0.0000 0.0000 8.0071 0.0000 0.0000
# 5 0.0000 0.0000 0.0000 0.0000 -4.3498 0.0000
# 6 0.0000 0.0000 0.0000 0.0000 0.0000 5.6269
#
#
#
# Elastic Compliance Matrix: (Units=1/GPa)
#
#
# Indices 1 2 3 4 5 6 
#
# 1 0.012893 -0.002694 -0.001230 0.000000 0.000000 0.000000
# 2 -0.002694 0.014513 -0.000830 0.000000 0.000000 0.000000
# 3 -0.001230 -0.000830 0.011676 0.000000 0.000000 0.000000
# 4 0.000000 0.000000 0.000000 0.124888 0.000000 0.000000
# 5 0.000000 0.000000 0.000000 0.000000 -0.229897 0.000000
# 6 0.000000 0.000000 0.000000 0.000000 0.000000 0.177718
#
#
# Mechanical properties :
#
#
# Convention : Reuss Voigt Hill
#
# Bulk Modulus (GPa) = 33.81449 33.96419 33.88934
# Shear Modulus (GPa) = 38.12202 15.78252 26.95227
#
# Velocity S-wave (km/s) = 4.62150 2.97361 3.88591
# Velocity P-wave (km/s) = 6.88641 5.55145 6.25465
#
# Compressibility (1/GPa) = 0.02957312
#
# Stress axis : x y z
#
# Youngs Moduli (GPa) = 77.56073 68.90547 85.64791
#
# Poissons Ratio (x) = 0.18562 0.10537
# Poissons Ratio (y) = 0.20894 0.07109
# Poissons Ratio (z) = 0.09542 0.05719
#
# Static dielectric constant tensor:
#      x y z
#    x 1.618630 0.000000 0.000000 
#    y 0.000000 1.593620 0.000000 
#    z 0.000000 0.000000 1.758770 
# 
# From -- ./inp_files/694.got.cif
#   From: 2010.05.17/outbox.cif.g08.bks.cpg/sg29_1_cif.got.tgz:694.got - 2010.06.04 01:19:37.
