data_PCOD9340229
_publ_section_title
;
Structure prediction by ZEFSAII (Michael W. Deem and Ramdas Pophale) SiO2 
 PCOD9340229
Probable space group: P C A 21
;
_chemical_formula_sum "Si O2"
_cell_formula_units_Z 32
_cell_length_a 9.142580
_cell_length_b 11.328730
_cell_length_c 13.688894
_cell_angle_alpha 90.000000
_cell_angle_beta 90.000000
_cell_angle_gamma 90.000000
_cell_volume 1417.811048
_symmetry_space_group_name_H-M "P C A 21"
_symmetry_group_IT_number 29
_symmetry_cell_setting 'orthorhombic'
loop_
_space_group_symop_operation_xyz
x,y,z
-x,-y,1/2+z
1/2-x,y,1/2+z
1/2+x,-y,z
loop_
_atom_site_type_symbol
_atom_site_label
_atom_site_fract_x
_atom_site_fract_y
_atom_site_fract_z
Si Si1 0.966440 0.231055 0.775760
Si Si2 0.483384 0.033373 0.798403
Si Si3 0.263489 0.999792 0.437648
Si Si4 0.804097 0.248095 0.986301
Si Si5 0.959572 0.344623 0.583336
Si Si6 0.776029 0.744167 0.984750
Si Si7 0.318672 0.265702 0.770902
Si Si8 0.540814 0.612920 0.093662
O O1 0.898955 0.309007 0.689636
O O2 0.141807 0.257047 0.777764
O O3 0.885533 0.250629 0.880387
O O4 0.958228 0.092447 0.749347
O O5 0.649124 0.036165 0.838417
O O6 0.404294 0.142839 0.746695
O O7 0.401080 0.025241 0.902881
O O8 0.253709 0.885172 0.503711
O O9 0.305825 0.128678 0.477986
O O10 0.660952 0.327814 0.999714
O O11 0.913442 0.295625 0.068268
O O12 0.096034 0.258198 0.563864
O O13 0.011100 0.479311 0.586479
O O14 0.854762 0.712844 0.883718
O O15 0.662505 0.643693 0.012941
O O16 0.380254 0.359988 0.695967
#
# Coordination Sequence:
#
# PCOD9340229 Si02
#       8
#     4   4   4   4   4   4   4   4
#     4  11  23  47  70 101 143 185 226 294 365 416
#     4  10  19  38  72 104 136 172 225 286 352 441
#     4  10  20  39  70 105 135 172 226 283 356 433
#     4  11  25  45  70 107 140 179 235 303 350 423
#     4  12  28  44  70 104 142 186 251 291 337 428
#     4  11  22  46  73  99 139 188 225 293 372 412
#     4  11  23  44  73 100 140 191 225 290 368 416
#     4  12  26  45  68 100 141 189 249 288 338 427
#
# _framework density 22.570004999999998
#
# number of rings (size 3 to 8) (size 9 to 14) (size 15 to 20)
#    0.000    1.000    5.000    3.000    0.000    7.000 
#    0.000    0.000    0.000    0.000    0.000    0.000 
#    0.000    0.000    0.000    0.000    0.000    0.000 
#
# Total GULP energy -178470.684521 kJ/mol
# GULP energy per Si atom -5577.208891 kJ/mol
# Density = 2.251863 g / cm^3
# Si number density = 22.570005 Si / 1000 Ang^3
#
#
#
# Elastic Constant Matrix: (Units=GPa)
#
#
# Indices 1 2 3 4 5 6 
#
# 1 77.7899 13.6311 16.0027 0.0000 0.0000 0.0000
# 2 13.6311 97.8176 32.8187 0.0000 0.0000 0.0000
# 3 16.0027 32.8187 73.4736 0.0000 0.0000 0.0000
# 4 0.0000 0.0000 0.0000 21.9451 0.0000 0.0000
# 5 0.0000 0.0000 0.0000 0.0000 32.5838 0.0000
# 6 0.0000 0.0000 0.0000 0.0000 0.0000 27.8782
#
#
#
# Elastic Compliance Matrix: (Units=1/GPa)
#
#
# Indices 1 2 3 4 5 6 
#
# 1 0.013550 -0.001056 -0.002479 0.000000 0.000000 0.000000
# 2 -0.001056 0.012108 -0.005178 0.000000 0.000000 0.000000
# 3 -0.002479 -0.005178 0.016463 0.000000 0.000000 0.000000
# 4 0.000000 0.000000 0.000000 0.045568 0.000000 0.000000
# 5 0.000000 0.000000 0.000000 0.000000 0.030690 0.000000
# 6 0.000000 0.000000 0.000000 0.000000 0.000000 0.035870
#
#
# Mechanical properties :
#
#
# Convention : Reuss Voigt Hill
#
# Bulk Modulus (GPa) = 40.49663 41.55401 41.02532
# Shear Modulus (GPa) = 27.79187 28.92333 28.35760
#
# Velocity S-wave (km/s) = 3.51289 3.58368 3.54846
# Velocity P-wave (km/s) = 5.86817 5.96446 5.91651
#
# Compressibility (1/GPa) = 0.02469341
#
# Stress axis : x y z
#
# Youngs Moduli (GPa) = 73.79907 82.59264 60.74132
#
# Poissons Ratio (x) = 0.08725 0.15060
# Poissons Ratio (y) = 0.07796 0.31452
# Poissons Ratio (z) = 0.18298 0.42767
#
# Static dielectric constant tensor:
#      x y z
#    x 1.867850 0.000000 0.000000 
#    y 0.000000 1.850060 0.000000 
#    z 0.000000 0.000000 1.864660 
# 
# From -- ./inp_files/4317.got.cif
#   From: 2010.05.17/outbox.cif.g08.bks.cpg/sg29_3_cif.got.tgz:4317.got - 2010.06.04 01:19:37.
