data_PCOD9340810
_publ_section_title
;
Structure prediction by ZEFSAII (Michael W. Deem and Ramdas Pophale) SiO2 
 PCOD9340810
Probable space group: P C A 21
;
_chemical_formula_sum "Si O2"
_cell_formula_units_Z 28
_cell_length_a 8.346033
_cell_length_b 17.022250
_cell_length_c 8.500001
_cell_angle_alpha 90.000000
_cell_angle_beta 90.000000
_cell_angle_gamma 90.000000
_cell_volume 1207.580354
_symmetry_space_group_name_H-M "P C A 21"
_symmetry_group_IT_number 29
_symmetry_cell_setting 'orthorhombic'
loop_
_space_group_symop_operation_xyz
x,y,z
-x,-y,1/2+z
1/2-x,y,1/2+z
1/2+x,-y,z
loop_
_atom_site_type_symbol
_atom_site_label
_atom_site_fract_x
_atom_site_fract_y
_atom_site_fract_z
Si Si1 0.595554 0.573791 0.612440
Si Si2 0.837335 0.245206 0.127918
Si Si3 0.185199 0.030085 0.056272
Si Si4 0.983987 0.927068 0.253396
Si Si5 0.703123 0.138665 0.873232
Si Si6 0.586709 0.338681 0.341572
Si Si7 0.302591 0.516609 0.407808
O O1 0.559027 0.649365 0.719941
O O2 0.434911 0.558235 0.514107
O O3 0.630690 0.504397 0.737153
O O4 0.740699 0.563317 0.490996
O O5 0.910679 0.175885 0.238583
O O6 0.734728 0.301320 0.241943
O O7 0.717384 0.202787 0.006934
O O8 0.946073 0.292454 0.003679
O O9 0.100226 0.078408 0.921680
O O10 0.194532 0.945080 0.963250
O O11 0.347602 0.069402 0.119284
O O12 0.078667 0.007994 0.208789
O O13 0.128562 0.867232 0.278719
O O14 0.653013 0.424501 0.390266
#
# Coordination Sequence:
#
# PCOD9340810 Si02
#       7
#     4   4   4   4   4   4   4
#     4  12  22  38  61  98 132 159 207 263 338 377
#     4  10  22  38  60  88 120 172 214 254 280 392
#     4  12  22  38  63  98 129 161 201 274 333 380
#     4  12  22  38  61  98 132 159 207 263 338 377
#     4  11  21  38  62  93 123 159 217 254 311 369
#     4  11  21  38  62  93 123 159 217 254 311 369
#     4  12  22  38  63  98 129 161 201 274 333 380
#
# _framework density 23.186862000000001
#
# number of rings (size 3 to 8) (size 9 to 14) (size 15 to 20)
#    0.000    0.571    8.571    0.000    0.000    0.000 
#    0.000    0.000    0.000    6.857    0.000    0.000 
#    0.000    0.000    0.000    0.000    0.000    0.000 
#
# Total GULP energy -155954.579028 kJ/mol
# GULP energy per Si atom -5569.806394 kJ/mol
# Density = 2.313409 g / cm^3
# Si number density = 23.186862 Si / 1000 Ang^3
#
#
#
# Elastic Constant Matrix: (Units=GPa)
#
#
# Indices 1 2 3 4 5 6 
#
# 1 42.4816 -6.6165 18.6405 0.0000 0.0000 0.0000
# 2 -6.6165 41.8157 13.0688 0.0000 0.0000 0.0000
# 3 18.6405 13.0688 117.4929 0.0000 0.0000 0.0000
# 4 0.0000 0.0000 0.0000 41.6332 0.0000 0.0000
# 5 0.0000 0.0000 0.0000 0.0000 46.3515 0.0000
# 6 0.0000 0.0000 0.0000 0.0000 0.0000 16.2706
#
#
#
# Elastic Compliance Matrix: (Units=1/GPa)
#
#
# Indices 1 2 3 4 5 6 
#
# 1 0.026558 0.005718 -0.004850 0.000000 0.000000 0.000000
# 2 0.005718 0.026007 -0.003800 0.000000 0.000000 0.000000
# 3 -0.004850 -0.003800 0.009703 0.000000 0.000000 0.000000
# 4 0.000000 0.000000 0.000000 0.024019 0.000000 0.000000
# 5 0.000000 0.000000 0.000000 0.000000 0.021574 0.000000
# 6 0.000000 0.000000 0.000000 0.000000 0.000000 0.061461
#
#
# Mechanical properties :
#
#
# Convention : Reuss Voigt Hill
#
# Bulk Modulus (GPa) = 17.72888 27.99730 22.86309
# Shear Modulus (GPa) = 25.77495 32.63090 29.20292
#
# Velocity S-wave (km/s) = 3.33771 3.75547 3.55274
# Velocity P-wave (km/s) = 4.74515 5.55928 5.16827
#
# Compressibility (1/GPa) = 0.05640514
#
# Stress axis : x y z
#
# Youngs Moduli (GPa) = 37.65331 38.45149 103.05875
#
# Poissons Ratio (x) = -0.21986 0.49978
# Poissons Ratio (y) = -0.21530 0.39161
# Poissons Ratio (z) = 0.18260 0.14611
#
# Static dielectric constant tensor:
#      x y z
#    x 1.896950 0.000000 0.000000 
#    y 0.000000 1.955170 0.000000 
#    z 0.000000 0.000000 1.931090 
# 
# From -- ./inp_files/1214.got.cif
#   From: 2010.05.17/outbox.cif.g08.bks.cpg/sg29_1_cif.got.tgz:1214.got - 2010.06.04 01:19:37.
