data_PCOD9340379
_publ_section_title
;
Structure prediction by ZEFSAII (Michael W. Deem and Ramdas Pophale) SiO2 
 PCOD9340379
Probable space group: P C A 21
;
_chemical_formula_sum "Si O2"
_cell_formula_units_Z 24
_cell_length_a 16.247010
_cell_length_b 4.787148
_cell_length_c 14.941564
_cell_angle_alpha 90.000000
_cell_angle_beta 90.000000
_cell_angle_gamma 90.000000
_cell_volume 1162.107654
_symmetry_space_group_name_H-M "P C A 21"
_symmetry_group_IT_number 29
_symmetry_cell_setting 'orthorhombic'
loop_
_space_group_symop_operation_xyz
x,y,z
-x,-y,1/2+z
1/2-x,y,1/2+z
1/2+x,-y,z
loop_
_atom_site_type_symbol
_atom_site_label
_atom_site_fract_x
_atom_site_fract_y
_atom_site_fract_z
Si Si1 0.663048 0.481162 0.218930
Si Si2 0.666004 0.981115 0.344950
Si Si3 0.274867 0.799879 0.081327
Si Si4 0.062942 0.077048 0.522766
Si Si5 0.287708 0.295604 0.476344
Si Si6 0.549042 0.576524 0.051555
O O1 0.660870 0.790758 0.257322
O O2 0.743878 0.362516 0.168467
O O3 0.592793 0.476684 0.142855
O O4 0.656933 0.290201 0.306729
O O5 0.749680 0.870399 0.392995
O O6 0.597150 0.944849 0.421584
O O7 0.361898 0.956742 0.082006
O O8 0.270432 0.554865 0.005981
O O9 0.214287 0.054281 0.052986
O O10 0.985044 0.888249 0.546974
O O11 0.030744 0.387721 0.536181
O O12 0.378417 0.427787 0.476812
#
# Coordination Sequence:
#
# PCOD9340379 Si02
#       6
#     4   4   4   4   4   4
#     4  11  22  39  61  88 118 156 204 258 303 354
#     4  11  22  39  61  88 118 156 204 258 303 354
#     4  10  20  38  61  84 114 160 206 241 297 382
#     4  11  22  39  62  88 122 164 203 249 314 384
#     4  10  20  38  61  84 114 160 206 241 297 382
#     4  11  22  39  62  88 122 164 203 249 314 384
#
# _framework density 20.652132000000002
#
# number of rings (size 3 to 8) (size 9 to 14) (size 15 to 20)
#    0.000    1.333    0.000   10.000    0.000    0.000 
#    0.000   10.000    0.000    0.000    0.000    0.000 
#    0.000    0.000    0.000    0.000    0.000    0.000 
#
# Total GULP energy -133780.563070 kJ/mol
# GULP energy per Si atom -5574.190128 kJ/mol
# Density = 2.060513 g / cm^3
# Si number density = 20.652132 Si / 1000 Ang^3
#
#
#
# Elastic Constant Matrix: (Units=GPa)
#
#
# Indices 1 2 3 4 5 6 
#
# 1 91.7510 -4.8472 18.0421 0.0000 0.0000 0.0000
# 2 -4.8472 73.5215 -7.0280 0.0000 0.0000 0.0000
# 3 18.0421 -7.0280 83.5309 0.0000 0.0000 0.0000
# 4 0.0000 0.0000 0.0000 49.4358 0.0000 0.0000
# 5 0.0000 0.0000 0.0000 0.0000 31.1510 0.0000
# 6 0.0000 0.0000 0.0000 0.0000 0.0000 40.4082
#
#
#
# Elastic Compliance Matrix: (Units=1/GPa)
#
#
# Indices 1 2 3 4 5 6 
#
# 1 0.011402 0.000520 -0.002419 0.000000 0.000000 0.000000
# 2 0.000520 0.013736 0.001043 0.000000 0.000000 0.000000
# 3 -0.002419 0.001043 0.012582 0.000000 0.000000 0.000000
# 4 0.000000 0.000000 0.000000 0.020228 0.000000 0.000000
# 5 0.000000 0.000000 0.000000 0.000000 0.032102 0.000000
# 6 0.000000 0.000000 0.000000 0.000000 0.000000 0.024747
#
#
# Mechanical properties :
#
#
# Convention : Reuss Voigt Hill
#
# Bulk Modulus (GPa) = 27.77078 29.01525 28.39301
# Shear Modulus (GPa) = 38.90731 40.37478 39.64104
#
# Velocity S-wave (km/s) = 4.34514 4.42633 4.38592
# Velocity P-wave (km/s) = 6.21690 6.34060 6.27905
#
# Compressibility (1/GPa) = 0.03600907
#
# Stress axis : x y z
#
# Youngs Moduli (GPa) = 87.70208 72.80402 79.47936
#
# Poissons Ratio (x) = -0.03789 0.19226
# Poissons Ratio (y) = -0.04565 -0.08292
# Poissons Ratio (z) = 0.21215 -0.07595
#
# Static dielectric constant tensor:
#      x y z
#    x 1.759770 0.000000 0.000000 
#    y 0.000000 1.757020 0.000000 
#    z 0.000000 0.000000 1.750820 
# 
# From -- ./inp_files/4632.got.cif
#   From: 2010.05.17/outbox.cif.g08.bks.cpg/sg29_3_cif.got.tgz:4632.got - 2010.06.04 01:19:37.
