data_PCOD9340667
_publ_section_title
;
Structure prediction by ZEFSAII (Michael W. Deem and Ramdas Pophale) SiO2 
 PCOD9340667
Probable space group: P C A 21
;
_chemical_formula_sum "Si O2"
_cell_formula_units_Z 32
_cell_length_a 5.218954
_cell_length_b 18.195346
_cell_length_c 13.416690
_cell_angle_alpha 90.000000
_cell_angle_beta 90.000000
_cell_angle_gamma 90.000000
_cell_volume 1274.057922
_symmetry_space_group_name_H-M "P C A 21"
_symmetry_group_IT_number 29
_symmetry_cell_setting 'orthorhombic'
loop_
_space_group_symop_operation_xyz
x,y,z
-x,-y,1/2+z
1/2-x,y,1/2+z
1/2+x,-y,z
loop_
_atom_site_type_symbol
_atom_site_label
_atom_site_fract_x
_atom_site_fract_y
_atom_site_fract_z
Si Si1 0.350583 0.132419 0.328520
Si Si2 0.160626 0.543704 0.279717
Si Si3 0.647689 0.643139 0.634709
Si Si4 0.957303 0.041333 0.658165
Si Si5 0.341271 0.898711 0.450147
Si Si6 0.803022 0.265020 0.490072
Si Si7 0.849275 0.707659 0.820641
Si Si8 0.567943 0.606018 0.965341
O O1 0.424748 0.110886 0.215991
O O2 0.574194 0.092064 0.391814
O O3 0.331814 0.221078 0.336983
O O4 0.076239 0.107714 0.372334
O O5 0.946065 0.481914 0.259471
O O6 0.067622 0.609047 0.207674
O O7 0.129139 0.559752 0.398880
O O8 0.520853 0.701720 0.560725
O O9 0.843720 0.684816 0.707026
O O10 0.775431 0.581762 0.562270
O O11 0.937893 0.050232 0.539308
O O12 0.166920 0.979359 0.686469
O O13 0.283488 0.820980 0.506291
O O14 0.571572 0.320316 0.503083
O O15 0.887951 0.271894 0.373981
O O16 0.758715 0.635842 0.880752
#
# Coordination Sequence:
#
# PCOD9340667 Si02
#       8
#     4   4   4   4   4   4   4   4
#     4  11  23  44  69  99 134 180 224 281 344 412
#     4  11  28  46  66  93 136 181 226 274 329 404
#     4  10  23  40  67  97 129 173 219 276 340 405
#     4  12  27  45  66 100 138 184 240 282 331 409
#     4  11  24  44  71  99 138 179 226 285 352 405
#     4  10  21  40  67  99 132 167 221 285 347 404
#     4   9  20  40  62  98 132 165 213 279 345 404
#     4  10  22  41  68  95 131 171 221 282 340 403
#
# _framework density 25.116596999999999
#
# number of rings (size 3 to 8) (size 9 to 14) (size 15 to 20)
#    0.000    1.500    1.250    2.250    7.000    5.000 
#    6.750    0.000    0.000    0.000    0.000    0.000 
#    0.000    0.000    0.000    0.000    0.000    0.000 
#
# Total GULP energy -178813.053725 kJ/mol
# GULP energy per Si atom -5587.907929 kJ/mol
# Density = 2.505943 g / cm^3
# Si number density = 25.116597 Si / 1000 Ang^3
#
#
#
# Elastic Constant Matrix: (Units=GPa)
#
#
# Indices 1 2 3 4 5 6 
#
# 1 113.6147 14.0362 29.2519 0.0000 0.0000 0.0000
# 2 14.0362 38.4031 13.0599 0.0000 0.0000 0.0000
# 3 29.2519 13.0599 125.7352 0.0000 0.0000 0.0000
# 4 0.0000 0.0000 0.0000 34.4186 0.0000 0.0000
# 5 0.0000 0.0000 0.0000 0.0000 30.4502 0.0000
# 6 0.0000 0.0000 0.0000 0.0000 0.0000 31.9880
#
#
#
# Elastic Compliance Matrix: (Units=1/GPa)
#
#
# Indices 1 2 3 4 5 6 
#
# 1 0.009658 -0.002867 -0.001949 0.000000 0.000000 0.000000
# 2 -0.002867 0.027844 -0.002225 0.000000 0.000000 0.000000
# 3 -0.001949 -0.002225 0.008638 0.000000 0.000000 0.000000
# 4 0.000000 0.000000 0.000000 0.029054 0.000000 0.000000
# 5 0.000000 0.000000 0.000000 0.000000 0.032840 0.000000
# 6 0.000000 0.000000 0.000000 0.000000 0.000000 0.031262
#
#
# Mechanical properties :
#
#
# Convention : Reuss Voigt Hill
#
# Bulk Modulus (GPa) = 31.19422 43.38323 37.28872
# Shear Modulus (GPa) = 30.47593 34.13172 32.30382
#
# Velocity S-wave (km/s) = 3.48714 3.69037 3.59019
# Velocity P-wave (km/s) = 5.35352 5.95556 5.66255
#
# Compressibility (1/GPa) = 0.03205722
#
# Stress axis : x y z
#
# Youngs Moduli (GPa) = 103.54446 35.91421 115.77048
#
# Poissons Ratio (x) = 0.10297 0.22564
# Poissons Ratio (y) = 0.29687 0.25760
# Poissons Ratio (z) = 0.20181 0.07991
#
# Static dielectric constant tensor:
#      x y z
#    x 1.996380 0.000000 0.000000 
#    y 0.000000 2.065470 0.000000 
#    z 0.000000 0.000000 1.983020 
# 
# From -- ./inp_files/2710.got.cif
#   From: 2010.05.17/outbox.cif.g08.bks.cpg/sg29_2_cif.got.tgz:2710.got - 2010.06.04 01:19:37.
