data_PCOD9340698
_publ_section_title
;
Structure prediction by ZEFSAII (Michael W. Deem and Ramdas Pophale) SiO2 
 PCOD9340698
Probable space group: P C A 21
;
_chemical_formula_sum "Si O2"
_cell_formula_units_Z 28
_cell_length_a 20.805061
_cell_length_b 8.759755
_cell_length_c 5.090452
_cell_angle_alpha 90.000000
_cell_angle_beta 90.000000
_cell_angle_gamma 90.000000
_cell_volume 927.720813
_symmetry_space_group_name_H-M "P C A 21"
_symmetry_group_IT_number 29
_symmetry_cell_setting 'orthorhombic'
loop_
_space_group_symop_operation_xyz
x,y,z
-x,-y,1/2+z
1/2-x,y,1/2+z
1/2+x,-y,z
loop_
_atom_site_type_symbol
_atom_site_label
_atom_site_fract_x
_atom_site_fract_y
_atom_site_fract_z
Si Si1 0.259467 0.287785 0.131250
Si Si2 0.170094 0.582449 0.622358
Si Si3 0.568164 0.988415 0.653732
Si Si4 0.956623 0.237221 0.493355
Si Si5 0.145674 0.154396 0.133854
Si Si6 0.835220 0.123743 0.810540
Si Si7 0.911188 0.520637 0.629995
O O1 0.301253 0.246781 0.405090
O O2 0.268484 0.471922 0.121226
O O3 0.302077 0.247465 0.857751
O O4 0.187273 0.756441 0.531264
O O5 0.120280 0.527446 0.403659
O O6 0.134389 0.538992 0.890464
O O7 0.508232 0.881929 0.605466
O O8 0.618588 0.976456 0.412471
O O9 0.605053 0.936911 0.907021
O O10 0.553012 0.167938 0.699886
O O11 0.888527 0.209362 0.639198
O O12 0.972445 0.412420 0.557942
O O13 0.089768 0.297381 0.149438
O O14 0.206340 0.993402 0.148852
#
# Coordination Sequence:
#
# PCOD9340698 Si02
#       7
#     4   4   4   4   4   4   4
#     4  12  24  45  75  96 136 192 239 296 385 443
#     4  11  22  45  73  99 130 190 241 297 353 452
#     4  11  21  41  68 100 149 184 241 298 363 437
#     4  10  21  41  68 101 135 197 240 289 358 442
#     4  11  26  42  68 106 144 186 234 322 373 441
#     4  10  23  41  70 100 140 181 247 300 360 428
#     4  11  23  43  72 100 142 186 242 292 368 433
#
# _framework density 30.181497
#
# number of rings (size 3 to 8) (size 9 to 14) (size 15 to 20)
#    0.000    1.143    5.714    0.000    4.000    0.000 
#    2.571    1.429    0.000    0.000    0.000    0.000 
#    0.000    0.000    0.000    0.000    0.000    0.000 
#
# Total GULP energy -155911.439588 kJ/mol
# GULP energy per Si atom -5568.265700 kJ/mol
# Density = 3.011280 g / cm^3
# Si number density = 30.181497 Si / 1000 Ang^3
#
#
#
# Elastic Constant Matrix: (Units=GPa)
#
#
# Indices 1 2 3 4 5 6 
#
# 1 49.8406 43.5301 32.1952 0.0000 0.0000 0.0000
# 2 43.5301 254.5997 62.7601 0.0000 0.0000 0.0000
# 3 32.1952 62.7601 271.4644 0.0000 0.0000 0.0000
# 4 0.0000 0.0000 0.0000 51.1260 0.0000 0.0000
# 5 0.0000 0.0000 0.0000 0.0000 50.4301 0.0000
# 6 0.0000 0.0000 0.0000 0.0000 0.0000 50.9466
#
#
#
# Elastic Compliance Matrix: (Units=1/GPa)
#
#
# Indices 1 2 3 4 5 6 
#
# 1 0.024632 -0.003702 -0.002065 0.000000 0.000000 0.000000
# 2 -0.003702 0.004722 -0.000653 0.000000 0.000000 0.000000
# 3 -0.002065 -0.000653 0.004080 0.000000 0.000000 0.000000
# 4 0.000000 0.000000 0.000000 0.019560 0.000000 0.000000
# 5 0.000000 0.000000 0.000000 0.000000 0.019829 0.000000
# 6 0.000000 0.000000 0.000000 0.000000 0.000000 0.019628
#
#
# Mechanical properties :
#
#
# Convention : Reuss Voigt Hill
#
# Bulk Modulus (GPa) = 48.56136 94.76396 71.66266
# Shear Modulus (GPa) = 44.58138 59.66183 52.12160
#
# Velocity S-wave (km/s) = 3.84749 4.45091 4.16015
# Velocity P-wave (km/s) = 5.98851 7.60791 6.84626
#
# Compressibility (1/GPa) = 0.02059250
#
# Stress axis : x y z
#
# Youngs Moduli (GPa) = 40.59821 211.79380 245.12668
#
# Poissons Ratio (x) = 0.78412 0.50627
# Poissons Ratio (y) = 0.15031 0.15995
# Poissons Ratio (z) = 0.08385 0.13820
#
# Static dielectric constant tensor:
#      x y z
#    x 2.548850 0.000000 0.000000 
#    y 0.000000 2.630080 0.000000 
#    z 0.000000 0.000000 2.406810 
# 
# From -- ./inp_files/792.got.cif
#   From: 2010.05.17/outbox.cif.g08.bks.cpg/sg29_1_cif.got.tgz:792.got - 2010.06.04 01:19:37.
