data_PCOD9340779
_publ_section_title
;
Structure prediction by ZEFSAII (Michael W. Deem and Ramdas Pophale) SiO2 
 PCOD9340779
Probable space group: P C A 21
;
_chemical_formula_sum "Si O2"
_cell_formula_units_Z 32
_cell_length_a 11.232297
_cell_length_b 6.479474
_cell_length_c 17.773017
_cell_angle_alpha 90.000000
_cell_angle_beta 90.000000
_cell_angle_gamma 90.000000
_cell_volume 1293.509094
_symmetry_space_group_name_H-M "P C A 21"
_symmetry_group_IT_number 29
_symmetry_cell_setting 'orthorhombic'
loop_
_space_group_symop_operation_xyz
x,y,z
-x,-y,1/2+z
1/2-x,y,1/2+z
1/2+x,-y,z
loop_
_atom_site_type_symbol
_atom_site_label
_atom_site_fract_x
_atom_site_fract_y
_atom_site_fract_z
Si Si1 0.319786 0.708453 0.118540
Si Si2 0.860050 0.025256 0.693963
Si Si3 0.837312 0.665811 0.575293
Si Si4 0.523070 0.787573 0.323084
Si Si5 0.942720 0.291987 0.968931
Si Si6 0.328329 0.292817 0.950612
Si Si7 0.967988 0.592337 0.222184
Si Si8 0.877933 0.858542 0.344631
O O1 0.267850 0.882142 0.172853
O O2 0.208869 0.552444 0.105035
O O3 0.414496 0.556163 0.158544
O O4 0.371983 0.803369 0.040917
O O5 0.952413 0.217957 0.692641
O O6 0.878867 0.839723 0.633977
O O7 0.885033 0.925913 0.775012
O O8 0.717746 0.748018 0.533594
O O9 0.939370 0.626912 0.513190
O O10 0.550370 0.775470 0.411777
O O11 0.526477 0.566963 0.282063
O O12 0.398187 0.907143 0.319225
O O13 0.845840 0.461628 0.944451
O O14 0.002510 0.194041 0.894809
O O15 0.229839 0.189812 0.898658
O O16 0.870248 0.708254 0.273199
#
# Coordination Sequence:
#
# PCOD9340779 Si02
#       8
#     4   4   4   4   4   4   4   4
#     4  11  24  40  71  97 138 186 233 294 361 419
#     4  11  25  42  69 100 139 183 239 294 355 435
#     4  10  24  46  67 104 135 184 239 289 360 427
#     4  11  24  43  68 102 145 181 237 294 355 424
#     4  10  21  47  67  98 145 181 234 290 355 424
#     4  10  23  45  71 100 144 184 234 291 356 424
#     4  11  25  45  67 100 143 186 231 300 359 428
#     4  10  24  42  68 103 137 187 239 290 351 429
#
# _framework density 24.738906
#
# number of rings (size 3 to 8) (size 9 to 14) (size 15 to 20)
#    0.000    1.500    1.250    2.250    7.000    2.000 
#   11.250    0.000    0.000    0.000    0.000    0.000 
#    0.000    0.000    0.000    0.000    0.000    0.000 
#
# Total GULP energy -178440.334536 kJ/mol
# GULP energy per Si atom -5576.260454 kJ/mol
# Density = 2.468260 g / cm^3
# Si number density = 24.738906 Si / 1000 Ang^3
#
#
#
# Elastic Constant Matrix: (Units=GPa)
#
#
# Indices 1 2 3 4 5 6 
#
# 1 30.5758 23.5940 -3.2065 0.0000 0.0000 0.0000
# 2 23.5940 63.2295 17.9566 0.0000 0.0000 0.0000
# 3 -3.2065 17.9566 71.3309 0.0000 0.0000 0.0000
# 4 0.0000 0.0000 0.0000 24.0364 0.0000 0.0000
# 5 0.0000 0.0000 0.0000 0.0000 39.9444 0.0000
# 6 0.0000 0.0000 0.0000 0.0000 0.0000 30.2665
#
#
#
# Elastic Compliance Matrix: (Units=1/GPa)
#
#
# Indices 1 2 3 4 5 6 
#
# 1 0.049286 -0.020485 0.007372 0.000000 0.000000 0.000000
# 2 -0.020485 0.025547 -0.007352 0.000000 0.000000 0.000000
# 3 0.007372 -0.007352 0.016201 0.000000 0.000000 0.000000
# 4 0.000000 0.000000 0.000000 0.041604 0.000000 0.000000
# 5 0.000000 0.000000 0.000000 0.000000 0.025035 0.000000
# 6 0.000000 0.000000 0.000000 0.000000 0.000000 0.033040
#
#
# Mechanical properties :
#
#
# Convention : Reuss Voigt Hill
#
# Bulk Modulus (GPa) = 19.95788 26.86940 23.41364
# Shear Modulus (GPa) = 20.13348 27.30228 23.71788
#
# Velocity S-wave (km/s) = 2.85588 3.32568 3.09969
# Velocity P-wave (km/s) = 4.35427 5.06277 4.72183
#
# Compressibility (1/GPa) = 0.05010552
#
# Stress axis : x y z
#
# Youngs Moduli (GPa) = 20.28987 39.14347 61.72337
#
# Poissons Ratio (x) = 0.80184 -0.45504
# Poissons Ratio (y) = 0.41563 0.45379
# Poissons Ratio (z) = -0.14958 0.28778
#
# Static dielectric constant tensor:
#      x y z
#    x 2.024140 0.000000 0.000000 
#    y 0.000000 1.971410 0.000000 
#    z 0.000000 0.000000 2.005380 
# 
# From -- ./inp_files/5522.got.cif
#   From: 2010.05.17/outbox.cif.g08.bks.cpg/sg29_3_cif.got.tgz:5522.got - 2010.06.04 01:19:37.
