data_PCOD9340462
_publ_section_title
;
Structure prediction by ZEFSAII (Michael W. Deem and Ramdas Pophale) SiO2 
 PCOD9340462
Probable space group: P C A 21
;
_chemical_formula_sum "Si O2"
_cell_formula_units_Z 28
_cell_length_a 14.119702
_cell_length_b 7.261714
_cell_length_c 11.791279
_cell_angle_alpha 90.000000
_cell_angle_beta 90.000000
_cell_angle_gamma 90.000000
_cell_volume 1208.998012
_symmetry_space_group_name_H-M "P C A 21"
_symmetry_group_IT_number 29
_symmetry_cell_setting 'orthorhombic'
loop_
_space_group_symop_operation_xyz
x,y,z
-x,-y,1/2+z
1/2-x,y,1/2+z
1/2+x,-y,z
loop_
_atom_site_type_symbol
_atom_site_label
_atom_site_fract_x
_atom_site_fract_y
_atom_site_fract_z
Si Si1 0.953854 0.415140 0.672420
Si Si2 0.770056 0.383537 0.210085
Si Si3 0.938231 0.207206 0.890095
Si Si4 0.890330 0.579160 0.018767
Si Si5 0.282680 0.999277 0.746918
Si Si6 0.718883 0.678143 0.890230
Si Si7 0.075074 0.201302 0.079433
O O1 0.840730 0.397656 0.676291
O O2 0.990315 0.289342 0.777033
O O3 0.966660 0.639251 0.663493
O O4 0.009951 0.346595 0.562331
O O5 0.832797 0.502179 0.126022
O O6 0.784336 0.479241 0.331489
O O7 0.785859 0.165725 0.207813
O O8 0.850638 0.089206 0.843832
O O9 0.906234 0.400049 0.943165
O O10 0.997306 0.117225 0.993222
O O11 0.820726 0.706526 0.949577
O O12 0.220676 0.166286 0.794135
O O13 0.356294 0.069617 0.651107
O O14 0.641183 0.697212 0.986577
#
# Coordination Sequence:
#
# PCOD9340462 Si02
#       7
#     4   4   4   4   4   4   4
#     4  10  20  41  64  95 124 170 218 268 316 402
#     4  11  23  43  63  94 133 166 219 275 314 402
#     4  10  23  42  63  94 132 166 218 273 328 387
#     4  11  21  39  70  89 125 178 212 260 339 377
#     4  11  24  41  63  96 136 164 226 274 318 403
#     4  12  22  43  65  97 129 176 213 277 326 394
#     4  11  23  41  68  95 133 176 218 271 343 385
#
# _framework density 23.159675
#
# number of rings (size 3 to 8) (size 9 to 14) (size 15 to 20)
#    0.000    1.143    5.714    0.857    2.000    2.286 
#    5.143    0.000    0.000    0.000    0.000    0.000 
#    0.000    0.000    0.000    0.000    0.000    0.000 
#
# Total GULP energy -156233.824492 kJ/mol
# GULP energy per Si atom -5579.779446 kJ/mol
# Density = 2.310696 g / cm^3
# Si number density = 23.159675 Si / 1000 Ang^3
#
#
#
# Elastic Constant Matrix: (Units=GPa)
#
#
# Indices 1 2 3 4 5 6 
#
# 1 38.0730 -2.7376 2.1394 0.0000 0.0000 0.0000
# 2 -2.7376 80.7137 20.9921 0.0000 0.0000 0.0000
# 3 2.1394 20.9921 52.7355 0.0000 0.0000 0.0000
# 4 0.0000 0.0000 0.0000 15.7251 0.0000 0.0000
# 5 0.0000 0.0000 0.0000 0.0000 81.7094 0.0000
# 6 0.0000 0.0000 0.0000 0.0000 0.0000 14.2870
#
#
#
# Elastic Compliance Matrix: (Units=1/GPa)
#
#
# Indices 1 2 3 4 5 6 
#
# 1 0.026449 0.001312 -0.001595 0.000000 0.000000 0.000000
# 2 0.001312 0.013885 -0.005580 0.000000 0.000000 0.000000
# 3 -0.001595 -0.005580 0.021249 0.000000 0.000000 0.000000
# 4 0.000000 0.000000 0.000000 0.063593 0.000000 0.000000
# 5 0.000000 0.000000 0.000000 0.000000 0.012238 0.000000
# 6 0.000000 0.000000 0.000000 0.000000 0.000000 0.069994
#
#
# Mechanical properties :
#
#
# Convention : Reuss Voigt Hill
#
# Bulk Modulus (GPa) = 20.05784 23.59001 21.82393
# Shear Modulus (GPa) = 21.20851 32.41951 26.81401
#
# Velocity S-wave (km/s) = 3.02942 3.74548 3.40632
# Velocity P-wave (km/s) = 4.57340 5.37706 4.99143
#
# Compressibility (1/GPa) = 0.04985581
#
# Stress axis : x y z
#
# Youngs Moduli (GPa) = 37.80815 72.01837 47.06172
#
# Poissons Ratio (x) = -0.09449 0.07508
# Poissons Ratio (y) = -0.04960 0.26263
# Poissons Ratio (z) = 0.06031 0.40190
#
# Static dielectric constant tensor:
#      x y z
#    x 1.901070 0.000000 0.000000 
#    y 0.000000 1.884060 0.000000 
#    z 0.000000 0.000000 1.957100 
# 
# From -- ./inp_files/3433.got.cif
#   From: 2010.05.17/outbox.cif.g08.bks.cpg/sg29_2_cif.got.tgz:3433.got - 2010.06.04 01:19:37.
