data_PCOD9340117
_publ_section_title
;
Structure prediction by ZEFSAII (Michael W. Deem and Ramdas Pophale) SiO2 
 PCOD9340117
Probable space group: P C A 21
;
_chemical_formula_sum "Si O2"
_cell_formula_units_Z 24
_cell_length_a 18.479212
_cell_length_b 9.267058
_cell_length_c 5.687121
_cell_angle_alpha 90.000000
_cell_angle_beta 90.000000
_cell_angle_gamma 90.000000
_cell_volume 973.907695
_symmetry_space_group_name_H-M "P C A 21"
_symmetry_group_IT_number 29
_symmetry_cell_setting 'orthorhombic'
loop_
_space_group_symop_operation_xyz
x,y,z
-x,-y,1/2+z
1/2-x,y,1/2+z
1/2+x,-y,z
loop_
_atom_site_type_symbol
_atom_site_label
_atom_site_fract_x
_atom_site_fract_y
_atom_site_fract_z
Si Si1 0.922078 0.038369 0.343330
Si Si2 0.834120 0.839317 0.686077
Si Si3 0.225028 0.916206 0.666461
Si Si4 0.064595 0.543175 0.591603
Si Si5 0.101076 0.462137 0.083060
Si Si6 0.543987 0.790613 0.542462
O O1 0.877814 0.967604 0.555708
O O2 0.861179 0.088569 0.162452
O O3 0.965959 0.901422 0.252791
O O4 0.977170 0.164554 0.384104
O O5 0.756243 0.917563 0.697732
O O6 0.845151 0.678295 0.576520
O O7 0.878211 0.819265 0.926091
O O8 0.251897 0.851714 0.419788
O O9 0.104616 0.549706 0.334911
O O10 0.981879 0.601764 0.589666
O O11 0.045455 0.373215 0.605319
O O12 0.106506 0.556505 0.842513
#
# Coordination Sequence:
#
# PCOD9340117 Si02
#       6
#     4   4   4   4   4   4
#     4  11  20  31  48  74 107 140 173 219 268 316
#     4  10  19  32  50  71 102 138 173 220 261 319
#     4  10  21  34  49  71 102 136 178 216 260 316
#     4   9  18  30  46  73 102 129 162 208 259 306
#     4   9  17  30  49  71  99 129 164 210 258 306
#     4  11  19  31  48  74 108 136 174 215 268 315
#
# _framework density 24.642994000000002
#
# number of rings (size 3 to 8) (size 9 to 14) (size 15 to 20)
#    0.000    2.000    5.000    0.000    0.000    0.000 
#    0.000    0.000    0.000    0.000    0.000    9.333 
#    5.000    0.000    0.000    0.167    0.000    0.000 
#
# Total GULP energy -133629.908517 kJ/mol
# GULP energy per Si atom -5567.912855 kJ/mol
# Density = 2.458691 g / cm^3
# Si number density = 24.642994 Si / 1000 Ang^3
#
#
#
# Elastic Constant Matrix: (Units=GPa)
#
#
# Indices 1 2 3 4 5 6 
#
# 1 84.4119 6.8001 6.3611 0.0000 0.0000 0.0000
# 2 6.8001 41.4430 5.0106 0.0000 0.0000 0.0000
# 3 6.3611 5.0106 151.6252 0.0000 0.0000 0.0000
# 4 0.0000 0.0000 0.0000 -62.7366 0.0000 0.0000
# 5 0.0000 0.0000 0.0000 0.0000 11.9788 0.0000
# 6 0.0000 0.0000 0.0000 0.0000 0.0000 24.8723
#
#
#
# Elastic Compliance Matrix: (Units=1/GPa)
#
#
# Indices 1 2 3 4 5 6 
#
# 1 0.012035 -0.001921 -0.000441 0.000000 0.000000 0.000000
# 2 -0.001921 0.024533 -0.000730 0.000000 0.000000 0.000000
# 3 -0.000441 -0.000730 0.006638 0.000000 0.000000 0.000000
# 4 0.000000 0.000000 0.000000 -0.015940 0.000000 0.000000
# 5 0.000000 0.000000 0.000000 0.000000 0.083481 0.000000
# 6 0.000000 0.000000 0.000000 0.000000 0.000000 0.040205
#
#
# Mechanical properties :
#
#
# Convention : Reuss Voigt Hill
#
# Bulk Modulus (GPa) = 27.01246 34.86929 30.94087
# Shear Modulus (GPa) = 29.50234 12.11011 20.80622
#
# Velocity S-wave (km/s) = 3.46380 2.21921 2.90885
# Velocity P-wave (km/s) = 5.19447 4.55489 4.88516
#
# Compressibility (1/GPa) = 0.03701995
#
# Stress axis : x y z
#
# Youngs Moduli (GPa) = 83.09294 40.76137 150.65108
#
# Poissons Ratio (x) = 0.07832 0.06650
# Poissons Ratio (y) = 0.15965 0.10999
# Poissons Ratio (z) = 0.03668 0.02976
#
# Static dielectric constant tensor:
#      x y z
#    x 2.114950 0.000000 0.000000 
#    y 0.000000 2.560300 0.000000 
#    z 0.000000 0.000000 2.224790 
# 
# From -- ./inp_files/381.got.cif
#   From: 2010.05.17/outbox.cif.g08.bks.cpg/sg29_1_cif.got.tgz:381.got - 2010.06.04 01:19:37.
