data_PCOD9340295
_publ_section_title
;
Structure prediction by ZEFSAII (Michael W. Deem and Ramdas Pophale) SiO2 
 PCOD9340295
Probable space group: P C A 21
;
_chemical_formula_sum "Si O2"
_cell_formula_units_Z 32
_cell_length_a 8.428320
_cell_length_b 21.437774
_cell_length_c 7.734790
_cell_angle_alpha 90.000000
_cell_angle_beta 90.000000
_cell_angle_gamma 90.000000
_cell_volume 1397.556040
_symmetry_space_group_name_H-M "P C A 21"
_symmetry_group_IT_number 29
_symmetry_cell_setting 'orthorhombic'
loop_
_space_group_symop_operation_xyz
x,y,z
-x,-y,1/2+z
1/2-x,y,1/2+z
1/2+x,-y,z
loop_
_atom_site_type_symbol
_atom_site_label
_atom_site_fract_x
_atom_site_fract_y
_atom_site_fract_z
Si Si1 0.006305 0.802580 0.626520
Si Si2 0.005938 0.560913 0.623267
Si Si3 0.674059 0.803027 0.494904
Si Si4 0.995176 0.059634 0.118266
Si Si5 0.680531 0.317156 0.732447
Si Si6 0.824445 0.559441 0.989422
Si Si7 0.495928 0.317978 0.097483
Si Si8 0.674568 0.941707 0.484670
O O1 0.864070 0.794956 0.489651
O O2 0.907946 0.801296 0.807315
O O3 0.080274 0.871439 0.606849
O O4 0.130110 0.746873 0.637764
O O5 0.910260 0.556775 0.804057
O O6 0.865377 0.561789 0.482868
O O7 0.109804 0.623062 0.634212
O O8 0.117973 0.502218 0.588813
O O9 0.602640 0.745568 0.600448
O O10 0.640630 0.873023 0.564093
O O11 0.086512 0.055978 0.301082
O O12 0.135403 0.056010 0.976771
O O13 0.880947 0.001916 0.089767
O O14 0.597160 0.317110 0.918895
O O15 0.869502 0.322166 0.741555
O O16 0.883712 0.622202 0.084133
#
# Coordination Sequence:
#
# PCOD9340295 Si02
#       8
#     4   4   4   4   4   4   4   4
#     4   9  19  36  56  79 106 139 180 223 269 322
#     4  11  23  39  60  85 114 147 184 226 272 323
#     4   9  19  36  56  79 106 139 180 223 269 322
#     4  10  20  35  55  79 109 143 181 225 273 326
#     4  10  22  38  56  81 111 143 181 224 270 321
#     4  11  23  39  60  85 114 147 184 226 272 323
#     4  10  22  38  56  81 111 143 181 224 270 321
#     4  10  20  35  55  79 109 143 181 225 273 326
#
# _framework density 22.897113000000001
#
# number of rings (size 3 to 8) (size 9 to 14) (size 15 to 20)
#    0.000    2.000    0.000    3.000    0.000    7.000 
#    0.000    2.500    0.000    0.000    0.000    0.000 
#    0.000    0.000    0.000    0.000    0.000    0.000 
#
# Total GULP energy -178981.203765 kJ/mol
# GULP energy per Si atom -5593.162618 kJ/mol
# Density = 2.284500 g / cm^3
# Si number density = 22.897113 Si / 1000 Ang^3
#
#
#
# Elastic Constant Matrix: (Units=GPa)
#
#
# Indices 1 2 3 4 5 6 
#
# 1 36.5222 31.6345 -10.8287 0.0000 0.0000 0.0000
# 2 31.6345 164.1459 27.5508 0.0000 0.0000 0.0000
# 3 -10.8287 27.5508 52.1394 0.0000 0.0000 0.0000
# 4 0.0000 0.0000 0.0000 26.7712 0.0000 0.0000
# 5 0.0000 0.0000 0.0000 0.0000 31.3468 0.0000
# 6 0.0000 0.0000 0.0000 0.0000 0.0000 42.3074
#
#
#
# Elastic Compliance Matrix: (Units=1/GPa)
#
#
# Indices 1 2 3 4 5 6 
#
# 1 0.040089 -0.010011 0.013616 0.000000 0.000000 0.000000
# 2 -0.010011 0.009185 -0.006933 0.000000 0.000000 0.000000
# 3 0.013616 -0.006933 0.025671 0.000000 0.000000 0.000000
# 4 0.000000 0.000000 0.000000 0.037354 0.000000 0.000000
# 5 0.000000 0.000000 0.000000 0.000000 0.031901 0.000000
# 6 0.000000 0.000000 0.000000 0.000000 0.000000 0.023637
#
#
# Mechanical properties :
#
#
# Convention : Reuss Voigt Hill
#
# Bulk Modulus (GPa) = 14.64365 38.83566 26.73965
# Shear Modulus (GPa) = 25.34782 33.71513 29.53148
#
# Velocity S-wave (km/s) = 3.33082 3.84143 3.59520
# Velocity P-wave (km/s) = 4.60454 6.05584 5.37936
#
# Compressibility (1/GPa) = 0.06828900
#
# Stress axis : x y z
#
# Youngs Moduli (GPa) = 24.94426 108.87084 38.95507
#
# Poissons Ratio (x) = 1.08996 -0.53042
# Poissons Ratio (y) = 0.24973 0.27007
# Poissons Ratio (z) = -0.33965 0.75478
#
# Static dielectric constant tensor:
#      x y z
#    x 1.795020 0.000000 0.000000 
#    y 0.000000 1.815770 0.000000 
#    z 0.000000 0.000000 1.922750 
# 
# From -- ./inp_files/1251.got.cif
#   From: 2010.05.17/outbox.cif.g08.bks.cpg/sg29_1_cif.got.tgz:1251.got - 2010.06.04 01:19:37.
