data_PCOD9340665
_publ_section_title
;
Structure prediction by ZEFSAII (Michael W. Deem and Ramdas Pophale) SiO2 
 PCOD9340665
Probable space group: P C A 21
;
_chemical_formula_sum "Si O2"
_cell_formula_units_Z 28
_cell_length_a 9.863020
_cell_length_b 11.021114
_cell_length_c 11.796343
_cell_angle_alpha 90.000000
_cell_angle_beta 90.000000
_cell_angle_gamma 90.000000
_cell_volume 1282.279799
_symmetry_space_group_name_H-M "P C A 21"
_symmetry_group_IT_number 29
_symmetry_cell_setting 'orthorhombic'
loop_
_space_group_symop_operation_xyz
x,y,z
-x,-y,1/2+z
1/2-x,y,1/2+z
1/2+x,-y,z
loop_
_atom_site_type_symbol
_atom_site_label
_atom_site_fract_x
_atom_site_fract_y
_atom_site_fract_z
Si Si1 0.757253 0.381788 0.325560
Si Si2 0.062607 0.660371 0.515360
Si Si3 0.492616 0.480662 0.203070
Si Si4 0.039524 0.219443 0.634184
Si Si5 0.243204 0.822910 0.660138
Si Si6 0.699206 0.966740 0.502070
Si Si7 0.466256 0.122158 0.381058
O O1 0.696313 0.387996 0.450820
O O2 0.638881 0.447667 0.253025
O O3 0.898301 0.444668 0.291671
O O4 0.754651 0.239740 0.284255
O O5 0.993034 0.556913 0.587803
O O6 0.114074 0.758636 0.605420
O O7 0.976704 0.739012 0.426943
O O8 0.420436 0.354101 0.170740
O O9 0.129519 0.158397 0.538998
O O10 0.881556 0.222314 0.600514
O O11 0.037111 0.134252 0.746069
O O12 0.233118 0.960959 0.619202
O O13 0.833794 0.940667 0.431843
O O14 0.593877 0.046081 0.428473
#
# Coordination Sequence:
#
# PCOD9340665 Si02
#       7
#     4   4   4   4   4   4   4
#     4  10  21  41  63  89 126 164 206 256 315 374
#     4  10  21  40  67  87 127 166 209 251 323 380
#     4  10  23  38  63  91 124 163 203 261 312 374
#     4  11  23  43  63  94 132 158 213 269 307 369
#     4   9  20  41  60  89 121 170 201 255 314 371
#     4  11  24  40  66  95 125 166 213 259 314 376
#     4  11  24  41  68  93 127 169 209 259 319 374
#
# _framework density 21.836106999999998
#
# number of rings (size 3 to 8) (size 9 to 14) (size 15 to 20)
#    0.000    1.714    4.286    0.000    4.000    4.571 
#    0.000    0.000    3.143    0.000    0.000    0.000 
#    0.000    0.000    0.000    0.000    0.000    0.000 
#
# Total GULP energy -156233.203622 kJ/mol
# GULP energy per Si atom -5579.757272 kJ/mol
# Density = 2.178641 g / cm^3
# Si number density = 21.836107 Si / 1000 Ang^3
#
#
#
# Elastic Constant Matrix: (Units=GPa)
#
#
# Indices 1 2 3 4 5 6 
#
# 1 79.0434 23.7872 13.7243 0.0000 0.0000 0.0000
# 2 23.7872 67.9189 8.6733 0.0000 0.0000 0.0000
# 3 13.7243 8.6733 51.6802 0.0000 0.0000 0.0000
# 4 0.0000 0.0000 0.0000 26.0656 0.0000 0.0000
# 5 0.0000 0.0000 0.0000 0.0000 29.1863 0.0000
# 6 0.0000 0.0000 0.0000 0.0000 0.0000 27.1209
#
#
#
# Elastic Compliance Matrix: (Units=1/GPa)
#
#
# Indices 1 2 3 4 5 6 
#
# 1 0.014608 -0.004722 -0.003087 0.000000 0.000000 0.000000
# 2 -0.004722 0.016572 -0.001527 0.000000 0.000000 0.000000
# 3 -0.003087 -0.001527 0.020426 0.000000 0.000000 0.000000
# 4 0.000000 0.000000 0.000000 0.038365 0.000000 0.000000
# 5 0.000000 0.000000 0.000000 0.000000 0.034263 0.000000
# 6 0.000000 0.000000 0.000000 0.000000 0.000000 0.036872
#
#
# Mechanical properties :
#
#
# Convention : Reuss Voigt Hill
#
# Bulk Modulus (GPa) = 30.36381 32.33468 31.34924
# Shear Modulus (GPa) = 26.21146 26.63841 26.42494
#
# Velocity S-wave (km/s) = 3.46840 3.49653 3.48249
# Velocity P-wave (km/s) = 5.47496 5.58041 5.52794
#
# Compressibility (1/GPa) = 0.03293395
#
# Stress axis : x y z
#
# Youngs Moduli (GPa) = 68.45415 60.34174 48.95752
#
# Poissons Ratio (x) = 0.28494 0.15113
# Poissons Ratio (y) = 0.32324 0.07477
# Poissons Ratio (z) = 0.21131 0.09216
#
# Static dielectric constant tensor:
#      x y z
#    x 1.786460 0.000000 0.000000 
#    y 0.000000 1.830950 0.000000 
#    z 0.000000 0.000000 1.847730 
# 
# From -- ./inp_files/4603.got.cif
#   From: 2010.05.17/outbox.cif.g08.bks.cpg/sg29_3_cif.got.tgz:4603.got - 2010.06.04 01:19:37.
