data_PCOD9340889
_publ_section_title
;
Structure prediction by ZEFSAII (Michael W. Deem and Ramdas Pophale) SiO2 
 PCOD9340889
Probable space group: P C A 21
;
_chemical_formula_sum "Si O2"
_cell_formula_units_Z 28
_cell_length_a 21.912805
_cell_length_b 5.371798
_cell_length_c 9.460718
_cell_angle_alpha 90.000000
_cell_angle_beta 90.000000
_cell_angle_gamma 90.000000
_cell_volume 1113.632110
_symmetry_space_group_name_H-M "P C A 21"
_symmetry_group_IT_number 29
_symmetry_cell_setting 'orthorhombic'
loop_
_space_group_symop_operation_xyz
x,y,z
-x,-y,1/2+z
1/2-x,y,1/2+z
1/2+x,-y,z
loop_
_atom_site_type_symbol
_atom_site_label
_atom_site_fract_x
_atom_site_fract_y
_atom_site_fract_z
Si Si1 0.001112 0.173187 0.067690
Si Si2 0.614105 0.107567 0.924126
Si Si3 0.738330 0.616493 0.307918
Si Si4 0.180647 0.627359 0.561426
Si Si5 0.270545 0.040535 0.558594
Si Si6 0.589077 0.800376 0.653868
Si Si7 0.982805 0.469139 0.333414
O O1 0.940817 0.002191 0.049942
O O2 0.009114 0.259171 0.230464
O O3 0.062218 0.039458 0.012591
O O4 0.988873 0.417573 0.972747
O O5 0.623007 0.955403 0.778073
O O6 0.582941 0.365208 0.881929
O O7 0.676438 0.143919 0.008195
O O8 0.775688 0.456148 0.194082
O O9 0.692236 0.451081 0.398283
O O10 0.714584 0.840080 0.209270
O O11 0.773211 0.745294 0.439190
O O12 0.203176 0.917183 0.555518
O O13 0.124831 0.441612 0.600982
O O14 0.528571 0.702728 0.733527
#
# Coordination Sequence:
#
# PCOD9340889 Si02
#       7
#     4   4   4   4   4   4   4
#     4  10  22  44  66 102 134 170 224 276 338 398
#     4  10  22  42  70  99 135 181 220 279 335 401
#     4  10  24  42  62  96 134 170 216 294 324 400
#     4  11  23  42  70  97 131 177 226 274 344 400
#     4  11  23  42  70  97 131 177 226 274 344 400
#     4  10  22  42  70  99 135 181 220 279 335 401
#     4  10  22  40  72  98 130 182 216 276 330 412
#
# _framework density 25.142955000000001
#
# number of rings (size 3 to 8) (size 9 to 14) (size 15 to 20)
#    0.000    1.714    1.429    1.714    4.000    2.286 
#   12.857    0.000    0.000    0.000    0.000    0.000 
#    0.000    0.000    0.000    0.000    0.000    0.000 
#
# Total GULP energy -156171.728155 kJ/mol
# GULP energy per Si atom -5577.561720 kJ/mol
# Density = 2.508573 g / cm^3
# Si number density = 25.142955 Si / 1000 Ang^3
#
#
#
# Elastic Constant Matrix: (Units=GPa)
#
#
# Indices 1 2 3 4 5 6 
#
# 1 60.7045 -2.8754 29.3979 0.0000 0.0000 0.0000
# 2 -2.8754 51.9456 18.5725 0.0000 0.0000 0.0000
# 3 29.3979 18.5725 139.7172 0.0000 0.0000 0.0000
# 4 0.0000 0.0000 0.0000 52.9928 0.0000 0.0000
# 5 0.0000 0.0000 0.0000 0.0000 50.7636 0.0000
# 6 0.0000 0.0000 0.0000 0.0000 0.0000 12.1957
#
#
#
# Elastic Compliance Matrix: (Units=1/GPa)
#
#
# Indices 1 2 3 4 5 6 
#
# 1 0.018661 0.002558 -0.004266 0.000000 0.000000 0.000000
# 2 0.002558 0.020562 -0.003272 0.000000 0.000000 0.000000
# 3 -0.004266 -0.003272 0.008490 0.000000 0.000000 0.000000
# 4 0.000000 0.000000 0.000000 0.018870 0.000000 0.000000
# 5 0.000000 0.000000 0.000000 0.000000 0.019699 0.000000
# 6 0.000000 0.000000 0.000000 0.000000 0.000000 0.081996
#
#
# Mechanical properties :
#
#
# Convention : Reuss Voigt Hill
#
# Bulk Modulus (GPa) = 26.48775 38.06191 32.27483
# Shear Modulus (GPa) = 26.20234 37.00856 31.60545
#
# Velocity S-wave (km/s) = 3.23171 3.84073 3.54931
# Velocity P-wave (km/s) = 4.94803 5.90249 5.44621
#
# Compressibility (1/GPa) = 0.03775330
#
# Stress axis : x y z
#
# Youngs Moduli (GPa) = 53.58887 48.63284 117.78681
#
# Poissons Ratio (x) = -0.12442 0.50253
# Poissons Ratio (y) = -0.13710 0.38535
# Poissons Ratio (z) = 0.22863 0.15911
#
# Static dielectric constant tensor:
#      x y z
#    x 2.089390 0.000000 0.000000 
#    y 0.000000 2.064530 0.000000 
#    z 0.000000 0.000000 1.972510 
# 
# From -- ./inp_files/2403.got.cif
#   From: 2010.05.17/outbox.cif.g08.bks.cpg/sg29_2_cif.got.tgz:2403.got - 2010.06.04 01:19:37.
