data_PCOD9340608
_publ_section_title
;
Structure prediction by ZEFSAII (Michael W. Deem and Ramdas Pophale) SiO2 
 PCOD9340608
Probable space group: P C A 21
;
_chemical_formula_sum "Si O2"
_cell_formula_units_Z 32
_cell_length_a 23.375549
_cell_length_b 5.216895
_cell_length_c 11.277786
_cell_angle_alpha 90.000000
_cell_angle_beta 90.000000
_cell_angle_gamma 90.000000
_cell_volume 1375.301019
_symmetry_space_group_name_H-M "P C A 21"
_symmetry_group_IT_number 29
_symmetry_cell_setting 'orthorhombic'
loop_
_space_group_symop_operation_xyz
x,y,z
-x,-y,1/2+z
1/2-x,y,1/2+z
1/2+x,-y,z
loop_
_atom_site_type_symbol
_atom_site_label
_atom_site_fract_x
_atom_site_fract_y
_atom_site_fract_z
Si Si1 0.062695 0.764517 0.205830
Si Si2 0.846145 0.457407 0.131060
Si Si3 0.315232 0.903733 0.957005
Si Si4 0.403927 0.765027 0.435999
Si Si5 0.750925 0.803101 0.653064
Si Si6 0.566722 0.732586 0.785752
Si Si7 0.130682 0.261740 0.272002
Si Si8 0.292086 0.853326 0.342829
O O1 0.103691 0.542670 0.260295
O O2 0.998370 0.711530 0.245509
O O3 0.083513 0.045798 0.244381
O O4 0.067678 0.764947 0.064135
O O5 0.861446 0.272788 0.022469
O O6 0.783612 0.566238 0.102164
O O7 0.891533 0.669172 0.173390
O O8 0.830001 0.290700 0.245466
O O9 0.269755 0.988655 0.057826
O O10 0.272847 0.760266 0.864305
O O11 0.342829 0.151876 0.895008
O O12 0.417876 0.489583 0.379464
O O13 0.336008 0.825271 0.450378
O O14 0.424501 0.994252 0.349157
O O15 0.816981 0.763655 0.678258
O O16 0.721050 0.873079 0.780600
#
# Coordination Sequence:
#
# PCOD9340608 Si02
#       8
#     4   4   4   4   4   4   4   4
#     4  12  27  49  70 104 141 185 239 298 356 418
#     4  10  22  40  69 100 137 184 233 286 350 433
#     4  10  23  39  66 103 141 184 220 297 369 414
#     4  11  23  45  74 100 131 191 233 290 358 418
#     4  10  21  39  64  99 137 183 227 278 356 431
#     4  11  25  48  72  99 139 184 248 292 342 436
#     4  11  27  44  68 105 148 179 234 299 353 434
#     4   9  20  38  61  98 138 176 230 280 342 438
#
# _framework density 23.267634000000001
#
# number of rings (size 3 to 8) (size 9 to 14) (size 15 to 20)
#    0.000    1.500    1.250    2.250    8.750    2.000 
#    2.250    0.000    0.000    0.000    0.000    0.000 
#    0.000    0.000    0.000    0.000    0.000    0.000 
#
# Total GULP energy -178574.822239 kJ/mol
# GULP energy per Si atom -5580.463195 kJ/mol
# Density = 2.321468 g / cm^3
# Si number density = 23.267634 Si / 1000 Ang^3
#
#
#
# Elastic Constant Matrix: (Units=GPa)
#
#
# Indices 1 2 3 4 5 6 
#
# 1 112.3264 11.6961 18.3915 0.0000 0.0000 0.0000
# 2 11.6961 76.0742 7.9834 0.0000 0.0000 0.0000
# 3 18.3915 7.9834 65.3239 0.0000 0.0000 0.0000
# 4 0.0000 0.0000 0.0000 27.0708 0.0000 0.0000
# 5 0.0000 0.0000 0.0000 0.0000 23.2159 0.0000
# 6 0.0000 0.0000 0.0000 0.0000 0.0000 23.5009
#
#
#
# Elastic Compliance Matrix: (Units=1/GPa)
#
#
# Indices 1 2 3 4 5 6 
#
# 1 0.009438 -0.001187 -0.002512 0.000000 0.000000 0.000000
# 2 -0.001187 0.013465 -0.001311 0.000000 0.000000 0.000000
# 3 -0.002512 -0.001311 0.016176 0.000000 0.000000 0.000000
# 4 0.000000 0.000000 0.000000 0.036940 0.000000 0.000000
# 5 0.000000 0.000000 0.000000 0.000000 0.043074 0.000000
# 6 0.000000 0.000000 0.000000 0.000000 0.000000 0.042552
#
#
# Mechanical properties :
#
#
# Convention : Reuss Voigt Hill
#
# Bulk Modulus (GPa) = 34.41480 36.65183 35.53332
# Shear Modulus (GPa) = 27.57077 29.13441 28.35259
#
# Velocity S-wave (km/s) = 3.44603 3.54240 3.49455
# Velocity P-wave (km/s) = 5.53683 5.70245 5.62025
#
# Compressibility (1/GPa) = 0.02905727
#
# Stress axis : x y z
#
# Youngs Moduli (GPa) = 105.95972 74.26534 61.82070
#
# Poissons Ratio (x) = 0.08818 0.15529
# Poissons Ratio (y) = 0.12581 0.08107
# Poissons Ratio (z) = 0.26617 0.09739
#
# Static dielectric constant tensor:
#      x y z
#    x 1.856510 0.000000 0.000000 
#    y 0.000000 1.922510 0.000000 
#    z 0.000000 0.000000 2.011370 
# 
# From -- ./inp_files/3884.got.cif
#   From: 2010.05.17/outbox.cif.g08.bks.cpg/sg29_2_cif.got.tgz:3884.got - 2010.06.04 01:19:37.
