data_PCOD9340384
_publ_section_title
;
Structure prediction by ZEFSAII (Michael W. Deem and Ramdas Pophale) SiO2 
 PCOD9340384
Probable space group: P C A 21
;
_chemical_formula_sum "Si O2"
_cell_formula_units_Z 32
_cell_length_a 11.770055
_cell_length_b 8.142834
_cell_length_c 15.585686
_cell_angle_alpha 90.000000
_cell_angle_beta 90.000000
_cell_angle_gamma 90.000000
_cell_volume 1493.757146
_symmetry_space_group_name_H-M "P C A 21"
_symmetry_group_IT_number 29
_symmetry_cell_setting 'orthorhombic'
loop_
_space_group_symop_operation_xyz
x,y,z
-x,-y,1/2+z
1/2-x,y,1/2+z
1/2+x,-y,z
loop_
_atom_site_type_symbol
_atom_site_label
_atom_site_fract_x
_atom_site_fract_y
_atom_site_fract_z
Si Si1 0.751486 0.746479 0.074260
Si Si2 0.086695 0.998966 0.981070
Si Si3 0.466903 0.844234 0.817581
Si Si4 0.973080 0.857600 0.140648
Si Si5 0.942450 0.502331 0.612338
Si Si6 0.600448 0.535563 0.454302
Si Si7 0.540877 0.466741 0.792450
Si Si8 0.234574 0.729144 0.883399
O O1 0.840263 0.811671 0.144297
O O2 0.676664 0.595074 0.108719
O O3 0.672525 0.881043 0.030757
O O4 0.834394 0.679973 0.000736
O O5 0.023403 0.080167 0.901074
O O6 0.155785 0.845406 0.941238
O O7 0.996239 0.955599 0.054399
O O8 0.491424 0.939946 0.729597
O O9 0.526057 0.664257 0.804458
O O10 0.332004 0.825142 0.831035
O O11 0.051422 0.693344 0.129404
O O12 0.002389 0.523541 0.519827
O O13 0.011518 0.572232 0.694101
O O14 0.550630 0.592014 0.363397
O O15 0.689917 0.390671 0.441694
O O16 0.657968 0.385882 0.822386
#
# Coordination Sequence:
#
# PCOD9340384 Si02
#       8
#     4   4   4   4   4   4   4   4
#     4  11  22  38  63  87 121 164 194 247 307 347
#     4  12  24  40  60  88 126 164 202 240 296 368
#     4  10  24  42  61  91 123 156 205 251 296 361
#     4  10  24  42  61  91 123 156 205 251 296 361
#     4  10  22  40  65  93 119 153 205 254 300 358
#     4  10  20  38  62  90 120 154 202 248 298 362
#     4  10  22  40  65  93 119 153 205 254 300 358
#     4  11  22  38  63  87 121 164 194 247 307 347
#
# _framework density 21.422491999999998
#
# number of rings (size 3 to 8) (size 9 to 14) (size 15 to 20)
#    0.000    1.500    0.000    6.000    0.000   13.000 
#    0.000    0.000    0.000    0.000    0.000    0.000 
#    0.000    0.000    0.000    0.000    0.000    0.000 
#
# Total GULP energy -178749.158293 kJ/mol
# GULP energy per Si atom -5585.911197 kJ/mol
# Density = 2.137373 g / cm^3
# Si number density = 21.422492 Si / 1000 Ang^3
#
#
#
# Elastic Constant Matrix: (Units=GPa)
#
#
# Indices 1 2 3 4 5 6 
#
# 1 79.7047 13.8621 8.1579 0.0000 0.0000 0.0000
# 2 13.8621 14.2851 4.9064 0.0000 0.0000 0.0000
# 3 8.1579 4.9064 89.5187 0.0000 0.0000 0.0000
# 4 0.0000 0.0000 0.0000 15.6570 0.0000 0.0000
# 5 0.0000 0.0000 0.0000 0.0000 16.3125 0.0000
# 6 0.0000 0.0000 0.0000 0.0000 0.0000 48.0875
#
#
#
# Elastic Compliance Matrix: (Units=1/GPa)
#
#
# Indices 1 2 3 4 5 6 
#
# 1 0.015124 -0.014475 -0.000585 0.000000 0.000000 0.000000
# 2 -0.014475 0.085200 -0.003351 0.000000 0.000000 0.000000
# 3 -0.000585 -0.003351 0.011408 0.000000 0.000000 0.000000
# 4 0.000000 0.000000 0.000000 0.063869 0.000000 0.000000
# 5 0.000000 0.000000 0.000000 0.000000 0.061303 0.000000
# 6 0.000000 0.000000 0.000000 0.000000 0.000000 0.020795
#
#
# Mechanical properties :
#
#
# Convention : Reuss Voigt Hill
#
# Bulk Modulus (GPa) = 13.34920 26.37347 19.86134
# Shear Modulus (GPa) = 15.64996 26.45022 21.05009
#
# Velocity S-wave (km/s) = 2.70578 3.51763 3.13807
# Velocity P-wave (km/s) = 4.00082 5.36993 4.73512
#
# Compressibility (1/GPa) = 0.07491083
#
# Stress axis : x y z
#
# Youngs Moduli (GPa) = 66.12172 11.73706 87.65941
#
# Poissons Ratio (x) = 0.16989 0.05127
# Poissons Ratio (y) = 0.95710 0.29371
# Poissons Ratio (z) = 0.03867 0.03933
#
# Static dielectric constant tensor:
#      x y z
#    x 1.783180 0.000000 0.000000 
#    y 0.000000 1.825780 0.000000 
#    z 0.000000 0.000000 1.807370 
# 
# From -- ./inp_files/4586.got.cif
#   From: 2010.05.17/outbox.cif.g08.bks.cpg/sg29_3_cif.got.tgz:4586.got - 2010.06.04 01:19:37.
