data_PCOD9340857
_publ_section_title
;
Structure prediction by ZEFSAII (Michael W. Deem and Ramdas Pophale) SiO2 
 PCOD9340857
Probable space group: P C A 21
;
_chemical_formula_sum "Si O2"
_cell_formula_units_Z 20
_cell_length_a 21.817316
_cell_length_b 6.701720
_cell_length_c 6.131838
_cell_angle_alpha 90.000000
_cell_angle_beta 90.000000
_cell_angle_gamma 90.000000
_cell_volume 896.557759
_symmetry_space_group_name_H-M "P C A 21"
_symmetry_group_IT_number 29
_symmetry_cell_setting 'orthorhombic'
loop_
_space_group_symop_operation_xyz
x,y,z
-x,-y,1/2+z
1/2-x,y,1/2+z
1/2+x,-y,z
loop_
_atom_site_type_symbol
_atom_site_label
_atom_site_fract_x
_atom_site_fract_y
_atom_site_fract_z
Si Si1 0.906993 0.082669 0.606310
Si Si2 0.133869 0.982707 0.688937
Si Si3 0.114279 0.590498 0.452690
Si Si4 0.221549 0.267896 0.492941
Si Si5 0.962688 0.778457 0.951846
O O1 0.854317 0.004798 0.445137
O O2 0.882730 0.269389 0.742133
O O3 0.967446 0.165437 0.484887
O O4 0.932750 0.901594 0.752290
O O5 0.116012 0.756336 0.639518
O O6 0.186045 0.057560 0.525964
O O7 0.076164 0.128865 0.651756
O O8 0.170026 0.440461 0.484940
O O9 0.053551 0.454126 0.440619
O O10 0.250735 0.283979 0.743486
#
# Coordination Sequence:
#
# PCOD9340857 Si02
#       5
#     4   4   4   4   4
#     4  11  22  39  66  97 145 186 229 281 352 434
#     4  10  24  44  67  97 134 180 235 289 348 433
#     4  10  26  41  67 104 134 180 241 295 350 434
#     4  11  28  50  75  99 139 187 241 312 372 413
#     4  10  22  40  61  99 142 187 222 277 352 424
#
# _framework density 22.307541000000001
#
# number of rings (size 3 to 8) (size 9 to 14) (size 15 to 20)
#    0.000    1.600    2.000    0.000   14.000    3.200 
#    0.000    0.000    0.000    0.000    0.000    0.000 
#    0.000    0.000    0.000    0.000    0.000    0.000 
#
# Total GULP energy -111385.832193 kJ/mol
# GULP energy per Si atom -5569.291610 kJ/mol
# Density = 2.225677 g / cm^3
# Si number density = 22.307541 Si / 1000 Ang^3
#
#
#
# Elastic Constant Matrix: (Units=GPa)
#
#
# Indices 1 2 3 4 5 6 
#
# 1 51.7502 11.7358 39.1669 0.0000 0.0000 0.0000
# 2 11.7358 107.0687 26.5112 0.0000 0.0000 0.0000
# 3 39.1669 26.5112 125.7902 0.0000 0.0000 0.0000
# 4 0.0000 0.0000 0.0000 -77.3968 0.0000 0.0000
# 5 0.0000 0.0000 0.0000 0.0000 14.6560 0.0000
# 6 0.0000 0.0000 0.0000 0.0000 0.0000 23.8697
#
#
#
# Elastic Compliance Matrix: (Units=1/GPa)
#
#
# Indices 1 2 3 4 5 6 
#
# 1 0.025358 -0.000870 -0.007712 0.000000 0.000000 0.000000
# 2 -0.000870 0.009884 -0.001812 0.000000 0.000000 0.000000
# 3 -0.007712 -0.001812 0.010733 0.000000 0.000000 0.000000
# 4 0.000000 0.000000 0.000000 -0.012920 0.000000 0.000000
# 5 0.000000 0.000000 0.000000 0.000000 0.068231 0.000000
# 6 0.000000 0.000000 0.000000 0.000000 0.000000 0.041894
#
#
# Mechanical properties :
#
#
# Convention : Reuss Voigt Hill
#
# Bulk Modulus (GPa) = 39.70458 48.82633 44.26545
# Shear Modulus (GPa) = 29.00841 6.03881 17.52361
#
# Velocity S-wave (km/s) = 3.61000 1.64710 2.80580
# Velocity P-wave (km/s) = 5.93410 5.05496 5.51208
#
# Compressibility (1/GPa) = 0.02518601
#
# Stress axis : x y z
#
# Youngs Moduli (GPa) = 39.43553 101.17491 93.17022
#
# Poissons Ratio (x) = 0.08801 0.71855
# Poissons Ratio (y) = 0.03430 0.16885
# Poissons Ratio (z) = 0.30414 0.18336
#
# Static dielectric constant tensor:
#      x y z
#    x 1.851820 0.000000 0.000000 
#    y 0.000000 1.782110 0.000000 
#    z 0.000000 0.000000 1.973110 
# 
# From -- ./inp_files/496.got.cif
#   From: 2010.05.17/outbox.cif.g08.bks.cpg/sg29_1_cif.got.tgz:496.got - 2010.06.04 01:19:37.
