data_PCOD9340593
_publ_section_title
;
Structure prediction by ZEFSAII (Michael W. Deem and Ramdas Pophale) SiO2 
 PCOD9340593
Probable space group: P C A 21
;
_chemical_formula_sum "Si O2"
_cell_formula_units_Z 28
_cell_length_a 9.171981
_cell_length_b 5.512661
_cell_length_c 21.774273
_cell_angle_alpha 90.000000
_cell_angle_beta 90.000000
_cell_angle_gamma 90.000000
_cell_volume 1100.951269
_symmetry_space_group_name_H-M "P C A 21"
_symmetry_group_IT_number 29
_symmetry_cell_setting 'orthorhombic'
loop_
_space_group_symop_operation_xyz
x,y,z
-x,-y,1/2+z
1/2-x,y,1/2+z
1/2+x,-y,z
loop_
_atom_site_type_symbol
_atom_site_label
_atom_site_fract_x
_atom_site_fract_y
_atom_site_fract_z
Si Si1 0.316488 0.756478 0.417160
Si Si2 0.924400 0.523089 0.960649
Si Si3 0.203286 0.763606 0.280901
Si Si4 0.459608 0.260725 0.740966
Si Si5 0.500548 0.745462 0.590839
Si Si6 0.400492 0.140811 0.508475
Si Si7 0.787873 0.606738 0.624554
O O1 0.240880 0.512188 0.443334
O O2 0.488720 0.699877 0.416005
O O3 0.247458 0.798866 0.351995
O O4 0.302183 0.954415 0.470223
O O5 0.969851 0.577831 0.030684
O O6 0.996286 0.258169 0.957262
O O7 0.364119 0.743347 0.248265
O O8 0.113429 0.509279 0.270352
O O9 0.109931 0.003781 0.263609
O O10 0.401710 0.277693 0.671166
O O11 0.501599 0.001482 0.558186
O O12 0.623021 0.677751 0.640210
O O13 0.342330 0.670620 0.617303
O O14 0.302086 0.284557 0.556484
#
# Coordination Sequence:
#
# PCOD9340593 Si02
#       7
#     4   4   4   4   4   4   4
#     4  11  24  41  69  95 144 177 243 296 369 442
#     4  10  21  39  62 100 134 178 225 291 368 440
#     4  12  29  51  79 111 151 204 261 315 378 448
#     4  12  29  51  79 111 151 204 261 315 378 448
#     4  10  21  39  62 100 134 178 225 291 368 440
#     4  10  22  36  68 100 134 176 230 294 374 432
#     4  11  24  41  69  95 144 177 243 296 369 442
#
# _framework density 25.432554
#
# number of rings (size 3 to 8) (size 9 to 14) (size 15 to 20)
#    0.000    1.143    0.000    6.000    8.000    2.286 
#    0.000    0.000    0.000    0.000    0.000    0.000 
#    0.000    0.000    0.000    0.000    0.000    0.000 
#
# Total GULP energy -156276.170829 kJ/mol
# GULP energy per Si atom -5581.291815 kJ/mol
# Density = 2.537467 g / cm^3
# Si number density = 25.432554 Si / 1000 Ang^3
#
#
#
# Elastic Constant Matrix: (Units=GPa)
#
#
# Indices 1 2 3 4 5 6 
#
# 1 118.9768 31.6772 -12.5130 0.0000 0.0000 0.0000
# 2 31.6772 88.0210 5.5768 0.0000 0.0000 0.0000
# 3 -12.5130 5.5768 86.2514 0.0000 0.0000 0.0000
# 4 0.0000 0.0000 0.0000 26.4073 0.0000 0.0000
# 5 0.0000 0.0000 0.0000 0.0000 38.0885 0.0000
# 6 0.0000 0.0000 0.0000 0.0000 0.0000 32.3654
#
#
#
# Elastic Compliance Matrix: (Units=1/GPa)
#
#
# Indices 1 2 3 4 5 6 
#
# 1 0.009513 -0.003525 0.001608 0.000000 0.000000 0.000000
# 2 -0.003525 0.012714 -0.001334 0.000000 0.000000 0.000000
# 3 0.001608 -0.001334 0.011914 0.000000 0.000000 0.000000
# 4 0.000000 0.000000 0.000000 0.037868 0.000000 0.000000
# 5 0.000000 0.000000 0.000000 0.000000 0.026255 0.000000
# 6 0.000000 0.000000 0.000000 0.000000 0.000000 0.030897
#
#
# Mechanical properties :
#
#
# Convention : Reuss Voigt Hill
#
# Bulk Modulus (GPa) = 36.18116 38.08123 37.13120
# Shear Modulus (GPa) = 34.51249 37.27279 35.89264
#
# Velocity S-wave (km/s) = 3.68777 3.83241 3.76079
# Velocity P-wave (km/s) = 5.69123 5.88125 5.78702
#
# Compressibility (1/GPa) = 0.02763870
#
# Stress axis : x y z
#
# Youngs Moduli (GPa) = 105.12225 78.65270 83.93826
#
# Poissons Ratio (x) = 0.27728 -0.13497
# Poissons Ratio (y) = 0.37059 0.11193
# Poissons Ratio (z) = -0.16904 0.10488
#
# Static dielectric constant tensor:
#      x y z
#    x 2.141600 0.000000 0.000000 
#    y 0.000000 2.203170 0.000000 
#    z 0.000000 0.000000 1.961650 
# 
# From -- ./inp_files/5660.got.cif
#   From: 2010.05.17/outbox.cif.g08.bks.cpg/sg29_3_cif.got.tgz:5660.got - 2010.06.04 01:19:37.
