data_PCOD9340340
_publ_section_title
;
Structure prediction by ZEFSAII (Michael W. Deem and Ramdas Pophale) SiO2 
 PCOD9340340
Probable space group: P C A 21
;
_chemical_formula_sum "Si O2"
_cell_formula_units_Z 32
_cell_length_a 9.538219
_cell_length_b 20.080589
_cell_length_c 8.656536
_cell_angle_alpha 90.000000
_cell_angle_beta 90.000000
_cell_angle_gamma 90.000000
_cell_volume 1658.012790
_symmetry_space_group_name_H-M "P C A 21"
_symmetry_group_IT_number 29
_symmetry_cell_setting 'orthorhombic'
loop_
_space_group_symop_operation_xyz
x,y,z
-x,-y,1/2+z
1/2-x,y,1/2+z
1/2+x,-y,z
loop_
_atom_site_type_symbol
_atom_site_label
_atom_site_fract_x
_atom_site_fract_y
_atom_site_fract_z
Si Si1 0.348795 0.618732 0.776040
Si Si2 0.854687 0.540526 0.781816
Si Si3 0.617703 0.612415 0.966649
Si Si4 0.334269 0.047251 0.811796
Si Si5 0.329750 0.171109 0.212309
Si Si6 0.938795 0.959632 0.166234
Si Si7 0.202089 0.266265 0.440854
Si Si8 0.943337 0.359010 0.427208
O O1 0.341321 0.538307 0.784670
O O2 0.470714 0.635905 0.898043
O O3 0.196459 0.645141 0.824798
O O4 0.397094 0.641294 0.606086
O O5 0.709006 0.574729 0.835403
O O6 0.896138 0.563923 0.611165
O O7 0.973708 0.572019 0.892360
O O8 0.711417 0.674657 0.021676
O O9 0.302235 0.122038 0.749097
O O10 0.434437 0.007924 0.696540
O O11 0.182282 0.014876 0.782938
O O12 0.385305 0.043317 0.988763
O O13 0.309147 0.235320 0.317521
O O14 0.455613 0.117612 0.221407
O O15 0.330860 0.203344 0.045809
O O16 0.057697 0.301623 0.389978
#
# Coordination Sequence:
#
# PCOD9340340 Si02
#       8
#     4   4   4   4   4   4   4   4
#     4  12  22  39  58  84 123 152 205 265 331 365
#     4  11  21  38  58  91 114 156 204 258 324 390
#     4  11  23  37  62  88 118 160 203 261 308 368
#     4  10  20  36  63  96 129 158 198 244 302 341
#     4  10  20  38  65  87 117 165 200 240 288 358
#     4  10  20  36  63  97 129 159 198 244 302 341
#     4  11  21  41  61  83 120 158 221 238 289 375
#     4  11  25  37  60  86 118 166 199 264 314 368
#
# _framework density 19.300212999999999
#
# number of rings (size 3 to 8) (size 9 to 14) (size 15 to 20)
#    0.750    0.500    1.250    7.500    1.750    0.000 
#    0.000    0.000    8.250    0.000    0.000    0.000 
#    0.000    0.000    0.000    0.000    0.000    0.000 
#
# Total GULP energy -178297.084358 kJ/mol
# GULP energy per Si atom -5571.783886 kJ/mol
# Density = 1.925628 g / cm^3
# Si number density = 19.300213 Si / 1000 Ang^3
#
#
#
# Elastic Constant Matrix: (Units=GPa)
#
#
# Indices 1 2 3 4 5 6 
#
# 1 66.6730 20.1553 9.2424 0.0000 0.0000 0.0000
# 2 20.1553 71.4701 10.3509 0.0000 0.0000 0.0000
# 3 9.2424 10.3509 63.2389 0.0000 0.0000 0.0000
# 4 0.0000 0.0000 0.0000 33.2875 0.0000 0.0000
# 5 0.0000 0.0000 0.0000 0.0000 33.2114 0.0000
# 6 0.0000 0.0000 0.0000 0.0000 0.0000 26.5719
#
#
#
# Elastic Compliance Matrix: (Units=1/GPa)
#
#
# Indices 1 2 3 4 5 6 
#
# 1 0.016572 -0.004428 -0.001697 0.000000 0.000000 0.000000
# 2 -0.004428 0.015515 -0.001892 0.000000 0.000000 0.000000
# 3 -0.001697 -0.001892 0.016371 0.000000 0.000000 0.000000
# 4 0.000000 0.000000 0.000000 0.030041 0.000000 0.000000
# 5 0.000000 0.000000 0.000000 0.000000 0.030110 0.000000
# 6 0.000000 0.000000 0.000000 0.000000 0.000000 0.037634
#
#
# Mechanical properties :
#
#
# Convention : Reuss Voigt Hill
#
# Bulk Modulus (GPa) = 30.84223 31.20877 31.02550
# Shear Modulus (GPa) = 28.88745 29.38971 29.13858
#
# Velocity S-wave (km/s) = 3.87297 3.90650 3.88977
# Velocity P-wave (km/s) = 6.00124 6.04590 6.02361
#
# Compressibility (1/GPa) = 0.03242308
#
# Stress axis : x y z
#
# Youngs Moduli (GPa) = 60.34137 64.45539 61.08416
#
# Poissons Ratio (x) = 0.28539 0.10368
# Poissons Ratio (y) = 0.26718 0.11559
# Poissons Ratio (z) = 0.10242 0.12197
#
# Static dielectric constant tensor:
#      x y z
#    x 1.667090 0.000000 0.000000 
#    y 0.000000 1.668440 0.000000 
#    z 0.000000 0.000000 1.770630 
# 
# From -- ./inp_files/1267.got.cif
#   From: 2010.05.17/outbox.cif.g08.bks.cpg/sg29_1_cif.got.tgz:1267.got - 2010.06.04 01:19:37.
