data_PCOD9340765
_publ_section_title
;
Structure prediction by ZEFSAII (Michael W. Deem and Ramdas Pophale) SiO2 
 PCOD9340765
Probable space group: P C A 21
;
_chemical_formula_sum "Si O2"
_cell_formula_units_Z 24
_cell_length_a 13.422865
_cell_length_b 7.430237
_cell_length_c 9.983034
_cell_angle_alpha 90.000000
_cell_angle_beta 90.000000
_cell_angle_gamma 90.000000
_cell_volume 995.658577
_symmetry_space_group_name_H-M "P C A 21"
_symmetry_group_IT_number 29
_symmetry_cell_setting 'orthorhombic'
loop_
_space_group_symop_operation_xyz
x,y,z
-x,-y,1/2+z
1/2-x,y,1/2+z
1/2+x,-y,z
loop_
_atom_site_type_symbol
_atom_site_label
_atom_site_fract_x
_atom_site_fract_y
_atom_site_fract_z
Si Si1 0.991161 0.500200 0.294810
Si Si2 0.947133 0.142936 0.153642
Si Si3 0.166523 0.182559 0.789745
Si Si4 0.666081 0.381830 0.457773
Si Si5 0.172910 0.071694 0.084521
Si Si6 0.176776 0.652338 0.159512
O O1 0.900765 0.639902 0.305818
O O2 0.950209 0.306553 0.258460
O O3 0.068252 0.501042 0.420314
O O4 0.066865 0.569307 0.177100
O O5 0.057986 0.120808 0.101399
O O6 0.879633 0.205739 0.028967
O O7 0.175951 0.858014 0.111767
O O8 0.905878 0.967326 0.225056
O O9 0.261088 0.179654 0.691813
O O10 0.203622 0.119618 0.934582
O O11 0.749093 0.450247 0.559899
O O12 0.213699 0.654421 0.313351
#
# Coordination Sequence:
#
# PCOD9340765 Si02
#       6
#     4   4   4   4   4   4
#     4  10  26  49  71 111 147 194 249 300 367 444
#     4  12  25  48  76 105 151 198 246 309 372 443
#     4  12  27  50  76 109 154 192 255 301 376 438
#     4  10  22  46  70 110 146 190 249 297 373 437
#     4  12  25  47  75 112 145 200 249 310 369 442
#     4  10  21  44  74 105 145 188 242 305 363 434
#
# _framework density 24.104648000000001
#
# number of rings (size 3 to 8) (size 9 to 14) (size 15 to 20)
#    1.000    0.000    5.000    1.000    0.000    2.667 
#    6.000    0.000    0.000    0.000    0.000    0.000 
#    0.000    0.000    0.000    0.000    0.000    0.000 
#
# Total GULP energy -134370.442665 kJ/mol
# GULP energy per Si atom -5598.768444 kJ/mol
# Density = 2.404978 g / cm^3
# Si number density = 24.104648 Si / 1000 Ang^3
#
#
#
# Elastic Constant Matrix: (Units=GPa)
#
#
# Indices 1 2 3 4 5 6 
#
# 1 114.5320 6.3153 35.9655 0.0000 0.0000 0.0000
# 2 6.3153 58.4522 15.9032 0.0000 0.0000 0.0000
# 3 35.9655 15.9032 146.1536 0.0000 0.0000 0.0000
# 4 0.0000 0.0000 0.0000 22.7594 0.0000 0.0000
# 5 0.0000 0.0000 0.0000 0.0000 51.4402 0.0000
# 6 0.0000 0.0000 0.0000 0.0000 0.0000 12.8314
#
#
#
# Elastic Compliance Matrix: (Units=1/GPa)
#
#
# Indices 1 2 3 4 5 6 
#
# 1 0.009472 -0.000401 -0.002287 0.000000 0.000000 0.000000
# 2 -0.000401 0.017647 -0.001821 0.000000 0.000000 0.000000
# 3 -0.002287 -0.001821 0.007603 0.000000 0.000000 0.000000
# 4 0.000000 0.000000 0.000000 0.043938 0.000000 0.000000
# 5 0.000000 0.000000 0.000000 0.000000 0.019440 0.000000
# 6 0.000000 0.000000 0.000000 0.000000 0.000000 0.077934
#
#
# Mechanical properties :
#
#
# Convention : Reuss Voigt Hill
#
# Bulk Modulus (GPa) = 38.90717 48.38953 43.64835
# Shear Modulus (GPa) = 25.82377 34.80314 30.31345
#
# Velocity S-wave (km/s) = 3.27665 3.80391 3.55008
# Velocity P-wave (km/s) = 5.52189 6.27784 5.91196
#
# Compressibility (1/GPa) = 0.02570220
#
# Stress axis : x y z
#
# Youngs Moduli (GPa) = 105.57988 56.66718 131.52489
#
# Poissons Ratio (x) = 0.02273 0.30081
# Poissons Ratio (y) = 0.04234 0.23957
# Poissons Ratio (z) = 0.24147 0.10322
#
# Static dielectric constant tensor:
#      x y z
#    x 1.927840 0.000000 0.000000 
#    y 0.000000 1.916370 0.000000 
#    z 0.000000 0.000000 1.924900 
# 
# From -- ./inp_files/3115.got.cif
#   From: 2010.05.17/outbox.cif.g08.bks.cpg/sg29_2_cif.got.tgz:3115.got - 2010.06.04 01:19:37.
