data_PCOD9340848
_publ_section_title
;
Structure prediction by ZEFSAII (Michael W. Deem and Ramdas Pophale) SiO2 
 PCOD9340848
Probable space group: P C A 21
;
_chemical_formula_sum "Si O2"
_cell_formula_units_Z 28
_cell_length_a 5.419286
_cell_length_b 15.642417
_cell_length_c 13.313872
_cell_angle_alpha 90.000000
_cell_angle_beta 90.000000
_cell_angle_gamma 90.000000
_cell_volume 1128.626668
_symmetry_space_group_name_H-M "P C A 21"
_symmetry_group_IT_number 29
_symmetry_cell_setting 'orthorhombic'
loop_
_space_group_symop_operation_xyz
x,y,z
-x,-y,1/2+z
1/2-x,y,1/2+z
1/2+x,-y,z
loop_
_atom_site_type_symbol
_atom_site_label
_atom_site_fract_x
_atom_site_fract_y
_atom_site_fract_z
Si Si1 0.976478 0.535067 0.642270
Si Si2 0.860755 0.530112 0.877162
Si Si3 0.388551 0.729577 0.171350
Si Si4 0.054468 0.840871 0.314047
Si Si5 0.169311 0.823766 0.993754
Si Si6 0.115182 0.051500 0.632879
Si Si7 0.174195 0.279791 0.369792
O O1 0.694225 0.527100 0.602032
O O2 0.920694 0.512521 0.759269
O O3 0.093020 0.630489 0.638558
O O4 0.641818 0.470142 0.916191
O O5 0.744500 0.623993 0.883637
O O6 0.168865 0.766718 0.242034
O O7 0.607616 0.735006 0.252406
O O8 0.366203 0.791704 0.076482
O O9 0.249821 0.876638 0.394600
O O10 0.927776 0.909705 0.243719
O O11 0.874212 0.791284 0.387858
O O12 0.051631 0.739639 0.943128
O O13 0.964617 0.876116 0.054455
O O14 0.893016 0.982085 0.620798
#
# Coordination Sequence:
#
# PCOD9340848 Si02
#       7
#     4   4   4   4   4   4   4
#     4   9  18  32  55  87 123 171 225 276 330 383
#     4   9  19  33  58  90 131 178 229 280 335 383
#     4   9  21  39  62  91 130 177 225 277 332 397
#     4  10  24  42  71  97 133 174 226 271 338 407
#     4  10  24  44  67 101 131 178 223 271 340 414
#     4  11  28  49  74 103 138 171 214 275 341 408
#     4  10  22  39  67  95 136 183 232 284 330 402
#
# _framework density 24.808910999999998
#
# number of rings (size 3 to 8) (size 9 to 14) (size 15 to 20)
#    0.000    2.286    0.000    0.000   20.000    2.286 
#    0.000    1.429    0.000    0.000    0.000    0.000 
#    0.000    0.000    0.000    0.000    0.000    0.000 
#
# Total GULP energy -156145.097132 kJ/mol
# GULP energy per Si atom -5576.610612 kJ/mol
# Density = 2.475244 g / cm^3
# Si number density = 24.808911 Si / 1000 Ang^3
#
#
#
# Elastic Constant Matrix: (Units=GPa)
#
#
# Indices 1 2 3 4 5 6 
#
# 1 64.0318 11.9734 28.1475 0.0000 0.0000 0.0000
# 2 11.9734 60.1082 32.0781 0.0000 0.0000 0.0000
# 3 28.1475 32.0781 100.8629 0.0000 0.0000 0.0000
# 4 0.0000 0.0000 0.0000 14.5550 0.0000 0.0000
# 5 0.0000 0.0000 0.0000 0.0000 16.8619 0.0000
# 6 0.0000 0.0000 0.0000 0.0000 0.0000 33.2235
#
#
#
# Elastic Compliance Matrix: (Units=1/GPa)
#
#
# Indices 1 2 3 4 5 6 
#
# 1 0.017859 -0.001081 -0.004640 0.000000 0.000000 0.000000
# 2 -0.001081 0.020103 -0.006092 0.000000 0.000000 0.000000
# 3 -0.004640 -0.006092 0.013147 0.000000 0.000000 0.000000
# 4 0.000000 0.000000 0.000000 0.068705 0.000000 0.000000
# 5 0.000000 0.000000 0.000000 0.000000 0.059305 0.000000
# 6 0.000000 0.000000 0.000000 0.000000 0.000000 0.030099
#
#
# Mechanical properties :
#
#
# Convention : Reuss Voigt Hill
#
# Bulk Modulus (GPa) = 36.38632 41.04454 38.71543
# Shear Modulus (GPa) = 20.66072 23.11502 21.88787
#
# Velocity S-wave (km/s) = 2.88895 3.05572 2.97351
# Velocity P-wave (km/s) = 5.08198 5.38796 5.23720
#
# Compressibility (1/GPa) = 0.02748286
#
# Stress axis : x y z
#
# Youngs Moduli (GPa) = 55.99387 49.74365 76.06453
#
# Poissons Ratio (x) = 0.05378 0.35294
# Poissons Ratio (y) = 0.06054 0.46337
# Poissons Ratio (z) = 0.25981 0.30303
#
# Static dielectric constant tensor:
#      x y z
#    x 2.098150 0.000000 0.000000 
#    y 0.000000 1.974600 0.000000 
#    z 0.000000 0.000000 1.984440 
# 
# From -- ./inp_files/4074.got.cif
#   From: 2010.05.17/outbox.cif.g08.bks.cpg/sg29_3_cif.got.tgz:4074.got - 2010.06.04 01:19:37.
