data_PCOD9340829
_publ_section_title
;
Structure prediction by ZEFSAII (Michael W. Deem and Ramdas Pophale) SiO2 
 PCOD9340829
Probable space group: P C A 21
;
_chemical_formula_sum "Si O2"
_cell_formula_units_Z 20
_cell_length_a 14.929414
_cell_length_b 9.353834
_cell_length_c 4.860133
_cell_angle_alpha 90.000000
_cell_angle_beta 90.000000
_cell_angle_gamma 90.000000
_cell_volume 678.704258
_symmetry_space_group_name_H-M "P C A 21"
_symmetry_group_IT_number 29
_symmetry_cell_setting 'orthorhombic'
loop_
_space_group_symop_operation_xyz
x,y,z
-x,-y,1/2+z
1/2-x,y,1/2+z
1/2+x,-y,z
loop_
_atom_site_type_symbol
_atom_site_label
_atom_site_fract_x
_atom_site_fract_y
_atom_site_fract_z
Si Si1 0.191370 0.084305 0.039790
Si Si2 0.969030 0.581069 0.986533
Si Si3 0.304932 0.470177 0.583415
Si Si4 0.379272 0.769637 0.415869
Si Si5 0.999874 0.890573 0.495679
O O1 0.223938 0.112790 0.345762
O O2 0.101069 0.168888 0.958948
O O3 0.168294 0.917114 0.990132
O O4 0.885296 0.576447 0.785336
O O5 0.038287 0.499823 0.774840
O O6 0.023184 0.726461 0.048136
O O7 0.278502 0.424700 0.277339
O O8 0.317233 0.641782 0.528084
O O9 0.416263 0.794260 0.100181
O O10 0.017370 0.006230 0.262078
#
# Coordination Sequence:
#
# PCOD9340829 Si02
#       5
#     4   4   4   4   4
#     4  11  22  38  60  92 124 157 209 273 318 365
#     4  10  22  39  60  90 127 168 214 264 322 394
#     4  11  22  38  60  92 124 157 209 273 318 365
#     4  10  22  40  64  88 122 172 214 252 322 398
#     4  10  22  39  60  90 127 168 214 264 322 394
#
# _framework density 29.467912999999999
#
# number of rings (size 3 to 8) (size 9 to 14) (size 15 to 20)
#    0.000    1.600    0.000    6.000    0.000   12.800 
#    0.000    2.000    0.000    0.000    0.000    0.000 
#    0.000    0.000    0.000    0.000    0.000    0.000 
#
# Total GULP energy -111789.251724 kJ/mol
# GULP energy per Si atom -5589.462586 kJ/mol
# Density = 2.940084 g / cm^3
# Si number density = 29.467913 Si / 1000 Ang^3
#
#
#
# Elastic Constant Matrix: (Units=GPa)
#
#
# Indices 1 2 3 4 5 6 
#
# 1 112.5495 15.3170 24.5038 0.0000 0.0000 0.0000
# 2 15.3170 145.1906 -10.6944 0.0000 0.0000 0.0000
# 3 24.5038 -10.6944 139.5277 0.0000 0.0000 0.0000
# 4 0.0000 0.0000 0.0000 7.3760 0.0000 0.0000
# 5 0.0000 0.0000 0.0000 0.0000 70.7364 0.0000
# 6 0.0000 0.0000 0.0000 0.0000 0.0000 41.0663
#
#
#
# Elastic Compliance Matrix: (Units=1/GPa)
#
#
# Indices 1 2 3 4 5 6 
#
# 1 0.009416 -0.001122 -0.001740 0.000000 0.000000 0.000000
# 2 -0.001122 0.007060 0.000738 0.000000 0.000000 0.000000
# 3 -0.001740 0.000738 0.007529 0.000000 0.000000 0.000000
# 4 0.000000 0.000000 0.000000 0.135574 0.000000 0.000000
# 5 0.000000 0.000000 0.000000 0.000000 0.014137 0.000000
# 6 0.000000 0.000000 0.000000 0.000000 0.000000 0.024351
#
#
# Mechanical properties :
#
#
# Convention : Reuss Voigt Hill
#
# Bulk Modulus (GPa) = 50.60853 50.61338 50.61096
# Shear Modulus (GPa) = 23.93488 48.37850 36.15669
#
# Velocity S-wave (km/s) = 2.85307 4.05623 3.50663
# Velocity P-wave (km/s) = 5.29761 6.25703 5.79720
#
# Compressibility (1/GPa) = 0.01975952
#
# Stress axis : x y z
#
# Youngs Moduli (GPa) = 106.19815 141.63941 132.81748
#
# Poissons Ratio (x) = 0.15885 0.23106
# Poissons Ratio (y) = 0.11910 -0.09803
# Poissons Ratio (z) = 0.18475 -0.10454
#
# Static dielectric constant tensor:
#      x y z
#    x 2.494820 0.000000 0.000000 
#    y 0.000000 2.369220 0.000000 
#    z 0.000000 0.000000 2.351070 
# 
# From -- ./inp_files/154.got.cif
#   From: 2010.05.17/outbox.cif.g08.bks.cpg/sg29_1_cif.got.tgz:154.got - 2010.06.04 01:19:37.
