data_PCOD9340570
_publ_section_title
;
Structure prediction by ZEFSAII (Michael W. Deem and Ramdas Pophale) SiO2 
 PCOD9340570
Probable space group: P C A 21
;
_chemical_formula_sum "Si O2"
_cell_formula_units_Z 28
_cell_length_a 31.183841
_cell_length_b 5.395198
_cell_length_c 7.000935
_cell_angle_alpha 90.000000
_cell_angle_beta 90.000000
_cell_angle_gamma 90.000000
_cell_volume 1177.858283
_symmetry_space_group_name_H-M "P C A 21"
_symmetry_group_IT_number 29
_symmetry_cell_setting 'orthorhombic'
loop_
_space_group_symop_operation_xyz
x,y,z
-x,-y,1/2+z
1/2-x,y,1/2+z
1/2+x,-y,z
loop_
_atom_site_type_symbol
_atom_site_label
_atom_site_fract_x
_atom_site_fract_y
_atom_site_fract_z
Si Si1 0.455993 0.104731 0.983080
Si Si2 0.142097 0.702776 0.979345
Si Si3 0.686930 0.798880 0.030202
Si Si4 0.169867 0.703432 0.531894
Si Si5 0.714062 0.794293 0.590567
Si Si6 0.049856 0.804009 0.119080
Si Si7 0.925052 0.395245 0.981253
O O1 0.429003 0.333074 0.067143
O O2 0.444023 0.039042 0.763256
O O3 0.444702 0.843849 0.084982
O O4 0.505720 0.163095 0.010170
O O5 0.159040 0.445684 0.068156
O O6 0.091399 0.741083 0.997652
O O7 0.163954 0.942968 0.074076
O O8 0.156621 0.702068 0.757330
O O9 0.734900 0.793285 0.110768
O O10 0.694490 0.796403 0.801937
O O11 0.198366 0.460578 0.495309
O O12 0.123661 0.675372 0.434220
O O13 0.195807 0.955658 0.495004
O O14 0.047473 0.593632 0.284718
#
# Coordination Sequence:
#
# PCOD9340570 Si02
#       7
#     4   4   4   4   4   4   4
#     4  10  25  41  61  90 122 158 207 251 308 367
#     4  10  23  38  62  86 124 156 203 250 303 361
#     4  10  22  39  59  91 118 161 198 247 303 356
#     4  10  21  39  60  90 120 163 199 248 302 358
#     4  10  21  38  61  87 124 156 201 245 299 362
#     4  10  26  40  65  88 126 157 209 252 313 362
#     4  10  24  39  62  90 122 155 211 241 314 354
#
# _framework density 23.771958999999999
#
# number of rings (size 3 to 8) (size 9 to 14) (size 15 to 20)
#    0.857    1.143    0.000    1.714    6.000    2.286 
#    0.000    0.000    0.000    0.000    0.000    0.000 
#    0.000    0.000    0.000    0.000    0.000    0.000 
#
# Total GULP energy -156395.738240 kJ/mol
# GULP energy per Si atom -5585.562080 kJ/mol
# Density = 2.371785 g / cm^3
# Si number density = 23.771959 Si / 1000 Ang^3
#
#
#
# Elastic Constant Matrix: (Units=GPa)
#
#
# Indices 1 2 3 4 5 6 
#
# 1 139.1715 80.0459 6.6309 0.0000 0.0000 0.0000
# 2 80.0459 209.8493 24.1012 0.0000 0.0000 0.0000
# 3 6.6309 24.1012 55.2808 0.0000 0.0000 0.0000
# 4 0.0000 0.0000 0.0000 -5.5826 0.0000 0.0000
# 5 0.0000 0.0000 0.0000 0.0000 20.9575 0.0000
# 6 0.0000 0.0000 0.0000 0.0000 0.0000 30.8943
#
#
#
# Elastic Compliance Matrix: (Units=1/GPa)
#
#
# Indices 1 2 3 4 5 6 
#
# 1 0.009215 -0.003567 0.000450 0.000000 0.000000 0.000000
# 2 -0.003567 0.006397 -0.002361 0.000000 0.000000 0.000000
# 3 0.000450 -0.002361 0.019065 0.000000 0.000000 0.000000
# 4 0.000000 0.000000 0.000000 -0.179128 0.000000 0.000000
# 5 0.000000 0.000000 0.000000 0.000000 0.047716 0.000000
# 6 0.000000 0.000000 0.000000 0.000000 0.000000 0.032368
#
#
# Mechanical properties :
#
#
# Convention : Reuss Voigt Hill
#
# Bulk Modulus (GPa) = 42.15705 69.53974 55.84840
# Shear Modulus (GPa) = -109.88201 28.82209 -40.52996
#
# Velocity S-wave (km/s) = -6.80615 3.48579 -4.13358
# Velocity P-wave (km/s) = 6.63269 6.74665 0.87316
#
# Compressibility (1/GPa) = 0.02372082
#
# Stress axis : x y z
#
# Youngs Moduli (GPa) = 108.51346 156.32211 52.45237
#
# Poissons Ratio (x) = 0.55757 -0.02359
# Poissons Ratio (y) = 0.38705 0.12385
# Poissons Ratio (z) = -0.04879 0.36910
#
# Static dielectric constant tensor:
#      x y z
#    x 1.841550 0.000000 0.000000 
#    y 0.000000 1.926080 0.000000 
#    z 0.000000 0.000000 1.974270 
# 
# From -- ./inp_files/2528.got.cif
#   From: 2010.05.17/outbox.cif.g08.bks.cpg/sg29_2_cif.got.tgz:2528.got - 2010.06.04 01:19:37.
