data_PCOD9340316
_publ_section_title
;
Structure prediction by ZEFSAII (Michael W. Deem and Ramdas Pophale) SiO2 
 PCOD9340316
Probable space group: P C A 21
;
_chemical_formula_sum "Si O2"
_cell_formula_units_Z 24
_cell_length_a 13.978358
_cell_length_b 4.951444
_cell_length_c 13.484088
_cell_angle_alpha 90.000000
_cell_angle_beta 90.000000
_cell_angle_gamma 90.000000
_cell_volume 933.274949
_symmetry_space_group_name_H-M "P C A 21"
_symmetry_group_IT_number 29
_symmetry_cell_setting 'orthorhombic'
loop_
_space_group_symop_operation_xyz
x,y,z
-x,-y,1/2+z
1/2-x,y,1/2+z
1/2+x,-y,z
loop_
_atom_site_type_symbol
_atom_site_label
_atom_site_fract_x
_atom_site_fract_y
_atom_site_fract_z
Si Si1 0.344829 0.270137 0.282520
Si Si2 0.468224 0.750524 0.249886
Si Si3 0.026807 0.999329 0.556476
Si Si4 0.719278 0.513813 0.990084
Si Si5 0.253369 0.997933 0.616629
Si Si6 0.556335 0.502568 0.439121
O O1 0.396818 0.504386 0.216685
O O2 0.328802 0.445558 0.382243
O O3 0.410612 0.004927 0.295832
O O4 0.253639 0.131311 0.226808
O O5 0.520407 0.883740 0.155702
O O6 0.535159 0.608397 0.329873
O O7 0.139415 0.998065 0.588969
O O8 0.020514 0.791896 0.466563
O O9 0.004981 0.292277 0.515153
O O10 0.831232 0.503017 0.960289
O O11 0.707318 0.285091 0.075050
O O12 0.698737 0.790893 0.044198
#
# Coordination Sequence:
#
# PCOD9340316 Si02
#       6
#     4   4   4   4   4   4
#     4  11  21  36  58  85 114 149 193 239 286 343
#     4  11  21  36  58  84 112 149 191 239 288 341
#     4   9  18  34  56  78 106 147 188 221 274 351
#     4  10  20  36  57  81 109 146 191 236 282 343
#     4   9  18  34  56  78 107 149 188 223 281 354
#     4  10  20  36  57  80 108 146 189 230 277 338
#
# _framework density 25.715895
#
# number of rings (size 3 to 8) (size 9 to 14) (size 15 to 20)
#    0.000    2.000    0.000    7.000    0.000    0.000 
#    0.000    5.000    0.000    0.000    0.000    0.000 
#    0.000    0.000    0.000    0.000    0.000    0.000 
#
# Total GULP energy -134020.014662 kJ/mol
# GULP energy per Si atom -5584.167278 kJ/mol
# Density = 2.565736 g / cm^3
# Si number density = 25.715895 Si / 1000 Ang^3
#
#
#
# Elastic Constant Matrix: (Units=GPa)
#
#
# Indices 1 2 3 4 5 6 
#
# 1 64.0511 -1.7562 10.6267 0.0000 0.0000 0.0000
# 2 -1.7562 146.7394 19.4718 0.0000 0.0000 0.0000
# 3 10.6267 19.4718 108.5331 0.0000 0.0000 0.0000
# 4 0.0000 0.0000 0.0000 55.7731 0.0000 0.0000
# 5 0.0000 0.0000 0.0000 0.0000 39.0073 0.0000
# 6 0.0000 0.0000 0.0000 0.0000 0.0000 6.5516
#
#
#
# Elastic Compliance Matrix: (Units=1/GPa)
#
#
# Indices 1 2 3 4 5 6 
#
# 1 0.015894 0.000406 -0.001629 0.000000 0.000000 0.000000
# 2 0.000406 0.006991 -0.001294 0.000000 0.000000 0.000000
# 3 -0.001629 -0.001294 0.009605 0.000000 0.000000 0.000000
# 4 0.000000 0.000000 0.000000 0.017930 0.000000 0.000000
# 5 0.000000 0.000000 0.000000 0.000000 0.025636 0.000000
# 6 0.000000 0.000000 0.000000 0.000000 0.000000 0.152635
#
#
# Mechanical properties :
#
#
# Convention : Reuss Voigt Hill
#
# Bulk Modulus (GPa) = 36.42038 41.77869 39.09953
# Shear Modulus (GPa) = 20.58643 39.66513 30.12578
#
# Velocity S-wave (km/s) = 2.83244 3.93165 3.42641
# Velocity P-wave (km/s) = 4.98902 6.07388 5.55798
#
# Compressibility (1/GPa) = 0.02745716
#
# Stress axis : x y z
#
# Youngs Moduli (GPa) = 62.91695 143.03314 104.10739
#
# Poissons Ratio (x) = -0.05813 0.16960
# Poissons Ratio (y) = -0.02557 0.13473
# Poissons Ratio (z) = 0.10250 0.18510
#
# Static dielectric constant tensor:
#      x y z
#    x 2.128840 0.000000 0.000000 
#    y 0.000000 1.955840 0.000000 
#    z 0.000000 0.000000 2.103150 
# 
# From -- ./inp_files/4640.got.cif
#   From: 2010.05.17/outbox.cif.g08.bks.cpg/sg29_3_cif.got.tgz:4640.got - 2010.06.04 01:19:37.
