data_PCOD9340518
_publ_section_title
;
Structure prediction by ZEFSAII (Michael W. Deem and Ramdas Pophale) SiO2 
 PCOD9340518
Probable space group: P C A 21
;
_chemical_formula_sum "Si O2"
_cell_formula_units_Z 28
_cell_length_a 15.654271
_cell_length_b 17.090342
_cell_length_c 4.936941
_cell_angle_alpha 90.000000
_cell_angle_beta 90.000000
_cell_angle_gamma 90.000000
_cell_volume 1320.813620
_symmetry_space_group_name_H-M "P C A 21"
_symmetry_group_IT_number 29
_symmetry_cell_setting 'orthorhombic'
loop_
_space_group_symop_operation_xyz
x,y,z
-x,-y,1/2+z
1/2-x,y,1/2+z
1/2+x,-y,z
loop_
_atom_site_type_symbol
_atom_site_label
_atom_site_fract_x
_atom_site_fract_y
_atom_site_fract_z
Si Si1 0.691247 0.379076 0.452710
Si Si2 0.556678 0.499669 0.692996
Si Si3 0.694939 0.796740 0.997485
Si Si4 0.309138 0.381405 0.442071
Si Si5 0.694755 0.200459 0.531362
Si Si6 0.602592 0.048701 0.320098
Si Si7 0.897052 0.951910 0.318590
O O1 0.772806 0.391757 0.651659
O O2 0.617076 0.435260 0.553560
O O3 0.663026 0.288638 0.480596
O O4 0.501055 0.532304 0.441155
O O5 0.616062 0.563730 0.838452
O O6 0.779915 0.802243 0.811320
O O7 0.662447 0.709417 0.933324
O O8 0.637030 0.868490 0.909887
O O9 0.271478 0.394887 0.740837
O O10 0.720322 0.194004 0.844537
O O11 0.635791 0.131003 0.427960
O O12 0.499823 0.050990 0.321419
O O13 0.631542 0.980465 0.525099
O O14 0.631204 0.019929 0.026314
#
# Coordination Sequence:
#
# PCOD9340518 Si02
#       7
#     4   4   4   4   4   4   4
#     4  10  21  40  61  82 115 155 189 229 290 349
#     4  12  24  38  60  92 118 146 194 242 286 340
#     4  10  21  36  57  83 107 141 189 232 272 326
#     4  10  21  40  61  82 115 155 189 229 290 349
#     4  10  21  36  57  83 107 141 189 232 272 326
#     4  10  21  36  53  77 111 148 181 221 280 336
#     4  10  21  36  53  77 111 148 181 221 280 336
#
# _framework density 21.199055999999999
#
# number of rings (size 3 to 8) (size 9 to 14) (size 15 to 20)
#    0.000    1.714    0.000    4.286    0.000    4.571 
#    0.000    4.286    0.000    0.000    0.000    0.000 
#    0.000    0.000    0.000    0.000    0.000    0.000 
#
# Total GULP energy -156506.844117 kJ/mol
# GULP energy per Si atom -5589.530147 kJ/mol
# Density = 2.115081 g / cm^3
# Si number density = 21.199056 Si / 1000 Ang^3
#
#
#
# Elastic Constant Matrix: (Units=GPa)
#
#
# Indices 1 2 3 4 5 6 
#
# 1 29.9946 31.3790 -2.2292 0.0000 0.0000 0.0000
# 2 31.3790 97.0676 -3.6099 0.0000 0.0000 0.0000
# 3 -2.2292 -3.6099 68.0753 0.0000 0.0000 0.0000
# 4 0.0000 0.0000 0.0000 28.3666 0.0000 0.0000
# 5 0.0000 0.0000 0.0000 0.0000 10.1208 0.0000
# 6 0.0000 0.0000 0.0000 0.0000 0.0000 -55.4195
#
#
#
# Elastic Compliance Matrix: (Units=1/GPa)
#
#
# Indices 1 2 3 4 5 6 
#
# 1 0.050418 -0.016269 0.000788 0.000000 0.000000 0.000000
# 2 -0.016269 0.015572 0.000293 0.000000 0.000000 0.000000
# 3 0.000788 0.000293 0.014731 0.000000 0.000000 0.000000
# 4 0.000000 0.000000 0.000000 0.035253 0.000000 0.000000
# 5 0.000000 0.000000 0.000000 0.000000 0.098806 0.000000
# 6 0.000000 0.000000 0.000000 0.000000 0.000000 -0.018044
#
#
# Mechanical properties :
#
#
# Convention : Reuss Voigt Hill
#
# Bulk Modulus (GPa) = 19.86282 27.35749 23.61015
# Shear Modulus (GPa) = 20.50069 7.92010 14.21040
#
# Velocity S-wave (km/s) = 3.11313 1.93499 2.59188
# Velocity P-wave (km/s) = 4.72357 4.23383 4.48539
#
# Compressibility (1/GPa) = 0.05034533
#
# Stress axis : x y z
#
# Youngs Moduli (GPa) = 19.83416 64.21638 67.88421
#
# Poissons Ratio (x) = 1.04475 -0.05351
# Poissons Ratio (y) = 0.32269 -0.01989
# Poissons Ratio (z) = -0.01563 -0.01882
#
# Static dielectric constant tensor:
#      x y z
#    x 1.751920 0.000000 0.000000 
#    y 0.000000 1.748820 0.000000 
#    z 0.000000 0.000000 1.746070 
# 
# From -- ./inp_files/250.got.cif
#   From: 2010.05.17/outbox.cif.g08.bks.cpg/sg29_1_cif.got.tgz:250.got - 2010.06.04 01:19:37.
