data_PCOD9340855
_publ_section_title
;
Structure prediction by ZEFSAII (Michael W. Deem and Ramdas Pophale) SiO2 
 PCOD9340855
Probable space group: P C A 21
;
_chemical_formula_sum "Si O2"
_cell_formula_units_Z 32
_cell_length_a 32.588059
_cell_length_b 5.591275
_cell_length_c 7.249696
_cell_angle_alpha 90.000000
_cell_angle_beta 90.000000
_cell_angle_gamma 90.000000
_cell_volume 1320.958406
_symmetry_space_group_name_H-M "P C A 21"
_symmetry_group_IT_number 29
_symmetry_cell_setting 'orthorhombic'
loop_
_space_group_symop_operation_xyz
x,y,z
-x,-y,1/2+z
1/2-x,y,1/2+z
1/2+x,-y,z
loop_
_atom_site_type_symbol
_atom_site_label
_atom_site_fract_x
_atom_site_fract_y
_atom_site_fract_z
Si Si1 0.842619 0.520214 0.599410
Si Si2 0.284012 0.973167 0.228862
Si Si3 0.689847 0.021960 0.157173
Si Si4 0.911098 0.602263 0.066193
Si Si5 0.073267 0.628004 0.162824
Si Si6 0.508589 0.363481 0.650917
Si Si7 0.818321 0.529809 0.189479
Si Si8 0.956143 0.987425 0.880592
O O1 0.830873 0.276145 0.705920
O O2 0.889695 0.470721 0.543066
O O3 0.816218 0.528209 0.412853
O O4 0.834576 0.774993 0.697043
O O5 0.304106 0.973721 0.433426
O O6 0.235085 0.979401 0.241606
O O7 0.298526 0.724498 0.134517
O O8 0.296952 0.221852 0.131379
O O9 0.948181 0.491329 0.185397
O O10 0.865796 0.554171 0.134655
O O11 0.915343 0.484964 0.862951
O O12 0.924561 0.875409 0.027217
O O13 0.028552 0.540595 0.107585
O O14 0.068921 0.908573 0.206195
O O15 0.489018 0.200826 0.808683
O O16 0.518298 0.194874 0.477639
#
# Coordination Sequence:
#
# PCOD9340855 Si02
#       8
#     4   4   4   4   4   4   4   4
#     4  10  23  40  63  92 126 162 206 256 311 373
#     4  10  22  41  63  92 123 160 203 253 313 377
#     4  10  22  41  63  92 123 160 203 253 313 377
#     4  10  23  39  59  90 123 161 213 254 311 372
#     4  10  23  39  59  90 123 161 213 254 311 372
#     4  10  22  40  60  90 122 164 212 260 312 376
#     4  10  23  40  63  92 126 162 206 256 311 373
#     4  10  22  40  62  86 126 160 218 260 318 376
#
# _framework density 24.224836
#
# number of rings (size 3 to 8) (size 9 to 14) (size 15 to 20)
#    0.000    2.000    0.000    1.500    7.000    7.000 
#    2.250    0.000    0.000    0.000    0.000    0.000 
#    0.000    0.000    0.000    0.000    0.000    0.000 
#
# Total GULP energy -178788.448331 kJ/mol
# GULP energy per Si atom -5587.139010 kJ/mol
# Density = 2.416970 g / cm^3
# Si number density = 24.224836 Si / 1000 Ang^3
#
#
#
# Elastic Constant Matrix: (Units=GPa)
#
#
# Indices 1 2 3 4 5 6 
#
# 1 143.8342 85.7184 -4.4195 0.0000 0.0000 0.0000
# 2 85.7184 197.2943 17.2569 0.0000 0.0000 0.0000
# 3 -4.4195 17.2569 42.2266 0.0000 0.0000 0.0000
# 4 0.0000 0.0000 0.0000 11.4607 0.0000 0.0000
# 5 0.0000 0.0000 0.0000 0.0000 28.5023 0.0000
# 6 0.0000 0.0000 0.0000 0.0000 0.0000 36.0191
#
#
#
# Elastic Compliance Matrix: (Units=1/GPa)
#
#
# Indices 1 2 3 4 5 6 
#
# 1 0.009699 -0.004462 0.002839 0.000000 0.000000 0.000000
# 2 -0.004462 0.007309 -0.003454 0.000000 0.000000 0.000000
# 3 0.002839 -0.003454 0.025391 0.000000 0.000000 0.000000
# 4 0.000000 0.000000 0.000000 0.087255 0.000000 0.000000
# 5 0.000000 0.000000 0.000000 0.000000 0.035085 0.000000
# 6 0.000000 0.000000 0.000000 0.000000 0.000000 0.027763
#
#
# Mechanical properties :
#
#
# Convention : Reuss Voigt Hill
#
# Bulk Modulus (GPa) = 31.01402 64.49630 47.75516
# Shear Modulus (GPa) = 23.42968 34.18304 28.80636
#
# Velocity S-wave (km/s) = 3.11332 3.76050 3.45211
# Velocity P-wave (km/s) = 5.07484 6.74811 5.97039
#
# Compressibility (1/GPa) = 0.03224348
#
# Stress axis : x y z
#
# Youngs Moduli (GPa) = 103.10412 136.81034 39.38479
#
# Poissons Ratio (x) = 0.61047 -0.11180
# Poissons Ratio (y) = 0.46007 0.13604
# Poissons Ratio (z) = -0.29268 0.47257
#
# Static dielectric constant tensor:
#      x y z
#    x 1.903640 0.000000 0.000000 
#    y 0.000000 2.016900 0.000000 
#    z 0.000000 0.000000 1.994550 
# 
# From -- ./inp_files/2593.got.cif
#   From: 2010.05.17/outbox.cif.g08.bks.cpg/sg29_2_cif.got.tgz:2593.got - 2010.06.04 01:19:37.
