data_PCOD9340995
_publ_section_title
;
Structure prediction by ZEFSAII (Michael W. Deem and Ramdas Pophale) SiO2 
 PCOD9340995
Probable space group: P C A 21
;
_chemical_formula_sum "Si O2"
_cell_formula_units_Z 28
_cell_length_a 23.810013
_cell_length_b 5.504384
_cell_length_c 8.436820
_cell_angle_alpha 90.000000
_cell_angle_beta 90.000000
_cell_angle_gamma 90.000000
_cell_volume 1105.725028
_symmetry_space_group_name_H-M "P C A 21"
_symmetry_group_IT_number 29
_symmetry_cell_setting 'orthorhombic'
loop_
_space_group_symop_operation_xyz
x,y,z
-x,-y,1/2+z
1/2-x,y,1/2+z
1/2+x,-y,z
loop_
_atom_site_type_symbol
_atom_site_label
_atom_site_fract_x
_atom_site_fract_y
_atom_site_fract_z
Si Si1 0.377857 0.945167 0.620990
Si Si2 0.561912 0.390373 0.659791
Si Si3 0.691480 0.936656 0.402414
Si Si4 0.725078 0.642667 0.686442
Si Si5 0.934642 0.884665 0.314218
Si Si6 0.278997 0.692177 0.456084
Si Si7 0.044686 0.614602 0.292272
O O1 0.361643 0.067329 0.787630
O O2 0.415736 0.080995 0.494351
O O3 0.320144 0.888865 0.529059
O O4 0.407369 0.693181 0.671171
O O5 0.581993 0.126405 0.717276
O O6 0.496673 0.413070 0.719281
O O7 0.564805 0.427804 0.471185
O O8 0.587148 0.627777 0.746550
O O9 0.715514 0.205136 0.437387
O O10 0.687083 0.786953 0.563122
O O11 0.743770 0.825146 0.304215
O O12 0.701743 0.422886 0.791671
O O13 0.774290 0.521087 0.582921
O O14 0.001794 0.845054 0.304634
#
# Coordination Sequence:
#
# PCOD9340995 Si02
#       7
#     4   4   4   4   4   4   4
#     4  12  24  47  78 104 145 205 253 303 397 456
#     4  10  23  47  74 105 156 190 244 325 380 433
#     4  11  22  45  71 104 147 190 242 314 367 454
#     4  10  22  43  72 102 153 188 236 315 373 432
#     4  10  25  47  74 110 151 196 250 324 374 458
#     4  11  22  45  70 105 144 186 242 310 368 450
#     4  10  24  46  77 106 148 197 255 317 379 459
#
# _framework density 25.322752000000001
#
# number of rings (size 3 to 8) (size 9 to 14) (size 15 to 20)
#    0.857    0.571    2.857    1.714    2.000    1.143 
#    7.714    0.000    3.143    0.000    0.000    0.000 
#    0.000    0.000    0.000    0.000    0.000    0.000 
#
# Total GULP energy -156617.282379 kJ/mol
# GULP energy per Si atom -5593.474371 kJ/mol
# Density = 2.526512 g / cm^3
# Si number density = 25.322752 Si / 1000 Ang^3
#
#
#
# Elastic Constant Matrix: (Units=GPa)
#
#
# Indices 1 2 3 4 5 6 
#
# 1 47.3644 8.1001 26.0959 0.0000 0.0000 0.0000
# 2 8.1001 110.4605 46.6137 0.0000 0.0000 0.0000
# 3 26.0959 46.6137 135.3176 0.0000 0.0000 0.0000
# 4 0.0000 0.0000 0.0000 56.9690 0.0000 0.0000
# 5 0.0000 0.0000 0.0000 0.0000 45.9800 0.0000
# 6 0.0000 0.0000 0.0000 0.0000 0.0000 12.0537
#
#
#
# Elastic Compliance Matrix: (Units=1/GPa)
#
#
# Indices 1 2 3 4 5 6 
#
# 1 0.023628 0.000223 -0.004633 0.000000 0.000000 0.000000
# 2 0.000223 0.010595 -0.003693 0.000000 0.000000 0.000000
# 3 -0.004633 -0.003693 0.009556 0.000000 0.000000 0.000000
# 4 0.000000 0.000000 0.000000 0.017553 0.000000 0.000000
# 5 0.000000 0.000000 0.000000 0.000000 0.021749 0.000000
# 6 0.000000 0.000000 0.000000 0.000000 0.000000 0.082962
#
#
# Mechanical properties :
#
#
# Convention : Reuss Voigt Hill
#
# Bulk Modulus (GPa) = 36.26931 50.52909 43.39920
# Shear Modulus (GPa) = 26.11794 37.15607 31.63700
#
# Velocity S-wave (km/s) = 3.21503 3.83469 3.53845
# Velocity P-wave (km/s) = 5.30432 6.29316 5.81978
#
# Compressibility (1/GPa) = 0.02757152
#
# Stress axis : x y z
#
# Youngs Moduli (GPa) = 42.32344 94.38455 104.65121
#
# Poissons Ratio (x) = -0.02101 0.48487
# Poissons Ratio (y) = -0.00942 0.38644
# Poissons Ratio (z) = 0.19609 0.34853
#
# Static dielectric constant tensor:
#      x y z
#    x 2.009120 0.000000 0.000000 
#    y 0.000000 1.983990 0.000000 
#    z 0.000000 0.000000 1.925000 
# 
# From -- ./inp_files/2519.got.cif
#   From: 2010.05.17/outbox.cif.g08.bks.cpg/sg29_2_cif.got.tgz:2519.got - 2010.06.04 01:19:37.
