data_PCOD9340532
_publ_section_title
;
Structure prediction by ZEFSAII (Michael W. Deem and Ramdas Pophale) SiO2 
 PCOD9340532
Probable space group: P C A 21
;
_chemical_formula_sum "Si O2"
_cell_formula_units_Z 32
_cell_length_a 15.284207
_cell_length_b 5.213474
_cell_length_c 18.667192
_cell_angle_alpha 90.000000
_cell_angle_beta 90.000000
_cell_angle_gamma 90.000000
_cell_volume 1487.473089
_symmetry_space_group_name_H-M "P C A 21"
_symmetry_group_IT_number 29
_symmetry_cell_setting 'orthorhombic'
loop_
_space_group_symop_operation_xyz
x,y,z
-x,-y,1/2+z
1/2-x,y,1/2+z
1/2+x,-y,z
loop_
_atom_site_type_symbol
_atom_site_label
_atom_site_fract_x
_atom_site_fract_y
_atom_site_fract_z
Si Si1 0.377136 0.459760 0.674420
Si Si2 0.449681 0.736876 0.113324
Si Si3 0.622864 0.959760 0.749595
Si Si4 0.050319 0.763124 0.310690
Si Si5 0.339695 0.501736 0.914226
Si Si6 0.298538 0.359110 0.125884
Si Si7 0.839695 0.001736 0.009788
Si Si8 0.298538 0.140890 0.798131
O O1 0.453651 0.368464 0.622543
O O2 0.419855 0.647273 0.733445
O O3 0.287878 0.532527 0.633991
O O4 0.338842 0.226561 0.721998
O O5 0.378702 0.521111 0.095207
O O6 0.419854 0.852727 0.190570
O O7 0.431760 0.935852 0.049600
O O8 0.546349 0.868464 0.801471
O O9 0.661159 0.726561 0.702016
O O10 0.712122 0.032527 0.790024
O O11 0.068240 0.564149 0.374414
O O12 0.121298 0.978890 0.328807
O O13 0.282308 0.394164 0.846548
O O14 0.344203 0.250000 0.962007
O O15 0.312446 0.750000 0.962007
O O16 0.282308 0.105837 0.077467
#
# Coordination Sequence:
#
# PCOD9340532 Si02
#       8
#     4   4   4   4   4   4   4   4
#     4  10  21  36  62 102 126 162 211 259 339 376
#     4  11  20  38  66  93 135 166 207 275 321 390
#     4  10  21  36  62 102 126 162 211 259 339 376
#     4  11  20  38  66  93 135 166 207 275 321 390
#     4  11  23  43  66  87 126 181 220 259 318 376
#     4  10  21  39  63  93 127 170 205 272 312 390
#     4  11  23  43  66  87 126 181 220 259 318 376
#     4  10  21  39  63  93 127 170 205 272 312 390
#
# _framework density 21.512996000000001
#
# number of rings (size 3 to 8) (size 9 to 14) (size 15 to 20)
#    0.000    1.500    5.000    0.750    0.000    0.000 
#    0.000    2.500    0.000    0.000    0.000    0.000 
#    0.000    0.000    0.000    0.000    0.000    0.000 
#
# Total GULP energy -178162.448229 kJ/mol
# GULP energy per Si atom -5567.576507 kJ/mol
# Density = 2.146403 g / cm^3
# Si number density = 21.512996 Si / 1000 Ang^3
#
#
#
# Elastic Constant Matrix: (Units=GPa)
#
#
# Indices 1 2 3 4 5 6 
#
# 1 115.5440 19.3483 3.7932 0.0000 0.0000 0.0000
# 2 19.3483 79.9737 8.7537 0.0000 0.0000 0.0000
# 3 3.7932 8.7537 42.9549 0.0000 0.0000 0.0000
# 4 0.0000 0.0000 0.0000 20.0002 0.0000 0.0000
# 5 0.0000 0.0000 0.0000 0.0000 8.0223 0.0000
# 6 0.0000 0.0000 0.0000 0.0000 0.0000 19.2246
#
#
#
# Elastic Compliance Matrix: (Units=1/GPa)
#
#
# Indices 1 2 3 4 5 6 
#
# 1 0.009026 -0.002144 -0.000360 0.000000 0.000000 0.000000
# 2 -0.002144 0.013299 -0.002521 0.000000 0.000000 0.000000
# 3 -0.000360 -0.002521 0.023826 0.000000 0.000000 0.000000
# 4 0.000000 0.000000 0.000000 0.049999 0.000000 0.000000
# 5 0.000000 0.000000 0.000000 0.000000 0.124652 0.000000
# 6 0.000000 0.000000 0.000000 0.000000 0.000000 0.052017
#
#
# Mechanical properties :
#
#
# Convention : Reuss Voigt Hill
#
# Bulk Modulus (GPa) = 27.70078 33.58476 30.64277
# Shear Modulus (GPa) = 16.95479 23.22126 20.08803
#
# Velocity S-wave (km/s) = 2.81039 3.28900 3.05907
# Velocity P-wave (km/s) = 4.84100 5.48348 5.17223
#
# Compressibility (1/GPa) = 0.03610007
#
# Stress axis : x y z
#
# Youngs Moduli (GPa) = 110.79617 75.19486 41.97141
#
# Poissons Ratio (x) = 0.16123 0.01511
# Poissons Ratio (y) = 0.23757 0.10580
# Poissons Ratio (z) = 0.03989 0.18955
#
# Static dielectric constant tensor:
#      x y z
#    x 1.790490 0.000000 0.000000 
#    y 0.000000 1.891790 0.000000 
#    z 0.000000 0.000000 2.092650 
# 
# From -- ./inp_files/5599.got.cif
#   From: 2010.05.17/outbox.cif.g08.bks.cpg/sg29_3_cif.got.tgz:5599.got - 2010.06.04 01:19:37.
