data_PCOD9340566
_publ_section_title
;
Structure prediction by ZEFSAII (Michael W. Deem and Ramdas Pophale) SiO2 
 PCOD9340566
Probable space group: P C A 21
;
_chemical_formula_sum "Si O2"
_cell_formula_units_Z 32
_cell_length_a 15.198202
_cell_length_b 16.225831
_cell_length_c 5.257202
_cell_angle_alpha 90.000000
_cell_angle_beta 90.000000
_cell_angle_gamma 90.000000
_cell_volume 1296.444188
_symmetry_space_group_name_H-M "P C A 21"
_symmetry_group_IT_number 29
_symmetry_cell_setting 'orthorhombic'
loop_
_space_group_symop_operation_xyz
x,y,z
-x,-y,1/2+z
1/2-x,y,1/2+z
1/2+x,-y,z
loop_
_atom_site_type_symbol
_atom_site_label
_atom_site_fract_x
_atom_site_fract_y
_atom_site_fract_z
Si Si1 0.128329 0.662973 0.131200
Si Si2 0.277202 0.799544 0.145670
Si Si3 0.035133 0.965969 0.419833
Si Si4 0.939156 0.507128 0.699141
Si Si5 0.038186 0.784497 0.527969
Si Si6 0.693896 0.757917 0.687911
Si Si7 0.554632 0.680320 0.373750
Si Si8 0.300985 0.047198 0.184240
O O1 0.219497 0.714253 0.086863
O O2 0.133500 0.565754 0.191396
O O3 0.081041 0.713025 0.357218
O O4 0.048999 0.661685 0.924870
O O5 0.227093 0.841805 0.372963
O O6 0.379240 0.800387 0.217765
O O7 0.024092 0.868557 0.379877
O O8 0.121047 0.992573 0.575783
O O9 0.966655 0.991735 0.644022
O O10 0.904088 0.597889 0.760769
O O11 0.994339 0.512779 0.435256
O O12 0.952640 0.755511 0.677710
O O13 0.741085 0.738418 0.951661
O O14 0.605386 0.708237 0.623815
O O15 0.675856 0.855494 0.669142
O O16 0.225203 0.033143 0.974841
#
# Coordination Sequence:
#
# PCOD9340566 Si02
#       8
#     4   4   4   4   4   4   4   4
#     4  10  22  40  66  98 131 178 218 270 330 403
#     4  10  21  38  59  95 137 166 220 262 324 395
#     4  12  28  44  67 102 138 171 231 286 335 400
#     4  10  21  38  62  96 131 167 219 268 323 396
#     4  11  24  40  68  99 133 180 220 273 334 403
#     4  10  24  41  65  93 125 163 223 281 334 394
#     4  11  22  41  69  94 131 176 222 269 339 401
#     4  10  22  44  66  89 126 177 217 273 343 398
#
# _framework density 24.682896
#
# number of rings (size 3 to 8) (size 9 to 14) (size 15 to 20)
#    0.000    1.500    2.500    1.500    5.250    3.000 
#    0.000    2.500    0.000    0.000    0.000    0.000 
#    0.000    0.000    0.000    0.000    0.000    0.000 
#
# Total GULP energy -178675.997635 kJ/mol
# GULP energy per Si atom -5583.624926 kJ/mol
# Density = 2.462672 g / cm^3
# Si number density = 24.682896 Si / 1000 Ang^3
#
#
#
# Elastic Constant Matrix: (Units=GPa)
#
#
# Indices 1 2 3 4 5 6 
#
# 1 85.5194 25.5372 21.1899 0.0000 0.0000 0.0000
# 2 25.5372 82.1073 -5.6503 0.0000 0.0000 0.0000
# 3 21.1899 -5.6503 85.7450 0.0000 0.0000 0.0000
# 4 0.0000 0.0000 0.0000 13.6204 0.0000 0.0000
# 5 0.0000 0.0000 0.0000 0.0000 42.2236 0.0000
# 6 0.0000 0.0000 0.0000 0.0000 0.0000 26.9519
#
#
#
# Elastic Compliance Matrix: (Units=1/GPa)
#
#
# Indices 1 2 3 4 5 6 
#
# 1 0.014004 -0.004615 -0.003765 0.000000 0.000000 0.000000
# 2 -0.004615 0.013755 0.002047 0.000000 0.000000 0.000000
# 3 -0.003765 0.002047 0.012728 0.000000 0.000000 0.000000
# 4 0.000000 0.000000 0.000000 0.073419 0.000000 0.000000
# 5 0.000000 0.000000 0.000000 0.000000 0.023683 0.000000
# 6 0.000000 0.000000 0.000000 0.000000 0.000000 0.037103
#
#
# Mechanical properties :
#
#
# Convention : Reuss Voigt Hill
#
# Bulk Modulus (GPa) = 35.94311 37.28059 36.61185
# Shear Modulus (GPa) = 25.42814 30.71217 28.07016
#
# Velocity S-wave (km/s) = 3.21314 3.53125 3.37594
# Velocity P-wave (km/s) = 5.32534 5.63586 5.48280
#
# Compressibility (1/GPa) = 0.02782175
#
# Stress axis : x y z
#
# Youngs Moduli (GPa) = 71.40758 72.69923 78.56835
#
# Poissons Ratio (x) = 0.33548 0.29580
# Poissons Ratio (y) = 0.32952 -0.16082
# Poissons Ratio (z) = 0.26884 -0.14880
#
# Static dielectric constant tensor:
#      x y z
#    x 2.067390 0.000000 0.000000 
#    y 0.000000 2.010270 0.000000 
#    z 0.000000 0.000000 2.007790 
# 
# From -- ./inp_files/282.got.cif
#   From: 2010.05.17/outbox.cif.g08.bks.cpg/sg29_1_cif.got.tgz:282.got - 2010.06.04 01:19:37.
