data_PCOD9340972
_publ_section_title
;
Structure prediction by ZEFSAII (Michael W. Deem and Ramdas Pophale) SiO2 
 PCOD9340972
Probable space group: P C A 21
;
_chemical_formula_sum "Si O2"
_cell_formula_units_Z 32
_cell_length_a 9.779208
_cell_length_b 5.682463
_cell_length_c 23.346913
_cell_angle_alpha 90.000000
_cell_angle_beta 90.000000
_cell_angle_gamma 90.000000
_cell_volume 1297.387667
_symmetry_space_group_name_H-M "P C A 21"
_symmetry_group_IT_number 29
_symmetry_cell_setting 'orthorhombic'
loop_
_space_group_symop_operation_xyz
x,y,z
-x,-y,1/2+z
1/2-x,y,1/2+z
1/2+x,-y,z
loop_
_atom_site_type_symbol
_atom_site_label
_atom_site_fract_x
_atom_site_fract_y
_atom_site_fract_z
Si Si1 0.537585 0.247983 0.788130
Si Si2 0.904416 0.699300 0.049986
Si Si3 0.692085 0.206564 0.680528
Si Si4 0.728985 0.709402 0.158790
Si Si5 0.488207 0.951279 0.890342
Si Si6 0.482808 0.796519 0.072239
Si Si7 0.802322 0.450578 0.848344
Si Si8 0.242989 0.227639 0.942863
O O1 0.557974 0.229397 0.720511
O O2 0.686333 0.340676 0.808280
O O3 0.407584 0.397891 0.809536
O O4 0.523725 0.009581 0.824450
O O5 0.863209 0.690708 0.117119
O O6 0.969381 0.444177 0.035787
O O7 0.986273 0.945210 0.043783
O O8 0.773283 0.720211 0.008344
O O9 0.777662 0.448855 0.686265
O O10 0.651845 0.192230 0.613384
O O11 0.754592 0.949601 0.695415
O O12 0.606955 0.756696 0.115114
O O13 0.399297 0.718834 0.884993
O O14 0.622291 0.949282 0.928781
O O15 0.386358 0.139657 0.917269
O O16 0.710651 0.567744 0.898187
#
# Coordination Sequence:
#
# PCOD9340972 Si02
#       8
#     4   4   4   4   4   4   4   4
#     4  11  25  42  69  97 134 185 225 283 349 405
#     4  10  24  40  67  95 128 173 224 269 347 394
#     4  10  24  40  67  97 128 177 224 274 342 400
#     4  10  22  43  64  96 134 167 224 281 330 408
#     4  11  24  45  64  97 138 170 231 280 336 412
#     4  10  22  44  62  98 133 169 222 282 329 407
#     4  11  24  44  65  96 139 171 230 284 335 415
#     4  11  25  42  68  98 130 184 220 285 340 411
#
# _framework density 24.664950000000001
#
# number of rings (size 3 to 8) (size 9 to 14) (size 15 to 20)
#    0.000    1.500    2.500    0.750    7.000    1.000 
#    0.000    0.000    0.000    0.000    0.000    0.000 
#    0.000    0.000    0.000    0.000    0.000    0.000 
#
# Total GULP energy -178590.266072 kJ/mol
# GULP energy per Si atom -5580.945815 kJ/mol
# Density = 2.460881 g / cm^3
# Si number density = 24.664950 Si / 1000 Ang^3
#
#
#
# Elastic Constant Matrix: (Units=GPa)
#
#
# Indices 1 2 3 4 5 6 
#
# 1 74.3505 22.6517 0.3069 0.0000 0.0000 0.0000
# 2 22.6517 101.5496 8.5954 0.0000 0.0000 0.0000
# 3 0.3069 8.5954 87.5956 0.0000 0.0000 0.0000
# 4 0.0000 0.0000 0.0000 12.8776 0.0000 0.0000
# 5 0.0000 0.0000 0.0000 0.0000 44.9817 0.0000
# 6 0.0000 0.0000 0.0000 0.0000 0.0000 3.3130
#
#
#
# Elastic Compliance Matrix: (Units=1/GPa)
#
#
# Indices 1 2 3 4 5 6 
#
# 1 0.014437 -0.003243 0.000268 0.000000 0.000000 0.000000
# 2 -0.003243 0.010658 -0.001034 0.000000 0.000000 0.000000
# 3 0.000268 -0.001034 0.011517 0.000000 0.000000 0.000000
# 4 0.000000 0.000000 0.000000 0.077654 0.000000 0.000000
# 5 0.000000 0.000000 0.000000 0.000000 0.022231 0.000000
# 6 0.000000 0.000000 0.000000 0.000000 0.000000 0.301842
#
#
# Mechanical properties :
#
#
# Convention : Reuss Voigt Hill
#
# Bulk Modulus (GPa) = 34.97464 36.28931 35.63197
# Shear Modulus (GPa) = 10.96759 27.69726 19.33242
#
# Velocity S-wave (km/s) = 2.11099 3.35467 2.80268
# Velocity P-wave (km/s) = 4.48914 5.45435 4.99511
#
# Compressibility (1/GPa) = 0.02859215
#
# Stress axis : x y z
#
# Youngs Moduli (GPa) = 69.26797 93.82334 86.83064
#
# Poissons Ratio (x) = 0.30426 -0.02324
# Poissons Ratio (y) = 0.22463 0.08983
# Poissons Ratio (z) = -0.01854 0.09706
#
# Static dielectric constant tensor:
#      x y z
#    x 1.973560 0.000000 0.000000 
#    y 0.000000 2.025250 0.000000 
#    z 0.000000 0.000000 1.982580 
# 
# From -- ./inp_files/5563.got.cif
#   From: 2010.05.17/outbox.cif.g08.bks.cpg/sg29_3_cif.got.tgz:5563.got - 2010.06.04 01:19:37.
