data_PCOD9340374
_publ_section_title
;
Structure prediction by ZEFSAII (Michael W. Deem and Ramdas Pophale) SiO2 
 PCOD9340374
Probable space group: P C A 21
;
_chemical_formula_sum "Si O2"
_cell_formula_units_Z 24
_cell_length_a 8.254014
_cell_length_b 9.139425
_cell_length_c 15.377939
_cell_angle_alpha 90.000000
_cell_angle_beta 90.000000
_cell_angle_gamma 90.000000
_cell_volume 1160.064691
_symmetry_space_group_name_H-M "P C A 21"
_symmetry_group_IT_number 29
_symmetry_cell_setting 'orthorhombic'
loop_
_space_group_symop_operation_xyz
x,y,z
-x,-y,1/2+z
1/2-x,y,1/2+z
1/2+x,-y,z
loop_
_atom_site_type_symbol
_atom_site_label
_atom_site_fract_x
_atom_site_fract_y
_atom_site_fract_z
Si Si1 0.298400 0.923388 0.967540
Si Si2 0.281637 0.680843 0.357188
Si Si3 0.684539 0.603205 0.619545
Si Si4 0.670652 0.328520 0.054555
Si Si5 0.651525 0.776913 0.974786
Si Si6 0.571329 0.597233 0.806896
O O1 0.213544 0.853270 0.880581
O O2 0.207966 0.844114 0.048931
O O3 0.480317 0.862088 0.971889
O O4 0.284939 0.095855 0.969087
O O5 0.274126 0.624599 0.457457
O O6 0.417617 0.579317 0.315145
O O7 0.115086 0.645604 0.308726
O O8 0.515528 0.637055 0.571520
O O9 0.725697 0.431108 0.616779
O O10 0.820124 0.686244 0.562974
O O11 0.659255 0.646406 0.719121
O O12 0.651552 0.672206 0.891132
#
# Coordination Sequence:
#
# PCOD9340374 Si02
#       6
#     4   4   4   4   4   4
#     4   9  21  36  65  81 115 165 196 245 302 361
#     4   9  20  38  59  87 115 157 200 243 299 349
#     4  12  22  36  63  90 125 158 201 252 297 356
#     4  10  20  38  60  90 114 162 200 243 300 350
#     4  11  21  41  59  88 119 160 202 241 310 351
#     4  11  22  37  60  92 124 154 203 250 296 359
#
# _framework density 20.688500000000001
#
# number of rings (size 3 to 8) (size 9 to 14) (size 15 to 20)
#    1.000    0.667    1.667    4.000    0.000    0.000 
#    0.000    8.333    0.000    0.000    0.000    0.000 
#    0.000    0.000    0.000    0.000    0.000    0.000 
#
# Total GULP energy -133681.642816 kJ/mol
# GULP energy per Si atom -5570.068451 kJ/mol
# Density = 2.064141 g / cm^3
# Si number density = 20.688500 Si / 1000 Ang^3
#
#
#
# Elastic Constant Matrix: (Units=GPa)
#
#
# Indices 1 2 3 4 5 6 
#
# 1 46.2536 -0.8147 12.9881 0.0000 0.0000 0.0000
# 2 -0.8147 54.1011 27.6480 0.0000 0.0000 0.0000
# 3 12.9881 27.6480 43.9501 0.0000 0.0000 0.0000
# 4 0.0000 0.0000 0.0000 4.7829 0.0000 0.0000
# 5 0.0000 0.0000 0.0000 0.0000 15.8140 0.0000
# 6 0.0000 0.0000 0.0000 0.0000 0.0000 33.0601
#
#
#
# Elastic Compliance Matrix: (Units=1/GPa)
#
#
# Indices 1 2 3 4 5 6 
#
# 1 0.024866 0.006086 -0.011177 0.000000 0.000000 0.000000
# 2 0.006086 0.028732 -0.019873 0.000000 0.000000 0.000000
# 3 -0.011177 -0.019873 0.038558 0.000000 0.000000 0.000000
# 4 0.000000 0.000000 0.000000 0.209078 0.000000 0.000000
# 5 0.000000 0.000000 0.000000 0.000000 0.063235 0.000000
# 6 0.000000 0.000000 0.000000 0.000000 0.000000 0.030248
#
#
# Mechanical properties :
#
#
# Convention : Reuss Voigt Hill
#
# Bulk Modulus (GPa) = 23.68119 24.88307 24.28213
# Shear Modulus (GPa) = 10.89992 17.69697 14.29845
#
# Velocity S-wave (km/s) = 2.29783 2.92790 2.63179
# Velocity P-wave (km/s) = 4.30249 4.84600 4.58231
#
# Compressibility (1/GPa) = 0.04222760
#
# Stress axis : x y z
#
# Youngs Moduli (GPa) = 40.21604 34.80498 25.93507
#
# Poissons Ratio (x) = -0.21184 0.28988
# Poissons Ratio (y) = -0.24477 0.51541
# Poissons Ratio (z) = 0.44950 0.69168
#
# Static dielectric constant tensor:
#      x y z
#    x 1.788120 0.000000 0.000000 
#    y 0.000000 1.863170 0.000000 
#    z 0.000000 0.000000 1.743370 
# 
# From -- ./inp_files/4207.got.cif
#   From: 2010.05.17/outbox.cif.g08.bks.cpg/sg29_3_cif.got.tgz:4207.got - 2010.06.04 01:19:37.
