data_PCOD9340597
_publ_section_title
;
Structure prediction by ZEFSAII (Michael W. Deem and Ramdas Pophale) SiO2 
 PCOD9340597
Probable space group: P C A 21
;
_chemical_formula_sum "Si O2"
_cell_formula_units_Z 20
_cell_length_a 15.212972
_cell_length_b 7.196241
_cell_length_c 8.708021
_cell_angle_alpha 90.000000
_cell_angle_beta 90.000000
_cell_angle_gamma 90.000000
_cell_volume 953.321160
_symmetry_space_group_name_H-M "P C A 21"
_symmetry_group_IT_number 29
_symmetry_cell_setting 'orthorhombic'
loop_
_space_group_symop_operation_xyz
x,y,z
-x,-y,1/2+z
1/2-x,y,1/2+z
1/2+x,-y,z
loop_
_atom_site_type_symbol
_atom_site_label
_atom_site_fract_x
_atom_site_fract_y
_atom_site_fract_z
Si Si1 0.134809 0.420207 0.467660
Si Si2 0.636267 0.972054 0.958459
Si Si3 0.449854 0.660594 0.526975
Si Si4 0.505212 0.308374 0.387563
Si Si5 0.245042 0.233587 0.216145
O O1 0.193552 0.378878 0.321642
O O2 0.187692 0.349251 0.612526
O O3 0.045650 0.298186 0.453068
O O4 0.093726 0.627091 0.476084
O O5 0.677818 0.879600 0.109779
O O6 0.622135 0.189699 0.983984
O O7 0.540161 0.885443 0.921533
O O8 0.700387 0.909198 0.821731
O O9 0.433749 0.457842 0.453576
O O10 0.470568 0.660267 0.709198
#
# Coordination Sequence:
#
# PCOD9340597 Si02
#       5
#     4   4   4   4   4
#     4   9  21  39  65  87 128 162 206 254 318 355
#     4  11  22  41  67  86 131 162 209 254 316 365
#     4  10  23  39  66  91 118 168 213 251 297 384
#     4  10  21  42  64  95 115 170 217 248 303 380
#     4  10  21  39  62  97 128 160 197 275 314 352
#
# _framework density 20.979289999999999
#
# number of rings (size 3 to 8) (size 9 to 14) (size 15 to 20)
#    1.200    0.800    2.000    1.200    2.800    0.000 
#    0.000    8.000    0.000    0.000    0.000    0.000 
#    0.000    0.000    0.000    0.000    0.000    0.000 
#
# Total GULP energy -111462.520488 kJ/mol
# GULP energy per Si atom -5573.126024 kJ/mol
# Density = 2.093154 g / cm^3
# Si number density = 20.979290 Si / 1000 Ang^3
#
#
#
# Elastic Constant Matrix: (Units=GPa)
#
#
# Indices 1 2 3 4 5 6 
#
# 1 55.4363 -1.9925 4.8731 0.0000 0.0000 0.0000
# 2 -1.9925 45.0940 6.3394 0.0000 0.0000 0.0000
# 3 4.8731 6.3394 66.5167 0.0000 0.0000 0.0000
# 4 0.0000 0.0000 0.0000 4.9830 0.0000 0.0000
# 5 0.0000 0.0000 0.0000 0.0000 10.2115 0.0000
# 6 0.0000 0.0000 0.0000 0.0000 0.0000 0.5253
#
#
#
# Elastic Compliance Matrix: (Units=1/GPa)
#
#
# Indices 1 2 3 4 5 6 
#
# 1 0.018200 0.001005 -0.001429 0.000000 0.000000 0.000000
# 2 0.001005 0.022533 -0.002221 0.000000 0.000000 0.000000
# 3 -0.001429 -0.002221 0.015350 0.000000 0.000000 0.000000
# 4 0.000000 0.000000 0.000000 0.200683 0.000000 0.000000
# 5 0.000000 0.000000 0.000000 0.000000 0.097929 0.000000
# 6 0.000000 0.000000 0.000000 0.000000 0.000000 1.903585
#
#
# Mechanical properties :
#
#
# Convention : Reuss Voigt Hill
#
# Bulk Modulus (GPa) = 19.68780 20.60967 20.14874
# Shear Modulus (GPa) = 2.19250 13.66577 7.92913
#
# Velocity S-wave (km/s) = 1.02340 2.55501 1.94620
# Velocity P-wave (km/s) = 3.28652 4.30688 3.83083
#
# Compressibility (1/GPa) = 0.05079287
#
# Stress axis : x y z
#
# Youngs Moduli (GPa) = 54.94361 44.38024 65.14575
#
# Poissons Ratio (x) = -0.04461 0.09310
# Poissons Ratio (y) = -0.05522 0.14470
# Poissons Ratio (z) = 0.07852 0.09857
#
# Static dielectric constant tensor:
#      x y z
#    x 1.760960 0.000000 0.000000 
#    y 0.000000 1.760530 0.000000 
#    z 0.000000 0.000000 1.752310 
# 
# From -- ./inp_files/1644.got.cif
#   From: 2010.05.17/outbox.cif.g08.bks.cpg/sg29_1_cif.got.tgz:1644.got - 2010.06.04 01:19:37.
