data_PCOD9340715
_publ_section_title
;
Structure prediction by ZEFSAII (Michael W. Deem and Ramdas Pophale) SiO2 
 PCOD9340715
Probable space group: P C A 21
;
_chemical_formula_sum "Si O2"
_cell_formula_units_Z 32
_cell_length_a 18.193806
_cell_length_b 6.905711
_cell_length_c 12.788886
_cell_angle_alpha 90.000000
_cell_angle_beta 90.000000
_cell_angle_gamma 90.000000
_cell_volume 1606.810552
_symmetry_space_group_name_H-M "P C A 21"
_symmetry_group_IT_number 29
_symmetry_cell_setting 'orthorhombic'
loop_
_space_group_symop_operation_xyz
x,y,z
-x,-y,1/2+z
1/2-x,y,1/2+z
1/2+x,-y,z
loop_
_atom_site_type_symbol
_atom_site_label
_atom_site_fract_x
_atom_site_fract_y
_atom_site_fract_z
Si Si1 0.837419 0.686185 0.311580
Si Si2 0.647791 0.981403 0.631197
Si Si3 0.990944 0.106800 0.530181
Si Si4 0.284972 0.323589 0.978402
Si Si5 0.945227 0.688447 0.490900
Si Si6 0.235570 0.622018 0.656302
Si Si7 0.556013 0.563949 0.397174
Si Si8 0.405302 0.589664 0.673270
O O1 0.858487 0.867626 0.240411
O O2 0.773064 0.736594 0.392122
O O3 0.903938 0.623094 0.385678
O O4 0.806951 0.518166 0.236732
O O5 0.567644 0.972344 0.577858
O O6 0.699788 0.849800 0.558146
O O7 0.687231 0.185882 0.644845
O O8 0.008809 0.247286 0.431745
O O9 0.949685 0.237408 0.616727
O O10 0.944945 0.918563 0.499412
O O11 0.361087 0.379418 0.924088
O O12 0.260263 0.508498 0.046095
O O13 0.909179 0.588123 0.591127
O O14 0.026849 0.603125 0.475113
O O15 0.320354 0.649775 0.691435
O O16 0.556839 0.484176 0.279613
#
# Coordination Sequence:
#
# PCOD9340715 Si02
#       8
#     4   4   4   4   4   4   4   4
#     4  11  23  40  64  96 131 165 212 273 323 378
#     4  10  24  41  64  93 130 168 215 263 323 391
#     4  10  24  43  64  95 127 174 215 268 325 384
#     4  10  21  42  63  91 130 166 209 266 322 374
#     4  11  24  42  66  94 131 167 214 271 317 390
#     4  11  23  41  66  95 129 176 213 263 326 385
#     4  10  22  43  64  92 128 169 211 261 324 386
#     4  11  23  40  67  96 128 165 219 269 318 386
#
# _framework density 19.915230000000001
#
# number of rings (size 3 to 8) (size 9 to 14) (size 15 to 20)
#    0.000    1.500    2.500    1.500    1.750    8.000 
#    4.500    0.000    0.000    0.000    0.000    0.000 
#    0.000    0.000    0.000    0.000    0.000    0.000 
#
# Total GULP energy -178716.032594 kJ/mol
# GULP energy per Si atom -5584.876019 kJ/mol
# Density = 1.986990 g / cm^3
# Si number density = 19.915230 Si / 1000 Ang^3
#
#
#
# Elastic Constant Matrix: (Units=GPa)
#
#
# Indices 1 2 3 4 5 6 
#
# 1 70.1503 38.1230 10.9036 0.0000 0.0000 0.0000
# 2 38.1230 95.0357 31.3231 0.0000 0.0000 0.0000
# 3 10.9036 31.3231 72.7811 0.0000 0.0000 0.0000
# 4 0.0000 0.0000 0.0000 11.4253 0.0000 0.0000
# 5 0.0000 0.0000 0.0000 0.0000 34.5544 0.0000
# 6 0.0000 0.0000 0.0000 0.0000 0.0000 20.4555
#
#
#
# Elastic Compliance Matrix: (Units=1/GPa)
#
#
# Indices 1 2 3 4 5 6 
#
# 1 0.018244 -0.007478 0.000485 0.000000 0.000000 0.000000
# 2 -0.007478 0.015327 -0.005476 0.000000 0.000000 0.000000
# 3 0.000485 -0.005476 0.016024 0.000000 0.000000 0.000000
# 4 0.000000 0.000000 0.000000 0.087525 0.000000 0.000000
# 5 0.000000 0.000000 0.000000 0.000000 0.028940 0.000000
# 6 0.000000 0.000000 0.000000 0.000000 0.000000 0.048887
#
#
# Mechanical properties :
#
#
# Convention : Reuss Voigt Hill
#
# Bulk Modulus (GPa) = 40.55703 44.29629 42.42666
# Shear Modulus (GPa) = 20.15291 23.79488 21.97389
#
# Velocity S-wave (km/s) = 3.18454 3.46035 3.32531
# Velocity P-wave (km/s) = 5.82501 6.18515 6.00778
#
# Compressibility (1/GPa) = 0.02465664
#
# Stress axis : x y z
#
# Youngs Moduli (GPa) = 54.81332 65.24385 62.40689
#
# Poissons Ratio (x) = 0.48791 -0.03029
# Poissons Ratio (y) = 0.40991 0.34174
# Poissons Ratio (z) = -0.02660 0.35728
#
# Static dielectric constant tensor:
#      x y z
#    x 1.715110 0.000000 0.000000 
#    y 0.000000 1.680140 0.000000 
#    z 0.000000 0.000000 1.684440 
# 
# From -- ./inp_files/3811.got.cif
#   From: 2010.05.17/outbox.cif.g08.bks.cpg/sg29_2_cif.got.tgz:3811.got - 2010.06.04 01:19:37.
