data_PCOD9340129
_publ_section_title
;
Structure prediction by ZEFSAII (Michael W. Deem and Ramdas Pophale) SiO2 
 PCOD9340129
Probable space group: P C A 21
;
_chemical_formula_sum "Si O2"
_cell_formula_units_Z 24
_cell_length_a 21.951562
_cell_length_b 9.823077
_cell_length_c 5.513291
_cell_angle_alpha 90.000000
_cell_angle_beta 90.000000
_cell_angle_gamma 90.000000
_cell_volume 1188.841324
_symmetry_space_group_name_H-M "P C A 21"
_symmetry_group_IT_number 29
_symmetry_cell_setting 'orthorhombic'
loop_
_space_group_symop_operation_xyz
x,y,z
-x,-y,1/2+z
1/2-x,y,1/2+z
1/2+x,-y,z
loop_
_atom_site_type_symbol
_atom_site_label
_atom_site_fract_x
_atom_site_fract_y
_atom_site_fract_z
Si Si1 0.231585 0.437986 0.017230
Si Si2 0.969301 0.960952 0.914279
Si Si3 0.401473 0.542905 0.545591
Si Si4 0.904810 0.216747 0.907185
Si Si5 0.721049 0.254980 0.594583
Si Si6 0.494002 0.329014 0.730922
O O1 0.239859 0.368725 0.280117
O O2 0.161255 0.473796 0.969316
O O3 0.265409 0.583243 0.065717
O O4 0.969893 0.798913 0.884699
O O5 0.912008 0.057356 0.849887
O O6 0.014990 0.006019 0.694810
O O7 0.386521 0.679776 0.695247
O O8 0.438872 0.431650 0.696823
O O9 0.450369 0.588459 0.347993
O O10 0.851260 0.232562 0.102846
O O11 0.971849 0.266516 0.994858
O O12 0.752572 0.200621 0.838489
#
# Coordination Sequence:
#
# PCOD9340129 Si02
#       6
#     4   4   4   4   4   4
#     4  10  20  34  53  81 109 146 192 242 285 329
#     4  10  22  38  57  79 117 151 186 224 287 347
#     4  12  21  34  59  84 120 149 193 246 292 347
#     4  11  21  36  57  82 115 154 189 242 287 350
#     4  10  19  32  54  81 106 139 195 244 279 320
#     4  11  23  36  54  91 121 153 191 238 300 357
#
# _framework density 20.187722999999998
#
# number of rings (size 3 to 8) (size 9 to 14) (size 15 to 20)
#    0.000    1.333    6.667    2.000    0.000    0.000 
#    0.000    0.000    0.000    2.000    0.000    0.000 
#    0.000    0.000    0.000    0.000    0.000    0.000 
#
# Total GULP energy -133674.831870 kJ/mol
# GULP energy per Si atom -5569.784661 kJ/mol
# Density = 2.014178 g / cm^3
# Si number density = 20.187723 Si / 1000 Ang^3
#
#
#
# Elastic Constant Matrix: (Units=GPa)
#
#
# Indices 1 2 3 4 5 6 
#
# 1 98.9983 33.4777 15.9516 0.0000 0.0000 0.0000
# 2 33.4777 24.6939 17.0981 0.0000 0.0000 0.0000
# 3 15.9516 17.0981 91.4290 0.0000 0.0000 0.0000
# 4 0.0000 0.0000 0.0000 14.1478 0.0000 0.0000
# 5 0.0000 0.0000 0.0000 0.0000 1.6561 0.0000
# 6 0.0000 0.0000 0.0000 0.0000 0.0000 11.8074
#
#
#
# Elastic Compliance Matrix: (Units=1/GPa)
#
#
# Indices 1 2 3 4 5 6 
#
# 1 0.018884 -0.026788 0.001715 0.000000 0.000000 0.000000
# 2 -0.026788 0.084521 -0.011133 0.000000 0.000000 0.000000
# 3 0.001715 -0.011133 0.012720 0.000000 0.000000 0.000000
# 4 0.000000 0.000000 0.000000 0.070682 0.000000 0.000000
# 5 0.000000 0.000000 0.000000 0.000000 0.603832 0.000000
# 6 0.000000 0.000000 0.000000 0.000000 0.000000 0.084693
#
#
# Mechanical properties :
#
#
# Convention : Reuss Voigt Hill
#
# Bulk Modulus (GPa) = 22.87626 38.68621 30.78124
# Shear Modulus (GPa) = 5.19581 15.42852 10.31216
#
# Velocity S-wave (km/s) = 1.60603 2.76751 2.26257
# Velocity P-wave (km/s) = 3.84649 5.42374 4.70173
#
# Compressibility (1/GPa) = 0.04371344
#
# Stress axis : x y z
#
# Youngs Moduli (GPa) = 52.95588 11.83137 78.61562
#
# Poissons Ratio (x) = 0.31694 -0.13483
# Poissons Ratio (y) = 1.41859 0.87519
# Poissons Ratio (z) = -0.09082 0.13171
#
# Static dielectric constant tensor:
#      x y z
#    x 1.734910 0.000000 0.000000 
#    y 0.000000 1.738340 0.000000 
#    z 0.000000 0.000000 1.874040 
# 
# From -- ./inp_files/383.got.cif
#   From: 2010.05.17/outbox.cif.g08.bks.cpg/sg29_1_cif.got.tgz:383.got - 2010.06.04 01:19:37.
