data_PCOD9340609
_publ_section_title
;
Structure prediction by ZEFSAII (Michael W. Deem and Ramdas Pophale) SiO2 
 PCOD9340609
Probable space group: P C A 21
;
_chemical_formula_sum "Si O2"
_cell_formula_units_Z 28
_cell_length_a 15.559812
_cell_length_b 8.215824
_cell_length_c 8.348372
_cell_angle_alpha 90.000000
_cell_angle_beta 90.000000
_cell_angle_gamma 90.000000
_cell_volume 1067.228134
_symmetry_space_group_name_H-M "P C A 21"
_symmetry_group_IT_number 29
_symmetry_cell_setting 'orthorhombic'
loop_
_space_group_symop_operation_xyz
x,y,z
-x,-y,1/2+z
1/2-x,y,1/2+z
1/2+x,-y,z
loop_
_atom_site_type_symbol
_atom_site_label
_atom_site_fract_x
_atom_site_fract_y
_atom_site_fract_z
Si Si1 0.773196 0.388230 0.177660
Si Si2 0.311984 0.044790 0.832739
Si Si3 0.083773 0.657895 0.034197
Si Si4 0.185352 0.393132 0.418291
Si Si5 0.592961 0.093309 0.623625
Si Si6 0.006481 0.381116 0.229820
Si Si7 0.860473 0.013300 0.463069
O O1 0.677380 0.353363 0.108799
O O2 0.740830 0.460879 0.345152
O O3 0.833132 0.234286 0.140620
O O4 0.817161 0.547434 0.097948
O O5 0.333519 0.052133 0.643215
O O6 0.273427 0.218773 0.888241
O O7 0.388202 0.994877 0.955008
O O8 0.232692 0.931876 0.890183
O O9 0.020521 0.542610 0.129551
O O10 0.071029 0.849798 0.020001
O O11 0.071396 0.599624 0.853070
O O12 0.093608 0.370986 0.333478
O O13 0.509855 0.213968 0.631452
O O14 0.598491 0.976417 0.782300
#
# Coordination Sequence:
#
# PCOD9340609 Si02
#       7
#     4   4   4   4   4   4   4
#     4  11  22  40  71 100 132 172 237 291 339 395
#     4  12  23  41  69  95 136 181 223 281 344 410
#     4  10  21  39  65 100 130 175 226 291 333 404
#     4  11  25  42  63 103 140 174 222 289 352 407
#     4  11  24  44  72  99 130 184 232 283 338 416
#     4  10  23  40  62  95 141 169 222 281 355 400
#     4  11  22  38  68  98 127 169 234 274 327 406
#
# _framework density 26.236190000000001
#
# number of rings (size 3 to 8) (size 9 to 14) (size 15 to 20)
#    0.000    1.143    2.857    3.429    6.000    0.000 
#    5.143    0.000    0.000    0.000    0.000    0.000 
#    0.000    0.000    0.000    0.000    0.000    0.000 
#
# Total GULP energy -155877.851619 kJ/mol
# GULP energy per Si atom -5567.066129 kJ/mol
# Density = 2.617648 g / cm^3
# Si number density = 26.236190 Si / 1000 Ang^3
#
#
#
# Elastic Constant Matrix: (Units=GPa)
#
#
# Indices 1 2 3 4 5 6 
#
# 1 64.5586 -6.3596 3.7485 0.0000 0.0000 0.0000
# 2 -6.3596 54.1314 5.5065 0.0000 0.0000 0.0000
# 3 3.7485 5.5065 120.3871 0.0000 0.0000 0.0000
# 4 0.0000 0.0000 0.0000 28.9935 0.0000 0.0000
# 5 0.0000 0.0000 0.0000 0.0000 33.5675 0.0000
# 6 0.0000 0.0000 0.0000 0.0000 0.0000 37.0934
#
#
#
# Elastic Compliance Matrix: (Units=1/GPa)
#
#
# Indices 1 2 3 4 5 6 
#
# 1 0.015711 0.001904 -0.000576 0.000000 0.000000 0.000000
# 2 0.001904 0.018791 -0.000919 0.000000 0.000000 0.000000
# 3 -0.000576 -0.000919 0.008367 0.000000 0.000000 0.000000
# 4 0.000000 0.000000 0.000000 0.034491 0.000000 0.000000
# 5 0.000000 0.000000 0.000000 0.000000 0.029791 0.000000
# 6 0.000000 0.000000 0.000000 0.000000 0.000000 0.026959
#
#
# Mechanical properties :
#
#
# Convention : Reuss Voigt Hill
#
# Bulk Modulus (GPa) = 22.89020 27.20754 25.04887
# Shear Modulus (GPa) = 33.81761 35.67633 34.74697
#
# Velocity S-wave (km/s) = 3.59411 3.69157 3.64317
# Velocity P-wave (km/s) = 5.09580 5.34443 5.22159
#
# Compressibility (1/GPa) = 0.04368683
#
# Stress axis : x y z
#
# Youngs Moduli (GPa) = 63.65016 53.21757 119.52421
#
# Poissons Ratio (x) = -0.10135 0.06888
# Poissons Ratio (y) = -0.12122 0.10982
# Poissons Ratio (z) = 0.03668 0.04890
#
# Static dielectric constant tensor:
#      x y z
#    x 2.231240 0.000000 0.000000 
#    y 0.000000 2.181430 0.000000 
#    z 0.000000 0.000000 2.146520 
# 
# From -- ./inp_files/2079.got.cif
#   From: 2010.05.17/outbox.cif.g08.bks.cpg/sg29_2_cif.got.tgz:2079.got - 2010.06.04 01:19:37.
