data_PCOD9340732
_publ_section_title
;
Structure prediction by ZEFSAII (Michael W. Deem and Ramdas Pophale) SiO2 
 PCOD9340732
Probable space group: P C A 21
;
_chemical_formula_sum "Si O2"
_cell_formula_units_Z 32
_cell_length_a 9.238307
_cell_length_b 8.644940
_cell_length_c 18.085172
_cell_angle_alpha 90.000000
_cell_angle_beta 90.000000
_cell_angle_gamma 90.000000
_cell_volume 1444.365203
_symmetry_space_group_name_H-M "P C A 21"
_symmetry_group_IT_number 29
_symmetry_cell_setting 'orthorhombic'
loop_
_space_group_symop_operation_xyz
x,y,z
-x,-y,1/2+z
1/2-x,y,1/2+z
1/2+x,-y,z
loop_
_atom_site_type_symbol
_atom_site_label
_atom_site_fract_x
_atom_site_fract_y
_atom_site_fract_z
Si Si1 0.893814 0.607462 0.040810
Si Si2 0.655876 0.258536 0.587751
Si Si3 0.784338 0.890263 0.778171
Si Si4 0.538182 0.196694 0.315253
Si Si5 0.715662 0.109738 0.441974
Si Si6 0.393811 0.607460 0.679336
Si Si7 0.461819 0.196693 0.904893
Si Si8 0.344123 0.258534 0.632393
O O1 0.864264 0.425362 0.047693
O O2 0.000001 0.642911 0.110073
O O3 0.749204 0.701454 0.060759
O O4 0.950927 0.662128 0.961967
O O5 0.728141 0.149100 0.527987
O O6 0.500000 0.196377 0.610072
O O7 0.749201 0.298548 0.659386
O O8 0.626359 0.862305 0.812527
O O9 0.898566 0.780449 0.822588
O O10 0.771861 0.850902 0.692159
O O11 0.856108 0.058852 0.786624
O O12 0.601433 0.219551 0.397558
O O13 0.549076 0.337874 0.258178
O O14 0.873640 0.137693 0.407618
O O15 0.643890 0.941148 0.433522
O O16 0.364262 0.425360 0.672452
#
# Coordination Sequence:
#
# PCOD9340732 Si02
#       8
#     4   4   4   4   4   4   4   4
#     4  10  21  43  61  90 121 157 193 253 293 358
#     4  10  23  39  65  89 123 155 201 242 304 350
#     4  11  24  42  60  91 118 163 198 250 295 357
#     4  11  24  41  63  86 125 155 205 245 301 352
#     4  11  24  42  60  91 118 163 198 250 295 357
#     4  10  21  43  61  90 121 157 193 253 293 358
#     4  11  24  41  63  86 125 155 205 245 301 352
#     4  10  23  39  65  89 123 155 201 242 304 350
#
# _framework density 22.155062000000001
#
# number of rings (size 3 to 8) (size 9 to 14) (size 15 to 20)
#    0.000    1.500    2.500    3.000    7.000    3.000 
#    0.000    2.500    0.000    0.000    0.000    0.000 
#    0.000    0.000    0.000    0.000    0.000    0.000 
#
# Total GULP energy -178705.267397 kJ/mol
# GULP energy per Si atom -5584.539606 kJ/mol
# Density = 2.210464 g / cm^3
# Si number density = 22.155062 Si / 1000 Ang^3
#
#
#
# Elastic Constant Matrix: (Units=GPa)
#
#
# Indices 1 2 3 4 5 6 
#
# 1 118.1444 -4.9698 -12.5299 0.0000 0.0000 0.0000
# 2 -4.9698 12.9225 5.2631 0.0000 0.0000 0.0000
# 3 -12.5299 5.2631 44.6256 0.0000 0.0000 0.0000
# 4 0.0000 0.0000 0.0000 42.9796 0.0000 0.0000
# 5 0.0000 0.0000 0.0000 0.0000 32.1604 0.0000
# 6 0.0000 0.0000 0.0000 0.0000 0.0000 18.8033
#
#
#
# Elastic Compliance Matrix: (Units=1/GPa)
#
#
# Indices 1 2 3 4 5 6 
#
# 1 0.008800 0.002498 0.002176 0.000000 0.000000 0.000000
# 2 0.002498 0.081998 -0.008969 0.000000 0.000000 0.000000
# 3 0.002176 -0.008969 0.024078 0.000000 0.000000 0.000000
# 4 0.000000 0.000000 0.000000 0.023267 0.000000 0.000000
# 5 0.000000 0.000000 0.000000 0.000000 0.031094 0.000000
# 6 0.000000 0.000000 0.000000 0.000000 0.000000 0.053182
#
#
# Mechanical properties :
#
#
# Convention : Reuss Voigt Hill
#
# Bulk Modulus (GPa) = 9.40860 16.80214 13.10537
# Shear Modulus (GPa) = 18.76612 31.31726 25.04169
#
# Velocity S-wave (km/s) = 2.91354 3.76380 3.36563
# Velocity P-wave (km/s) = 3.94642 5.14671 4.58600
#
# Compressibility (1/GPa) = 0.10628575
#
# Stress axis : x y z
#
# Youngs Moduli (GPa) = 113.63502 12.19539 41.53246
#
# Poissons Ratio (x) = -0.03046 -0.09039
# Poissons Ratio (y) = -0.28386 0.37252
# Poissons Ratio (z) = -0.24730 0.10938
#
# Static dielectric constant tensor:
#      x y z
#    x 1.841800 0.000000 0.000000 
#    y 0.000000 1.822710 0.000000 
#    z 0.000000 0.000000 1.832800 
# 
# From -- ./inp_files/5399.got.cif
#   From: 2010.05.17/outbox.cif.g08.bks.cpg/sg29_3_cif.got.tgz:5399.got - 2010.06.04 01:19:37.
