data_PCOD9340792
_publ_section_title
;
Structure prediction by ZEFSAII (Michael W. Deem and Ramdas Pophale) SiO2 
 PCOD9340792
Probable space group: P C A 21
;
_chemical_formula_sum "Si O2"
_cell_formula_units_Z 28
_cell_length_a 17.673124
_cell_length_b 11.760214
_cell_length_c 5.461307
_cell_angle_alpha 90.000000
_cell_angle_beta 90.000000
_cell_angle_gamma 90.000000
_cell_volume 1135.076519
_symmetry_space_group_name_H-M "P C A 21"
_symmetry_group_IT_number 29
_symmetry_cell_setting 'orthorhombic'
loop_
_space_group_symop_operation_xyz
x,y,z
-x,-y,1/2+z
1/2-x,y,1/2+z
1/2+x,-y,z
loop_
_atom_site_type_symbol
_atom_site_label
_atom_site_fract_x
_atom_site_fract_y
_atom_site_fract_z
Si Si1 0.796324 0.130727 0.402180
Si Si2 0.203676 0.630729 0.021844
Si Si3 0.971031 0.364872 0.078371
Si Si4 0.028969 0.864873 0.345655
Si Si5 0.386137 0.444732 0.287250
Si Si6 0.113862 0.055268 0.136774
Si Si7 0.081723 0.250000 0.462013
O O1 0.737377 0.134720 0.630040
O O2 0.841661 0.249999 0.462012
O O3 0.835746 0.007163 0.434457
O O4 0.262624 0.634722 0.793985
O O5 0.164254 0.507165 0.989565
O O6 0.024414 0.329818 0.307538
O O7 0.902740 0.450151 0.110646
O O8 0.941474 0.250000 0.962014
O O9 0.031457 0.418394 0.894746
O O10 0.968544 0.918396 0.529283
O O11 0.975585 0.829818 0.116491
O O12 0.097261 0.950150 0.313377
O O13 0.368250 0.329390 0.141684
O O14 0.131749 0.170611 0.282340
#
# Coordination Sequence:
#
# PCOD9340792 Si02
#       7
#     4   4   4   4   4   4   4
#     4  10  25  45  67  97 131 175 231 281 327 394
#     4  10  25  45  67  97 131 175 231 281 327 394
#     4  10  22  36  61  97 127 164 210 267 336 401
#     4  10  22  36  61  97 127 164 210 267 336 401
#     4  11  22  39  67  91 136 170 215 272 342 397
#     4  11  22  39  67  91 136 170 215 272 342 397
#     4  10  22  40  56  98 130 160 214 270 328 420
#
# _framework density 24.667939000000001
#
# number of rings (size 3 to 8) (size 9 to 14) (size 15 to 20)
#    0.000    1.714    2.857    0.000    6.000    3.429 
#    0.000    1.429    0.000    0.000    0.000    0.000 
#    0.000    0.000    0.000    0.000    0.000    0.000 
#
# Total GULP energy -156285.552998 kJ/mol
# GULP energy per Si atom -5581.626893 kJ/mol
# Density = 2.461179 g / cm^3
# Si number density = 24.667939 Si / 1000 Ang^3
#
#
#
# Elastic Constant Matrix: (Units=GPa)
#
#
# Indices 1 2 3 4 5 6 
#
# 1 19.1118 15.4604 15.2608 0.0000 0.0000 0.0000
# 2 15.4604 125.9030 21.7506 0.0000 0.0000 0.0000
# 3 15.2608 21.7506 87.0174 0.0000 0.0000 0.0000
# 4 0.0000 0.0000 0.0000 37.1489 0.0000 0.0000
# 5 0.0000 0.0000 0.0000 0.0000 34.3244 0.0000
# 6 0.0000 0.0000 0.0000 0.0000 0.0000 10.6256
#
#
#
# Elastic Compliance Matrix: (Units=1/GPa)
#
#
# Indices 1 2 3 4 5 6 
#
# 1 0.065319 -0.006315 -0.009877 0.000000 0.000000 0.000000
# 2 -0.006315 0.008912 -0.001120 0.000000 0.000000 0.000000
# 3 -0.009877 -0.001120 0.013504 0.000000 0.000000 0.000000
# 4 0.000000 0.000000 0.000000 0.026919 0.000000 0.000000
# 5 0.000000 0.000000 0.000000 0.000000 0.029134 0.000000
# 6 0.000000 0.000000 0.000000 0.000000 0.000000 0.094112
#
#
# Mechanical properties :
#
#
# Convention : Reuss Voigt Hill
#
# Bulk Modulus (GPa) = 18.82845 37.44175 28.13510
# Shear Modulus (GPa) = 17.22795 28.39047 22.80921
#
# Velocity S-wave (km/s) = 2.64558 3.39618 3.04410
# Velocity P-wave (km/s) = 4.12086 5.53082 4.87706
#
# Compressibility (1/GPa) = 0.05311113
#
# Stress axis : x y z
#
# Youngs Moduli (GPa) = 15.30954 112.21425 74.05152
#
# Poissons Ratio (x) = 0.70858 0.73141
# Poissons Ratio (y) = 0.09667 0.08294
# Poissons Ratio (z) = 0.15121 0.12569
#
# Static dielectric constant tensor:
#      x y z
#    x 1.941750 0.000000 0.000000 
#    y 0.000000 2.157300 0.000000 
#    z 0.000000 0.000000 2.082400 
# 
# From -- ./inp_files/403.got.cif
#   From: 2010.05.17/outbox.cif.g08.bks.cpg/sg29_1_cif.got.tgz:403.got - 2010.06.04 01:19:37.
