data_PCOD9340045
_publ_section_title
;
Structure prediction by ZEFSAII (Michael W. Deem and Ramdas Pophale) SiO2 
 PCOD9340045
Probable space group: P C A 21
;
_chemical_formula_sum "Si O2"
_cell_formula_units_Z 28
_cell_length_a 5.156780
_cell_length_b 15.539182
_cell_length_c 16.188176
_cell_angle_alpha 90.000000
_cell_angle_beta 90.000000
_cell_angle_gamma 90.000000
_cell_volume 1297.193233
_symmetry_space_group_name_H-M "P C A 21"
_symmetry_group_IT_number 29
_symmetry_cell_setting 'orthorhombic'
loop_
_space_group_symop_operation_xyz
x,y,z
-x,-y,1/2+z
1/2-x,y,1/2+z
1/2+x,-y,z
loop_
_atom_site_type_symbol
_atom_site_label
_atom_site_fract_x
_atom_site_fract_y
_atom_site_fract_z
Si Si1 0.126675 0.709986 0.279590
Si Si2 0.891745 0.189170 0.129272
Si Si3 0.457179 0.945085 0.257503
Si Si4 0.895441 0.776921 0.858199
Si Si5 0.800192 0.473193 0.233164
Si Si6 0.608285 0.539398 0.544795
Si Si7 0.899160 0.744203 0.042823
O O1 0.250518 0.767853 0.207822
O O2 0.338175 0.722189 0.351830
O O3 0.145687 0.614957 0.243567
O O4 0.841292 0.738768 0.304730
O O5 0.664351 0.204003 0.062743
O O6 0.967741 0.095964 0.165227
O O7 0.158775 0.234995 0.103498
O O8 0.536649 0.870981 0.322482
O O9 0.166445 0.979505 0.268093
O O10 0.810249 0.773525 0.952532
O O11 0.586030 0.537236 0.270487
O O12 0.854500 0.500134 0.137992
O O13 0.379617 0.485127 0.503685
O O14 0.555949 0.640978 0.546418
#
# Coordination Sequence:
#
# PCOD9340045 Si02
#       7
#     4   4   4   4   4   4   4
#     4  11  21  40  62  90 122 171 226 263 312 401
#     4  11  22  39  69  94 121 166 217 268 320 387
#     4  11  23  44  68  96 127 163 209 262 319 391
#     4  11  25  42  65  93 132 176 208 260 340 408
#     4  10  18  31  54  84 114 156 216 275 313 352
#     4  10  20  34  56  86 122 167 214 268 321 364
#     4  12  23  42  64  97 134 171 218 270 331 401
#
# _framework density 21.585065
#
# number of rings (size 3 to 8) (size 9 to 14) (size 15 to 20)
#    0.000    1.143    0.000   10.286    0.000    0.000 
#    0.000    8.571    0.000    0.000    0.000    0.000 
#    0.000    0.000    0.000    0.000    0.000    0.000 
#
# Total GULP energy -156185.476291 kJ/mol
# GULP energy per Si atom -5578.052725 kJ/mol
# Density = 2.153594 g / cm^3
# Si number density = 21.585065 Si / 1000 Ang^3
#
#
#
# Elastic Constant Matrix: (Units=GPa)
#
#
# Indices 1 2 3 4 5 6 
#
# 1 142.7478 13.1870 7.0939 0.0000 0.0000 0.0000
# 2 13.1870 64.9427 19.0549 0.0000 0.0000 0.0000
# 3 7.0939 19.0549 54.8012 0.0000 0.0000 0.0000
# 4 0.0000 0.0000 0.0000 11.6450 0.0000 0.0000
# 5 0.0000 0.0000 0.0000 0.0000 25.4883 0.0000
# 6 0.0000 0.0000 0.0000 0.0000 0.0000 44.6224
#
#
#
# Elastic Compliance Matrix: (Units=1/GPa)
#
#
# Indices 1 2 3 4 5 6 
#
# 1 0.007150 -0.001314 -0.000469 0.000000 0.000000 0.000000
# 2 -0.001314 0.017389 -0.005876 0.000000 0.000000 0.000000
# 3 -0.000469 -0.005876 0.020352 0.000000 0.000000 0.000000
# 4 0.000000 0.000000 0.000000 0.085874 0.000000 0.000000
# 5 0.000000 0.000000 0.000000 0.000000 0.039234 0.000000
# 6 0.000000 0.000000 0.000000 0.000000 0.000000 0.022410
#
#
# Mechanical properties :
#
#
# Convention : Reuss Voigt Hill
#
# Bulk Modulus (GPa) = 33.81507 37.90702 35.86105
# Shear Modulus (GPa) = 22.97957 31.22820 27.10389
#
# Velocity S-wave (km/s) = 3.26637 3.80774 3.54740
# Velocity P-wave (km/s) = 5.47042 6.07715 5.78175
#
# Compressibility (1/GPa) = 0.02957261
#
# Stress axis : x y z
#
# Youngs Moduli (GPa) = 139.85875 57.50685 49.13605
#
# Poissons Ratio (x) = 0.07559 0.02302
# Poissons Ratio (y) = 0.18383 0.28874
# Poissons Ratio (z) = 0.06553 0.33792
#
# Static dielectric constant tensor:
#      x y z
#    x 1.971190 0.000000 0.000000 
#    y 0.000000 1.874850 0.000000 
#    z 0.000000 0.000000 1.904920 
# 
# From -- ./inp_files/4075.got.cif
#   From: 2010.05.17/outbox.cif.g08.bks.cpg/sg29_3_cif.got.tgz:4075.got - 2010.06.04 01:19:37.
