data_PCOD9340469
_publ_section_title
;
Structure prediction by ZEFSAII (Michael W. Deem and Ramdas Pophale) SiO2 
 PCOD9340469
Probable space group: P C A 21
;
_chemical_formula_sum "Si O2"
_cell_formula_units_Z 28
_cell_length_a 19.931049
_cell_length_b 6.371589
_cell_length_c 10.118267
_cell_angle_alpha 90.000000
_cell_angle_beta 90.000000
_cell_angle_gamma 90.000000
_cell_volume 1284.943542
_symmetry_space_group_name_H-M "P C A 21"
_symmetry_group_IT_number 29
_symmetry_cell_setting 'orthorhombic'
loop_
_space_group_symop_operation_xyz
x,y,z
-x,-y,1/2+z
1/2-x,y,1/2+z
1/2+x,-y,z
loop_
_atom_site_type_symbol
_atom_site_label
_atom_site_fract_x
_atom_site_fract_y
_atom_site_fract_z
Si Si1 0.625242 0.540228 0.469260
Si Si2 0.685649 0.940788 0.849538
Si Si3 0.072653 0.341390 0.736940
Si Si4 0.609596 0.332289 0.953314
Si Si5 0.428347 0.770384 0.739488
Si Si6 0.675620 0.875035 0.276674
Si Si7 0.729944 0.596664 0.055037
O O1 0.574066 0.565732 0.589639
O O2 0.602151 0.373842 0.357802
O O3 0.640080 0.766144 0.402159
O O4 0.696969 0.497210 0.539345
O O5 0.641840 0.787293 0.757317
O O6 0.756115 0.014515 0.786173
O O7 0.631918 0.108782 0.897410
O O8 0.716715 0.808704 0.970934
O O9 0.007335 0.200390 0.764845
O O10 0.072835 0.528757 0.843651
O O11 0.574192 0.333832 0.094860
O O12 0.680344 0.437005 0.986785
O O13 0.382620 0.976592 0.722116
O O14 0.703592 0.670906 0.197419
#
# Coordination Sequence:
#
# PCOD9340469 Si02
#       7
#     4   4   4   4   4   4   4
#     4  11  24  44  66  99 138 174 228 283 335 405
#     4  10  22  42  67  96 128 172 225 279 335 399
#     4  11  26  43  64  96 139 181 222 273 343 409
#     4  11  23  42  68  94 132 176 219 275 338 404
#     4  12  25  42  67 101 132 182 226 274 342 412
#     4  11  22  42  70  99 130 170 230 286 339 391
#     4  10  20  41  68  97 129 171 222 284 334 388
#
# _framework density 21.790838999999998
#
# number of rings (size 3 to 8) (size 9 to 14) (size 15 to 20)
#    0.000    1.143    4.286    1.714    0.000    4.571 
#    0.000    0.000    0.000    0.000    0.000    0.000 
#    0.000    0.000    0.000    0.000    0.000    0.000 
#
# Total GULP energy -156088.473284 kJ/mol
# GULP energy per Si atom -5574.588332 kJ/mol
# Density = 2.174124 g / cm^3
# Si number density = 21.790839 Si / 1000 Ang^3
#
#
#
# Elastic Constant Matrix: (Units=GPa)
#
#
# Indices 1 2 3 4 5 6 
#
# 1 69.8920 5.1642 13.4906 0.0000 0.0000 0.0000
# 2 5.1642 28.8045 18.8322 0.0000 0.0000 0.0000
# 3 13.4906 18.8322 112.3874 0.0000 0.0000 0.0000
# 4 0.0000 0.0000 0.0000 23.6714 0.0000 0.0000
# 5 0.0000 0.0000 0.0000 0.0000 -35.4075 0.0000
# 6 0.0000 0.0000 0.0000 0.0000 0.0000 11.2365
#
#
#
# Elastic Compliance Matrix: (Units=1/GPa)
#
#
# Indices 1 2 3 4 5 6 
#
# 1 0.014718 -0.001666 -0.001488 0.000000 0.000000 0.000000
# 2 -0.001666 0.039177 -0.006365 0.000000 0.000000 0.000000
# 3 -0.001488 -0.006365 0.010143 0.000000 0.000000 0.000000
# 4 0.000000 0.000000 0.000000 0.042245 0.000000 0.000000
# 5 0.000000 0.000000 0.000000 0.000000 -0.028243 0.000000
# 6 0.000000 0.000000 0.000000 0.000000 0.000000 0.088996
#
#
# Mechanical properties :
#
#
# Convention : Reuss Voigt Hill
#
# Bulk Modulus (GPa) = 22.22181 31.78423 27.00302
# Shear Modulus (GPa) = 24.86661 11.47321 18.16991
#
# Velocity S-wave (km/s) = 3.38176 2.29708 2.89075
# Velocity P-wave (km/s) = 5.04661 4.65330 4.85394
#
# Compressibility (1/GPa) = 0.04500083
#
# Stress axis : x y z
#
# Youngs Moduli (GPa) = 67.94395 25.52541 98.59173
#
# Poissons Ratio (x) = 0.04253 0.14666
# Poissons Ratio (y) = 0.11321 0.62750
# Poissons Ratio (z) = 0.10107 0.16246
#
# Static dielectric constant tensor:
#      x y z
#    x 1.870830 0.000000 0.000000 
#    y 0.000000 1.805090 0.000000 
#    z 0.000000 0.000000 1.885690 
# 
# From -- ./inp_files/3751.got.cif
#   From: 2010.05.17/outbox.cif.g08.bks.cpg/sg29_2_cif.got.tgz:3751.got - 2010.06.04 01:19:37.
