data_PCOD9340981
_publ_section_title
;
Structure prediction by ZEFSAII (Michael W. Deem and Ramdas Pophale) SiO2 
 PCOD9340981
Probable space group: P C A 21
;
_chemical_formula_sum "Si O2"
_cell_formula_units_Z 24
_cell_length_a 10.960879
_cell_length_b 5.400924
_cell_length_c 18.134981
_cell_angle_alpha 90.000000
_cell_angle_beta 90.000000
_cell_angle_gamma 90.000000
_cell_volume 1073.570463
_symmetry_space_group_name_H-M "P C A 21"
_symmetry_group_IT_number 29
_symmetry_cell_setting 'orthorhombic'
loop_
_space_group_symop_operation_xyz
x,y,z
-x,-y,1/2+z
1/2-x,y,1/2+z
1/2+x,-y,z
loop_
_atom_site_type_symbol
_atom_site_label
_atom_site_fract_x
_atom_site_fract_y
_atom_site_fract_z
Si Si1 0.564778 0.836589 0.991740
Si Si2 0.196891 0.508646 0.092044
Si Si3 0.976856 0.100912 0.633539
Si Si4 0.335104 0.629873 0.952115
Si Si5 0.231797 0.148932 0.702754
Si Si6 0.750541 0.881602 0.377290
O O1 0.476570 0.610337 0.972738
O O2 0.620093 0.937931 0.916983
O O3 0.673364 0.732522 0.042234
O O4 0.499703 0.014877 0.049312
O O5 0.070628 0.619184 0.122152
O O6 0.269149 0.419668 0.163599
O O7 0.262774 0.673055 0.029713
O O8 0.100199 0.045674 0.677457
O O9 0.856119 0.980638 0.672217
O O10 0.292622 0.384779 0.909286
O O11 0.326142 0.879710 0.903443
O O12 0.239852 0.143728 0.790238
#
# Coordination Sequence:
#
# PCOD9340981 Si02
#       6
#     4   4   4   4   4   4
#     4  10  23  41  70 102 131 190 240 301 354 441
#     4  10  22  43  68 104 133 190 245 298 359 444
#     4  11  23  46  72 101 145 187 253 298 374 447
#     4  11  24  45  71  98 144 183 247 295 365 440
#     4  11  27  43  69 108 145 197 238 317 379 449
#     4  11  27  44  66 107 142 189 237 303 375 435
#
# _framework density 22.355312000000001
#
# number of rings (size 3 to 8) (size 9 to 14) (size 15 to 20)
#    0.000    1.333    1.667    2.000   11.667    1.333 
#    0.000    0.000    0.000    0.000    0.000    0.000 
#    0.000    0.000    0.000    0.000    0.000    0.000 
#
# Total GULP energy -133723.193834 kJ/mol
# GULP energy per Si atom -5571.799743 kJ/mol
# Density = 2.230443 g / cm^3
# Si number density = 22.355312 Si / 1000 Ang^3
#
#
#
# Elastic Constant Matrix: (Units=GPa)
#
#
# Indices 1 2 3 4 5 6 
#
# 1 98.9212 26.2562 59.0561 0.0000 0.0000 0.0000
# 2 26.2562 79.8862 54.6337 0.0000 0.0000 0.0000
# 3 59.0561 54.6337 205.3122 0.0000 0.0000 0.0000
# 4 0.0000 0.0000 0.0000 25.9476 0.0000 0.0000
# 5 0.0000 0.0000 0.0000 0.0000 22.6634 0.0000
# 6 0.0000 0.0000 0.0000 0.0000 0.0000 25.4068
#
#
#
# Elastic Compliance Matrix: (Units=1/GPa)
#
#
# Indices 1 2 3 4 5 6 
#
# 1 0.012464 -0.002011 -0.003050 0.000000 0.000000 0.000000
# 2 -0.002011 0.015627 -0.003580 0.000000 0.000000 0.000000
# 3 -0.003050 -0.003580 0.006701 0.000000 0.000000 0.000000
# 4 0.000000 0.000000 0.000000 0.038539 0.000000 0.000000
# 5 0.000000 0.000000 0.000000 0.000000 0.044124 0.000000
# 6 0.000000 0.000000 0.000000 0.000000 0.000000 0.039360
#
#
# Mechanical properties :
#
#
# Convention : Reuss Voigt Hill
#
# Bulk Modulus (GPa) = 57.11032 73.77907 65.44470
# Shear Modulus (GPa) = 27.78832 31.08180 29.43506
#
# Velocity S-wave (km/s) = 3.52949 3.73279 3.63256
# Velocity P-wave (km/s) = 6.49706 7.18699 6.85072
#
# Compressibility (1/GPa) = 0.01750997
#
# Stress axis : x y z
#
# Youngs Moduli (GPa) = 80.23388 63.99195 149.24047
#
# Poissons Ratio (x) = 0.12866 0.45519
# Poissons Ratio (y) = 0.16131 0.53429
# Poissons Ratio (z) = 0.24472 0.22909
#
# Static dielectric constant tensor:
#      x y z
#    x 1.922740 0.000000 0.000000 
#    y 0.000000 1.941280 0.000000 
#    z 0.000000 0.000000 1.802470 
# 
# From -- ./inp_files/4443.got.cif
#   From: 2010.05.17/outbox.cif.g08.bks.cpg/sg29_3_cif.got.tgz:4443.got - 2010.06.04 01:19:37.
