data_PCOD9340841
_publ_section_title
;
Structure prediction by ZEFSAII (Michael W. Deem and Ramdas Pophale) SiO2 
 PCOD9340841
Probable space group: P C A 21
;
_chemical_formula_sum "Si O2"
_cell_formula_units_Z 28
_cell_length_a 5.178534
_cell_length_b 16.458158
_cell_length_c 14.580129
_cell_angle_alpha 90.000000
_cell_angle_beta 90.000000
_cell_angle_gamma 90.000000
_cell_volume 1242.651721
_symmetry_space_group_name_H-M "P C A 21"
_symmetry_group_IT_number 29
_symmetry_cell_setting 'orthorhombic'
loop_
_space_group_symop_operation_xyz
x,y,z
-x,-y,1/2+z
1/2-x,y,1/2+z
1/2+x,-y,z
loop_
_atom_site_type_symbol
_atom_site_label
_atom_site_fract_x
_atom_site_fract_y
_atom_site_fract_z
Si Si1 0.590318 0.810283 0.804970
Si Si2 0.904975 0.039671 0.894589
Si Si3 0.948794 0.677067 0.797305
Si Si4 0.663655 0.303579 0.452501
Si Si5 0.640428 0.557575 0.894566
Si Si6 0.276976 0.764597 0.147885
Si Si7 0.540185 0.054492 0.611328
O O1 0.538513 0.902904 0.820891
O O2 0.866539 0.770290 0.815442
O O3 0.442125 0.768841 0.889902
O O4 0.475849 0.781551 0.708425
O O5 0.596656 0.037783 0.883838
O O6 0.959405 0.063152 0.000218
O O7 0.709095 0.614875 0.805377
O O8 0.131254 0.656256 0.882850
O O9 0.083173 0.689442 0.700269
O O10 0.436287 0.370416 0.466177
O O11 0.770629 0.266371 0.545426
O O12 0.391637 0.499352 0.899043
O O13 0.423680 0.852661 0.145972
O O14 0.280810 0.004791 0.635768
#
# Coordination Sequence:
#
# PCOD9340841 Si02
#       7
#     4   4   4   4   4   4   4
#     4  10  23  39  64  98 132 186 232 292 359 414
#     4  10  22  39  63  90 130 182 238 290 355 419
#     4  10  24  43  70 106 140 186 235 284 371 414
#     4  10  22  44  71 101 139 186 232 284 353 432
#     4  11  22  46  78 102 138 182 221 278 346 426
#     4  11  24  42  68 103 144 184 246 305 348 435
#     4  10  23  41  62  94 133 188 240 297 360 408
#
# _framework density 22.532458999999999
#
# number of rings (size 3 to 8) (size 9 to 14) (size 15 to 20)
#    0.000    1.714    2.857    0.000    6.000    4.571 
#    0.000    1.429    0.000    0.000    0.000    0.000 
#    0.000    0.000    0.000    0.000    0.000    0.000 
#
# Total GULP energy -155894.386006 kJ/mol
# GULP energy per Si atom -5567.656643 kJ/mol
# Density = 2.248117 g / cm^3
# Si number density = 22.532459 Si / 1000 Ang^3
#
#
#
# Elastic Constant Matrix: (Units=GPa)
#
#
# Indices 1 2 3 4 5 6 
#
# 1 86.6057 2.6697 15.8992 0.0000 0.0000 0.0000
# 2 2.6697 55.6113 23.5903 0.0000 0.0000 0.0000
# 3 15.8992 23.5903 89.8145 0.0000 0.0000 0.0000
# 4 0.0000 0.0000 0.0000 15.2802 0.0000 0.0000
# 5 0.0000 0.0000 0.0000 0.0000 12.4157 0.0000
# 6 0.0000 0.0000 0.0000 0.0000 0.0000 38.7829
#
#
#
# Elastic Compliance Matrix: (Units=1/GPa)
#
#
# Indices 1 2 3 4 5 6 
#
# 1 0.011941 0.000364 -0.002209 0.000000 0.000000 0.000000
# 2 0.000364 0.020248 -0.005383 0.000000 0.000000 0.000000
# 3 -0.002209 -0.005383 0.012939 0.000000 0.000000 0.000000
# 4 0.000000 0.000000 0.000000 0.065444 0.000000 0.000000
# 5 0.000000 0.000000 0.000000 0.000000 0.080543 0.000000
# 6 0.000000 0.000000 0.000000 0.000000 0.000000 0.025785
#
#
# Mechanical properties :
#
#
# Convention : Reuss Voigt Hill
#
# Bulk Modulus (GPa) = 32.60348 35.15000 33.87674
# Shear Modulus (GPa) = 20.69712 25.95391 23.32551
#
# Velocity S-wave (km/s) = 3.03404 3.39757 3.22094
# Velocity P-wave (km/s) = 5.17444 5.57000 5.37586
#
# Compressibility (1/GPa) = 0.03067158
#
# Stress axis : x y z
#
# Youngs Moduli (GPa) = 83.74523 49.38811 77.28596
#
# Poissons Ratio (x) = -0.01798 0.17076
# Poissons Ratio (y) = -0.03048 0.41600
# Poissons Ratio (z) = 0.18503 0.26584
#
# Static dielectric constant tensor:
#      x y z
#    x 1.895170 0.000000 0.000000 
#    y 0.000000 1.914610 0.000000 
#    z 0.000000 0.000000 1.833250 
# 
# From -- ./inp_files/4090.got.cif
#   From: 2010.05.17/outbox.cif.g08.bks.cpg/sg29_3_cif.got.tgz:4090.got - 2010.06.04 01:19:37.
