data_PCOD9340899
_publ_section_title
;
Structure prediction by ZEFSAII (Michael W. Deem and Ramdas Pophale) SiO2 
 PCOD9340899
Probable space group: P C A 21
;
_chemical_formula_sum "Si O2"
_cell_formula_units_Z 20
_cell_length_a 16.141278
_cell_length_b 6.644377
_cell_length_c 8.436709
_cell_angle_alpha 90.000000
_cell_angle_beta 90.000000
_cell_angle_gamma 90.000000
_cell_volume 904.826379
_symmetry_space_group_name_H-M "P C A 21"
_symmetry_group_IT_number 29
_symmetry_cell_setting 'orthorhombic'
loop_
_space_group_symop_operation_xyz
x,y,z
-x,-y,1/2+z
1/2-x,y,1/2+z
1/2+x,-y,z
loop_
_atom_site_type_symbol
_atom_site_label
_atom_site_fract_x
_atom_site_fract_y
_atom_site_fract_z
Si Si1 0.064871 0.392193 0.883460
Si Si2 0.479842 0.095704 0.108729
Si Si3 0.328071 0.966978 0.920056
Si Si4 0.074712 0.655580 0.599800
Si Si5 0.351802 0.040947 0.550189
O O1 0.021699 0.227140 0.766711
O O2 0.103495 0.543129 0.756497
O O3 0.127532 0.266225 0.990836
O O4 0.991899 0.472182 0.997673
O O5 0.474447 0.857005 0.152636
O O6 0.567493 0.099052 0.018335
O O7 0.393154 0.113825 0.013094
O O8 0.338369 0.012880 0.736550
O O9 0.357264 0.746723 0.981648
O O10 0.232811 0.985702 0.964809
#
# Coordination Sequence:
#
# PCOD9340899 Si02
#       5
#     4   4   4   4   4
#     4  11  21  41  72  98 137 183 236 292 364 413
#     4   9  20  43  70  94 135 184 227 289 358 420
#     4  10  22  41  65 100 141 180 241 285 352 420
#     4   9  23  40  64 106 132 177 239 292 345 426
#     4  11  20  39  69  96 139 194 225 290 351 433
#
# _framework density 22.103687999999998
#
# number of rings (size 3 to 8) (size 9 to 14) (size 15 to 20)
#    1.200    0.800    2.000    1.200    0.000    6.400 
#    0.000    4.000    8.800    0.000    0.000    0.000 
#    0.000    0.000    0.000    0.000    0.000    0.000 
#
# Total GULP energy -111455.014789 kJ/mol
# GULP energy per Si atom -5572.750739 kJ/mol
# Density = 2.205338 g / cm^3
# Si number density = 22.103688 Si / 1000 Ang^3
#
#
#
# Elastic Constant Matrix: (Units=GPa)
#
#
# Indices 1 2 3 4 5 6 
#
# 1 110.5079 24.2291 16.9963 0.0000 0.0000 0.0000
# 2 24.2291 46.3315 41.2587 0.0000 0.0000 0.0000
# 3 16.9963 41.2587 127.0464 0.0000 0.0000 0.0000
# 4 0.0000 0.0000 0.0000 56.4262 0.0000 0.0000
# 5 0.0000 0.0000 0.0000 0.0000 27.2858 0.0000
# 6 0.0000 0.0000 0.0000 0.0000 0.0000 14.4096
#
#
#
# Elastic Compliance Matrix: (Units=1/GPa)
#
#
# Indices 1 2 3 4 5 6 
#
# 1 0.010245 -0.005821 0.000520 0.000000 0.000000 0.000000
# 2 -0.005821 0.033672 -0.010156 0.000000 0.000000 0.000000
# 3 0.000520 -0.010156 0.011100 0.000000 0.000000 0.000000
# 4 0.000000 0.000000 0.000000 0.017722 0.000000 0.000000
# 5 0.000000 0.000000 0.000000 0.000000 0.036649 0.000000
# 6 0.000000 0.000000 0.000000 0.000000 0.000000 0.069398
#
#
# Mechanical properties :
#
#
# Convention : Reuss Voigt Hill
#
# Bulk Modulus (GPa) = 41.48945 49.87269 45.68107
# Shear Modulus (GPa) = 22.96369 33.05112 28.00740
#
# Velocity S-wave (km/s) = 3.22671 3.87108 3.56348
# Velocity P-wave (km/s) = 5.71780 6.52628 6.13537
#
# Compressibility (1/GPa) = 0.02410251
#
# Stress axis : x y z
#
# Youngs Moduli (GPa) = 97.60498 29.69849 90.09071
#
# Poissons Ratio (x) = 0.17286 -0.04681
# Poissons Ratio (y) = 0.56811 0.91499
# Poissons Ratio (z) = -0.05072 0.30163
#
# Static dielectric constant tensor:
#      x y z
#    x 1.834360 0.000000 0.000000 
#    y 0.000000 1.915450 0.000000 
#    z 0.000000 0.000000 1.823150 
# 
# From -- ./inp_files/1650.got.cif
#   From: 2010.05.17/outbox.cif.g08.bks.cpg/sg29_1_cif.got.tgz:1650.got - 2010.06.04 01:19:37.
