data_PCOD9340178
_publ_section_title
;
Structure prediction by ZEFSAII (Michael W. Deem and Ramdas Pophale) SiO2 
 PCOD9340178
Probable space group: P C A 21
;
_chemical_formula_sum "Si O2"
_cell_formula_units_Z 32
_cell_length_a 20.029902
_cell_length_b 8.200893
_cell_length_c 8.218956
_cell_angle_alpha 90.000000
_cell_angle_beta 90.000000
_cell_angle_gamma 90.000000
_cell_volume 1350.071052
_symmetry_space_group_name_H-M "P C A 21"
_symmetry_group_IT_number 29
_symmetry_cell_setting 'orthorhombic'
loop_
_space_group_symop_operation_xyz
x,y,z
-x,-y,1/2+z
1/2-x,y,1/2+z
1/2+x,-y,z
loop_
_atom_site_type_symbol
_atom_site_label
_atom_site_fract_x
_atom_site_fract_y
_atom_site_fract_z
Si Si1 0.779462 0.847398 0.417690
Si Si2 0.799873 0.310577 0.508272
Si Si3 0.091327 0.285660 0.050491
Si Si4 0.429630 0.635039 0.685830
Si Si5 0.312646 0.952111 0.110744
Si Si6 0.427620 0.436410 0.187918
Si Si7 0.287231 0.469938 0.207233
Si Si8 0.052457 0.775894 0.549845
O O1 0.840147 0.814136 0.543291
O O2 0.770191 0.685818 0.312966
O O3 0.711411 0.896897 0.502501
O O4 0.802206 0.990886 0.295351
O O5 0.871899 0.273517 0.585101
O O6 0.741455 0.182858 0.550886
O O7 0.773246 0.471976 0.599962
O O8 0.803493 0.374881 0.324525
O O9 0.086934 0.441057 0.170581
O O10 0.025063 0.173876 0.061884
O O11 0.084209 0.370552 0.870632
O O12 0.505970 0.649512 0.620328
O O13 0.432864 0.697842 0.871178
O O14 0.388436 0.900868 0.082738
O O15 0.354611 0.427578 0.108981
O O16 0.442794 0.627693 0.177726
#
# Coordination Sequence:
#
# PCOD9340178 Si02
#       8
#     4   4   4   4   4   4   4   4
#     4  11  24  43  60  89 134 172 206 265 327 386
#     4  12  22  38  64  95 120 165 216 265 317 381
#     4   9  20  41  64  88 126 170 213 266 326 393
#     4  10  19  35  63  94 123 154 214 275 315 375
#     4  12  25  41  62  95 136 169 212 269 326 392
#     4   9  18  36  61  92 121 157 207 276 318 372
#     4  11  22  40  63  88 122 164 216 260 321 380
#     4  10  20  38  65  95 126 161 218 268 330 385
#
# _framework density 23.702456000000002
#
# number of rings (size 3 to 8) (size 9 to 14) (size 15 to 20)
#    0.000    1.500    3.750    3.000    0.000    0.000 
#    0.000    5.000    0.000    0.000    0.000    0.000 
#    0.000    0.000    0.000    0.000    0.000    0.000 
#
# Total GULP energy -178707.119855 kJ/mol
# GULP energy per Si atom -5584.597495 kJ/mol
# Density = 2.364851 g / cm^3
# Si number density = 23.702456 Si / 1000 Ang^3
#
#
#
# Elastic Constant Matrix: (Units=GPa)
#
#
# Indices 1 2 3 4 5 6 
#
# 1 59.2108 14.6528 0.7074 0.0000 0.0000 0.0000
# 2 14.6528 56.4458 -0.7394 0.0000 0.0000 0.0000
# 3 0.7074 -0.7394 37.8606 0.0000 0.0000 0.0000
# 4 0.0000 0.0000 0.0000 40.6493 0.0000 0.0000
# 5 0.0000 0.0000 0.0000 0.0000 25.2880 0.0000
# 6 0.0000 0.0000 0.0000 0.0000 0.0000 35.9774
#
#
#
# Elastic Compliance Matrix: (Units=1/GPa)
#
#
# Indices 1 2 3 4 5 6 
#
# 1 0.018055 -0.004693 -0.000429 0.000000 0.000000 0.000000
# 2 -0.004693 0.018940 0.000458 0.000000 0.000000 0.000000
# 3 -0.000429 0.000458 0.026430 0.000000 0.000000 0.000000
# 4 0.000000 0.000000 0.000000 0.024601 0.000000 0.000000
# 5 0.000000 0.000000 0.000000 0.000000 0.039544 0.000000
# 6 0.000000 0.000000 0.000000 0.000000 0.000000 0.027795
#
#
# Mechanical properties :
#
#
# Convention : Reuss Voigt Hill
#
# Bulk Modulus (GPa) = 18.48527 20.30651 19.39589
# Shear Modulus (GPa) = 27.36342 29.64271 28.50306
#
# Velocity S-wave (km/s) = 3.40141 3.54024 3.47152
# Velocity P-wave (km/s) = 4.82099 5.02961 4.92640
#
# Compressibility (1/GPa) = 0.05409714
#
# Stress axis : x y z
#
# Youngs Moduli (GPa) = 55.38572 52.79759 37.83635
#
# Poissons Ratio (x) = 0.24776 0.01623
# Poissons Ratio (y) = 0.25990 -0.01731
# Poissons Ratio (z) = 0.02376 -0.02416
#
# Static dielectric constant tensor:
#      x y z
#    x 1.917420 0.000000 0.000000 
#    y 0.000000 1.971370 0.000000 
#    z 0.000000 0.000000 1.929360 
# 
# From -- ./inp_files/2255.got.cif
#   From: 2010.05.17/outbox.cif.g08.bks.cpg/sg29_2_cif.got.tgz:2255.got - 2010.06.04 01:19:37.
