data_PCOD9340943
_publ_section_title
;
Structure prediction by ZEFSAII (Michael W. Deem and Ramdas Pophale) SiO2 
 PCOD9340943
Probable space group: P C A 21
;
_chemical_formula_sum "Si O2"
_cell_formula_units_Z 20
_cell_length_a 11.905369
_cell_length_b 7.828530
_cell_length_c 10.638316
_cell_angle_alpha 90.000000
_cell_angle_beta 90.000000
_cell_angle_gamma 90.000000
_cell_volume 991.507417
_symmetry_space_group_name_H-M "P C A 21"
_symmetry_group_IT_number 29
_symmetry_cell_setting 'orthorhombic'
loop_
_space_group_symop_operation_xyz
x,y,z
-x,-y,1/2+z
1/2-x,y,1/2+z
1/2+x,-y,z
loop_
_atom_site_type_symbol
_atom_site_label
_atom_site_fract_x
_atom_site_fract_y
_atom_site_fract_z
Si Si1 0.249997 0.802484 0.454520
Si Si2 0.671208 0.861865 0.844365
Si Si3 0.460839 0.627710 0.846391
Si Si4 0.671213 0.861849 0.564660
Si Si5 0.039168 0.627698 0.062646
O O1 0.164180 0.691245 0.374864
O O2 0.335818 0.691267 0.534188
O O3 0.320783 0.935150 0.368542
O O4 0.179209 0.935163 0.540484
O O5 0.546782 0.787595 0.852977
O O6 0.714633 0.822892 0.704514
O O7 0.749992 0.786562 0.954515
O O8 0.469362 0.557022 0.704520
O O9 0.500017 0.500017 0.954520
O O10 0.546793 0.787560 0.556039
#
# Coordination Sequence:
#
# PCOD9340943 Si02
#       5
#     4   4   4   4   4
#     4  10  22  42  66  92 122 170 214 258 310 380
#     4   9  21  40  65  93 124 162 211 261 312 371
#     4  11  25  43  64  95 132 168 209 264 321 376
#     4   9  21  40  65  93 124 162 211 261 312 371
#     4  11  25  43  64  95 132 168 209 264 321 376
#
# _framework density 20.171306999999999
#
# number of rings (size 3 to 8) (size 9 to 14) (size 15 to 20)
#    1.200    0.800    0.000    2.400    2.800    4.800 
#    0.000    0.000    0.000    0.000    0.000    0.000 
#    0.000    0.000    0.000    0.000    0.000    0.000 
#
# Total GULP energy -111489.795060 kJ/mol
# GULP energy per Si atom -5574.489753 kJ/mol
# Density = 2.012540 g / cm^3
# Si number density = 20.171307 Si / 1000 Ang^3
#
#
#
# Elastic Constant Matrix: (Units=GPa)
#
#
# Indices 1 2 3 4 5 6 
#
# 1 64.2660 23.5613 54.2529 0.0000 0.0000 0.0000
# 2 23.5613 70.2699 46.5242 0.0000 0.0000 0.0000
# 3 54.2529 46.5242 184.6146 0.0000 0.0000 0.0000
# 4 0.0000 0.0000 0.0000 3.6319 0.0000 0.0000
# 5 0.0000 0.0000 0.0000 0.0000 35.8245 0.0000
# 6 0.0000 0.0000 0.0000 0.0000 0.0000 0.3188
#
#
#
# Elastic Compliance Matrix: (Units=1/GPa)
#
#
# Indices 1 2 3 4 5 6 
#
# 1 0.021435 -0.003621 -0.005387 0.000000 0.000000 0.000000
# 2 -0.003621 0.017692 -0.003395 0.000000 0.000000 0.000000
# 3 -0.005387 -0.003395 0.007855 0.000000 0.000000 0.000000
# 4 0.000000 0.000000 0.000000 0.275335 0.000000 0.000000
# 5 0.000000 0.000000 0.000000 0.000000 0.027914 0.000000
# 6 0.000000 0.000000 0.000000 0.000000 0.000000 3.136968
#
#
# Mechanical properties :
#
#
# Convention : Reuss Voigt Hill
#
# Bulk Modulus (GPa) = 45.08840 63.09191 54.09015
# Shear Modulus (GPa) = 1.42070 20.94252 11.18161
#
# Velocity S-wave (km/s) = 0.84015 3.22566 2.35698
# Velocity P-wave (km/s) = 4.83140 6.72452 5.85498
#
# Compressibility (1/GPa) = 0.02217865
#
# Stress axis : x y z
#
# Youngs Moduli (GPa) = 46.65220 56.52166 127.30490
#
# Poissons Ratio (x) = 0.20465 0.68576
# Poissons Ratio (y) = 0.16891 0.43215
# Poissons Ratio (z) = 0.25130 0.19187
#
# Static dielectric constant tensor:
#      x y z
#    x 1.692500 0.000000 0.000000 
#    y 0.000000 1.716740 0.000000 
#    z 0.000000 0.000000 1.726680 
# 
# From -- ./inp_files/1391.got.cif
#   From: 2010.05.17/outbox.cif.g08.bks.cpg/sg29_1_cif.got.tgz:1391.got - 2010.06.04 01:19:37.
