data_PCOD9340738
_publ_section_title
;
Structure prediction by ZEFSAII (Michael W. Deem and Ramdas Pophale) SiO2 
 PCOD9340738
Probable space group: P C A 21
;
_chemical_formula_sum "Si O2"
_cell_formula_units_Z 32
_cell_length_a 20.033683
_cell_length_b 7.121678
_cell_length_c 8.813810
_cell_angle_alpha 90.000000
_cell_angle_beta 90.000000
_cell_angle_gamma 90.000000
_cell_volume 1257.496588
_symmetry_space_group_name_H-M "P C A 21"
_symmetry_group_IT_number 29
_symmetry_cell_setting 'orthorhombic'
loop_
_space_group_symop_operation_xyz
x,y,z
-x,-y,1/2+z
1/2-x,y,1/2+z
1/2+x,-y,z
loop_
_atom_site_type_symbol
_atom_site_label
_atom_site_fract_x
_atom_site_fract_y
_atom_site_fract_z
Si Si1 0.107874 0.750522 0.323640
Si Si2 0.770514 0.022577 0.253042
Si Si3 0.681789 0.783871 0.468703
Si Si4 0.804855 0.381561 0.079650
Si Si5 0.056409 0.339840 0.293242
Si Si6 0.034101 0.155394 0.965072
Si Si7 0.408602 0.506797 0.331867
Si Si8 0.127204 0.843868 0.998416
O O1 0.094059 0.538248 0.268531
O O2 0.125410 0.868524 0.176796
O O3 0.040902 0.818731 0.407313
O O4 0.104140 0.244175 0.419047
O O5 0.762130 0.235119 0.180339
O O6 0.816298 0.057767 0.400942
O O7 0.716100 0.880466 0.322946
O O8 0.807788 0.909305 0.118415
O O9 0.716401 0.581751 0.509106
O O10 0.667283 0.258955 0.441889
O O11 0.869802 0.442920 0.178972
O O12 0.983271 0.411274 0.340095
O O13 0.045022 0.227001 0.137219
O O14 0.082011 0.289478 0.865084
O O15 0.058874 0.944529 0.946536
O O16 0.369296 0.626173 0.456338
#
# Coordination Sequence:
#
# PCOD9340738 Si02
#       8
#     4   4   4   4   4   4   4   4
#     4  10  22  41  69 111 153 193 241 304 391 464
#     4  11  28  49  74 104 144 199 268 322 378 459
#     4  11  27  50  76 106 147 201 265 326 391 458
#     4  10  23  47  75 107 147 197 247 322 390 463
#     4  10  22  42  73 106 155 193 239 310 387 469
#     4  11  22  36  69 107 150 196 236 299 380 465
#     4  10  21  43  67 112 152 185 241 302 388 475
#     4  11  25  40  69 105 146 198 247 305 367 455
#
# _framework density 25.447385000000001
#
# number of rings (size 3 to 8) (size 9 to 14) (size 15 to 20)
#    0.000    1.500    2.500    0.750    5.250    2.000 
#    0.000    1.250    0.000    0.000    0.000    0.000 
#    0.000    0.000    0.000    0.000    0.000    0.000 
#
# Total GULP energy -179019.807765 kJ/mol
# GULP energy per Si atom -5594.368993 kJ/mol
# Density = 2.538947 g / cm^3
# Si number density = 25.447385 Si / 1000 Ang^3
#
#
#
# Elastic Constant Matrix: (Units=GPa)
#
#
# Indices 1 2 3 4 5 6 
#
# 1 73.3614 39.3370 45.7439 0.0000 0.0000 0.0000
# 2 39.3370 149.2384 54.6438 0.0000 0.0000 0.0000
# 3 45.7439 54.6438 150.1221 0.0000 0.0000 0.0000
# 4 0.0000 0.0000 0.0000 46.0649 0.0000 0.0000
# 5 0.0000 0.0000 0.0000 0.0000 33.8989 0.0000
# 6 0.0000 0.0000 0.0000 0.0000 0.0000 32.9073
#
#
#
# Elastic Compliance Matrix: (Units=1/GPa)
#
#
# Indices 1 2 3 4 5 6 
#
# 1 0.018036 -0.003163 -0.004344 0.000000 0.000000 0.000000
# 2 -0.003163 0.008286 -0.002052 0.000000 0.000000 0.000000
# 3 -0.004344 -0.002052 0.008732 0.000000 0.000000 0.000000
# 4 0.000000 0.000000 0.000000 0.021709 0.000000 0.000000
# 5 0.000000 0.000000 0.000000 0.000000 0.029500 0.000000
# 6 0.000000 0.000000 0.000000 0.000000 0.000000 0.030388
#
#
# Mechanical properties :
#
#
# Convention : Reuss Voigt Hill
#
# Bulk Modulus (GPa) = 62.75736 72.46347 67.61042
# Shear Modulus (GPa) = 35.44041 38.10734 36.77388
#
# Velocity S-wave (km/s) = 3.73593 3.87395 3.80556
# Velocity P-wave (km/s) = 6.58215 6.96761 6.77762
#
# Compressibility (1/GPa) = 0.01593438
#
# Stress axis : x y z
#
# Youngs Moduli (GPa) = 55.44374 120.68707 114.52133
#
# Poissons Ratio (x) = 0.38178 0.49753
# Poissons Ratio (y) = 0.17539 0.23501
# Poissons Ratio (z) = 0.24087 0.24766
#
# Static dielectric constant tensor:
#      x y z
#    x 2.073470 0.000000 0.000000 
#    y 0.000000 2.015290 0.000000 
#    z 0.000000 0.000000 1.966550 
# 
# From -- ./inp_files/3984.got.cif
#   From: 2010.05.17/outbox.cif.g08.bks.cpg/sg29_2_cif.got.tgz:3984.got - 2010.06.04 01:19:37.
