data_PCOD9340411
_publ_section_title
;
Structure prediction by ZEFSAII (Michael W. Deem and Ramdas Pophale) SiO2 
 PCOD9340411
Probable space group: P C A 21
;
_chemical_formula_sum "Si O2"
_cell_formula_units_Z 28
_cell_length_a 22.726197
_cell_length_b 8.006788
_cell_length_c 7.260597
_cell_angle_alpha 90.000000
_cell_angle_beta 90.000000
_cell_angle_gamma 90.000000
_cell_volume 1321.166121
_symmetry_space_group_name_H-M "P C A 21"
_symmetry_group_IT_number 29
_symmetry_cell_setting 'orthorhombic'
loop_
_space_group_symop_operation_xyz
x,y,z
-x,-y,1/2+z
1/2-x,y,1/2+z
1/2+x,-y,z
loop_
_atom_site_type_symbol
_atom_site_label
_atom_site_fract_x
_atom_site_fract_y
_atom_site_fract_z
Si Si1 0.939824 0.097975 0.727950
Si Si2 0.831329 0.288500 0.858246
Si Si3 0.051443 0.144338 0.540910
Si Si4 0.628203 0.006141 0.857546
Si Si5 0.705750 0.698222 0.978841
Si Si6 0.797547 0.312445 0.431960
Si Si7 0.335454 0.335728 0.900899
O O1 0.905399 0.021417 0.553445
O O2 0.890457 0.183516 0.855680
O O3 0.967423 0.960373 0.862025
O O4 0.992267 0.209589 0.641580
O O5 0.819228 0.311294 0.640878
O O6 0.767834 0.232941 0.931417
O O7 0.839751 0.469111 0.944166
O O8 0.084106 0.034441 0.694572
O O9 0.103417 0.260526 0.466436
O O10 0.672915 0.849715 0.877895
O O11 0.661066 0.183058 0.825056
O O12 0.702800 0.511390 0.884483
O O13 0.775551 0.733821 0.991911
O O14 0.676857 0.686822 0.182062
#
# Coordination Sequence:
#
# PCOD9340411 Si02
#       7
#     4   4   4   4   4   4   4
#     4  11  24  43  62  89 128 169 226 269 314 381
#     4   9  21  40  62  94 129 163 206 268 323 390
#     4  12  24  42  65  88 126 174 223 269 317 378
#     4  11  23  40  66  97 126 172 212 263 328 386
#     4  10  20  39  63  99 136 160 204 270 325 394
#     4   9  21  37  62  96 134 159 204 258 327 390
#     4  10  21  39  64  95 129 167 209 263 330 389
#
# _framework density 21.1934
#
# number of rings (size 3 to 8) (size 9 to 14) (size 15 to 20)
#    0.000    1.714    2.857    0.857    4.000    2.286 
#    0.000    5.714    0.000    0.000    0.000    0.000 
#    0.000    0.000    0.000    0.000    0.000    0.000 
#
# Total GULP energy -156147.907742 kJ/mol
# GULP energy per Si atom -5576.710991 kJ/mol
# Density = 2.114516 g / cm^3
# Si number density = 21.193400 Si / 1000 Ang^3
#
#
#
# Elastic Constant Matrix: (Units=GPa)
#
#
# Indices 1 2 3 4 5 6 
#
# 1 105.8694 36.1226 11.5030 0.0000 0.0000 0.0000
# 2 36.1226 52.4332 15.6525 0.0000 0.0000 0.0000
# 3 11.5030 15.6525 56.2498 0.0000 0.0000 0.0000
# 4 0.0000 0.0000 0.0000 18.5535 0.0000 0.0000
# 5 0.0000 0.0000 0.0000 0.0000 26.8873 0.0000
# 6 0.0000 0.0000 0.0000 0.0000 0.0000 99.2761
#
#
#
# Elastic Compliance Matrix: (Units=1/GPa)
#
#
# Indices 1 2 3 4 5 6 
#
# 1 0.012350 -0.008457 -0.000172 0.000000 0.000000 0.000000
# 2 -0.008457 0.026590 -0.005670 0.000000 0.000000 0.000000
# 3 -0.000172 -0.005670 0.019391 0.000000 0.000000 0.000000
# 4 0.000000 0.000000 0.000000 0.053898 0.000000 0.000000
# 5 0.000000 0.000000 0.000000 0.000000 0.037192 0.000000
# 6 0.000000 0.000000 0.000000 0.000000 0.000000 0.010073
#
#
# Mechanical properties :
#
#
# Convention : Reuss Voigt Hill
#
# Bulk Modulus (GPa) = 33.63221 37.90096 35.76658
# Shear Modulus (GPa) = 25.25211 39.02833 32.14022
#
# Velocity S-wave (km/s) = 3.45557 4.29596 3.89848
# Velocity P-wave (km/s) = 5.64136 6.52145 6.09730
#
# Compressibility (1/GPa) = 0.02973340
#
# Stress axis : x y z
#
# Youngs Moduli (GPa) = 80.97356 37.60745 51.57077
#
# Poissons Ratio (x) = 0.31803 0.00889
# Poissons Ratio (y) = 0.68476 0.29240
# Poissons Ratio (z) = 0.01395 0.21323
#
# Static dielectric constant tensor:
#      x y z
#    x 1.808710 0.000000 0.000000 
#    y 0.000000 1.786100 0.000000 
#    z 0.000000 0.000000 1.794120 
# 
# From -- ./inp_files/2238.got.cif
#   From: 2010.05.17/outbox.cif.g08.bks.cpg/sg29_2_cif.got.tgz:2238.got - 2010.06.04 01:19:37.
