data_PCOD9340558
_publ_section_title
;
Structure prediction by ZEFSAII (Michael W. Deem and Ramdas Pophale) SiO2 
 PCOD9340558
Probable space group: P C A 21
;
_chemical_formula_sum "Si O2"
_cell_formula_units_Z 32
_cell_length_a 15.774269
_cell_length_b 14.387692
_cell_length_c 5.670647
_cell_angle_alpha 90.000000
_cell_angle_beta 90.000000
_cell_angle_gamma 90.000000
_cell_volume 1286.983527
_symmetry_space_group_name_H-M "P C A 21"
_symmetry_group_IT_number 29
_symmetry_cell_setting 'orthorhombic'
loop_
_space_group_symop_operation_xyz
x,y,z
-x,-y,1/2+z
1/2-x,y,1/2+z
1/2+x,-y,z
loop_
_atom_site_type_symbol
_atom_site_label
_atom_site_fract_x
_atom_site_fract_y
_atom_site_fract_z
Si Si1 0.205084 0.971098 0.502060
Si Si2 0.456131 0.575025 0.454863
Si Si3 0.395925 0.286835 0.954922
Si Si4 0.574073 0.949939 0.792889
Si Si5 0.948731 0.145806 0.525085
Si Si6 0.234127 0.763744 0.034095
Si Si7 0.967579 0.377582 0.955063
Si Si8 0.881085 0.761666 0.461294
O O1 0.241723 0.991843 0.243360
O O2 0.124469 0.036779 0.548026
O O3 0.205980 0.857486 0.517287
O O4 0.552450 0.616689 0.456833
O O5 0.466044 0.464376 0.455025
O O6 0.420337 0.609823 0.705510
O O7 0.420594 0.610741 0.204800
O O8 0.473661 0.211436 0.950010
O O9 0.346933 0.273926 0.710739
O O10 0.349511 0.270774 0.202985
O O11 0.482526 0.904091 0.760135
O O12 0.619634 0.873155 0.952125
O O13 0.568381 0.055230 0.870714
O O14 0.862144 0.200215 0.539559
O O15 0.252224 0.715947 0.282793
O O16 0.023250 0.284075 0.955662
#
# Coordination Sequence:
#
# PCOD9340558 Si02
#       8
#     4   4   4   4   4   4   4   4
#     4  10  21  38  52  67  92 126 163 206 238 281
#     4   8  13  23  40  58  84 120 149 178 227 282
#     4   9  18  30  41  66  96 119 153 196 233 280
#     4  11  22  32  52  74  98 130 165 201 243 287
#     4  11  22  32  52  74  98 130 165 201 243 287
#     4  10  21  38  52  67  92 126 163 206 238 281
#     4   8  13  23  40  58  84 120 149 178 227 282
#     4   9  18  30  41  66  96 119 153 196 233 280
#
# _framework density 24.864341
#
# number of rings (size 3 to 8) (size 9 to 14) (size 15 to 20)
#    0.000    2.500    2.500    0.750    3.500    4.000 
#    0.000    0.000    0.000    0.000    0.000    0.000 
#    0.000    2.000    0.000    0.000    0.000    9.250 
#
# Total GULP energy -178442.641131 kJ/mol
# GULP energy per Si atom -5576.332535 kJ/mol
# Density = 2.480775 g / cm^3
# Si number density = 24.864341 Si / 1000 Ang^3
#
#
#
# Elastic Constant Matrix: (Units=GPa)
#
#
# Indices 1 2 3 4 5 6 
#
# 1 47.3825 21.9681 23.5530 0.0000 0.0000 0.0000
# 2 21.9681 97.3769 18.7874 0.0000 0.0000 0.0000
# 3 23.5530 18.7874 257.3965 0.0000 0.0000 0.0000
# 4 0.0000 0.0000 0.0000 24.0528 0.0000 0.0000
# 5 0.0000 0.0000 0.0000 0.0000 9.4900 0.0000
# 6 0.0000 0.0000 0.0000 0.0000 0.0000 1.5963
#
#
#
# Elastic Compliance Matrix: (Units=1/GPa)
#
#
# Indices 1 2 3 4 5 6 
#
# 1 0.024416 -0.005150 -0.001858 0.000000 0.000000 0.000000
# 2 -0.005150 0.011502 -0.000368 0.000000 0.000000 0.000000
# 3 -0.001858 -0.000368 0.004082 0.000000 0.000000 0.000000
# 4 0.000000 0.000000 0.000000 0.041575 0.000000 0.000000
# 5 0.000000 0.000000 0.000000 0.000000 0.105374 0.000000
# 6 0.000000 0.000000 0.000000 0.000000 0.000000 0.626460
#
#
# Mechanical properties :
#
#
# Convention : Reuss Voigt Hill
#
# Bulk Modulus (GPa) = 39.60769 58.97479 49.29124
# Shear Modulus (GPa) = 5.97673 29.55097 17.76385
#
# Velocity S-wave (km/s) = 1.55208 3.45119 2.67578
# Velocity P-wave (km/s) = 4.37905 6.29691 5.42342
#
# Compressibility (1/GPa) = 0.02524762
#
# Stress axis : x y z
#
# Youngs Moduli (GPa) = 40.95647 86.93980 244.97875
#
# Poissons Ratio (x) = 0.44772 0.45525
# Poissons Ratio (y) = 0.21091 0.09023
# Poissons Ratio (z) = 0.07611 0.03202
#
# Static dielectric constant tensor:
#      x y z
#    x 1.999780 0.000000 0.000000 
#    y 0.000000 1.945000 0.000000 
#    z 0.000000 0.000000 2.137130 
# 
# From -- ./inp_files/455.got.cif
#   From: 2010.05.17/outbox.cif.g08.bks.cpg/sg29_1_cif.got.tgz:455.got - 2010.06.04 01:19:37.
