data_PCOD9340945
_publ_section_title
;
Structure prediction by ZEFSAII (Michael W. Deem and Ramdas Pophale) SiO2 
 PCOD9340945
Probable space group: P C A 21
;
_chemical_formula_sum "Si O2"
_cell_formula_units_Z 28
_cell_length_a 20.923545
_cell_length_b 6.448472
_cell_length_c 9.470423
_cell_angle_alpha 90.000000
_cell_angle_beta 90.000000
_cell_angle_gamma 90.000000
_cell_volume 1277.795820
_symmetry_space_group_name_H-M "P C A 21"
_symmetry_group_IT_number 29
_symmetry_cell_setting 'orthorhombic'
loop_
_space_group_symop_operation_xyz
x,y,z
-x,-y,1/2+z
1/2-x,y,1/2+z
1/2+x,-y,z
loop_
_atom_site_type_symbol
_atom_site_label
_atom_site_fract_x
_atom_site_fract_y
_atom_site_fract_z
Si Si1 0.963891 0.831339 0.183510
Si Si2 0.433512 0.485180 0.700875
Si Si3 0.673459 0.224869 0.091031
Si Si4 0.727981 0.888310 0.252346
Si Si5 0.235108 0.392612 0.980919
Si Si6 0.065591 0.093170 0.006981
Si Si7 0.371967 0.271314 0.946932
O O1 0.952473 0.897671 0.343505
O O2 0.001645 0.612996 0.186687
O O3 0.899850 0.809651 0.092023
O O4 0.009515 0.988161 0.098886
O O5 0.374086 0.643224 0.689804
O O6 0.425864 0.320061 0.574788
O O7 0.426709 0.370497 0.850580
O O8 0.730531 0.108797 0.175210
O O9 0.700346 0.388654 0.978292
O O10 0.627963 0.048553 0.027582
O O11 0.777662 0.778956 0.359046
O O12 0.663381 0.897657 0.347382
O O13 0.721330 0.718107 0.129425
O O14 0.311819 0.422557 0.972921
#
# Coordination Sequence:
#
# PCOD9340945 Si02
#       7
#     4   4   4   4   4   4   4
#     4  11  25  41  71  99 136 182 223 289 360 417
#     4  11  22  44  68  97 138 178 224 290 351 421
#     4  11  21  42  73  96 140 190 222 293 363 405
#     4  10  23  42  66  95 138 172 237 284 346 424
#     4  10  22  42  66  97 136 181 236 288 351 422
#     4  11  23  42  68 102 139 177 239 280 353 440
#     4  10  22  45  64  98 137 172 231 288 346 423
#
# _framework density 21.912732999999999
#
# number of rings (size 3 to 8) (size 9 to 14) (size 15 to 20)
#    0.857    0.571    2.857    1.714    2.000    5.714 
#    0.000    1.429    0.000    0.000    0.000    0.000 
#    0.000    0.000    0.000    0.000    0.000    0.000 
#
# Total GULP energy -156267.587979 kJ/mol
# GULP energy per Si atom -5580.985285 kJ/mol
# Density = 2.186286 g / cm^3
# Si number density = 21.912733 Si / 1000 Ang^3
#
#
#
# Elastic Constant Matrix: (Units=GPa)
#
#
# Indices 1 2 3 4 5 6 
#
# 1 47.9140 25.3174 35.3360 0.0000 0.0000 0.0000
# 2 25.3174 94.4901 52.9415 0.0000 0.0000 0.0000
# 3 35.3360 52.9415 167.5327 0.0000 0.0000 0.0000
# 4 0.0000 0.0000 0.0000 24.9048 0.0000 0.0000
# 5 0.0000 0.0000 0.0000 0.0000 35.4333 0.0000
# 6 0.0000 0.0000 0.0000 0.0000 0.0000 29.6726
#
#
#
# Elastic Compliance Matrix: (Units=1/GPa)
#
#
# Indices 1 2 3 4 5 6 
#
# 1 0.026395 -0.004803 -0.004049 0.000000 0.000000 0.000000
# 2 -0.004803 0.013734 -0.003327 0.000000 0.000000 0.000000
# 3 -0.004049 -0.003327 0.007874 0.000000 0.000000 0.000000
# 4 0.000000 0.000000 0.000000 0.040153 0.000000 0.000000
# 5 0.000000 0.000000 0.000000 0.000000 0.028222 0.000000
# 6 0.000000 0.000000 0.000000 0.000000 0.000000 0.033701
#
#
# Mechanical properties :
#
#
# Convention : Reuss Voigt Hill
#
# Bulk Modulus (GPa) = 42.29352 59.68073 50.98713
# Shear Modulus (GPa) = 27.42419 31.09160 29.25790
#
# Velocity S-wave (km/s) = 3.54152 3.77089 3.65800
# Velocity P-wave (km/s) = 6.00549 6.80105 6.41561
#
# Compressibility (1/GPa) = 0.02364428
#
# Stress axis : x y z
#
# Youngs Moduli (GPa) = 37.88569 72.81099 126.99350
#
# Poissons Ratio (x) = 0.34974 0.51424
# Poissons Ratio (y) = 0.18198 0.42250
# Poissons Ratio (z) = 0.15341 0.24224
#
# Static dielectric constant tensor:
#      x y z
#    x 1.850440 0.000000 0.000000 
#    y 0.000000 1.807680 0.000000 
#    z 0.000000 0.000000 1.808240 
# 
# From -- ./inp_files/2428.got.cif
#   From: 2010.05.17/outbox.cif.g08.bks.cpg/sg29_2_cif.got.tgz:2428.got - 2010.06.04 01:19:37.
