data_PCOD9340588
_publ_section_title
;
Structure prediction by ZEFSAII (Michael W. Deem and Ramdas Pophale) SiO2 
 PCOD9340588
Probable space group: P C A 21
;
_chemical_formula_sum "Si O2"
_cell_formula_units_Z 28
_cell_length_a 13.863052
_cell_length_b 4.882637
_cell_length_c 16.189959
_cell_angle_alpha 90.000000
_cell_angle_beta 90.000000
_cell_angle_gamma 90.000000
_cell_volume 1095.870002
_symmetry_space_group_name_H-M "P C A 21"
_symmetry_group_IT_number 29
_symmetry_cell_setting 'orthorhombic'
loop_
_space_group_symop_operation_xyz
x,y,z
-x,-y,1/2+z
1/2-x,y,1/2+z
1/2+x,-y,z
loop_
_atom_site_type_symbol
_atom_site_label
_atom_site_fract_x
_atom_site_fract_y
_atom_site_fract_z
Si Si1 0.331704 0.228526 0.323460
Si Si2 0.998385 0.528484 0.219564
Si Si3 0.217731 0.758211 0.926669
Si Si4 0.629851 0.864593 0.505980
Si Si5 0.919324 0.116466 0.569120
Si Si6 0.318812 0.280013 0.691752
Si Si7 0.329755 0.660492 0.109410
O O1 0.432650 0.331050 0.287252
O O2 0.282690 0.475395 0.376454
O O3 0.258465 0.135726 0.251035
O O4 0.350895 0.965135 0.377533
O O5 0.923280 0.353169 0.166783
O O6 0.041791 0.729371 0.150179
O O7 0.090398 0.360938 0.249068
O O8 0.313134 0.956197 0.936899
O O9 0.160766 0.729548 0.013528
O O10 0.673856 0.025726 0.584416
O O11 0.515497 0.917915 0.512993
O O12 0.651872 0.545906 0.529659
O O13 0.867951 0.854768 0.610852
O O14 0.257341 0.540977 0.661789
#
# Coordination Sequence:
#
# PCOD9340588 Si02
#       7
#     4   4   4   4   4   4   4
#     4  11  30  46  71 102 157 189 233 296 383 429
#     4  10  24  43  73 105 138 186 247 292 349 437
#     4  12  27  48  68 109 148 194 229 308 366 435
#     4  11  22  41  69 101 136 176 233 294 349 422
#     4  11  25  43  81 104 140 188 262 294 354 424
#     4  11  23  43  73 101 136 193 236 302 352 438
#     4  10  21  38  67 106 131 168 234 298 341 409
#
# _framework density 25.550474999999999
#
# number of rings (size 3 to 8) (size 9 to 14) (size 15 to 20)
#    0.000    1.143    2.857    1.714    6.000    4.571 
#    0.000    0.000    0.000    0.000    0.000    0.000 
#    0.000    0.000    0.000    0.000    0.000    0.000 
#
# Total GULP energy -156430.745795 kJ/mol
# GULP energy per Si atom -5586.812350 kJ/mol
# Density = 2.549232 g / cm^3
# Si number density = 25.550475 Si / 1000 Ang^3
#
#
#
# Elastic Constant Matrix: (Units=GPa)
#
#
# Indices 1 2 3 4 5 6 
#
# 1 170.0981 15.5276 12.4067 0.0000 0.0000 0.0000
# 2 15.5276 101.6316 21.7475 0.0000 0.0000 0.0000
# 3 12.4067 21.7475 72.3451 0.0000 0.0000 0.0000
# 4 0.0000 0.0000 0.0000 35.1380 0.0000 0.0000
# 5 0.0000 0.0000 0.0000 0.0000 27.0300 0.0000
# 6 0.0000 0.0000 0.0000 0.0000 0.0000 28.7913
#
#
#
# Elastic Compliance Matrix: (Units=1/GPa)
#
#
# Indices 1 2 3 4 5 6 
#
# 1 0.006006 -0.000745 -0.000806 0.000000 0.000000 0.000000
# 2 -0.000745 0.010608 -0.003061 0.000000 0.000000 0.000000
# 3 -0.000806 -0.003061 0.014881 0.000000 0.000000 0.000000
# 4 0.000000 0.000000 0.000000 0.028459 0.000000 0.000000
# 5 0.000000 0.000000 0.000000 0.000000 0.036996 0.000000
# 6 0.000000 0.000000 0.000000 0.000000 0.000000 0.034733
#
#
# Mechanical properties :
#
#
# Convention : Reuss Voigt Hill
#
# Bulk Modulus (GPa) = 44.90207 49.27093 47.08650
# Shear Modulus (GPa) = 33.70836 37.81805 35.76320
#
# Velocity S-wave (km/s) = 3.63614 3.85142 3.74533
# Velocity P-wave (km/s) = 5.93639 6.25328 6.09689
#
# Compressibility (1/GPa) = 0.02227069
#
# Stress axis : x y z
#
# Youngs Moduli (GPa) = 166.50663 94.26547 67.19948
#
# Poissons Ratio (x) = 0.07024 0.05416
# Poissons Ratio (y) = 0.12407 0.20571
# Poissons Ratio (z) = 0.13420 0.28856
#
# Static dielectric constant tensor:
#      x y z
#    x 2.128390 0.000000 0.000000 
#    y 0.000000 2.002900 0.000000 
#    z 0.000000 0.000000 2.182680 
# 
# From -- ./inp_files/4677.got.cif
#   From: 2010.05.17/outbox.cif.g08.bks.cpg/sg29_3_cif.got.tgz:4677.got - 2010.06.04 01:19:37.
