data_PCOD9340436
_publ_section_title
;
Structure prediction by ZEFSAII (Michael W. Deem and Ramdas Pophale) SiO2 
 PCOD9340436
Probable space group: P C A 21
;
_chemical_formula_sum "Si O2"
_cell_formula_units_Z 28
_cell_length_a 16.958876
_cell_length_b 8.080230
_cell_length_c 9.652937
_cell_angle_alpha 90.000000
_cell_angle_beta 90.000000
_cell_angle_gamma 90.000000
_cell_volume 1322.757582
_symmetry_space_group_name_H-M "P C A 21"
_symmetry_group_IT_number 29
_symmetry_cell_setting 'orthorhombic'
loop_
_space_group_symop_operation_xyz
x,y,z
-x,-y,1/2+z
1/2-x,y,1/2+z
1/2+x,-y,z
loop_
_atom_site_type_symbol
_atom_site_label
_atom_site_fract_x
_atom_site_fract_y
_atom_site_fract_z
Si Si1 0.221405 0.031563 0.261000
Si Si2 0.107692 0.776485 0.395384
Si Si3 0.242020 0.584801 0.546857
Si Si4 0.559226 0.688604 0.800789
Si Si5 0.645455 0.343244 0.808885
Si Si6 0.807137 0.774548 0.508787
Si Si7 0.107908 0.974449 0.662486
O O1 0.162483 0.886153 0.297263
O O2 0.296854 0.985191 0.166996
O O3 0.177486 0.157571 0.161149
O O4 0.259675 0.110723 0.398932
O O5 0.163918 0.644532 0.468536
O O6 0.079851 0.902786 0.516675
O O7 0.033349 0.692426 0.325649
O O8 0.316848 0.662227 0.463299
O O9 0.220662 0.629805 0.705102
O O10 0.256636 0.390937 0.529630
O O11 0.592415 0.504368 0.774186
O O12 0.577652 0.842297 0.697347
O O13 0.610116 0.737636 0.935786
O O14 0.598157 0.174936 0.774075
#
# Coordination Sequence:
#
# PCOD9340436 Si02
#       7
#     4   4   4   4   4   4   4
#     4  11  20  38  66  92 116 161 220 255 309 378
#     4  11  23  39  65  91 130 165 213 260 327 376
#     4  10  20  40  63  90 120 164 211 263 303 380
#     4  10  24  41  59  92 133 163 205 266 322 380
#     4  10  21  40  64  90 126 163 213 259 314 375
#     4  10  21  38  63  91 122 163 212 260 310 378
#     4  10  21  42  64  90 125 169 206 267 307 387
#
# _framework density 21.167898999999998
#
# number of rings (size 3 to 8) (size 9 to 14) (size 15 to 20)
#    0.000    1.714    2.857    2.571    2.000    0.000 
#    2.571    5.714    0.000    0.000    0.000    0.000 
#    0.000    0.000    0.000    0.000    0.000    0.000 
#
# Total GULP energy -156149.301038 kJ/mol
# GULP energy per Si atom -5576.760751 kJ/mol
# Density = 2.111972 g / cm^3
# Si number density = 21.167899 Si / 1000 Ang^3
#
#
#
# Elastic Constant Matrix: (Units=GPa)
#
#
# Indices 1 2 3 4 5 6 
#
# 1 32.9532 3.3446 -10.4517 0.0000 0.0000 0.0000
# 2 3.3446 61.3102 -5.2909 0.0000 0.0000 0.0000
# 3 -10.4517 -5.2909 49.8677 0.0000 0.0000 0.0000
# 4 0.0000 0.0000 0.0000 27.7898 0.0000 0.0000
# 5 0.0000 0.0000 0.0000 0.0000 12.2507 0.0000
# 6 0.0000 0.0000 0.0000 0.0000 0.0000 21.8149
#
#
#
# Elastic Compliance Matrix: (Units=1/GPa)
#
#
# Indices 1 2 3 4 5 6 
#
# 1 0.032594 -0.001200 0.006704 0.000000 0.000000 0.000000
# 2 -0.001200 0.016505 0.001500 0.000000 0.000000 0.000000
# 3 0.006704 0.001500 0.021617 0.000000 0.000000 0.000000
# 4 0.000000 0.000000 0.000000 0.035984 0.000000 0.000000
# 5 0.000000 0.000000 0.000000 0.000000 0.081628 0.000000
# 6 0.000000 0.000000 0.000000 0.000000 0.000000 0.045840
#
#
# Mechanical properties :
#
#
# Convention : Reuss Voigt Hill
#
# Bulk Modulus (GPa) = 11.80284 13.25947 12.53116
# Shear Modulus (GPa) = 20.12863 22.80635 21.46749
#
# Velocity S-wave (km/s) = 3.08702 3.28594 3.18803
# Velocity P-wave (km/s) = 4.27717 4.54688 4.41408
#
# Compressibility (1/GPa) = 0.08472539
#
# Stress axis : x y z
#
# Youngs Moduli (GPa) = 30.68037 60.58638 46.25928
#
# Poissons Ratio (x) = 0.07268 -0.31013
# Poissons Ratio (y) = 0.03680 -0.06938
# Poissons Ratio (z) = -0.20568 -0.09087
#
# Static dielectric constant tensor:
#      x y z
#    x 1.738590 0.000000 0.000000 
#    y 0.000000 1.834650 0.000000 
#    z 0.000000 0.000000 1.816770 
# 
# From -- ./inp_files/2081.got.cif
#   From: 2010.05.17/outbox.cif.g08.bks.cpg/sg29_2_cif.got.tgz:2081.got - 2010.06.04 01:19:37.
