data_PCOD9340472
_publ_section_title
;
Structure prediction by ZEFSAII (Michael W. Deem and Ramdas Pophale) SiO2 
 PCOD9340472
Probable space group: P C A 21
;
_chemical_formula_sum "Si O2"
_cell_formula_units_Z 16
_cell_length_a 19.875401
_cell_length_b 7.000581
_cell_length_c 5.017505
_cell_angle_alpha 90.000000
_cell_angle_beta 90.000000
_cell_angle_gamma 90.000000
_cell_volume 698.132407
_symmetry_space_group_name_H-M "P C A 21"
_symmetry_group_IT_number 29
_symmetry_cell_setting 'orthorhombic'
loop_
_space_group_symop_operation_xyz
x,y,z
-x,-y,1/2+z
1/2-x,y,1/2+z
1/2+x,-y,z
loop_
_atom_site_type_symbol
_atom_site_label
_atom_site_fract_x
_atom_site_fract_y
_atom_site_fract_z
Si Si1 0.293643 0.898431 0.458690
Si Si2 0.900091 0.827811 0.741608
Si Si3 0.470623 0.251724 0.251909
Si Si4 0.602878 0.426623 0.034286
O O1 0.229175 0.917484 0.653395
O O2 0.332130 0.696955 0.475152
O O3 0.344306 0.049990 0.591974
O O4 0.964409 0.837487 0.544044
O O5 0.878899 0.604971 0.723259
O O6 0.925087 0.860461 0.038982
O O7 0.545714 0.291321 0.159364
O O8 0.434950 0.460844 0.294162
#
# Coordination Sequence:
#
# PCOD9340472 Si02
#       4
#     4   4   4   4
#     4  12  29  43  61  94 132 181 225 251 312 401
#     4  10  22  42  63  95 130 164 207 274 321 389
#     4  10  20  41  71  99 123 160 211 273 350 369
#     4  10  23  42  71  96 129 161 217 274 329 383
#
# _framework density 22.918289999999999
#
# number of rings (size 3 to 8) (size 9 to 14) (size 15 to 20)
#    1.500    0.000    2.500    1.500    3.500    4.000 
#    0.000    0.000    0.000    0.000    0.000    0.000 
#    0.000    0.000    0.000    0.000    0.000    0.000 
#
# Total GULP energy -89261.417790 kJ/mol
# GULP energy per Si atom -5578.838612 kJ/mol
# Density = 2.286613 g / cm^3
# Si number density = 22.918290 Si / 1000 Ang^3
#
#
#
# Elastic Constant Matrix: (Units=GPa)
#
#
# Indices 1 2 3 4 5 6 
#
# 1 51.8000 21.5632 -6.5461 0.0000 0.0000 0.0000
# 2 21.5632 52.0990 -17.7730 0.0000 0.0000 0.0000
# 3 -6.5461 -17.7730 85.1987 0.0000 0.0000 0.0000
# 4 0.0000 0.0000 0.0000 9.2981 0.0000 0.0000
# 5 0.0000 0.0000 0.0000 0.0000 28.6001 0.0000
# 6 0.0000 0.0000 0.0000 0.0000 0.0000 41.9082
#
#
#
# Elastic Compliance Matrix: (Units=1/GPa)
#
#
# Indices 1 2 3 4 5 6 
#
# 1 0.023328 -0.009737 -0.000239 0.000000 0.000000 0.000000
# 2 -0.009737 0.024729 0.004410 0.000000 0.000000 0.000000
# 3 -0.000239 0.004410 0.012639 0.000000 0.000000 0.000000
# 4 0.000000 0.000000 0.000000 0.107549 0.000000 0.000000
# 5 0.000000 0.000000 0.000000 0.000000 0.034965 0.000000
# 6 0.000000 0.000000 0.000000 0.000000 0.000000 0.023862
#
#
# Mechanical properties :
#
#
# Convention : Reuss Voigt Hill
#
# Bulk Modulus (GPa) = 20.17519 20.39842 20.28681
# Shear Modulus (GPa) = 19.62920 28.75154 24.19037
#
# Velocity S-wave (km/s) = 2.92975 3.54577 3.25238
# Velocity P-wave (km/s) = 4.50187 5.06785 4.79322
#
# Compressibility (1/GPa) = 0.04956582
#
# Stress axis : x y z
#
# Youngs Moduli (GPa) = 42.86701 40.43892 79.12031
#
# Poissons Ratio (x) = 0.39374 0.01889
# Poissons Ratio (y) = 0.41738 -0.34896
# Poissons Ratio (z) = 0.01023 -0.17835
#
# Static dielectric constant tensor:
#      x y z
#    x 1.835390 0.000000 0.000000 
#    y 0.000000 1.923200 0.000000 
#    z 0.000000 0.000000 1.837870 
# 
# From -- ./inp_files/316.got.cif
#   From: 2010.05.17/outbox.cif.g08.bks.cpg/sg29_1_cif.got.tgz:316.got - 2010.06.04 01:19:37.
