data_PCOD9340811
_publ_section_title
;
Structure prediction by ZEFSAII (Michael W. Deem and Ramdas Pophale) SiO2 
 PCOD9340811
Probable space group: P C A 21
;
_chemical_formula_sum "Si O2"
_cell_formula_units_Z 28
_cell_length_a 26.417948
_cell_length_b 4.936722
_cell_length_c 8.964618
_cell_angle_alpha 90.000000
_cell_angle_beta 90.000000
_cell_angle_gamma 90.000000
_cell_volume 1169.148134
_symmetry_space_group_name_H-M "P C A 21"
_symmetry_group_IT_number 29
_symmetry_cell_setting 'orthorhombic'
loop_
_space_group_symop_operation_xyz
x,y,z
-x,-y,1/2+z
1/2-x,y,1/2+z
1/2+x,-y,z
loop_
_atom_site_type_symbol
_atom_site_label
_atom_site_fract_x
_atom_site_fract_y
_atom_site_fract_z
Si Si1 0.366328 0.095283 0.018340
Si Si2 0.966068 0.838099 0.185252
Si Si3 0.230892 0.844662 0.624850
Si Si4 0.267623 0.484594 0.372078
Si Si5 0.112304 0.581482 0.328879
Si Si6 0.998200 0.635227 0.856849
Si Si7 0.687824 0.770089 0.144067
O O1 0.411556 0.044495 0.133577
O O2 0.309353 0.064994 0.073729
O O3 0.375188 0.891510 0.875469
O O4 0.373665 0.404436 0.972949
O O5 0.961158 0.589401 0.302914
O O6 0.992068 0.723927 0.030976
O O7 0.995001 0.089949 0.261860
O O8 0.290594 0.920522 0.646525
O O9 0.232729 0.638698 0.489147
O O10 0.207528 0.712629 0.771138
O O11 0.303519 0.303714 0.471655
O O12 0.231743 0.332183 0.257214
O O13 0.052895 0.527243 0.312685
O O14 0.140570 0.407379 0.200154
#
# Coordination Sequence:
#
# PCOD9340811 Si02
#       7
#     4   4   4   4   4   4   4
#     4  11  23  42  70  96 130 181 227 269 341 421
#     4  11  23  45  71 100 134 176 226 287 348 416
#     4  11  22  40  62  92 130 176 221 271 329 393
#     4  10  22  38  60  88 130 166 218 272 324 380
#     4  11  23  42  70  96 130 181 227 269 341 421
#     4  11  23  45  71 100 134 176 226 287 348 416
#     4  11  22  40  62  92 130 176 221 271 329 393
#
# _framework density 23.949058999999998
#
# number of rings (size 3 to 8) (size 9 to 14) (size 15 to 20)
#    0.000    1.143    1.429    6.857    4.000    0.000 
#    2.571    2.857    0.000    0.000    0.000    0.000 
#    0.000    0.000    0.000    0.000    0.000    0.000 
#
# Total GULP energy -156091.816877 kJ/mol
# GULP energy per Si atom -5574.707746 kJ/mol
# Density = 2.389455 g / cm^3
# Si number density = 23.949059 Si / 1000 Ang^3
#
#
#
# Elastic Constant Matrix: (Units=GPa)
#
#
# Indices 1 2 3 4 5 6 
#
# 1 39.1175 8.2852 2.1468 0.0000 0.0000 0.0000
# 2 8.2852 106.2560 22.8367 0.0000 0.0000 0.0000
# 3 2.1468 22.8367 83.6152 0.0000 0.0000 0.0000
# 4 0.0000 0.0000 0.0000 42.1185 0.0000 0.0000
# 5 0.0000 0.0000 0.0000 0.0000 36.8785 0.0000
# 6 0.0000 0.0000 0.0000 0.0000 0.0000 28.8791
#
#
#
# Elastic Compliance Matrix: (Units=1/GPa)
#
#
# Indices 1 2 3 4 5 6 
#
# 1 0.025994 -0.002001 -0.000121 0.000000 0.000000 0.000000
# 2 -0.002001 0.010152 -0.002721 0.000000 0.000000 0.000000
# 3 -0.000121 -0.002721 0.012706 0.000000 0.000000 0.000000
# 4 0.000000 0.000000 0.000000 0.023743 0.000000 0.000000
# 5 0.000000 0.000000 0.000000 0.000000 0.027116 0.000000
# 6 0.000000 0.000000 0.000000 0.000000 0.000000 0.034627
#
#
# Mechanical properties :
#
#
# Convention : Reuss Voigt Hill
#
# Bulk Modulus (GPa) = 25.53227 32.83623 29.18425
# Shear Modulus (GPa) = 31.83093 34.62321 33.22707
#
# Velocity S-wave (km/s) = 3.64965 3.80636 3.72883
# Velocity P-wave (km/s) = 5.33331 5.74965 5.54539
#
# Compressibility (1/GPa) = 0.03916612
#
# Stress axis : x y z
#
# Youngs Moduli (GPa) = 38.46979 98.50159 78.70363
#
# Poissons Ratio (x) = 0.19709 0.00952
# Poissons Ratio (y) = 0.07697 0.21418
# Poissons Ratio (z) = 0.00465 0.26806
#
# Static dielectric constant tensor:
#      x y z
#    x 1.991840 0.000000 0.000000 
#    y 0.000000 2.053430 0.000000 
#    z 0.000000 0.000000 1.922880 
# 
# From -- ./inp_files/2515.got.cif
#   From: 2010.05.17/outbox.cif.g08.bks.cpg/sg29_2_cif.got.tgz:2515.got - 2010.06.04 01:19:37.
