data_PCOD9340124
_publ_section_title
;
Structure prediction by ZEFSAII (Michael W. Deem and Ramdas Pophale) SiO2 
 PCOD9340124
Probable space group: P C A 21
;
_chemical_formula_sum "Si O2"
_cell_formula_units_Z 20
_cell_length_a 18.911380
_cell_length_b 11.103291
_cell_length_c 5.025864
_cell_angle_alpha 90.000000
_cell_angle_beta 90.000000
_cell_angle_gamma 90.000000
_cell_volume 1055.323662
_symmetry_space_group_name_H-M "P C A 21"
_symmetry_group_IT_number 29
_symmetry_cell_setting 'orthorhombic'
loop_
_space_group_symop_operation_xyz
x,y,z
-x,-y,1/2+z
1/2-x,y,1/2+z
1/2+x,-y,z
loop_
_atom_site_type_symbol
_atom_site_label
_atom_site_fract_x
_atom_site_fract_y
_atom_site_fract_z
Si Si1 0.499001 0.334882 0.390040
Si Si2 0.300669 0.985098 0.561436
Si Si3 0.922186 0.422484 0.390749
Si Si4 0.462831 0.061467 0.532210
Si Si5 0.208196 0.704430 0.118871
O O1 0.559919 0.378982 0.594271
O O2 0.438779 0.436388 0.422344
O O3 0.478125 0.200042 0.459720
O O4 0.525575 0.349783 0.088936
O O5 0.251096 0.011847 0.308487
O O6 0.316405 0.841431 0.568590
O O7 0.378066 0.044513 0.561506
O O8 0.846263 0.388890 0.499112
O O9 0.504413 0.020925 0.797300
O O10 0.223312 0.691738 0.429919
#
# Coordination Sequence:
#
# PCOD9340124 Si02
#       5
#     4   4   4   4   4
#     4  10  21  36  57  80 107 142 178 225 277 316
#     4  10  21  36  53  78 114 149 180 225 281 330
#     4  10  20  37  56  79 109 138 178 228 272 318
#     4  12  23  37  60  87 113 147 193 233 273 334
#     4  10  19  32  52  76 103 138 179 217 261 318
#
# _framework density 18.951532
#
# number of rings (size 3 to 8) (size 9 to 14) (size 15 to 20)
#    0.000    1.600    0.000    6.000    0.000    3.200 
#    0.000    2.000    0.000    0.000    0.000    0.000 
#    0.000    0.000    0.000    0.000    0.000    0.000 
#
# Total GULP energy -111630.783276 kJ/mol
# GULP energy per Si atom -5581.539164 kJ/mol
# Density = 1.890840 g / cm^3
# Si number density = 18.951532 Si / 1000 Ang^3
#
#
#
# Elastic Constant Matrix: (Units=GPa)
#
#
# Indices 1 2 3 4 5 6 
#
# 1 63.0341 41.5406 1.5095 0.0000 0.0000 0.0000
# 2 41.5406 76.5679 -6.5500 0.0000 0.0000 0.0000
# 3 1.5095 -6.5500 82.5806 0.0000 0.0000 0.0000
# 4 0.0000 0.0000 0.0000 20.4192 0.0000 0.0000
# 5 0.0000 0.0000 0.0000 0.0000 14.1865 0.0000
# 6 0.0000 0.0000 0.0000 0.0000 0.0000 14.8369
#
#
#
# Elastic Compliance Matrix: (Units=1/GPa)
#
#
# Indices 1 2 3 4 5 6 
#
# 1 0.024885 -0.013633 -0.001536 0.000000 0.000000 0.000000
# 2 -0.013633 0.020618 0.001885 0.000000 0.000000 0.000000
# 3 -0.001536 0.001885 0.012287 0.000000 0.000000 0.000000
# 4 0.000000 0.000000 0.000000 0.048973 0.000000 0.000000
# 5 0.000000 0.000000 0.000000 0.000000 0.070489 0.000000
# 6 0.000000 0.000000 0.000000 0.000000 0.000000 0.067400
#
#
# Mechanical properties :
#
#
# Convention : Reuss Voigt Hill
#
# Bulk Modulus (GPa) = 32.02920 32.79808 32.41364
# Shear Modulus (GPa) = 17.75393 22.26736 20.01065
#
# Velocity S-wave (km/s) = 3.06405 3.43149 3.25296
# Velocity P-wave (km/s) = 5.42726 5.74840 5.59013
#
# Compressibility (1/GPa) = 0.03122151
#
# Stress axis : x y z
#
# Youngs Moduli (GPa) = 40.18441 48.50220 81.38723
#
# Poissons Ratio (x) = 0.66121 0.12502
# Poissons Ratio (y) = 0.54781 -0.15338
# Poissons Ratio (z) = 0.06173 -0.09140
#
# Static dielectric constant tensor:
#      x y z
#    x 1.671660 0.000000 0.000000 
#    y 0.000000 1.630020 0.000000 
#    z 0.000000 0.000000 1.675920 
# 
# From -- ./inp_files/170.got.cif
#   From: 2010.05.17/outbox.cif.g08.bks.cpg/sg29_1_cif.got.tgz:170.got - 2010.06.04 01:19:37.
