data_PCOD9340355
_publ_section_title
;
Structure prediction by ZEFSAII (Michael W. Deem and Ramdas Pophale) SiO2 
 PCOD9340355
Probable space group: P C A 21
;
_chemical_formula_sum "Si O2"
_cell_formula_units_Z 20
_cell_length_a 14.026851
_cell_length_b 11.100646
_cell_length_c 5.240285
_cell_angle_alpha 90.000000
_cell_angle_beta 90.000000
_cell_angle_gamma 90.000000
_cell_volume 815.949620
_symmetry_space_group_name_H-M "P C A 21"
_symmetry_group_IT_number 29
_symmetry_cell_setting 'orthorhombic'
loop_
_space_group_symop_operation_xyz
x,y,z
-x,-y,1/2+z
1/2-x,y,1/2+z
1/2+x,-y,z
loop_
_atom_site_type_symbol
_atom_site_label
_atom_site_fract_x
_atom_site_fract_y
_atom_site_fract_z
Si Si1 0.288914 0.386969 0.368210
Si Si2 0.558500 0.003226 0.513149
Si Si3 0.817048 0.245429 0.987834
Si Si4 0.218057 0.117897 0.762897
Si Si5 0.502006 0.423666 0.510353
O O1 0.234555 0.449536 0.600704
O O2 0.248352 0.253062 0.319296
O O3 0.399335 0.370089 0.430482
O O4 0.630049 0.115519 0.487913
O O5 0.513366 0.969369 0.244188
O O6 0.616709 0.890975 0.629552
O O7 0.751177 0.257031 0.240415
O O8 0.906721 0.337756 0.987093
O O9 0.283884 0.060480 0.543079
O O10 0.510541 0.530134 0.300150
#
# Coordination Sequence:
#
# PCOD9340355 Si02
#       5
#     4   4   4   4   4
#     4  10  22  40  66  95 127 164 216 281 346 408
#     4  12  24  40  67 100 139 182 226 277 337 415
#     4  12  27  48  72 105 148 195 241 295 362 436
#     4  10  20  37  60  89 123 161 203 255 320 397
#     4  12  27  45  69  99 133 180 240 300 359 424
#
# _framework density 24.511319
#
# number of rings (size 3 to 8) (size 9 to 14) (size 15 to 20)
#    0.000    0.800    0.000    7.200    0.000    9.600 
#    0.000    0.000    0.000    0.000    0.000    0.000 
#    0.000    0.000    0.000    0.000    0.000    0.000 
#
# Total GULP energy -111792.049046 kJ/mol
# GULP energy per Si atom -5589.602452 kJ/mol
# Density = 2.445553 g / cm^3
# Si number density = 24.511319 Si / 1000 Ang^3
#
#
#
# Elastic Constant Matrix: (Units=GPa)
#
#
# Indices 1 2 3 4 5 6 
#
# 1 166.9923 35.8926 88.4707 0.0000 0.0000 0.0000
# 2 35.8926 69.3701 23.1414 0.0000 0.0000 0.0000
# 3 88.4707 23.1414 195.8991 0.0000 0.0000 0.0000
# 4 0.0000 0.0000 0.0000 27.4475 0.0000 0.0000
# 5 0.0000 0.0000 0.0000 0.0000 60.7077 0.0000
# 6 0.0000 0.0000 0.0000 0.0000 0.0000 55.9171
#
#
#
# Elastic Compliance Matrix: (Units=1/GPa)
#
#
# Indices 1 2 3 4 5 6 
#
# 1 0.008523 -0.003254 -0.003465 0.000000 0.000000 0.000000
# 2 -0.003254 0.016249 -0.000450 0.000000 0.000000 0.000000
# 3 -0.003465 -0.000450 0.006723 0.000000 0.000000 0.000000
# 4 0.000000 0.000000 0.000000 0.036433 0.000000 0.000000
# 5 0.000000 0.000000 0.000000 0.000000 0.016472 0.000000
# 6 0.000000 0.000000 0.000000 0.000000 0.000000 0.017884
#
#
# Mechanical properties :
#
#
# Convention : Reuss Voigt Hill
#
# Bulk Modulus (GPa) = 58.28403 80.80789 69.54596
# Shear Modulus (GPa) = 40.86925 47.79825 44.33375
#
# Velocity S-wave (km/s) = 4.08776 4.42073 4.25750
# Velocity P-wave (km/s) = 6.79042 7.68741 7.25279
#
# Compressibility (1/GPa) = 0.01715736
#
# Stress axis : x y z
#
# Youngs Moduli (GPa) = 117.32422 61.54129 148.75218
#
# Poissons Ratio (x) = 0.20027 0.51541
# Poissons Ratio (y) = 0.38180 0.06692
# Poissons Ratio (z) = 0.40651 0.02769
#
# Static dielectric constant tensor:
#      x y z
#    x 2.007100 0.000000 0.000000 
#    y 0.000000 1.979420 0.000000 
#    z 0.000000 0.000000 2.120570 
# 
# From -- ./inp_files/71.got.cif
#   From: 2010.05.17/outbox.cif.g08.bks.cpg/sg29_1_cif.got.tgz:71.got - 2010.06.04 01:19:37.
