data_PCOD9340939
_publ_section_title
;
Structure prediction by ZEFSAII (Michael W. Deem and Ramdas Pophale) SiO2 
 PCOD9340939
Probable space group: P C A 21
;
_chemical_formula_sum "Si O2"
_cell_formula_units_Z 20
_cell_length_a 12.918077
_cell_length_b 4.857837
_cell_length_c 13.315158
_cell_angle_alpha 90.000000
_cell_angle_beta 90.000000
_cell_angle_gamma 90.000000
_cell_volume 835.578259
_symmetry_space_group_name_H-M "P C A 21"
_symmetry_group_IT_number 29
_symmetry_cell_setting 'orthorhombic'
loop_
_space_group_symop_operation_xyz
x,y,z
-x,-y,1/2+z
1/2-x,y,1/2+z
1/2+x,-y,z
loop_
_atom_site_type_symbol
_atom_site_label
_atom_site_fract_x
_atom_site_fract_y
_atom_site_fract_z
Si Si1 0.214936 0.313973 0.397900
Si Si2 0.895347 0.828173 0.261945
Si Si3 0.487010 0.999170 0.949207
Si Si4 0.616690 0.329467 0.631992
Si Si5 0.296208 0.816449 0.507841
O O1 0.279153 0.231622 0.299989
O O2 0.242176 0.628965 0.421626
O O3 0.098597 0.206361 0.403890
O O4 0.265539 0.133085 0.488275
O O5 0.914169 0.631798 0.167041
O O6 0.968286 0.809733 0.359125
O O7 0.906242 0.138535 0.226306
O O8 0.581629 0.177984 0.994466
O O9 0.441116 0.803395 0.036456
O O10 0.738690 0.294287 0.606068
#
# Coordination Sequence:
#
# PCOD9340939 Si02
#       5
#     4   4   4   4   4
#     4  10  22  42  65  93 135 180 229 290 349 413
#     4  11  24  43  68 104 143 183 236 292 352 422
#     4  10  24  46  74 104 142 194 238 292 362 430
#     4  11  24  43  68 104 143 183 236 292 352 422
#     4  10  22  42  65  93 135 180 229 290 349 413
#
# _framework density 23.93552
#
# number of rings (size 3 to 8) (size 9 to 14) (size 15 to 20)
#    0.000    1.600    0.000    4.800    0.000   16.000 
#    0.000    8.000    0.000    0.000    0.000    0.000 
#    0.000    0.000    0.000    0.000    0.000    0.000 
#
# Total GULP energy -111773.879079 kJ/mol
# GULP energy per Si atom -5588.693954 kJ/mol
# Density = 2.388104 g / cm^3
# Si number density = 23.935520 Si / 1000 Ang^3
#
#
#
# Elastic Constant Matrix: (Units=GPa)
#
#
# Indices 1 2 3 4 5 6 
#
# 1 170.3757 29.1120 50.2788 0.0000 0.0000 0.0000
# 2 29.1120 77.6684 16.4857 0.0000 0.0000 0.0000
# 3 50.2788 16.4857 91.2707 0.0000 0.0000 0.0000
# 4 0.0000 0.0000 0.0000 49.2385 0.0000 0.0000
# 5 0.0000 0.0000 0.0000 0.0000 50.0300 0.0000
# 6 0.0000 0.0000 0.0000 0.0000 0.0000 21.5166
#
#
#
# Elastic Compliance Matrix: (Units=1/GPa)
#
#
# Indices 1 2 3 4 5 6 
#
# 1 0.007283 -0.001953 -0.003659 0.000000 0.000000 0.000000
# 2 -0.001953 0.013912 -0.001437 0.000000 0.000000 0.000000
# 3 -0.003659 -0.001437 0.013232 0.000000 0.000000 0.000000
# 4 0.000000 0.000000 0.000000 0.020309 0.000000 0.000000
# 5 0.000000 0.000000 0.000000 0.000000 0.019988 0.000000
# 6 0.000000 0.000000 0.000000 0.000000 0.000000 0.046476
#
#
# Mechanical properties :
#
#
# Convention : Reuss Voigt Hill
#
# Bulk Modulus (GPa) = 49.19228 59.00754 54.09991
# Shear Modulus (GPa) = 35.19271 40.38624 37.78948
#
# Velocity S-wave (km/s) = 3.83863 4.11212 3.97773
# Velocity P-wave (km/s) = 6.34376 6.87403 6.61421
#
# Compressibility (1/GPa) = 0.02032839
#
# Stress axis : x y z
#
# Youngs Moduli (GPa) = 137.30654 71.87860 75.57583
#
# Poissons Ratio (x) = 0.14039 0.27655
# Poissons Ratio (y) = 0.26818 0.10860
# Poissons Ratio (z) = 0.50244 0.10329
#
# Static dielectric constant tensor:
#      x y z
#    x 1.969130 0.000000 0.000000 
#    y 0.000000 1.868840 0.000000 
#    z 0.000000 0.000000 1.920140 
# 
# From -- ./inp_files/3349.got.cif
#   From: 2010.05.17/outbox.cif.g08.bks.cpg/sg29_2_cif.got.tgz:3349.got - 2010.06.04 01:19:37.
