data_PCOD9340460
_publ_section_title
;
Structure prediction by ZEFSAII (Michael W. Deem and Ramdas Pophale) SiO2 
 PCOD9340460
Probable space group: P C A 21
;
_chemical_formula_sum "Si O2"
_cell_formula_units_Z 32
_cell_length_a 13.576951
_cell_length_b 10.732392
_cell_length_c 8.842293
_cell_angle_alpha 90.000000
_cell_angle_beta 90.000000
_cell_angle_gamma 90.000000
_cell_volume 1288.438457
_symmetry_space_group_name_H-M "P C A 21"
_symmetry_group_IT_number 29
_symmetry_cell_setting 'orthorhombic'
loop_
_space_group_symop_operation_xyz
x,y,z
-x,-y,1/2+z
1/2-x,y,1/2+z
1/2+x,-y,z
loop_
_atom_site_type_symbol
_atom_site_label
_atom_site_fract_x
_atom_site_fract_y
_atom_site_fract_z
Si Si1 0.402865 0.187578 0.599680
Si Si2 0.702528 0.312831 0.165239
Si Si3 0.212156 0.035453 0.652067
Si Si4 0.234954 0.855642 0.408759
Si Si5 0.799797 0.584208 0.769284
Si Si6 0.563985 0.332366 0.713851
Si Si7 0.035748 0.435121 0.509588
Si Si8 0.602537 0.725707 0.762188
O O1 0.327682 0.073074 0.623759
O O2 0.342919 0.302525 0.673775
O O3 0.504450 0.203700 0.690907
O O4 0.421857 0.215666 0.423939
O O5 0.696442 0.232041 0.013566
O O6 0.666342 0.233120 0.308136
O O7 0.677210 0.456852 0.180464
O O8 0.820920 0.315019 0.194125
O O9 0.152041 0.161057 0.670362
O O10 0.177279 0.950558 0.515023
O O11 0.208302 0.948403 0.797767
O O12 0.685601 0.618306 0.789902
O O13 0.856197 0.577780 0.930030
O O14 0.530349 0.428277 0.581097
O O15 0.534824 0.397785 0.871860
O O16 0.025772 0.339332 0.649414
#
# Coordination Sequence:
#
# PCOD9340460 Si02
#       8
#     4   4   4   4   4   4   4   4
#     4  10  22  37  65  94 124 162 198 269 316 379
#     4  11  23  40  61  90 129 163 206 258 312 383
#     4  10  20  41  64  93 115 151 229 268 302 347
#     4  10  23  39  65  85 116 166 214 269 295 358
#     4  10  21  36  64  95 122 162 211 254 322 370
#     4  11  24  39  57  93 142 163 205 242 335 398
#     4  11  23  38  59  97 133 172 196 258 323 401
#     4  11  20  36  67  93 123 155 209 272 313 360
#
# _framework density 24.836265999999998
#
# number of rings (size 3 to 8) (size 9 to 14) (size 15 to 20)
#    0.000    1.500    2.500    3.000    5.250    1.000 
#    0.000    3.750    0.000    0.000    0.000    0.000 
#    0.000    0.000    0.000    0.000    0.000    0.000 
#
# Total GULP energy -179028.777810 kJ/mol
# GULP energy per Si atom -5594.649307 kJ/mol
# Density = 2.477974 g / cm^3
# Si number density = 24.836266 Si / 1000 Ang^3
#
#
#
# Elastic Constant Matrix: (Units=GPa)
#
#
# Indices 1 2 3 4 5 6 
#
# 1 64.5023 14.1215 14.7727 0.0000 0.0000 0.0000
# 2 14.1215 118.1135 30.8547 0.0000 0.0000 0.0000
# 3 14.7727 30.8547 123.8195 0.0000 0.0000 0.0000
# 4 0.0000 0.0000 0.0000 51.0496 0.0000 0.0000
# 5 0.0000 0.0000 0.0000 0.0000 26.8077 0.0000
# 6 0.0000 0.0000 0.0000 0.0000 0.0000 29.8306
#
#
#
# Elastic Compliance Matrix: (Units=1/GPa)
#
#
# Indices 1 2 3 4 5 6 
#
# 1 0.016194 -0.001531 -0.001551 0.000000 0.000000 0.000000
# 2 -0.001531 0.009201 -0.002110 0.000000 0.000000 0.000000
# 3 -0.001551 -0.002110 0.008787 0.000000 0.000000 0.000000
# 4 0.000000 0.000000 0.000000 0.019589 0.000000 0.000000
# 5 0.000000 0.000000 0.000000 0.000000 0.037303 0.000000
# 6 0.000000 0.000000 0.000000 0.000000 0.000000 0.033523
#
#
# Mechanical properties :
#
#
# Convention : Reuss Voigt Hill
#
# Bulk Modulus (GPa) = 42.02010 47.32590 44.67300
# Shear Modulus (GPa) = 34.98671 37.98335 36.48503
#
# Velocity S-wave (km/s) = 3.75733 3.91493 3.83694
# Velocity P-wave (km/s) = 5.98155 6.28746 6.13641
#
# Compressibility (1/GPa) = 0.02379814
#
# Stress axis : x y z
#
# Youngs Moduli (GPa) = 61.75273 108.68743 113.80354
#
# Poissons Ratio (x) = 0.16641 0.17645
# Poissons Ratio (y) = 0.09455 0.24013
# Poissons Ratio (z) = 0.09575 0.22934
#
# Static dielectric constant tensor:
#      x y z
#    x 2.058850 0.000000 0.000000 
#    y 0.000000 1.917760 0.000000 
#    z 0.000000 0.000000 1.985510 
# 
# From -- ./inp_files/1887.got.cif
#   From: 2010.05.17/outbox.cif.g08.bks.cpg/sg29_1_cif.got.tgz:1887.got - 2010.06.04 01:19:37.
