data_PCOD9340289
_publ_section_title
;
Structure prediction by ZEFSAII (Michael W. Deem and Ramdas Pophale) SiO2 
 PCOD9340289
Probable space group: P C A 21
;
_chemical_formula_sum "Si O2"
_cell_formula_units_Z 28
_cell_length_a 13.592652
_cell_length_b 12.470813
_cell_length_c 8.405547
_cell_angle_alpha 90.000000
_cell_angle_beta 90.000000
_cell_angle_gamma 90.000000
_cell_volume 1424.836218
_symmetry_space_group_name_H-M "P C A 21"
_symmetry_group_IT_number 29
_symmetry_cell_setting 'orthorhombic'
loop_
_space_group_symop_operation_xyz
x,y,z
-x,-y,1/2+z
1/2-x,y,1/2+z
1/2+x,-y,z
loop_
_atom_site_type_symbol
_atom_site_label
_atom_site_fract_x
_atom_site_fract_y
_atom_site_fract_z
Si Si1 0.915070 0.045180 0.655930
Si Si2 0.597304 0.454072 0.830486
Si Si3 0.045891 0.654103 0.317943
Si Si4 0.573606 0.240329 0.969316
Si Si5 0.983253 0.126518 0.986656
Si Si6 0.708461 0.166264 0.689977
Si Si7 0.278630 0.601503 0.036051
O O1 0.966604 0.125014 0.526988
O O2 0.967888 0.062493 0.823177
O O3 0.804161 0.090502 0.683400
O O4 0.929569 0.926668 0.587753
O O5 0.524119 0.552368 0.833379
O O6 0.543578 0.337502 0.849250
O O7 0.658695 0.460473 0.667461
O O8 0.678529 0.450073 0.971759
O O9 0.007631 0.750505 0.430667
O O10 0.151513 0.619689 0.384991
O O11 0.058727 0.699499 0.140246
O O12 0.667544 0.195364 0.865080
O O13 0.883557 0.120264 0.091383
O O14 0.735600 0.281204 0.613768
#
# Coordination Sequence:
#
# PCOD9340289 Si02
#       7
#     4   4   4   4   4   4   4
#     4  11  20  37  61  90 128 159 215 271 312 380
#     4  11  20  36  62  89 128 164 211 268 311 375
#     4  10  22  39  59  92 133 162 210 267 322 379
#     4  10  20  34  61  91 118 157 213 259 314 365
#     4  10  23  37  62  92 122 165 207 258 328 383
#     4  10  20  37  63  93 120 159 216 271 301 372
#     4  10  21  34  60  93 117 168 218 254 310 374
#
# _framework density 19.651382999999999
#
# number of rings (size 3 to 8) (size 9 to 14) (size 15 to 20)
#    0.000    1.714    1.429    3.429    8.000    0.000 
#    0.000    1.429   15.714    0.000    0.000    0.000 
#    0.000    0.000    0.000    0.000    0.000    0.000 
#
# Total GULP energy -155877.270972 kJ/mol
# GULP energy per Si atom -5567.045392 kJ/mol
# Density = 1.960666 g / cm^3
# Si number density = 19.651383 Si / 1000 Ang^3
#
#
#
# Elastic Constant Matrix: (Units=GPa)
#
#
# Indices 1 2 3 4 5 6 
#
# 1 69.5663 50.8779 25.0017 0.0000 0.0000 0.0000
# 2 50.8779 90.8746 21.6948 0.0000 0.0000 0.0000
# 3 25.0017 21.6948 87.6700 0.0000 0.0000 0.0000
# 4 0.0000 0.0000 0.0000 34.3032 0.0000 0.0000
# 5 0.0000 0.0000 0.0000 0.0000 30.1122 0.0000
# 6 0.0000 0.0000 0.0000 0.0000 0.0000 39.5619
#
#
#
# Elastic Compliance Matrix: (Units=1/GPa)
#
#
# Indices 1 2 3 4 5 6 
#
# 1 0.025590 -0.013375 -0.003988 0.000000 0.000000 0.000000
# 2 -0.013375 0.018686 -0.000810 0.000000 0.000000 0.000000
# 3 -0.003988 -0.000810 0.012744 0.000000 0.000000 0.000000
# 4 0.000000 0.000000 0.000000 0.029152 0.000000 0.000000
# 5 0.000000 0.000000 0.000000 0.000000 0.033209 0.000000
# 6 0.000000 0.000000 0.000000 0.000000 0.000000 0.025277
#
#
# Mechanical properties :
#
#
# Convention : Reuss Voigt Hill
#
# Bulk Modulus (GPa) = 48.36884 49.25107 48.80996
# Shear Modulus (GPa) = 26.61075 30.83124 28.72100
#
# Velocity S-wave (km/s) = 3.68386 3.96524 3.82714
# Velocity P-wave (km/s) = 6.53921 6.78830 6.66492
#
# Compressibility (1/GPa) = 0.02067447
#
# Stress axis : x y z
#
# Youngs Moduli (GPa) = 39.07798 53.51689 78.46795
#
# Poissons Ratio (x) = 0.71578 0.31293
# Poissons Ratio (y) = 0.52267 0.06354
# Poissons Ratio (z) = 0.15584 0.04333
#
# Static dielectric constant tensor:
#      x y z
#    x 1.750250 0.000000 0.000000 
#    y 0.000000 1.693780 0.000000 
#    z 0.000000 0.000000 1.771510 
# 
# From -- ./inp_files/1783.got.cif
#   From: 2010.05.17/outbox.cif.g08.bks.cpg/sg29_1_cif.got.tgz:1783.got - 2010.06.04 01:19:37.
