data_PCOD9340988
_publ_section_title
;
Structure prediction by ZEFSAII (Michael W. Deem and Ramdas Pophale) SiO2 
 PCOD9340988
Probable space group: P C A 21
;
_chemical_formula_sum "Si O2"
_cell_formula_units_Z 24
_cell_length_a 13.844769
_cell_length_b 8.338918
_cell_length_c 9.164755
_cell_angle_alpha 90.000000
_cell_angle_beta 90.000000
_cell_angle_gamma 90.000000
_cell_volume 1058.074570
_symmetry_space_group_name_H-M "P C A 21"
_symmetry_group_IT_number 29
_symmetry_cell_setting 'orthorhombic'
loop_
_space_group_symop_operation_xyz
x,y,z
-x,-y,1/2+z
1/2-x,y,1/2+z
1/2+x,-y,z
loop_
_atom_site_type_symbol
_atom_site_label
_atom_site_fract_x
_atom_site_fract_y
_atom_site_fract_z
Si Si1 0.331180 0.872791 0.747780
Si Si2 0.657256 0.650527 0.756002
Si Si3 0.366357 0.716946 0.291869
Si Si4 0.024715 0.755724 0.070889
Si Si5 0.588439 0.061588 0.525173
Si Si6 0.777669 0.839637 0.541416
O O1 0.229383 0.825649 0.821603
O O2 0.367440 0.737920 0.635049
O O3 0.417620 0.870859 0.864119
O O4 0.324355 0.035893 0.655888
O O5 0.665585 0.466146 0.797135
O O6 0.557235 0.668206 0.664113
O O7 0.741003 0.694565 0.641396
O O8 0.669014 0.771057 0.896722
O O9 0.457615 0.724997 0.400444
O O10 0.396635 0.794654 0.137390
O O11 0.993541 0.942035 0.075036
O O12 0.680453 0.941119 0.504768
#
# Coordination Sequence:
#
# PCOD9340988 Si02
#       6
#     4   4   4   4   4   4
#     4  11  23  42  74 103 137 193 241 300 361 448
#     4  11  26  46  70 106 149 191 241 308 383 440
#     4  11  25  46  70 102 150 188 243 304 376 442
#     4  11  26  45  67 106 140 187 248 301 365 438
#     4  10  22  43  70 103 133 186 243 292 353 439
#     4  10  22  44  71 100 141 191 236 295 368 447
#
# _framework density 22.682713
#
# number of rings (size 3 to 8) (size 9 to 14) (size 15 to 20)
#    0.000    1.333    1.667    3.000   11.667    1.333 
#    6.000    0.000    0.000    0.000    0.000    0.000 
#    0.000    0.000    0.000    0.000    0.000    0.000 
#
# Total GULP energy -133722.648619 kJ/mol
# GULP energy per Si atom -5571.777026 kJ/mol
# Density = 2.263109 g / cm^3
# Si number density = 22.682713 Si / 1000 Ang^3
#
#
#
# Elastic Constant Matrix: (Units=GPa)
#
#
# Indices 1 2 3 4 5 6 
#
# 1 80.4194 30.0189 39.5348 0.0000 0.0000 0.0000
# 2 30.0189 104.2359 36.8278 0.0000 0.0000 0.0000
# 3 39.5348 36.8278 132.6019 0.0000 0.0000 0.0000
# 4 0.0000 0.0000 0.0000 20.5408 0.0000 0.0000
# 5 0.0000 0.0000 0.0000 0.0000 51.9504 0.0000
# 6 0.0000 0.0000 0.0000 0.0000 0.0000 19.1785
#
#
#
# Elastic Compliance Matrix: (Units=1/GPa)
#
#
# Indices 1 2 3 4 5 6 
#
# 1 0.015438 -0.003127 -0.003734 0.000000 0.000000 0.000000
# 2 -0.003127 0.011271 -0.002198 0.000000 0.000000 0.000000
# 3 -0.003734 -0.002198 0.009265 0.000000 0.000000 0.000000
# 4 0.000000 0.000000 0.000000 0.048684 0.000000 0.000000
# 5 0.000000 0.000000 0.000000 0.000000 0.019249 0.000000
# 6 0.000000 0.000000 0.000000 0.000000 0.000000 0.052142
#
#
# Mechanical properties :
#
#
# Convention : Reuss Voigt Hill
#
# Bulk Modulus (GPa) = 56.00453 58.89112 57.44783
# Shear Modulus (GPa) = 27.75961 32.39232 30.07597
#
# Velocity S-wave (km/s) = 3.50211 3.78307 3.64530
# Velocity P-wave (km/s) = 6.41070 6.71577 6.56501
#
# Compressibility (1/GPa) = 0.01785570
#
# Stress axis : x y z
#
# Youngs Moduli (GPa) = 64.77645 88.72617 107.93040
#
# Poissons Ratio (x) = 0.27740 0.40305
# Poissons Ratio (y) = 0.20252 0.23724
# Poissons Ratio (z) = 0.24190 0.19502
#
# Static dielectric constant tensor:
#      x y z
#    x 1.915120 0.000000 0.000000 
#    y 0.000000 1.802720 0.000000 
#    z 0.000000 0.000000 1.979620 
# 
# From -- ./inp_files/1767.got.cif
#   From: 2010.05.17/outbox.cif.g08.bks.cpg/sg29_1_cif.got.tgz:1767.got - 2010.06.04 01:19:37.
