data_PCOD9340048
_publ_section_title
;
Structure prediction by ZEFSAII (Michael W. Deem and Ramdas Pophale) SiO2 
 PCOD9340048
Probable space group: P C A 21
;
_chemical_formula_sum "Si O2"
_cell_formula_units_Z 28
_cell_length_a 19.681479
_cell_length_b 14.404624
_cell_length_c 4.930568
_cell_angle_alpha 90.000000
_cell_angle_beta 90.000000
_cell_angle_gamma 90.000000
_cell_volume 1397.837253
_symmetry_space_group_name_H-M "P C A 21"
_symmetry_group_IT_number 29
_symmetry_cell_setting 'orthorhombic'
loop_
_space_group_symop_operation_xyz
x,y,z
-x,-y,1/2+z
1/2-x,y,1/2+z
1/2+x,-y,z
loop_
_atom_site_type_symbol
_atom_site_label
_atom_site_fract_x
_atom_site_fract_y
_atom_site_fract_z
Si Si1 0.800032 0.729915 0.503790
Si Si2 0.792684 0.473113 0.105348
Si Si3 0.795214 0.938885 0.537091
Si Si4 0.800311 0.136808 0.387430
Si Si5 0.617769 0.302957 0.661727
Si Si6 0.594378 0.576864 0.932129
Si Si7 0.547472 0.385589 0.156902
O O1 0.759075 0.716045 0.225097
O O2 0.825174 0.836876 0.497441
O O3 0.862340 0.661170 0.553320
O O4 0.728155 0.490356 0.298253
O O5 0.815784 0.368674 0.171645
O O6 0.854704 0.533369 0.210377
O O7 0.773540 0.942241 0.851819
O O8 0.829788 0.032180 0.427001
O O9 0.738433 0.149815 0.172903
O O10 0.858207 0.205320 0.280089
O O11 0.573320 0.492523 0.132539
O O12 0.591672 0.320987 0.357951
O O13 0.559877 0.345192 0.858063
O O14 0.527533 0.610888 0.776351
#
# Coordination Sequence:
#
# PCOD9340048 Si02
#       7
#     4   4   4   4   4   4   4
#     4  10  21  36  58  86 111 137 175 227 280 326
#     4  11  21  32  50  76 102 127 164 216 266 313
#     4   8  16  31  52  82 111 136 170 211 270 340
#     4  10  18  32  57  83 111 142 170 217 281 333
#     4  11  22  37  53  77 109 140 180 222 263 320
#     4  11  23  40  56  74 107 146 186 223 270 317
#     4  11  25  38  54  74 103 150 193 222 254 321
#
# _framework density 20.030944000000002
#
# number of rings (size 3 to 8) (size 9 to 14) (size 15 to 20)
#    0.000    1.714    0.000    6.000    0.000    5.714 
#    0.000    0.000    0.000    1.714    0.000    0.000 
#    0.000    0.000    0.000    0.000    0.000    0.000 
#
# Total GULP energy -156236.923233 kJ/mol
# GULP energy per Si atom -5579.890115 kJ/mol
# Density = 1.998535 g / cm^3
# Si number density = 20.030944 Si / 1000 Ang^3
#
#
#
# Elastic Constant Matrix: (Units=GPa)
#
#
# Indices 1 2 3 4 5 6 
#
# 1 70.3507 23.7425 -6.5339 0.0000 0.0000 0.0000
# 2 23.7425 112.0938 -12.0676 0.0000 0.0000 0.0000
# 3 -6.5339 -12.0676 66.5986 0.0000 0.0000 0.0000
# 4 0.0000 0.0000 0.0000 18.2169 0.0000 0.0000
# 5 0.0000 0.0000 0.0000 0.0000 15.7751 0.0000
# 6 0.0000 0.0000 0.0000 0.0000 0.0000 12.1845
#
#
#
# Elastic Compliance Matrix: (Units=1/GPa)
#
#
# Indices 1 2 3 4 5 6 
#
# 1 0.015366 -0.003154 0.000936 0.000000 0.000000 0.000000
# 2 -0.003154 0.009746 0.001457 0.000000 0.000000 0.000000
# 3 0.000936 0.001457 0.015371 0.000000 0.000000 0.000000
# 4 0.000000 0.000000 0.000000 0.054894 0.000000 0.000000
# 5 0.000000 0.000000 0.000000 0.000000 0.063391 0.000000
# 6 0.000000 0.000000 0.000000 0.000000 0.000000 0.082071
#
#
# Mechanical properties :
#
#
# Convention : Reuss Voigt Hill
#
# Bulk Modulus (GPa) = 25.66716 28.81390 27.24053
# Shear Modulus (GPa) = 19.58111 25.49547 22.53829
#
# Velocity S-wave (km/s) = 3.12996 3.57151 3.35800
# Velocity P-wave (km/s) = 5.08958 5.60567 5.35384
#
# Compressibility (1/GPa) = 0.03896029
#
# Stress axis : x y z
#
# Youngs Moduli (GPa) = 65.07947 102.60705 65.05721
#
# Poissons Ratio (x) = 0.32361 -0.06090
# Poissons Ratio (y) = 0.20525 -0.09476
# Poissons Ratio (z) = -0.06092 -0.14945
#
# Static dielectric constant tensor:
#      x y z
#    x 1.675290 0.000000 0.000000 
#    y 0.000000 1.794720 0.000000 
#    z 0.000000 0.000000 1.725260 
# 
# From -- ./inp_files/415.got.cif
#   From: 2010.05.17/outbox.cif.g08.bks.cpg/sg29_1_cif.got.tgz:415.got - 2010.06.04 01:19:37.
