data_PCOD9340590
_publ_section_title
;
Structure prediction by ZEFSAII (Michael W. Deem and Ramdas Pophale) SiO2 
 PCOD9340590
Probable space group: P C A 21
;
_chemical_formula_sum "Si O2"
_cell_formula_units_Z 20
_cell_length_a 18.692282
_cell_length_b 7.614041
_cell_length_c 5.438282
_cell_angle_alpha 90.000000
_cell_angle_beta 90.000000
_cell_angle_gamma 90.000000
_cell_volume 773.996968
_symmetry_space_group_name_H-M "P C A 21"
_symmetry_group_IT_number 29
_symmetry_cell_setting 'orthorhombic'
loop_
_space_group_symop_operation_xyz
x,y,z
-x,-y,1/2+z
1/2-x,y,1/2+z
1/2+x,-y,z
loop_
_atom_site_type_symbol
_atom_site_label
_atom_site_fract_x
_atom_site_fract_y
_atom_site_fract_z
Si Si1 0.577114 0.342659 0.491840
Si Si2 0.458607 0.966132 0.296796
Si Si3 0.081680 0.328195 0.785120
Si Si4 0.273849 0.814626 0.917155
Si Si5 0.716699 0.580455 0.011797
O O1 0.564267 0.232267 0.745121
O O2 0.502502 0.345089 0.347977
O O3 0.598227 0.538614 0.565551
O O4 0.643092 0.235928 0.378071
O O5 0.484323 0.999043 0.574674
O O6 0.404162 0.123697 0.240041
O O7 0.132120 0.389966 0.005594
O O8 0.259129 0.904531 0.178846
O O9 0.234370 0.626943 0.974459
O O10 0.748592 0.653558 0.757550
#
# Coordination Sequence:
#
# PCOD9340590 Si02
#       5
#     4   4   4   4   4
#     4  11  23  39  70  97 126 173 220 261 328 380
#     4  10  24  44  60  98 136 158 214 282 314 378
#     4  11  23  39  70  97 126 173 220 261 328 380
#     4  10  21  39  60  90 133 163 206 269 311 375
#     4  10  21  39  60  90 133 163 206 269 311 375
#
# _framework density 25.839897000000001
#
# number of rings (size 3 to 8) (size 9 to 14) (size 15 to 20)
#    0.000    1.600    4.000    1.200    5.600    6.400 
#    0.000    2.000    0.000    0.000    0.000    0.000 
#    0.000    0.000    0.000    0.000    0.000    0.000 
#
# Total GULP energy -111778.843103 kJ/mol
# GULP energy per Si atom -5588.942155 kJ/mol
# Density = 2.578108 g / cm^3
# Si number density = 25.839897 Si / 1000 Ang^3
#
#
#
# Elastic Constant Matrix: (Units=GPa)
#
#
# Indices 1 2 3 4 5 6 
#
# 1 143.3046 -1.2163 50.1613 0.0000 0.0000 0.0000
# 2 -1.2163 78.6186 12.3108 0.0000 0.0000 0.0000
# 3 50.1613 12.3108 162.7422 0.0000 0.0000 0.0000
# 4 0.0000 0.0000 0.0000 15.1307 0.0000 0.0000
# 5 0.0000 0.0000 0.0000 0.0000 28.5816 0.0000
# 6 0.0000 0.0000 0.0000 0.0000 0.0000 19.9779
#
#
#
# Elastic Compliance Matrix: (Units=1/GPa)
#
#
# Indices 1 2 3 4 5 6 
#
# 1 0.007842 0.000506 -0.002455 0.000000 0.000000 0.000000
# 2 0.000506 0.012905 -0.001132 0.000000 0.000000 0.000000
# 3 -0.002455 -0.001132 0.006987 0.000000 0.000000 0.000000
# 4 0.000000 0.000000 0.000000 0.066091 0.000000 0.000000
# 5 0.000000 0.000000 0.000000 0.000000 0.034988 0.000000
# 6 0.000000 0.000000 0.000000 0.000000 0.000000 0.050055
#
#
# Mechanical properties :
#
#
# Convention : Reuss Voigt Hill
#
# Bulk Modulus (GPa) = 46.35964 56.35301 51.35632
# Shear Modulus (GPa) = 26.01173 34.29867 30.15520
#
# Velocity S-wave (km/s) = 3.17622 3.64724 3.41985
# Velocity P-wave (km/s) = 5.60635 6.29224 5.95917
#
# Compressibility (1/GPa) = 0.02157049
#
# Stress axis : x y z
#
# Youngs Moduli (GPa) = 127.52042 77.49096 143.12038
#
# Poissons Ratio (x) = -0.03920 0.35141
# Poissons Ratio (y) = -0.06450 0.16203
# Poissons Ratio (z) = 0.31311 0.08773
#
# Static dielectric constant tensor:
#      x y z
#    x 2.060840 0.000000 0.000000 
#    y 0.000000 2.042500 0.000000 
#    z 0.000000 0.000000 2.153770 
# 
# From -- ./inp_files/319.got.cif
#   From: 2010.05.17/outbox.cif.g08.bks.cpg/sg29_1_cif.got.tgz:319.got - 2010.06.04 01:19:37.
