data_PCOD9340242
_publ_section_title
;
Structure prediction by ZEFSAII (Michael W. Deem and Ramdas Pophale) SiO2 
 PCOD9340242
Probable space group: P C A 21
;
_chemical_formula_sum "Si O2"
_cell_formula_units_Z 32
_cell_length_a 19.592912
_cell_length_b 8.683153
_cell_length_c 9.550683
_cell_angle_alpha 90.000000
_cell_angle_beta 90.000000
_cell_angle_gamma 90.000000
_cell_volume 1624.841010
_symmetry_space_group_name_H-M "P C A 21"
_symmetry_group_IT_number 29
_symmetry_cell_setting 'orthorhombic'
loop_
_space_group_symop_operation_xyz
x,y,z
-x,-y,1/2+z
1/2-x,y,1/2+z
1/2+x,-y,z
loop_
_atom_site_type_symbol
_atom_site_label
_atom_site_fract_x
_atom_site_fract_y
_atom_site_fract_z
Si Si1 0.848098 0.134610 0.233790
Si Si2 0.483952 0.638620 0.670417
Si Si3 0.150501 0.714354 0.023103
Si Si4 0.070403 0.132175 0.304079
Si Si5 0.570243 0.526458 0.427330
Si Si6 0.699477 0.064925 0.268895
Si Si7 0.700488 0.342068 0.491078
Si Si8 0.022066 0.014540 0.591434
O O1 0.872769 0.202919 0.381019
O O2 0.779894 0.032357 0.255090
O O3 0.906616 0.044985 0.153310
O O4 0.823206 0.279639 0.141519
O O5 0.410656 0.622716 0.593692
O O6 0.538018 0.540755 0.581524
O O7 0.472620 0.588772 0.829306
O O8 0.504240 0.816565 0.651180
O O9 0.173471 0.849244 0.129360
O O10 0.219513 0.618164 0.995281
O O11 0.066124 0.307556 0.353367
O O12 0.031167 0.033473 0.424828
O O13 0.148148 0.072821 0.300192
O O14 0.034918 0.098361 0.155459
O O15 0.647703 0.468407 0.438623
O O16 0.694326 0.193921 0.389680
#
# Coordination Sequence:
#
# PCOD9340242 Si02
#       8
#     4   4   4   4   4   4   4   4
#     4  10  21  34  67  94 112 155 212 252 304 358
#     4  11  24  42  60  88 128 159 210 246 313 371
#     4  10  20  39  64  91 114 161 214 244 292 380
#     4  11  23  39  62  88 124 154 206 258 310 364
#     4  11  25  40  58  91 124 165 198 254 310 373
#     4  10  19  40  63  87 119 156 206 259 298 364
#     4  10  20  39  67  83 121 165 206 248 306 364
#     4  11  22  39  63  90 118 161 202 259 307 362
#
# _framework density 19.694234999999999
#
# number of rings (size 3 to 8) (size 9 to 14) (size 15 to 20)
#    0.000    1.500    3.750    1.500    3.500    0.000 
#    0.000    3.750    0.000    0.000    0.000    0.000 
#    0.000    0.000    0.000    0.000    0.000    0.000 
#
# Total GULP energy -178727.683965 kJ/mol
# GULP energy per Si atom -5585.240124 kJ/mol
# Density = 1.964941 g / cm^3
# Si number density = 19.694235 Si / 1000 Ang^3
#
#
#
# Elastic Constant Matrix: (Units=GPa)
#
#
# Indices 1 2 3 4 5 6 
#
# 1 92.2141 14.1850 -24.1757 0.0000 0.0000 0.0000
# 2 14.1850 15.3875 -15.1121 0.0000 0.0000 0.0000
# 3 -24.1757 -15.1121 40.1444 0.0000 0.0000 0.0000
# 4 0.0000 0.0000 0.0000 24.8306 0.0000 0.0000
# 5 0.0000 0.0000 0.0000 0.0000 17.4420 0.0000
# 6 0.0000 0.0000 0.0000 0.0000 0.0000 24.7951
#
#
#
# Elastic Compliance Matrix: (Units=1/GPa)
#
#
# Indices 1 2 3 4 5 6 
#
# 1 0.013335 -0.006991 0.005399 0.000000 0.000000 0.000000
# 2 -0.006991 0.106772 0.035984 0.000000 0.000000 0.000000
# 3 0.005399 0.035984 0.041708 0.000000 0.000000 0.000000
# 4 0.000000 0.000000 0.000000 0.040273 0.000000 0.000000
# 5 0.000000 0.000000 0.000000 0.000000 0.057333 0.000000
# 6 0.000000 0.000000 0.000000 0.000000 0.000000 0.040330
#
#
# Mechanical properties :
#
#
# Convention : Reuss Voigt Hill
#
# Bulk Modulus (GPa) = 4.33651 10.83781 7.58716
# Shear Modulus (GPa) = 16.24258 24.93681 20.58970
#
# Velocity S-wave (km/s) = 2.87494 3.56223 3.23688
# Velocity P-wave (km/s) = 3.63690 4.73648 4.22264
#
# Compressibility (1/GPa) = 0.23060031
#
# Stress axis : x y z
#
# Youngs Moduli (GPa) = 74.98979 9.36571 23.97648
#
# Poissons Ratio (x) = 0.06547 -0.12945
# Poissons Ratio (y) = 0.52422 -0.86277
# Poissons Ratio (z) = -0.40488 -0.33702
#
# Static dielectric constant tensor:
#      x y z
#    x 1.720120 0.000000 0.000000 
#    y 0.000000 1.657230 0.000000 
#    z 0.000000 0.000000 1.739850 
# 
# From -- ./inp_files/2306.got.cif
#   From: 2010.05.17/outbox.cif.g08.bks.cpg/sg29_2_cif.got.tgz:2306.got - 2010.06.04 01:19:37.
