data_PCOD9340563
_publ_section_title
;
Structure prediction by ZEFSAII (Michael W. Deem and Ramdas Pophale) SiO2 
 PCOD9340563
Probable space group: P C A 21
;
_chemical_formula_sum "Si O2"
_cell_formula_units_Z 24
_cell_length_a 5.389619
_cell_length_b 7.845982
_cell_length_c 21.437818
_cell_angle_alpha 90.000000
_cell_angle_beta 90.000000
_cell_angle_gamma 90.000000
_cell_volume 906.537873
_symmetry_space_group_name_H-M "P C A 21"
_symmetry_group_IT_number 29
_symmetry_cell_setting 'orthorhombic'
loop_
_space_group_symop_operation_xyz
x,y,z
-x,-y,1/2+z
1/2-x,y,1/2+z
1/2+x,-y,z
loop_
_atom_site_type_symbol
_atom_site_label
_atom_site_fract_x
_atom_site_fract_y
_atom_site_fract_z
Si Si1 0.129029 0.889766 0.081240
Si Si2 0.510460 0.563282 0.521447
Si Si3 0.359166 0.610464 0.692110
Si Si4 0.509771 0.952680 0.414661
Si Si5 0.529351 0.564363 0.378537
Si Si6 0.541718 0.091341 0.278308
O O1 0.081062 0.757079 0.024119
O O2 0.117297 0.754078 0.138137
O O3 0.895955 0.018562 0.083822
O O4 0.284089 0.455655 0.550260
O O5 0.547431 0.498079 0.450567
O O6 0.092647 0.518129 0.688886
O O7 0.388166 0.724888 0.753797
O O8 0.493217 0.764639 0.386645
O O9 0.769900 0.975868 0.448788
O O10 0.532785 0.074244 0.353275
O O11 0.292173 0.476536 0.349147
O O12 0.768336 0.968336 0.256697
#
# Coordination Sequence:
#
# PCOD9340563 Si02
#       6
#     4   4   4   4   4   4
#     4  12  24  39  62  92 123 156 197 242 293 351
#     4  10  21  39  60  87 124 159 197 242 288 345
#     4  12  24  41  64  88 118 158 200 242 296 355
#     4  10  21  38  59  83 117 155 193 246 299 346
#     4  10  21  38  61  88 119 158 200 242 291 349
#     4  10  21  41  60  84 117 152 193 246 299 346
#
# _framework density 26.474350999999999
#
# number of rings (size 3 to 8) (size 9 to 14) (size 15 to 20)
#    0.000    1.333    0.000    6.000    0.000    1.333 
#    0.000   20.000    0.000    0.000    0.000    0.000 
#    0.000    0.000    0.000    0.000    0.000    0.000 
#
# Total GULP energy -134461.867018 kJ/mol
# GULP energy per Si atom -5602.577792 kJ/mol
# Density = 2.641409 g / cm^3
# Si number density = 26.474351 Si / 1000 Ang^3
#
#
#
# Elastic Constant Matrix: (Units=GPa)
#
#
# Indices 1 2 3 4 5 6 
#
# 1 208.2927 54.7623 -23.4177 0.0000 0.0000 0.0000
# 2 54.7623 107.5665 4.4677 0.0000 0.0000 0.0000
# 3 -23.4177 4.4677 50.0326 0.0000 0.0000 0.0000
# 4 0.0000 0.0000 0.0000 56.8110 0.0000 0.0000
# 5 0.0000 0.0000 0.0000 0.0000 17.1268 0.0000
# 6 0.0000 0.0000 0.0000 0.0000 0.0000 75.2337
#
#
#
# Elastic Compliance Matrix: (Units=1/GPa)
#
#
# Indices 1 2 3 4 5 6 
#
# 1 0.005982 -0.003173 0.003083 0.000000 0.000000 0.000000
# 2 -0.003173 0.011015 -0.002469 0.000000 0.000000 0.000000
# 3 0.003083 -0.002469 0.021651 0.000000 0.000000 0.000000
# 4 0.000000 0.000000 0.000000 0.017602 0.000000 0.000000
# 5 0.000000 0.000000 0.000000 0.000000 0.058388 0.000000
# 6 0.000000 0.000000 0.000000 0.000000 0.000000 0.013292
#
#
# Mechanical properties :
#
#
# Convention : Reuss Voigt Hill
#
# Bulk Modulus (GPa) = 29.82507 48.61295 39.21901
# Shear Modulus (GPa) = 34.66827 51.83958 43.25392
#
# Velocity S-wave (km/s) = 3.62263 4.42985 4.04642
# Velocity P-wave (km/s) = 5.36545 6.67584 6.05619
#
# Compressibility (1/GPa) = 0.03352884
#
# Stress axis : x y z
#
# Youngs Moduli (GPa) = 167.17086 90.78750 46.18824
#
# Poissons Ratio (x) = 0.28811 -0.14241
# Poissons Ratio (y) = 0.53051 0.11403
# Poissons Ratio (z) = -0.51542 0.22415
#
# Static dielectric constant tensor:
#      x y z
#    x 2.154850 0.000000 0.000000 
#    y 0.000000 2.004770 0.000000 
#    z 0.000000 0.000000 2.232980 
# 
# From -- ./inp_files/5732.got.cif
#   From: 2010.05.17/outbox.cif.g08.bks.cpg/sg29_3_cif.got.tgz:5732.got - 2010.06.04 01:19:37.
