data_PCOD9340598
_publ_section_title
;
Structure prediction by ZEFSAII (Michael W. Deem and Ramdas Pophale) SiO2 
 PCOD9340598
Probable space group: P C A 21
;
_chemical_formula_sum "Si O2"
_cell_formula_units_Z 32
_cell_length_a 12.821857
_cell_length_b 5.115348
_cell_length_c 21.519451
_cell_angle_alpha 90.000000
_cell_angle_beta 90.000000
_cell_angle_gamma 90.000000
_cell_volume 1411.423359
_symmetry_space_group_name_H-M "P C A 21"
_symmetry_group_IT_number 29
_symmetry_cell_setting 'orthorhombic'
loop_
_space_group_symop_operation_xyz
x,y,z
-x,-y,1/2+z
1/2-x,y,1/2+z
1/2+x,-y,z
loop_
_atom_site_type_symbol
_atom_site_label
_atom_site_fract_x
_atom_site_fract_y
_atom_site_fract_z
Si Si1 0.369640 0.092219 0.849360
Si Si2 0.977914 0.096055 0.029709
Si Si3 0.339456 0.948644 0.144070
Si Si4 0.160534 0.551357 0.182747
Si Si5 0.812067 0.695995 0.562238
Si Si6 0.022075 0.596054 0.297108
Si Si7 0.130368 0.407781 0.477456
Si Si8 0.812058 0.804004 0.264579
O O1 0.442482 0.305078 0.814567
O O2 0.350751 0.250002 0.913407
O O3 0.258008 0.050424 0.815379
O O4 0.428392 0.814720 0.843036
O O5 0.928032 0.150558 0.097898
O O6 0.102216 0.121575 0.030798
O O7 0.928382 0.314718 0.983781
O O8 0.942472 0.805078 0.012251
O O9 0.249994 0.750003 0.163409
O O10 0.275711 0.157868 0.102957
O O11 0.375940 0.040623 0.211803
O O12 0.124051 0.459379 0.115013
O O13 0.071957 0.650551 0.228919
O O14 0.224281 0.342136 0.223860
O O15 0.742002 0.550430 0.511435
O O16 0.897774 0.621575 0.296019
#
# Coordination Sequence:
#
# PCOD9340598 Si02
#       8
#     4   4   4   4   4   4   4   4
#     4  11  25  45  63  92 129 169 226 273 309 379
#     4  11  25  41  68  96 128 171 216 264 329 387
#     4  10  21  39  62  97 132 163 205 266 322 396
#     4  10  21  39  62  97 132 163 205 266 322 396
#     4  10  24  40  65  95 131 171 211 262 332 384
#     4  11  25  41  68  96 128 171 216 264 329 387
#     4  11  25  45  63  92 129 169 226 273 309 379
#     4  10  24  40  65  95 131 171 211 262 332 384
#
# _framework density 22.672148
#
# number of rings (size 3 to 8) (size 9 to 14) (size 15 to 20)
#    0.000    1.500    2.500    0.750    7.000    2.000 
#    0.000    0.000    0.000    0.000    0.000    0.000 
#    0.000    0.000    0.000    0.000    0.000    0.000 
#
# Total GULP energy -178415.180005 kJ/mol
# GULP energy per Si atom -5575.474375 kJ/mol
# Density = 2.262055 g / cm^3
# Si number density = 22.672148 Si / 1000 Ang^3
#
#
#
# Elastic Constant Matrix: (Units=GPa)
#
#
# Indices 1 2 3 4 5 6 
#
# 1 91.9195 -2.2979 18.0843 0.0000 0.0000 0.0000
# 2 -2.2979 59.6570 -3.6073 0.0000 0.0000 0.0000
# 3 18.0843 -3.6073 83.3344 0.0000 0.0000 0.0000
# 4 0.0000 0.0000 0.0000 28.1872 0.0000 0.0000
# 5 0.0000 0.0000 0.0000 0.0000 5.7373 0.0000
# 6 0.0000 0.0000 0.0000 0.0000 0.0000 24.6314
#
#
#
# Elastic Compliance Matrix: (Units=1/GPa)
#
#
# Indices 1 2 3 4 5 6 
#
# 1 0.011369 0.000290 -0.002455 0.000000 0.000000 0.000000
# 2 0.000290 0.016814 0.000665 0.000000 0.000000 0.000000
# 3 -0.002455 0.000665 0.012561 0.000000 0.000000 0.000000
# 4 0.000000 0.000000 0.000000 0.035477 0.000000 0.000000
# 5 0.000000 0.000000 0.000000 0.000000 0.174298 0.000000
# 6 0.000000 0.000000 0.000000 0.000000 0.000000 0.040599
#
#
# Mechanical properties :
#
#
# Convention : Reuss Voigt Hill
#
# Bulk Modulus (GPa) = 26.49425 28.80766 27.65096
# Shear Modulus (GPa) = 16.30261 26.55998 21.43129
#
# Velocity S-wave (km/s) = 2.68444 3.42640 3.07786
# Velocity P-wave (km/s) = 4.61730 5.32798 4.98532
#
# Compressibility (1/GPa) = 0.03774404
#
# Stress axis : x y z
#
# Youngs Moduli (GPa) = 87.95647 59.47481 79.60944
#
# Poissons Ratio (x) = -0.01722 0.19542
# Poissons Ratio (y) = -0.02546 -0.05294
# Poissons Ratio (z) = 0.21591 -0.03955
#
# Static dielectric constant tensor:
#      x y z
#    x 1.827210 0.000000 0.000000 
#    y 0.000000 1.875040 0.000000 
#    z 0.000000 0.000000 1.983760 
# 
# From -- ./inp_files/5509.got.cif
#   From: 2010.05.17/outbox.cif.g08.bks.cpg/sg29_3_cif.got.tgz:5509.got - 2010.06.04 01:19:37.
