data_PCOD9340438
_publ_section_title
;
Structure prediction by ZEFSAII (Michael W. Deem and Ramdas Pophale) SiO2 
 PCOD9340438
Probable space group: P C A 21
;
_chemical_formula_sum "Si O2"
_cell_formula_units_Z 28
_cell_length_a 17.452070
_cell_length_b 9.587642
_cell_length_c 8.595888
_cell_angle_alpha 90.000000
_cell_angle_beta 90.000000
_cell_angle_gamma 90.000000
_cell_volume 1438.300077
_symmetry_space_group_name_H-M "P C A 21"
_symmetry_group_IT_number 29
_symmetry_cell_setting 'orthorhombic'
loop_
_space_group_symop_operation_xyz
x,y,z
-x,-y,1/2+z
1/2-x,y,1/2+z
1/2+x,-y,z
loop_
_atom_site_type_symbol
_atom_site_label
_atom_site_fract_x
_atom_site_fract_y
_atom_site_fract_z
Si Si1 0.059280 0.942622 0.560770
Si Si2 0.548678 0.194976 0.078893
Si Si3 0.642872 0.009522 0.880536
Si Si4 0.249784 0.631537 0.660856
Si Si5 0.046294 0.255317 0.889558
Si Si6 0.132007 0.542576 0.927552
Si Si7 0.800799 0.158901 0.893479
O O1 0.125728 0.927968 0.434856
O O2 0.001111 0.815710 0.529645
O O3 0.093128 0.934265 0.734165
O O4 0.020278 0.091347 0.527723
O O5 0.512569 0.245083 0.243157
O O6 0.578727 0.326786 0.979544
O O7 0.616605 0.082246 0.042184
O O8 0.619990 0.847661 0.874716
O O9 0.729466 0.058672 0.857423
O O10 0.182438 0.574872 0.772250
O O11 0.302085 0.527073 0.560859
O O12 0.215766 0.744482 0.542862
O O13 0.308112 0.723364 0.763206
O O14 0.078592 0.408920 0.910749
#
# Coordination Sequence:
#
# PCOD9340438 Si02
#       7
#     4   4   4   4   4   4   4
#     4  10  21  36  64  96 121 162 205 264 312 370
#     4  10  20  40  65  88 126 159 208 254 310 379
#     4  10  20  40  63  91 123 158 214 261 300 374
#     4  10  21  36  66  85 121 166 215 251 297 384
#     4  10  24  40  63  91 132 157 204 260 322 365
#     4  11  22  43  61  92 128 168 209 255 312 375
#     4  11  18  37  64  91 117 164 213 255 309 363
#
# _framework density 19.467424999999999
#
# number of rings (size 3 to 8) (size 9 to 14) (size 15 to 20)
#    0.000    1.714    4.286    0.857    0.000    2.286 
#    5.143    2.857    0.000    0.000    0.000    0.000 
#    0.000    0.000    0.000    0.000    0.000    0.000 
#
# Total GULP energy -155876.237031 kJ/mol
# GULP energy per Si atom -5567.008465 kJ/mol
# Density = 1.942312 g / cm^3
# Si number density = 19.467425 Si / 1000 Ang^3
#
#
#
# Elastic Constant Matrix: (Units=GPa)
#
#
# Indices 1 2 3 4 5 6 
#
# 1 106.8950 51.6959 35.2814 0.0000 0.0000 0.0000
# 2 51.6959 109.7649 36.6658 0.0000 0.0000 0.0000
# 3 35.2814 36.6658 85.8406 0.0000 0.0000 0.0000
# 4 0.0000 0.0000 0.0000 19.8529 0.0000 0.0000
# 5 0.0000 0.0000 0.0000 0.0000 26.2813 0.0000
# 6 0.0000 0.0000 0.0000 0.0000 0.0000 33.5439
#
#
#
# Elastic Compliance Matrix: (Units=1/GPa)
#
#
# Indices 1 2 3 4 5 6 
#
# 1 0.012798 -0.004981 -0.003132 0.000000 0.000000 0.000000
# 2 -0.004981 0.012565 -0.003320 0.000000 0.000000 0.000000
# 3 -0.003132 -0.003320 0.014355 0.000000 0.000000 0.000000
# 4 0.000000 0.000000 0.000000 0.050371 0.000000 0.000000
# 5 0.000000 0.000000 0.000000 0.000000 0.038050 0.000000
# 6 0.000000 0.000000 0.000000 0.000000 0.000000 0.029812
#
#
# Mechanical properties :
#
#
# Convention : Reuss Voigt Hill
#
# Bulk Modulus (GPa) = 59.34217 61.08740 60.21478
# Shear Modulus (GPa) = 26.81919 27.85945 27.33932
#
# Velocity S-wave (km/s) = 3.71569 3.78707 3.75155
# Velocity P-wave (km/s) = 6.99696 7.11125 7.05434
#
# Compressibility (1/GPa) = 0.01685142
#
# Stress axis : x y z
#
# Youngs Moduli (GPa) = 78.13891 79.58473 69.66213
#
# Poissons Ratio (x) = 0.39641 0.21821
# Poissons Ratio (y) = 0.38921 0.23127
# Poissons Ratio (z) = 0.24477 0.26421
#
# Static dielectric constant tensor:
#      x y z
#    x 1.728700 0.000000 0.000000 
#    y 0.000000 1.645110 0.000000 
#    z 0.000000 0.000000 1.776360 
# 
# From -- ./inp_files/2071.got.cif
#   From: 2010.05.17/outbox.cif.g08.bks.cpg/sg29_2_cif.got.tgz:2071.got - 2010.06.04 01:19:37.
