data_PCOD9340125
_publ_section_title
;
Structure prediction by ZEFSAII (Michael W. Deem and Ramdas Pophale) SiO2 
 PCOD9340125
Probable space group: P C A 21
;
_chemical_formula_sum "Si O2"
_cell_formula_units_Z 32
_cell_length_a 7.577205
_cell_length_b 8.061362
_cell_length_c 22.095517
_cell_angle_alpha 90.000000
_cell_angle_beta 90.000000
_cell_angle_gamma 90.000000
_cell_volume 1349.651460
_symmetry_space_group_name_H-M "P C A 21"
_symmetry_group_IT_number 29
_symmetry_cell_setting 'orthorhombic'
loop_
_space_group_symop_operation_xyz
x,y,z
-x,-y,1/2+z
1/2-x,y,1/2+z
1/2+x,-y,z
loop_
_atom_site_type_symbol
_atom_site_label
_atom_site_fract_x
_atom_site_fract_y
_atom_site_fract_z
Si Si1 0.222525 0.229699 0.771010
Si Si2 0.348415 0.579010 0.529661
Si Si3 0.116662 0.068147 0.650365
Si Si4 0.344199 0.594871 0.397483
Si Si5 0.246618 0.733347 0.651384
Si Si6 0.149084 0.580466 0.273239
Si Si7 0.276087 0.229920 0.029682
Si Si8 0.726390 0.768756 0.398581
O O1 0.219730 0.119890 0.711416
O O2 0.362081 0.380561 0.771866
O O3 0.242732 0.136981 0.835510
O O4 0.037057 0.327971 0.770376
O O5 0.264111 0.625844 0.464431
O O6 0.246706 0.630285 0.590053
O O7 0.536585 0.671291 0.529748
O O8 0.362215 0.380127 0.533063
O O9 0.215890 0.115014 0.588015
O O10 0.932480 0.165913 0.650840
O O11 0.097372 0.871488 0.651740
O O12 0.240647 0.633768 0.336075
O O13 0.531338 0.686870 0.397104
O O14 0.354227 0.393180 0.396753
O O15 0.247570 0.627730 0.712200
O O16 0.253796 0.145309 0.963779
#
# Coordination Sequence:
#
# PCOD9340125 Si02
#       8
#     4   4   4   4   4   4   4   4
#     4  10  19  32  52  77 102 128 163 204 245 293
#     4   9  18  33  53  77 101 127 163 204 245 292
#     4  10  22  37  51  71 100 133 169 206 244 290
#     4   9  16  28  49  75 102 128 158 200 246 291
#     4  10  22  37  51  71 100 133 169 206 244 290
#     4  10  19  32  52  77 102 128 163 204 245 293
#     4   9  18  33  53  77 101 127 163 204 245 292
#     4   9  16  28  49  75 102 128 158 200 246 291
#
# _framework density 23.709824999999999
#
# number of rings (size 3 to 8) (size 9 to 14) (size 15 to 20)
#    0.000    2.500    0.000    3.750    0.000    4.000 
#    0.000    1.250    0.000    6.000    0.000    0.000 
#    0.000    0.000    0.000    0.000    0.000    0.000 
#
# Total GULP energy -178705.608362 kJ/mol
# GULP energy per Si atom -5584.550261 kJ/mol
# Density = 2.365586 g / cm^3
# Si number density = 23.709825 Si / 1000 Ang^3
#
#
#
# Elastic Constant Matrix: (Units=GPa)
#
#
# Indices 1 2 3 4 5 6 
#
# 1 55.9606 -8.9096 34.0831 0.0000 0.0000 0.0000
# 2 -8.9096 16.1430 28.9347 0.0000 0.0000 0.0000
# 3 34.0831 28.9347 222.3099 0.0000 0.0000 0.0000
# 4 0.0000 0.0000 0.0000 -8.5897 0.0000 0.0000
# 5 0.0000 0.0000 0.0000 0.0000 33.5584 0.0000
# 6 0.0000 0.0000 0.0000 0.0000 0.0000 19.5161
#
#
#
# Elastic Compliance Matrix: (Units=1/GPa)
#
#
# Indices 1 2 3 4 5 6 
#
# 1 0.027514 0.029668 -0.008080 0.000000 0.000000 0.000000
# 2 0.029668 0.112785 -0.019228 0.000000 0.000000 0.000000
# 3 -0.008080 -0.019228 0.008240 0.000000 0.000000 0.000000
# 4 0.000000 0.000000 0.000000 -0.116419 0.000000 0.000000
# 5 0.000000 0.000000 0.000000 0.000000 0.029799 0.000000
# 6 0.000000 0.000000 0.000000 0.000000 0.000000 0.051240
#
#
# Mechanical properties :
#
#
# Convention : Reuss Voigt Hill
#
# Bulk Modulus (GPa) = 6.52491 44.73666 25.63079
# Shear Modulus (GPa) = 31.34318 24.91732 28.13025
#
# Velocity S-wave (km/s) = 3.63981 3.24532 3.44821
# Velocity P-wave (km/s) = 4.51909 5.74040 5.16596
#
# Compressibility (1/GPa) = 0.15325872
#
# Stress axis : x y z
#
# Youngs Moduli (GPa) = 36.34492 8.86643 121.36564
#
# Poissons Ratio (x) = -0.26305 0.98060
# Poissons Ratio (y) = -1.07827 2.33361
# Poissons Ratio (z) = 0.29366 0.17048
#
# Static dielectric constant tensor:
#      x y z
#    x 1.957250 0.000000 0.000000 
#    y 0.000000 1.842180 0.000000 
#    z 0.000000 0.000000 1.940890 
# 
# From -- ./inp_files/5423.got.cif
#   From: 2010.05.17/outbox.cif.g08.bks.cpg/sg29_3_cif.got.tgz:5423.got - 2010.06.04 01:19:37.
