data_PCOD9340808
_publ_section_title
;
Structure prediction by ZEFSAII (Michael W. Deem and Ramdas Pophale) SiO2 
 PCOD9340808
Probable space group: P C A 21
;
_chemical_formula_sum "Si O2"
_cell_formula_units_Z 28
_cell_length_a 26.228640
_cell_length_b 5.011732
_cell_length_c 8.928353
_cell_angle_alpha 90.000000
_cell_angle_beta 90.000000
_cell_angle_gamma 90.000000
_cell_volume 1173.640166
_symmetry_space_group_name_H-M "P C A 21"
_symmetry_group_IT_number 29
_symmetry_cell_setting 'orthorhombic'
loop_
_space_group_symop_operation_xyz
x,y,z
-x,-y,1/2+z
1/2-x,y,1/2+z
1/2+x,-y,z
loop_
_atom_site_type_symbol
_atom_site_label
_atom_site_fract_x
_atom_site_fract_y
_atom_site_fract_z
Si Si1 0.368627 0.985999 0.151440
Si Si2 0.460131 0.223649 0.970994
Si Si3 0.002360 0.700142 0.305602
Si Si4 0.269779 0.175473 0.045548
Si Si5 0.764078 0.465757 0.795361
Si Si6 0.187037 0.799661 0.031251
Si Si7 0.892131 0.509453 0.341902
O O1 0.310513 0.957922 0.097267
O O2 0.389794 0.703045 0.205578
O O3 0.405733 0.112897 0.028172
O O4 0.369918 0.204411 0.287217
O O5 0.490891 0.278461 0.127582
O O6 0.457008 0.485450 0.866669
O O7 0.486226 0.989197 0.874260
O O8 0.950120 0.581652 0.375239
O O9 0.209780 0.099730 0.035095
O O10 0.271677 0.395867 0.173627
O O11 0.288269 0.299027 0.891564
O O12 0.802939 0.294512 0.699990
O O13 0.729023 0.309355 0.911737
O O14 0.136247 0.660898 0.970522
#
# Coordination Sequence:
#
# PCOD9340808 Si02
#       7
#     4   4   4   4   4   4   4
#     4  11  23  42  70  97 131 180 227 269 340 420
#     4  11  23  45  71 101 137 179 226 287 350 414
#     4  11  23  45  71 101 137 179 226 287 350 414
#     4  11  22  40  62  93 129 176 221 272 331 393
#     4  10  22  38  60  86 132 166 218 272 328 380
#     4  11  22  40  62  93 129 176 221 272 331 393
#     4  11  23  42  70  97 131 180 227 269 340 420
#
# _framework density 23.857396000000001
#
# number of rings (size 3 to 8) (size 9 to 14) (size 15 to 20)
#    0.000    1.143    1.429    6.857    4.000    0.000 
#    5.143    0.000    0.000    0.000    0.000    0.000 
#    0.000    0.000    0.000    0.000    0.000    0.000 
#
# Total GULP energy -156341.343373 kJ/mol
# GULP energy per Si atom -5583.619406 kJ/mol
# Density = 2.380310 g / cm^3
# Si number density = 23.857396 Si / 1000 Ang^3
#
#
#
# Elastic Constant Matrix: (Units=GPa)
#
#
# Indices 1 2 3 4 5 6 
#
# 1 36.2892 -4.6852 -3.9973 0.0000 0.0000 0.0000
# 2 -4.6852 108.0656 29.4420 0.0000 0.0000 0.0000
# 3 -3.9973 29.4420 80.6515 0.0000 0.0000 0.0000
# 4 0.0000 0.0000 0.0000 43.9595 0.0000 0.0000
# 5 0.0000 0.0000 0.0000 0.0000 39.1397 0.0000
# 6 0.0000 0.0000 0.0000 0.0000 0.0000 26.2700
#
#
#
# Elastic Compliance Matrix: (Units=1/GPa)
#
#
# Indices 1 2 3 4 5 6 
#
# 1 0.027790 0.000921 0.001041 0.000000 0.000000 0.000000
# 2 0.000921 0.010306 -0.003717 0.000000 0.000000 0.000000
# 3 0.001041 -0.003717 0.013807 0.000000 0.000000 0.000000
# 4 0.000000 0.000000 0.000000 0.022748 0.000000 0.000000
# 5 0.000000 0.000000 0.000000 0.000000 0.025550 0.000000
# 6 0.000000 0.000000 0.000000 0.000000 0.000000 0.038066
#
#
# Mechanical properties :
#
#
# Convention : Reuss Voigt Hill
#
# Bulk Modulus (GPa) = 20.66338 29.61393 25.13866
# Shear Modulus (GPa) = 31.66404 35.49028 33.57716
#
# Velocity S-wave (km/s) = 3.64706 3.86113 3.75562
# Velocity P-wave (km/s) = 5.13952 5.68486 5.41905
#
# Compressibility (1/GPa) = 0.04839479
#
# Stress axis : x y z
#
# Youngs Moduli (GPa) = 35.98418 97.02934 72.42504
#
# Poissons Ratio (x) = -0.08938 -0.07540
# Poissons Ratio (y) = -0.03315 0.26918
# Poissons Ratio (z) = -0.03746 0.36062
#
# Static dielectric constant tensor:
#      x y z
#    x 1.955590 0.000000 0.000000 
#    y 0.000000 1.952860 0.000000 
#    z 0.000000 0.000000 1.923440 
# 
# From -- ./inp_files/2535.got.cif
#   From: 2010.05.17/outbox.cif.g08.bks.cpg/sg29_2_cif.got.tgz:2535.got - 2010.06.04 01:19:37.
