data_PCOD9340156
_publ_section_title
;
Structure prediction by ZEFSAII (Michael W. Deem and Ramdas Pophale) SiO2 
 PCOD9340156
Probable space group: P C A 21
;
_chemical_formula_sum "Si O2"
_cell_formula_units_Z 28
_cell_length_a 26.032894
_cell_length_b 9.521021
_cell_length_c 5.574535
_cell_angle_alpha 90.000000
_cell_angle_beta 90.000000
_cell_angle_gamma 90.000000
_cell_volume 1381.702743
_symmetry_space_group_name_H-M "P C A 21"
_symmetry_group_IT_number 29
_symmetry_cell_setting 'orthorhombic'
loop_
_space_group_symop_operation_xyz
x,y,z
-x,-y,1/2+z
1/2-x,y,1/2+z
1/2+x,-y,z
loop_
_atom_site_type_symbol
_atom_site_label
_atom_site_fract_x
_atom_site_fract_y
_atom_site_fract_z
Si Si1 0.235481 0.480882 0.090600
Si Si2 0.883893 0.219861 0.032244
Si Si3 0.627854 0.460861 0.207793
Si Si4 0.453250 0.566012 0.329174
Si Si5 0.562074 0.665878 0.484897
Si Si6 0.467024 0.015141 0.949222
Si Si7 0.774185 0.199037 0.172218
O O1 0.240024 0.412319 0.355247
O O2 0.174910 0.498081 0.040523
O O3 0.261641 0.632907 0.147131
O O4 0.922417 0.330954 0.154566
O O5 0.835525 0.173623 0.191985
O O6 0.920861 0.097489 0.941696
O O7 0.855885 0.317722 0.836838
O O8 0.611986 0.591537 0.374022
O O9 0.576050 0.417284 0.075955
O O10 0.511663 0.610897 0.343793
O O11 0.445974 0.406273 0.243557
O O12 0.558215 0.831473 0.477448
O O13 0.500646 0.991442 0.196692
O O14 0.747502 0.144086 0.416331
#
# Coordination Sequence:
#
# PCOD9340156 Si02
#       7
#     4   4   4   4   4   4   4
#     4  10  19  35  56  92 125 150 202 265 310 363
#     4  11  23  38  65  93 124 171 210 263 320 377
#     4  11  22  36  65  92 124 164 209 263 325 367
#     4  11  21  38  60  89 124 163 213 255 313 372
#     4  11  24  38  59  90 128 165 209 261 310 382
#     4  12  28  45  63  89 133 171 216 258 318 384
#     4  10  19  34  60  93 124 150 209 267 312 359
#
# _framework density 20.264849000000002
#
# number of rings (size 3 to 8) (size 9 to 14) (size 15 to 20)
#    0.000    1.143    5.714    2.571    6.000    0.000 
#    0.000    0.000    0.000    1.714    0.000    0.000 
#    0.000    0.000    0.000    0.000    0.000    0.000 
#
# Total GULP energy -156022.439237 kJ/mol
# GULP energy per Si atom -5572.229973 kJ/mol
# Density = 2.021873 g / cm^3
# Si number density = 20.264849 Si / 1000 Ang^3
#
#
#
# Elastic Constant Matrix: (Units=GPa)
#
#
# Indices 1 2 3 4 5 6 
#
# 1 107.6804 11.2615 13.2466 0.0000 0.0000 0.0000
# 2 11.2615 86.7284 7.6314 0.0000 0.0000 0.0000
# 3 13.2466 7.6314 88.0846 0.0000 0.0000 0.0000
# 4 0.0000 0.0000 0.0000 10.1738 0.0000 0.0000
# 5 0.0000 0.0000 0.0000 0.0000 8.8181 0.0000
# 6 0.0000 0.0000 0.0000 0.0000 0.0000 3.0227
#
#
#
# Elastic Compliance Matrix: (Units=1/GPa)
#
#
# Indices 1 2 3 4 5 6 
#
# 1 0.009569 -0.001125 -0.001342 0.000000 0.000000 0.000000
# 2 -0.001125 0.011751 -0.000849 0.000000 0.000000 0.000000
# 3 -0.001342 -0.000849 0.011628 0.000000 0.000000 0.000000
# 4 0.000000 0.000000 0.000000 0.098292 0.000000 0.000000
# 5 0.000000 0.000000 0.000000 0.000000 0.113403 0.000000
# 6 0.000000 0.000000 0.000000 0.000000 0.000000 0.330835
#
#
# Mechanical properties :
#
#
# Convention : Reuss Voigt Hill
#
# Bulk Modulus (GPa) = 37.99662 38.53025 38.26344
# Shear Modulus (GPa) = 8.46193 21.09316 14.77755
#
# Velocity S-wave (km/s) = 2.04566 3.22976 2.70334
# Velocity P-wave (km/s) = 4.93663 5.74135 5.35413
#
# Compressibility (1/GPa) = 0.02631813
#
# Stress axis : x y z
#
# Youngs Moduli (GPa) = 104.49983 85.09934 85.99905
#
# Poissons Ratio (x) = 0.09570 0.11538
# Poissons Ratio (y) = 0.11751 0.07301
# Poissons Ratio (z) = 0.14020 0.07225
#
# Static dielectric constant tensor:
#      x y z
#    x 1.722980 0.000000 0.000000 
#    y 0.000000 1.694810 0.000000 
#    z 0.000000 0.000000 1.875110 
# 
# From -- ./inp_files/656.got.cif
#   From: 2010.05.17/outbox.cif.g08.bks.cpg/sg29_1_cif.got.tgz:656.got - 2010.06.04 01:19:37.
