data_PCOD9340775
_publ_section_title
;
Structure prediction by ZEFSAII (Michael W. Deem and Ramdas Pophale) SiO2 
 PCOD9340775
Probable space group: P C A 21
;
_chemical_formula_sum "Si O2"
_cell_formula_units_Z 24
_cell_length_a 27.646639
_cell_length_b 6.961703
_cell_length_c 5.210142
_cell_angle_alpha 90.000000
_cell_angle_beta 90.000000
_cell_angle_gamma 90.000000
_cell_volume 1002.783994
_symmetry_space_group_name_H-M "P C A 21"
_symmetry_group_IT_number 29
_symmetry_cell_setting 'orthorhombic'
loop_
_space_group_symop_operation_xyz
x,y,z
-x,-y,1/2+z
1/2-x,y,1/2+z
1/2+x,-y,z
loop_
_atom_site_type_symbol
_atom_site_label
_atom_site_fract_x
_atom_site_fract_y
_atom_site_fract_z
Si Si1 0.719097 0.416681 0.507420
Si Si2 0.394605 0.246730 0.707022
Si Si3 0.361793 0.570089 0.372762
Si Si4 0.484244 0.115211 0.414284
Si Si5 0.936739 0.410328 0.996474
Si Si6 0.349503 0.856763 0.788020
O O1 0.743494 0.460390 0.235631
O O2 0.669466 0.499227 0.629115
O O3 0.697670 0.202837 0.449506
O O4 0.360152 0.401402 0.575757
O O5 0.429049 0.147714 0.494388
O O6 0.428629 0.375288 0.891073
O O7 0.363431 0.075512 0.819856
O O8 0.342627 0.766350 0.501795
O O9 0.417649 0.592913 0.288615
O O10 0.512240 0.317891 0.434200
O O11 0.492574 0.017092 0.139901
O O12 0.897348 0.262884 0.873372
#
# Coordination Sequence:
#
# PCOD9340775 Si02
#       6
#     4   4   4   4   4   4
#     4  11  22  44  77 105 139 182 229 294 360 433
#     4  11  25  42  71 102 142 188 239 293 347 425
#     4  10  23  42  73 100 144 183 232 289 363 414
#     4  12  27  45  70 100 143 191 243 293 346 414
#     4  10  24  41  66 101 138 191 233 291 347 409
#     4  10  21  46  69 100 142 185 230 282 363 415
#
# _framework density 23.93337
#
# number of rings (size 3 to 8) (size 9 to 14) (size 15 to 20)
#    0.000    1.333    3.333    1.000    7.000    2.667 
#    0.000    1.667    0.000    0.000    0.000    0.000 
#    0.000    0.000    0.000    0.000    0.000    0.000 
#
# Total GULP energy -133952.628988 kJ/mol
# GULP energy per Si atom -5581.359541 kJ/mol
# Density = 2.387890 g / cm^3
# Si number density = 23.933370 Si / 1000 Ang^3
#
#
#
# Elastic Constant Matrix: (Units=GPa)
#
#
# Indices 1 2 3 4 5 6 
#
# 1 57.9198 -12.4302 5.5815 0.0000 0.0000 0.0000
# 2 -12.4302 105.3685 27.2747 0.0000 0.0000 0.0000
# 3 5.5815 27.2747 107.5078 0.0000 0.0000 0.0000
# 4 0.0000 0.0000 0.0000 21.7220 0.0000 0.0000
# 5 0.0000 0.0000 0.0000 0.0000 37.4439 0.0000
# 6 0.0000 0.0000 0.0000 0.0000 0.0000 26.7163
#
#
#
# Elastic Compliance Matrix: (Units=1/GPa)
#
#
# Indices 1 2 3 4 5 6 
#
# 1 0.017959 0.002526 -0.001573 0.000000 0.000000 0.000000
# 2 0.002526 0.010513 -0.002798 0.000000 0.000000 0.000000
# 3 -0.001573 -0.002798 0.010093 0.000000 0.000000 0.000000
# 4 0.000000 0.000000 0.000000 0.046036 0.000000 0.000000
# 5 0.000000 0.000000 0.000000 0.000000 0.026707 0.000000
# 6 0.000000 0.000000 0.000000 0.000000 0.000000 0.037430
#
#
# Mechanical properties :
#
#
# Convention : Reuss Voigt Hill
#
# Bulk Modulus (GPa) = 28.67484 34.62756 31.65120
# Shear Modulus (GPa) = 30.47775 33.86776 32.17275
#
# Velocity S-wave (km/s) = 3.57240 3.76584 3.67040
# Velocity P-wave (km/s) = 5.38732 5.78001 5.58711
#
# Compressibility (1/GPa) = 0.03487378
#
# Stress axis : x y z
#
# Youngs Moduli (GPa) = 55.68258 95.12223 99.07621
#
# Poissons Ratio (x) = -0.24026 0.15586
# Poissons Ratio (y) = -0.14064 0.27724
# Poissons Ratio (z) = 0.08760 0.26617
#
# Static dielectric constant tensor:
#      x y z
#    x 1.973110 0.000000 0.000000 
#    y 0.000000 1.896400 0.000000 
#    z 0.000000 0.000000 2.088590 
# 
# From -- ./inp_files/866.got.cif
#   From: 2010.05.17/outbox.cif.g08.bks.cpg/sg29_1_cif.got.tgz:866.got - 2010.06.04 01:19:37.
