data_PCOD9340708
_publ_section_title
;
Structure prediction by ZEFSAII (Michael W. Deem and Ramdas Pophale) SiO2 
 PCOD9340708
Probable space group: P C A 21
;
_chemical_formula_sum "Si O2"
_cell_formula_units_Z 28
_cell_length_a 8.551753
_cell_length_b 9.410058
_cell_length_c 13.721206
_cell_angle_alpha 90.000000
_cell_angle_beta 90.000000
_cell_angle_gamma 90.000000
_cell_volume 1104.179636
_symmetry_space_group_name_H-M "P C A 21"
_symmetry_group_IT_number 29
_symmetry_cell_setting 'orthorhombic'
loop_
_space_group_symop_operation_xyz
x,y,z
-x,-y,1/2+z
1/2-x,y,1/2+z
1/2+x,-y,z
loop_
_atom_site_type_symbol
_atom_site_label
_atom_site_fract_x
_atom_site_fract_y
_atom_site_fract_z
Si Si1 0.147104 0.700017 0.639900
Si Si2 0.551574 0.042569 0.908521
Si Si3 0.007461 0.613387 0.437611
Si Si4 0.814993 0.100340 0.773468
Si Si5 0.243889 0.172274 0.506500
Si Si6 0.727861 0.486074 0.814266
Si Si7 0.691642 0.776946 0.210969
O O1 0.118428 0.637356 0.531920
O O2 0.286382 0.806198 0.676028
O O3 0.160566 0.570138 0.713707
O O4 0.983925 0.774779 0.667699
O O5 0.669885 0.134306 0.844488
O O6 0.413164 0.137013 0.950015
O O7 0.470236 0.918811 0.840467
O O8 0.653238 0.971763 0.994591
O O9 0.126829 0.611966 0.346899
O O10 0.863884 0.717181 0.460321
O O11 0.900174 0.481248 0.400848
O O12 0.204016 0.227647 0.613683
O O13 0.214552 0.066119 0.250993
O O14 0.780781 0.646425 0.783782
#
# Coordination Sequence:
#
# PCOD9340708 Si02
#       7
#     4   4   4   4   4   4   4
#     4  11  26  47  75 114 149 197 259 303 394 461
#     4  10  21  41  73 107 149 201 239 315 379 452
#     4  11  27  45  78 106 151 200 255 315 377 469
#     4  11  22  45  73 109 152 193 247 316 382 447
#     4  10  24  42  68 111 152 192 261 303 386 455
#     4  12  25  52  78 108 153 202 255 322 382 456
#     4  11  25  46  73 107 154 195 248 320 378 456
#
# _framework density 25.358194999999998
#
# number of rings (size 3 to 8) (size 9 to 14) (size 15 to 20)
#    0.000    1.143    2.857    2.571    8.000    0.000 
#    0.000    0.000    0.000    0.000    0.000    0.000 
#    0.000    0.000    0.000    0.000    0.000    0.000 
#
# Total GULP energy -156164.453707 kJ/mol
# GULP energy per Si atom -5577.301918 kJ/mol
# Density = 2.530048 g / cm^3
# Si number density = 25.358195 Si / 1000 Ang^3
#
#
#
# Elastic Constant Matrix: (Units=GPa)
#
#
# Indices 1 2 3 4 5 6 
#
# 1 79.8970 -5.2103 25.3542 0.0000 0.0000 0.0000
# 2 -5.2103 71.1379 29.7824 0.0000 0.0000 0.0000
# 3 25.3542 29.7824 123.2161 0.0000 0.0000 0.0000
# 4 0.0000 0.0000 0.0000 29.7882 0.0000 0.0000
# 5 0.0000 0.0000 0.0000 0.0000 37.1585 0.0000
# 6 0.0000 0.0000 0.0000 0.0000 0.0000 26.2615
#
#
#
# Elastic Compliance Matrix: (Units=1/GPa)
#
#
# Indices 1 2 3 4 5 6 
#
# 1 0.013761 0.002440 -0.003421 0.000000 0.000000 0.000000
# 2 0.002440 0.016073 -0.004387 0.000000 0.000000 0.000000
# 3 -0.003421 -0.004387 0.009880 0.000000 0.000000 0.000000
# 4 0.000000 0.000000 0.000000 0.033570 0.000000 0.000000
# 5 0.000000 0.000000 0.000000 0.000000 0.026912 0.000000
# 6 0.000000 0.000000 0.000000 0.000000 0.000000 0.038079
#
#
# Mechanical properties :
#
#
# Convention : Reuss Voigt Hill
#
# Bulk Modulus (GPa) = 34.50952 41.56706 38.03829
# Shear Modulus (GPa) = 31.51192 33.59660 32.55426
#
# Velocity S-wave (km/s) = 3.52898 3.64384 3.58687
# Velocity P-wave (km/s) = 5.49939 5.84217 5.67337
#
# Compressibility (1/GPa) = 0.02897751
#
# Stress axis : x y z
#
# Youngs Moduli (GPa) = 72.66906 62.21762 101.21207
#
# Poissons Ratio (x) = -0.15183 0.34629
# Poissons Ratio (y) = -0.17734 0.44402
# Poissons Ratio (z) = 0.24863 0.27295
#
# Static dielectric constant tensor:
#      x y z
#    x 1.989170 0.000000 0.000000 
#    y 0.000000 2.110920 0.000000 
#    z 0.000000 0.000000 2.103890 
# 
# From -- ./inp_files/4262.got.cif
#   From: 2010.05.17/outbox.cif.g08.bks.cpg/sg29_3_cif.got.tgz:4262.got - 2010.06.04 01:19:37.
