data_PCOD9340271
_publ_section_title
;
Structure prediction by ZEFSAII (Michael W. Deem and Ramdas Pophale) SiO2 
 PCOD9340271
Probable space group: P C A 21
;
_chemical_formula_sum "Si O2"
_cell_formula_units_Z 28
_cell_length_a 27.872912
_cell_length_b 9.147419
_cell_length_c 5.176339
_cell_angle_alpha 90.000000
_cell_angle_beta 90.000000
_cell_angle_gamma 90.000000
_cell_volume 1319.786333
_symmetry_space_group_name_H-M "P C A 21"
_symmetry_group_IT_number 29
_symmetry_cell_setting 'orthorhombic'
loop_
_space_group_symop_operation_xyz
x,y,z
-x,-y,1/2+z
1/2-x,y,1/2+z
1/2+x,-y,z
loop_
_atom_site_type_symbol
_atom_site_label
_atom_site_fract_x
_atom_site_fract_y
_atom_site_fract_z
Si Si1 0.477150 0.561879 0.438660
Si Si2 0.943799 0.931199 0.655466
Si Si3 0.773014 0.114673 0.976741
Si Si4 0.124866 0.623467 0.716345
Si Si5 0.775897 0.467988 0.041837
Si Si6 0.369290 0.819236 0.713660
Si Si7 0.474015 0.156960 0.150657
O O1 0.489334 0.464619 0.688781
O O2 0.423626 0.552846 0.326246
O O3 0.489263 0.721281 0.554321
O O4 0.906857 0.061411 0.615975
O O5 0.996283 0.006881 0.687435
O O6 0.948642 0.819545 0.422380
O O7 0.934662 0.859194 0.929924
O O8 0.734890 0.058072 0.765508
O O9 0.740602 0.525008 0.264416
O O10 0.823778 0.099023 0.836576
O O11 0.769258 0.291251 0.013601
O O12 0.168653 0.520253 0.626992
O O13 0.112783 0.720764 0.459078
O O14 0.143005 0.720215 0.963003
#
# Coordination Sequence:
#
# PCOD9340271 Si02
#       7
#     4   4   4   4   4   4   4
#     4  12  25  39  55  74 109 149 187 225 269 326
#     4  10  20  33  55  76 100 130 174 226 253 307
#     4   9  16  26  40  67 105 140 163 193 251 324
#     4  11  21  32  50  75 107 139 181 211 261 334
#     4   9  16  28  45  69 100 136 166 207 261 319
#     4  11  19  30  51  75 104 138 175 213 259 323
#     4  10  21  36  52  74 101 132 176 221 266 295
#
# _framework density 21.215554999999998
#
# number of rings (size 3 to 8) (size 9 to 14) (size 15 to 20)
#    0.000    1.714    1.429    6.857    4.000    0.000 
#    0.000    0.000    0.000    0.000    0.000    0.000 
#    0.000   22.857    0.000    0.000    0.000    0.000 
#
# Total GULP energy -156019.583042 kJ/mol
# GULP energy per Si atom -5572.127966 kJ/mol
# Density = 2.116727 g / cm^3
# Si number density = 21.215555 Si / 1000 Ang^3
#
#
#
# Elastic Constant Matrix: (Units=GPa)
#
#
# Indices 1 2 3 4 5 6 
#
# 1 69.3991 6.6288 21.8851 0.0000 0.0000 0.0000
# 2 6.6288 16.7593 21.2965 0.0000 0.0000 0.0000
# 3 21.8851 21.2965 131.6036 0.0000 0.0000 0.0000
# 4 0.0000 0.0000 0.0000 17.2991 0.0000 0.0000
# 5 0.0000 0.0000 0.0000 0.0000 16.2107 0.0000
# 6 0.0000 0.0000 0.0000 0.0000 0.0000 6.7229
#
#
#
# Elastic Compliance Matrix: (Units=1/GPa)
#
#
# Indices 1 2 3 4 5 6 
#
# 1 0.015374 -0.003565 -0.001980 0.000000 0.000000 0.000000
# 2 -0.003565 0.075941 -0.011696 0.000000 0.000000 0.000000
# 3 -0.001980 -0.011696 0.009821 0.000000 0.000000 0.000000
# 4 0.000000 0.000000 0.000000 0.057806 0.000000 0.000000
# 5 0.000000 0.000000 0.000000 0.000000 0.061688 0.000000
# 6 0.000000 0.000000 0.000000 0.000000 0.000000 0.148745
#
#
# Mechanical properties :
#
#
# Convention : Reuss Voigt Hill
#
# Bulk Modulus (GPa) = 15.00294 35.26475 25.13384
# Shear Modulus (GPa) = 11.73502 19.24331 15.48917
#
# Velocity S-wave (km/s) = 2.35443 3.01497 2.70494
# Velocity P-wave (km/s) = 3.80501 5.36454 4.65061
#
# Compressibility (1/GPa) = 0.06665362
#
# Stress axis : x y z
#
# Youngs Moduli (GPa) = 65.04378 13.16809 101.82778
#
# Poissons Ratio (x) = 0.04695 0.20159
# Poissons Ratio (y) = 0.23190 1.19099
# Poissons Ratio (z) = 0.12877 0.15402
#
# Static dielectric constant tensor:
#      x y z
#    x 1.819330 0.000000 0.000000 
#    y 0.000000 1.784060 0.000000 
#    z 0.000000 0.000000 1.834280 
# 
# From -- ./inp_files/882.got.cif
#   From: 2010.05.17/outbox.cif.g08.bks.cpg/sg29_1_cif.got.tgz:882.got - 2010.06.04 01:19:37.
