data_PCOD9340198
_publ_section_title
;
Structure prediction by ZEFSAII (Michael W. Deem and Ramdas Pophale) SiO2 
 PCOD9340198
Probable space group: P C A 21
;
_chemical_formula_sum "Si O2"
_cell_formula_units_Z 32
_cell_length_a 17.528966
_cell_length_b 5.684964
_cell_length_c 13.245682
_cell_angle_alpha 90.000000
_cell_angle_beta 90.000000
_cell_angle_gamma 90.000000
_cell_volume 1319.952618
_symmetry_space_group_name_H-M "P C A 21"
_symmetry_group_IT_number 29
_symmetry_cell_setting 'orthorhombic'
loop_
_space_group_symop_operation_xyz
x,y,z
-x,-y,1/2+z
1/2-x,y,1/2+z
1/2+x,-y,z
loop_
_atom_site_type_symbol
_atom_site_label
_atom_site_fract_x
_atom_site_fract_y
_atom_site_fract_z
Si Si1 0.276234 0.089817 0.237260
Si Si2 0.929370 0.860275 0.112529
Si Si3 0.352720 0.359951 0.630118
Si Si4 0.823498 0.280188 0.802025
Si Si5 0.029922 0.645417 0.597391
Si Si6 0.288938 0.452128 0.416514
Si Si7 0.017790 0.883151 0.324188
Si Si8 0.946873 0.378305 0.338405
O O1 0.346375 0.141344 0.164703
O O2 0.196228 0.167560 0.188673
O O3 0.290795 0.226721 0.341930
O O4 0.256092 0.822919 0.260382
O O5 0.946944 0.613398 0.057884
O O6 0.989575 0.877422 0.206468
O O7 0.935885 0.110664 0.056053
O O8 0.357296 0.567004 0.711594
O O9 0.438861 0.316892 0.596685
O O10 0.301601 0.406901 0.532999
O O11 0.792627 0.431154 0.895060
O O12 0.891194 0.108369 0.831666
O O13 0.055839 0.628860 0.715807
O O14 0.363890 0.599987 0.386338
O O15 0.989533 0.626466 0.364120
O O16 0.982355 0.124883 0.366607
#
# Coordination Sequence:
#
# PCOD9340198 Si02
#       8
#     4   4   4   4   4   4   4   4
#     4  11  23  42  71  97 138 189 231 294 354 424
#     4  10  19  36  68  94 126 172 226 275 348 410
#     4  11  25  43  69 101 141 187 241 291 357 427
#     4  11  23  42  71  97 138 189 231 294 354 424
#     4  10  19  39  66  96 126 173 224 281 345 414
#     4  11  25  43  69 101 141 187 241 291 357 427
#     4  10  19  36  68  94 126 172 226 275 348 410
#     4  10  19  39  66  96 126 173 224 281 345 414
#
# _framework density 24.243296000000001
#
# number of rings (size 3 to 8) (size 9 to 14) (size 15 to 20)
#    0.000    1.500    5.000    3.000    3.500    1.000 
#    0.000    1.250    5.500    0.000    0.000    0.000 
#    0.000    0.000    0.000    0.000    0.000    0.000 
#
# Total GULP energy -178811.239572 kJ/mol
# GULP energy per Si atom -5587.851237 kJ/mol
# Density = 2.418812 g / cm^3
# Si number density = 24.243296 Si / 1000 Ang^3
#
#
#
# Elastic Constant Matrix: (Units=GPa)
#
#
# Indices 1 2 3 4 5 6 
#
# 1 103.8098 37.4866 18.9326 0.0000 0.0000 0.0000
# 2 37.4866 148.8743 11.2524 0.0000 0.0000 0.0000
# 3 18.9326 11.2524 70.1337 0.0000 0.0000 0.0000
# 4 0.0000 0.0000 0.0000 6.6798 0.0000 0.0000
# 5 0.0000 0.0000 0.0000 0.0000 27.0380 0.0000
# 6 0.0000 0.0000 0.0000 0.0000 0.0000 83.9315
#
#
#
# Elastic Compliance Matrix: (Units=1/GPa)
#
#
# Indices 1 2 3 4 5 6 
#
# 1 0.011034 -0.002585 -0.002564 0.000000 0.000000 0.000000
# 2 -0.002585 0.007405 -0.000490 0.000000 0.000000 0.000000
# 3 -0.002564 -0.000490 0.015029 0.000000 0.000000 0.000000
# 4 0.000000 0.000000 0.000000 0.149706 0.000000 0.000000
# 5 0.000000 0.000000 0.000000 0.000000 0.036985 0.000000
# 6 0.000000 0.000000 0.000000 0.000000 0.000000 0.011914
#
#
# Mechanical properties :
#
#
# Convention : Reuss Voigt Hill
#
# Bulk Modulus (GPa) = 45.06446 50.90677 47.98561
# Shear Modulus (GPa) = 19.94032 40.53960 30.23996
#
# Velocity S-wave (km/s) = 2.87105 4.09369 3.53562
# Velocity P-wave (km/s) = 5.44237 6.58698 6.04184
#
# Compressibility (1/GPa) = 0.02219044
#
# Stress axis : x y z
#
# Youngs Moduli (GPa) = 90.62969 135.04522 66.53670
#
# Poissons Ratio (x) = 0.34903 0.17060
# Poissons Ratio (y) = 0.23424 0.03263
# Poissons Ratio (z) = 0.23237 0.06622
#
# Static dielectric constant tensor:
#      x y z
#    x 1.886340 0.000000 0.000000 
#    y 0.000000 2.091920 0.000000 
#    z 0.000000 0.000000 1.946050 
# 
# From -- ./inp_files/4808.got.cif
#   From: 2010.05.17/outbox.cif.g08.bks.cpg/sg29_3_cif.got.tgz:4808.got - 2010.06.04 01:19:37.
