data_PCOD9340096
_publ_section_title
;
Structure prediction by ZEFSAII (Michael W. Deem and Ramdas Pophale) SiO2 
 PCOD9340096
Probable space group: P C A 21
;
_chemical_formula_sum "Si O2"
_cell_formula_units_Z 32
_cell_length_a 15.060153
_cell_length_b 8.042362
_cell_length_c 13.064375
_cell_angle_alpha 90.000000
_cell_angle_beta 90.000000
_cell_angle_gamma 90.000000
_cell_volume 1582.346677
_symmetry_space_group_name_H-M "P C A 21"
_symmetry_group_IT_number 29
_symmetry_cell_setting 'orthorhombic'
loop_
_space_group_symop_operation_xyz
x,y,z
-x,-y,1/2+z
1/2-x,y,1/2+z
1/2+x,-y,z
loop_
_atom_site_type_symbol
_atom_site_label
_atom_site_fract_x
_atom_site_fract_y
_atom_site_fract_z
Si Si1 0.402803 0.707592 0.573050
Si Si2 0.454671 0.670323 0.337538
Si Si3 0.193093 0.991039 0.170034
Si Si4 0.080228 0.371357 0.686827
Si Si5 0.707770 0.824197 0.974410
Si Si6 0.844423 0.700900 0.807583
Si Si7 0.266367 0.458693 0.617288
Si Si8 0.627098 0.989296 0.783479
O O1 0.421436 0.698671 0.453002
O O2 0.388221 0.878851 0.632994
O O3 0.484930 0.618623 0.630858
O O4 0.303654 0.635130 0.588053
O O5 0.416974 0.508314 0.278280
O O6 0.559873 0.642820 0.340509
O O7 0.433359 0.846589 0.281955
O O8 0.149635 0.140784 0.233270
O O9 0.276953 0.946091 0.241633
O O10 0.237174 0.051606 0.063644
O O11 0.162481 0.419906 0.613051
O O12 0.098442 0.180232 0.723571
O O13 0.784760 0.756923 0.901750
O O14 0.640469 0.918534 0.899152
O O15 0.679406 0.664714 0.041448
O O16 0.793882 0.571132 0.735033
#
# Coordination Sequence:
#
# PCOD9340096 Si02
#       8
#     4   4   4   4   4   4   4   4
#     4  12  25  41  66  98 131 169 227 274 320 397
#     4  12  25  41  65  99 129 171 222 274 321 398
#     4  10  21  41  67  94 127 169 216 271 330 393
#     4  12  24  44  66  97 134 176 218 268 338 388
#     4  10  18  40  68  89 116 179 210 252 340 381
#     4  10  21  41  65  88 129 167 216 264 326 393
#     4  11  22  42  65  88 134 171 213 271 329 386
#     4  11  22  42  68  93 132 170 214 272 334 386
#
# _framework density 20.223127999999999
#
# number of rings (size 3 to 8) (size 9 to 14) (size 15 to 20)
#    0.000    1.000    6.250    3.000    0.000    0.000 
#    0.000    0.000    5.500    0.000    0.000    0.000 
#    0.000    0.000    0.000    0.000    0.000    0.000 
#
# Total GULP energy -178201.293466 kJ/mol
# GULP energy per Si atom -5568.790421 kJ/mol
# Density = 2.017710 g / cm^3
# Si number density = 20.223128 Si / 1000 Ang^3
#
#
#
# Elastic Constant Matrix: (Units=GPa)
#
#
# Indices 1 2 3 4 5 6 
#
# 1 58.3419 15.1695 11.5544 0.0000 0.0000 0.0000
# 2 15.1695 51.0704 16.5281 0.0000 0.0000 0.0000
# 3 11.5544 16.5281 81.8530 0.0000 0.0000 0.0000
# 4 0.0000 0.0000 0.0000 16.2624 0.0000 0.0000
# 5 0.0000 0.0000 0.0000 0.0000 25.2009 0.0000
# 6 0.0000 0.0000 0.0000 0.0000 0.0000 30.6223
#
#
#
# Elastic Compliance Matrix: (Units=1/GPa)
#
#
# Indices 1 2 3 4 5 6 
#
# 1 0.018776 -0.005049 -0.001631 0.000000 0.000000 0.000000
# 2 -0.005049 0.022308 -0.003792 0.000000 0.000000 0.000000
# 3 -0.001631 -0.003792 0.013213 0.000000 0.000000 0.000000
# 4 0.000000 0.000000 0.000000 0.061491 0.000000 0.000000
# 5 0.000000 0.000000 0.000000 0.000000 0.039681 0.000000
# 6 0.000000 0.000000 0.000000 0.000000 0.000000 0.032656
#
#
# Mechanical properties :
#
#
# Convention : Reuss Voigt Hill
#
# Bulk Modulus (GPa) = 29.98232 30.86328 30.42280
# Shear Modulus (GPa) = 22.70800 24.28468 23.49634
#
# Velocity S-wave (km/s) = 3.35456 3.46907 3.41230
# Velocity P-wave (km/s) = 5.46462 5.59825 5.53184
#
# Compressibility (1/GPa) = 0.03335299
#
# Stress axis : x y z
#
# Youngs Moduli (GPa) = 53.25893 44.82753 75.68379
#
# Poissons Ratio (x) = 0.22635 0.12343
# Poissons Ratio (y) = 0.26892 0.28697
# Poissons Ratio (z) = 0.08686 0.16997
#
# Static dielectric constant tensor:
#      x y z
#    x 1.736270 0.000000 0.000000 
#    y 0.000000 1.801260 0.000000 
#    z 0.000000 0.000000 1.725910 
# 
# From -- ./inp_files/3477.got.cif
#   From: 2010.05.17/outbox.cif.g08.bks.cpg/sg29_2_cif.got.tgz:3477.got - 2010.06.04 01:19:37.
