data_PCOD9340704
_publ_section_title
;
Structure prediction by ZEFSAII (Michael W. Deem and Ramdas Pophale) SiO2 
 PCOD9340704
Probable space group: P C A 21
;
_chemical_formula_sum "Si O2"
_cell_formula_units_Z 32
_cell_length_a 10.364339
_cell_length_b 17.360333
_cell_length_c 7.728403
_cell_angle_alpha 90.000000
_cell_angle_beta 90.000000
_cell_angle_gamma 90.000000
_cell_volume 1390.559004
_symmetry_space_group_name_H-M "P C A 21"
_symmetry_group_IT_number 29
_symmetry_cell_setting 'orthorhombic'
loop_
_space_group_symop_operation_xyz
x,y,z
-x,-y,1/2+z
1/2-x,y,1/2+z
1/2+x,-y,z
loop_
_atom_site_type_symbol
_atom_site_label
_atom_site_fract_x
_atom_site_fract_y
_atom_site_fract_z
Si Si1 0.773947 0.906161 0.360870
Si Si2 0.045213 0.158688 0.568289
Si Si3 0.886747 0.043446 0.766037
Si Si4 0.899902 0.290049 0.709817
Si Si5 0.649700 0.457850 0.311969
Si Si6 0.893304 0.258885 0.118703
Si Si7 0.993950 0.096309 0.118692
Si Si8 0.065742 0.572688 0.704750
O O1 0.859480 0.858397 0.228839
O O2 0.637320 0.867634 0.412404
O O3 0.864161 0.904625 0.530506
O O4 0.739456 0.991412 0.291146
O O5 0.919930 0.104936 0.615460
O O6 0.000574 0.246106 0.588743
O O7 0.998607 0.979449 0.735810
O O8 0.903599 0.082036 0.951984
O O9 0.896223 0.382455 0.704476
O O10 0.920116 0.266576 0.911993
O O11 0.759080 0.262632 0.650401
O O12 0.605364 0.443845 0.507329
O O13 0.806086 0.457796 0.305712
O O14 0.567555 0.530532 0.248202
O O15 0.945843 0.334946 0.214620
O O16 0.947917 0.178429 0.187161
#
# Coordination Sequence:
#
# PCOD9340704 Si02
#       8
#     4   4   4   4   4   4   4   4
#     4  11  22  39  59  81 121 158 200 266 307 366
#     4  11  23  41  58  85 123 159 210 255 319 364
#     4  11  22  38  58  84 116 159 210 257 313 368
#     4  10  22  41  63  95 125 163 208 260 309 390
#     4  10  21  41  68  97 133 171 216 266 328 395
#     4  10  22  42  64  91 129 166 207 260 315 387
#     4  11  23  41  59  86 117 162 209 257 319 368
#     4  10  21  41  69  97 136 170 218 267 328 398
#
# _framework density 23.012328
#
# number of rings (size 3 to 8) (size 9 to 14) (size 15 to 20)
#    0.000    1.500    5.000    0.750    0.000    5.000 
#    2.250    1.250    0.000    0.000    0.000    0.000 
#    0.000    0.000    0.000    0.000    0.000    0.000 
#
# Total GULP energy -178722.069447 kJ/mol
# GULP energy per Si atom -5585.064670 kJ/mol
# Density = 2.295995 g / cm^3
# Si number density = 23.012328 Si / 1000 Ang^3
#
#
#
# Elastic Constant Matrix: (Units=GPa)
#
#
# Indices 1 2 3 4 5 6 
#
# 1 74.5018 36.0544 5.0660 0.0000 0.0000 0.0000
# 2 36.0544 107.2910 4.4905 0.0000 0.0000 0.0000
# 3 5.0660 4.4905 40.1871 0.0000 0.0000 0.0000
# 4 0.0000 0.0000 0.0000 25.0533 0.0000 0.0000
# 5 0.0000 0.0000 0.0000 0.0000 30.4260 0.0000
# 6 0.0000 0.0000 0.0000 0.0000 0.0000 47.4037
#
#
#
# Elastic Compliance Matrix: (Units=1/GPa)
#
#
# Indices 1 2 3 4 5 6 
#
# 1 0.016111 -0.005354 -0.001433 0.000000 0.000000 0.000000
# 2 -0.005354 0.011143 -0.000570 0.000000 0.000000 0.000000
# 3 -0.001433 -0.000570 0.025128 0.000000 0.000000 0.000000
# 4 0.000000 0.000000 0.000000 0.039915 0.000000 0.000000
# 5 0.000000 0.000000 0.000000 0.000000 0.032867 0.000000
# 6 0.000000 0.000000 0.000000 0.000000 0.000000 0.021095
#
#
# Mechanical properties :
#
#
# Convention : Reuss Voigt Hill
#
# Bulk Modulus (GPa) = 26.54740 34.80020 30.67380
# Shear Modulus (GPa) = 28.81358 32.33453 30.57406
#
# Velocity S-wave (km/s) = 3.54233 3.75253 3.64894
# Velocity P-wave (km/s) = 5.31903 5.82499 5.57775
#
# Compressibility (1/GPa) = 0.03766847
#
# Stress axis : x y z
#
# Youngs Moduli (GPa) = 62.06970 89.73854 39.79636
#
# Poissons Ratio (x) = 0.48046 0.05702
# Poissons Ratio (y) = 0.33232 0.02269
# Poissons Ratio (z) = 0.08893 0.05117
#
# Static dielectric constant tensor:
#      x y z
#    x 1.896120 0.000000 0.000000 
#    y 0.000000 1.859910 0.000000 
#    z 0.000000 0.000000 1.980890 
# 
# From -- ./inp_files/1551.got.cif
#   From: 2010.05.17/outbox.cif.g08.bks.cpg/sg29_1_cif.got.tgz:1551.got - 2010.06.04 01:19:37.
