data_PCOD9340219
_publ_section_title
;
Structure prediction by ZEFSAII (Michael W. Deem and Ramdas Pophale) SiO2 
 PCOD9340219
Probable space group: P C A 21
;
_chemical_formula_sum "Si O2"
_cell_formula_units_Z 28
_cell_length_a 15.963926
_cell_length_b 14.715733
_cell_length_c 5.336664
_cell_angle_alpha 90.000000
_cell_angle_beta 90.000000
_cell_angle_gamma 90.000000
_cell_volume 1253.693764
_symmetry_space_group_name_H-M "P C A 21"
_symmetry_group_IT_number 29
_symmetry_cell_setting 'orthorhombic'
loop_
_space_group_symop_operation_xyz
x,y,z
-x,-y,1/2+z
1/2-x,y,1/2+z
1/2+x,-y,z
loop_
_atom_site_type_symbol
_atom_site_label
_atom_site_fract_x
_atom_site_fract_y
_atom_site_fract_z
Si Si1 0.273114 0.022394 0.958090
Si Si2 0.535905 0.760183 0.040970
Si Si3 0.442194 0.503832 0.550325
Si Si4 0.947885 0.296979 0.542210
Si Si5 0.034993 0.959868 0.453186
Si Si6 0.793565 0.176708 0.460351
Si Si7 0.305764 0.341564 0.548961
O O1 0.248050 0.074232 0.709608
O O2 0.213107 0.932569 0.958735
O O3 0.366403 0.982306 0.953906
O O4 0.503430 0.712419 0.788969
O O5 0.635252 0.747831 0.046018
O O6 0.501585 0.712923 0.291157
O O7 0.496101 0.860233 0.032238
O O8 0.501485 0.499665 0.303350
O O9 0.403525 0.605372 0.544884
O O10 0.371784 0.426141 0.547798
O O11 0.882039 0.215243 0.537992
O O12 0.002566 0.977399 0.172999
O O13 0.730484 0.207291 0.680920
O O14 0.250815 0.345460 0.800578
#
# Coordination Sequence:
#
# PCOD9340219 Si02
#       7
#     4   4   4   4   4   4   4
#     4  10  19  38  62  92 129 164 203 272 351 402
#     4  12  24  45  71  97 132 186 233 288 340 425
#     4  12  23  44  68 104 143 185 231 283 344 410
#     4  12  22  40  73 101 136 180 231 271 349 434
#     4  12  26  45  69 103 136 179 236 289 355 430
#     4  10  20  33  56  94 131 161 206 263 331 402
#     4  12  26  45  69 101 143 189 240 290 338 399
#
# _framework density 22.334002999999999
#
# number of rings (size 3 to 8) (size 9 to 14) (size 15 to 20)
#    0.000    0.571    2.857    7.714    0.000    1.143 
#    0.000    4.286    0.000    0.000    0.000    0.000 
#    0.000    0.000    0.000    0.000    0.000    0.000 
#
# Total GULP energy -156620.112131 kJ/mol
# GULP energy per Si atom -5593.575433 kJ/mol
# Density = 2.228317 g / cm^3
# Si number density = 22.334003 Si / 1000 Ang^3
#
#
#
# Elastic Constant Matrix: (Units=GPa)
#
#
# Indices 1 2 3 4 5 6 
#
# 1 102.1578 -0.1801 56.3050 0.0000 0.0000 0.0000
# 2 -0.1801 40.5530 -6.3363 0.0000 0.0000 0.0000
# 3 56.3050 -6.3363 165.8381 0.0000 0.0000 0.0000
# 4 0.0000 0.0000 0.0000 109.0516 0.0000 0.0000
# 5 0.0000 0.0000 0.0000 0.0000 94.0823 0.0000
# 6 0.0000 0.0000 0.0000 0.0000 0.0000 26.6947
#
#
#
# Elastic Compliance Matrix: (Units=1/GPa)
#
#
# Indices 1 2 3 4 5 6 
#
# 1 0.012056 -0.000590 -0.004116 0.000000 0.000000 0.000000
# 2 -0.000590 0.024836 0.001149 0.000000 0.000000 0.000000
# 3 -0.004116 0.001149 0.007471 0.000000 0.000000 0.000000
# 4 0.000000 0.000000 0.000000 0.009170 0.000000 0.000000
# 5 0.000000 0.000000 0.000000 0.000000 0.010629 0.000000
# 6 0.000000 0.000000 0.000000 0.000000 0.000000 0.037461
#
#
# Mechanical properties :
#
#
# Convention : Reuss Voigt Hill
#
# Bulk Modulus (GPa) = 26.84497 45.34735 36.09616
# Shear Modulus (GPa) = 41.27027 63.21640 52.24334
#
# Velocity S-wave (km/s) = 4.30335 5.32602 4.84176
# Velocity P-wave (km/s) = 6.06115 7.62694 6.88868
#
# Compressibility (1/GPa) = 0.03725093
#
# Stress axis : x y z
#
# Youngs Moduli (GPa) = 82.94482 40.26410 133.84594
#
# Poissons Ratio (x) = 0.02374 0.55089
# Poissons Ratio (y) = 0.04890 -0.15380
# Poissons Ratio (z) = 0.34139 -0.04627
#
# Static dielectric constant tensor:
#      x y z
#    x 1.817780 0.000000 0.000000 
#    y 0.000000 1.863250 0.000000 
#    z 0.000000 0.000000 1.891970 
# 
# From -- ./inp_files/235.got.cif
#   From: 2010.05.17/outbox.cif.g08.bks.cpg/sg29_1_cif.got.tgz:235.got - 2010.06.04 01:19:37.
