data_PCOD9340262
_publ_section_title
;
Structure prediction by ZEFSAII (Michael W. Deem and Ramdas Pophale) SiO2 
 PCOD9340262
Probable space group: P C A 21
;
_chemical_formula_sum "Si O2"
_cell_formula_units_Z 28
_cell_length_a 16.304850
_cell_length_b 6.370616
_cell_length_c 11.254604
_cell_angle_alpha 90.000000
_cell_angle_beta 90.000000
_cell_angle_gamma 90.000000
_cell_volume 1169.037532
_symmetry_space_group_name_H-M "P C A 21"
_symmetry_group_IT_number 29
_symmetry_cell_setting 'orthorhombic'
loop_
_space_group_symop_operation_xyz
x,y,z
-x,-y,1/2+z
1/2-x,y,1/2+z
1/2+x,-y,z
loop_
_atom_site_type_symbol
_atom_site_label
_atom_site_fract_x
_atom_site_fract_y
_atom_site_fract_z
Si Si1 0.590136 0.274943 0.404530
Si Si2 0.647116 0.362061 0.982194
Si Si3 0.377637 0.336584 0.067897
Si Si4 0.792912 0.679793 0.299119
Si Si5 0.391307 0.381419 0.708711
Si Si6 0.503763 0.876093 0.385951
Si Si7 0.743755 0.003755 0.467491
O O1 0.608396 0.432668 0.513588
O O2 0.586907 0.420794 0.290656
O O3 0.510837 0.125575 0.401716
O O4 0.667890 0.120732 0.405600
O O5 0.703949 0.492884 0.893665
O O6 0.580462 0.244782 0.902007
O O7 0.703307 0.176091 0.039048
O O8 0.608295 0.527102 0.075466
O O9 0.366430 0.350803 0.207330
O O10 0.448143 0.206750 0.003486
O O11 0.297794 0.194834 0.032800
O O12 0.702829 0.674962 0.239940
O O13 0.799807 0.898113 0.367694
O O14 0.449736 0.200096 0.764698
#
# Coordination Sequence:
#
# PCOD9340262 Si02
#       7
#     4   4   4   4   4   4   4
#     4  10  19  45  67  95 133 184 228 281 357 414
#     4  12  28  42  71 111 139 186 237 292 358 424
#     4  10  23  42  72  93 139 182 230 294 349 417
#     4  12  23  42  71 105 134 183 233 297 344 424
#     4  11  23  44  71  98 145 185 232 295 350 417
#     4  10  25  47  66 102 140 189 230 291 366 416
#     4  11  21  40  66 108 132 175 238 280 352 422
#
# _framework density 23.951329999999999
#
# number of rings (size 3 to 8) (size 9 to 14) (size 15 to 20)
#    0.000    1.143    5.714    1.714    4.000    5.714 
#    2.571    0.000    0.000    0.000    0.000    0.000 
#    0.000    0.000    0.000    0.000    0.000    0.000 
#
# Total GULP energy -156349.186010 kJ/mol
# GULP energy per Si atom -5583.899500 kJ/mol
# Density = 2.389682 g / cm^3
# Si number density = 23.951330 Si / 1000 Ang^3
#
#
#
# Elastic Constant Matrix: (Units=GPa)
#
#
# Indices 1 2 3 4 5 6 
#
# 1 49.5793 7.8884 -5.4813 0.0000 0.0000 0.0000
# 2 7.8884 108.2914 29.6009 0.0000 0.0000 0.0000
# 3 -5.4813 29.6009 44.0107 0.0000 0.0000 0.0000
# 4 0.0000 0.0000 0.0000 4.7680 0.0000 0.0000
# 5 0.0000 0.0000 0.0000 0.0000 21.0777 0.0000
# 6 0.0000 0.0000 0.0000 0.0000 0.0000 27.0756
#
#
#
# Elastic Compliance Matrix: (Units=1/GPa)
#
#
# Indices 1 2 3 4 5 6 
#
# 1 0.021106 -0.002764 0.004488 0.000000 0.000000 0.000000
# 2 -0.002764 0.011676 -0.008198 0.000000 0.000000 0.000000
# 3 0.004488 -0.008198 0.028794 0.000000 0.000000 0.000000
# 4 0.000000 0.000000 0.000000 0.209731 0.000000 0.000000
# 5 0.000000 0.000000 0.000000 0.000000 0.047443 0.000000
# 6 0.000000 0.000000 0.000000 0.000000 0.000000 0.036934
#
#
# Mechanical properties :
#
#
# Convention : Reuss Voigt Hill
#
# Bulk Modulus (GPa) = 20.56418 29.54413 25.05415
# Shear Modulus (GPa) = 12.99234 21.90916 17.45075
#
# Velocity S-wave (km/s) = 2.33158 3.02774 2.70217
# Velocity P-wave (km/s) = 3.98156 4.95831 4.49653
#
# Compressibility (1/GPa) = 0.04862825
#
# Stress axis : x y z
#
# Youngs Moduli (GPa) = 47.38073 85.64228 34.72909
#
# Poissons Ratio (x) = 0.23672 -0.15585
# Poissons Ratio (y) = 0.13096 0.28470
# Poissons Ratio (z) = -0.21263 0.70207
#
# Static dielectric constant tensor:
#      x y z
#    x 1.964850 0.000000 0.000000 
#    y 0.000000 1.947660 0.000000 
#    z 0.000000 0.000000 1.937710 
# 
# From -- ./inp_files/3590.got.cif
#   From: 2010.05.17/outbox.cif.g08.bks.cpg/sg29_2_cif.got.tgz:3590.got - 2010.06.04 01:19:37.
