data_PCOD9340161
_publ_section_title
;
Structure prediction by ZEFSAII (Michael W. Deem and Ramdas Pophale) SiO2 
 PCOD9340161
Probable space group: P C A 21
;
_chemical_formula_sum "Si O2"
_cell_formula_units_Z 28
_cell_length_a 7.490034
_cell_length_b 12.459970
_cell_length_c 12.907710
_cell_angle_alpha 90.000000
_cell_angle_beta 90.000000
_cell_angle_gamma 90.000000
_cell_volume 1204.619767
_symmetry_space_group_name_H-M "P C A 21"
_symmetry_group_IT_number 29
_symmetry_cell_setting 'orthorhombic'
loop_
_space_group_symop_operation_xyz
x,y,z
-x,-y,1/2+z
1/2-x,y,1/2+z
1/2+x,-y,z
loop_
_atom_site_type_symbol
_atom_site_label
_atom_site_fract_x
_atom_site_fract_y
_atom_site_fract_z
Si Si1 0.561611 0.628243 0.586980
Si Si2 0.250000 0.542463 0.718310
Si Si3 0.561611 0.628243 0.349641
Si Si4 0.620966 0.096393 0.353354
Si Si5 0.028888 0.141894 0.636946
Si Si6 0.379034 0.903606 0.083267
Si Si7 0.528888 0.858106 0.299675
O O1 0.404748 0.614652 0.671377
O O2 0.696627 0.536891 0.624725
O O3 0.507158 0.610538 0.468310
O O4 0.622628 0.750671 0.598745
O O5 0.303373 0.463110 0.811896
O O6 0.095252 0.614652 0.765244
O O7 0.622628 0.750671 0.337876
O O8 0.499504 0.140082 0.260633
O O9 0.555367 0.120686 0.468310
O O10 0.824518 0.137109 0.342177
O O11 0.621644 0.967739 0.335493
O O12 0.824518 0.137109 0.594444
O O13 0.121643 0.032261 0.601128
O O14 0.500496 0.859918 0.175988
#
# Coordination Sequence:
#
# PCOD9340161 Si02
#       7
#     4   4   4   4   4   4   4
#     4  11  22  42  63  86 118 155 193 247 297 341
#     4  10  24  40  62  90 114 148 204 246 292 354
#     4  11  22  42  63  86 118 155 193 247 297 341
#     4  10  19  35  54  81 115 150 185 230 277 337
#     4  10  22  35  56  84 114 149 191 227 280 348
#     4  10  19  35  54  81 115 150 185 230 277 337
#     4  10  22  35  56  84 114 149 191 227 280 348
#
# _framework density 23.243849000000001
#
# number of rings (size 3 to 8) (size 9 to 14) (size 15 to 20)
#    0.000    1.714    0.000    5.143    0.000    4.571 
#    0.000   10.000    0.000    0.000    0.000    0.000 
#    0.000    0.000    0.000    0.000    0.000    0.000 
#
# Total GULP energy -156676.464448 kJ/mol
# GULP energy per Si atom -5595.588016 kJ/mol
# Density = 2.319094 g / cm^3
# Si number density = 23.243849 Si / 1000 Ang^3
#
#
#
# Elastic Constant Matrix: (Units=GPa)
#
#
# Indices 1 2 3 4 5 6 
#
# 1 20.9603 1.0490 -9.5967 0.0000 0.0000 0.0000
# 2 1.0490 102.7173 19.6523 0.0000 0.0000 0.0000
# 3 -9.5967 19.6523 167.8109 0.0000 0.0000 0.0000
# 4 0.0000 0.0000 0.0000 5.2586 0.0000 0.0000
# 5 0.0000 0.0000 0.0000 0.0000 16.8871 0.0000
# 6 0.0000 0.0000 0.0000 0.0000 0.0000 28.9360
#
#
#
# Elastic Compliance Matrix: (Units=1/GPa)
#
#
# Indices 1 2 3 4 5 6 
#
# 1 0.049105 -0.001063 0.002933 0.000000 0.000000 0.000000
# 2 -0.001063 0.009982 -0.001230 0.000000 0.000000 0.000000
# 3 0.002933 -0.001230 0.006271 0.000000 0.000000 0.000000
# 4 0.000000 0.000000 0.000000 0.190163 0.000000 0.000000
# 5 0.000000 0.000000 0.000000 0.000000 0.059217 0.000000
# 6 0.000000 0.000000 0.000000 0.000000 0.000000 0.034559
#
#
# Mechanical properties :
#
#
# Convention : Reuss Voigt Hill
#
# Bulk Modulus (GPa) = 15.00641 34.85530 24.93085
# Shear Modulus (GPa) = 13.50518 28.90861 21.20689
#
# Velocity S-wave (km/s) = 2.41305 3.53045 3.02382
# Velocity P-wave (km/s) = 3.77278 5.62555 4.78961
#
# Compressibility (1/GPa) = 0.06663821
#
# Stress axis : x y z
#
# Youngs Moduli (GPa) = 20.36450 100.18456 159.46905
#
# Poissons Ratio (x) = 0.10645 -0.46766
# Poissons Ratio (y) = 0.02164 0.19610
# Poissons Ratio (z) = -0.05972 0.12320
#
# Static dielectric constant tensor:
#      x y z
#    x 1.897330 0.000000 0.000000 
#    y 0.000000 1.829810 0.000000 
#    z 0.000000 0.000000 1.852900 
# 
# From -- ./inp_files/2858.got.cif
#   From: 2010.05.17/outbox.cif.g08.bks.cpg/sg29_2_cif.got.tgz:2858.got - 2010.06.04 01:19:37.
