data_PCOD9340127
_publ_section_title
;
Structure prediction by ZEFSAII (Michael W. Deem and Ramdas Pophale) SiO2 
 PCOD9340127
Probable space group: P C A 21
;
_chemical_formula_sum "Si O2"
_cell_formula_units_Z 20
_cell_length_a 24.685701
_cell_length_b 6.831714
_cell_length_c 5.128070
_cell_angle_alpha 90.000000
_cell_angle_beta 90.000000
_cell_angle_gamma 90.000000
_cell_volume 864.826694
_symmetry_space_group_name_H-M "P C A 21"
_symmetry_group_IT_number 29
_symmetry_cell_setting 'orthorhombic'
loop_
_space_group_symop_operation_xyz
x,y,z
-x,-y,1/2+z
1/2-x,y,1/2+z
1/2+x,-y,z
loop_
_atom_site_type_symbol
_atom_site_label
_atom_site_fract_x
_atom_site_fract_y
_atom_site_fract_z
Si Si1 0.499642 0.864982 0.199350
Si Si2 0.727030 0.713992 0.443701
Si Si3 0.614468 0.860273 0.308107
Si Si4 0.773272 0.270150 0.111596
Si Si5 0.114864 0.867851 0.808385
O O1 0.556783 0.758604 0.248538
O O2 0.443095 0.761206 0.269232
O O3 0.501153 0.046934 0.407379
O O4 0.731216 0.802493 0.733907
O O5 0.668030 0.729286 0.316219
O O6 0.740481 0.491987 0.527612
O O7 0.612488 0.961236 0.590762
O O8 0.618668 0.029846 0.088985
O O9 0.731973 0.180812 0.323012
O O10 0.832451 0.256419 0.236177
#
# Coordination Sequence:
#
# PCOD9340127 Si02
#       5
#     4   4   4   4   4
#     4   8  16  30  48  72  98 124 156 204 258 292
#     4  10  21  35  50  71 103 137 165 203 256 303
#     4  10  19  32  53  76  99 129 169 212 251 301
#     4  10  21  35  50  71 103 137 165 203 256 303
#     4  10  19  32  53  76  99 129 169 212 251 301
#
# _framework density 23.126021999999999
#
# number of rings (size 3 to 8) (size 9 to 14) (size 15 to 20)
#    0.000    2.400    0.000    2.400    0.000    4.800 
#    0.000    0.000    0.000   21.600    0.000    0.000 
#    0.000    0.000    0.000    0.000    0.000    0.000 
#
# Total GULP energy -111455.668828 kJ/mol
# GULP energy per Si atom -5572.783441 kJ/mol
# Density = 2.307339 g / cm^3
# Si number density = 23.126022 Si / 1000 Ang^3
#
#
#
# Elastic Constant Matrix: (Units=GPa)
#
#
# Indices 1 2 3 4 5 6 
#
# 1 192.1312 -8.1672 48.7075 0.0000 0.0000 0.0000
# 2 -8.1672 16.5185 14.0163 0.0000 0.0000 0.0000
# 3 48.7075 14.0163 153.3009 0.0000 0.0000 0.0000
# 4 0.0000 0.0000 0.0000 12.2930 0.0000 0.0000
# 5 0.0000 0.0000 0.0000 0.0000 38.8605 0.0000
# 6 0.0000 0.0000 0.0000 0.0000 0.0000 10.0692
#
#
#
# Elastic Compliance Matrix: (Units=1/GPa)
#
#
# Indices 1 2 3 4 5 6 
#
# 1 0.006017 0.004984 -0.002367 0.000000 0.000000 0.000000
# 2 0.004984 0.069757 -0.007961 0.000000 0.000000 0.000000
# 3 -0.002367 -0.007961 0.008003 0.000000 0.000000 0.000000
# 4 0.000000 0.000000 0.000000 0.081347 0.000000 0.000000
# 5 0.000000 0.000000 0.000000 0.000000 0.025733 0.000000
# 6 0.000000 0.000000 0.000000 0.000000 0.000000 0.099313
#
#
# Mechanical properties :
#
#
# Convention : Reuss Voigt Hill
#
# Bulk Modulus (GPa) = 13.68228 52.34042 33.01135
# Shear Modulus (GPa) = 15.37404 32.73746 24.05575
#
# Velocity S-wave (km/s) = 2.58116 3.76654 3.22872
# Velocity P-wave (km/s) = 3.84869 6.44962 5.31084
#
# Compressibility (1/GPa) = 0.07308723
#
# Stress axis : x y z
#
# Youngs Moduli (GPa) = 166.20217 14.33539 124.95032
#
# Poissons Ratio (x) = -0.07144 0.29580
# Poissons Ratio (y) = -0.82828 0.99477
# Poissons Ratio (z) = 0.39345 0.11413
#
# Static dielectric constant tensor:
#      x y z
#    x 1.958550 0.000000 0.000000 
#    y 0.000000 1.953810 0.000000 
#    z 0.000000 0.000000 1.988060 
# 
# From -- ./inp_files/503.got.cif
#   From: 2010.05.17/outbox.cif.g08.bks.cpg/sg29_1_cif.got.tgz:503.got - 2010.06.04 01:19:37.
