data_PCOD9340402
_publ_section_title
;
Structure prediction by ZEFSAII (Michael W. Deem and Ramdas Pophale) SiO2 
 PCOD9340402
Probable space group: P C A 21
;
_chemical_formula_sum "Si O2"
_cell_formula_units_Z 28
_cell_length_a 20.158007
_cell_length_b 8.381169
_cell_length_c 7.223609
_cell_angle_alpha 90.000000
_cell_angle_beta 90.000000
_cell_angle_gamma 90.000000
_cell_volume 1220.411862
_symmetry_space_group_name_H-M "P C A 21"
_symmetry_group_IT_number 29
_symmetry_cell_setting 'orthorhombic'
loop_
_space_group_symop_operation_xyz
x,y,z
-x,-y,1/2+z
1/2-x,y,1/2+z
1/2+x,-y,z
loop_
_atom_site_type_symbol
_atom_site_label
_atom_site_fract_x
_atom_site_fract_y
_atom_site_fract_z
Si Si1 0.804924 0.488521 0.386640
Si Si2 0.387337 0.906474 0.126920
Si Si3 0.374914 0.210812 0.297889
Si Si4 0.949351 0.657984 0.947671
Si Si5 0.657104 0.403174 0.467787
Si Si6 0.907502 0.266246 0.516695
Si Si7 0.544128 0.934351 0.137183
O O1 0.821917 0.675387 0.396095
O O2 0.727804 0.451008 0.387379
O O3 0.832968 0.447602 0.184015
O O4 0.844901 0.383443 0.538483
O O5 0.357664 0.785002 0.978567
O O6 0.389307 0.821563 0.325824
O O7 0.465429 0.941616 0.095886
O O8 0.347136 0.067666 0.169113
O O9 0.420198 0.140222 0.459369
O O10 0.421827 0.298282 0.149980
O O11 0.943788 0.808463 0.805244
O O12 0.027390 0.628102 0.973634
O O13 0.905159 0.505277 0.891724
O O14 0.929094 0.117361 0.647381
#
# Coordination Sequence:
#
# PCOD9340402 Si02
#       7
#     4   4   4   4   4   4   4
#     4  10  23  43  59  90 131 172 218 276 329 402
#     4   9  19  39  63  92 127 166 215 274 332 397
#     4  10  21  39  63  91 128 165 210 279 331 387
#     4  10  21  39  63  95 126 164 213 276 332 395
#     4  10  23  43  59  89 134 170 221 274 328 407
#     4   9  19  39  64  92 129 160 217 273 333 397
#     4  10  20  38  67  97 123 163 216 274 335 411
#
# _framework density 22.943075
#
# number of rings (size 3 to 8) (size 9 to 14) (size 15 to 20)
#    0.000    2.286    1.429    0.000    4.000    0.000 
#    7.714    2.857    0.000    0.000    0.000    0.000 
#    0.000    0.000    0.000    0.000    0.000    0.000 
#
# Total GULP energy -156163.838901 kJ/mol
# GULP energy per Si atom -5577.279961 kJ/mol
# Density = 2.289086 g / cm^3
# Si number density = 22.943075 Si / 1000 Ang^3
#
#
#
# Elastic Constant Matrix: (Units=GPa)
#
#
# Indices 1 2 3 4 5 6 
#
# 1 98.1878 79.6006 10.7724 0.0000 0.0000 0.0000
# 2 79.6006 136.4781 21.2315 0.0000 0.0000 0.0000
# 3 10.7724 21.2315 52.8483 0.0000 0.0000 0.0000
# 4 0.0000 0.0000 0.0000 32.7369 0.0000 0.0000
# 5 0.0000 0.0000 0.0000 0.0000 31.1705 0.0000
# 6 0.0000 0.0000 0.0000 0.0000 0.0000 16.3182
#
#
#
# Elastic Compliance Matrix: (Units=1/GPa)
#
#
# Indices 1 2 3 4 5 6 
#
# 1 0.019339 -0.011377 0.000629 0.000000 0.000000 0.000000
# 2 -0.011377 0.014509 -0.003510 0.000000 0.000000 0.000000
# 3 0.000629 -0.003510 0.020204 0.000000 0.000000 0.000000
# 4 0.000000 0.000000 0.000000 0.030547 0.000000 0.000000
# 5 0.000000 0.000000 0.000000 0.000000 0.032082 0.000000
# 6 0.000000 0.000000 0.000000 0.000000 0.000000 0.061281
#
#
# Mechanical properties :
#
#
# Convention : Reuss Voigt Hill
#
# Bulk Modulus (GPa) = 39.16135 56.74703 47.95419
# Shear Modulus (GPa) = 23.25687 27.77243 25.51465
#
# Velocity S-wave (km/s) = 3.18728 3.48299 3.33841
# Velocity P-wave (km/s) = 5.53634 6.40019 5.98387
#
# Compressibility (1/GPa) = 0.02553538
#
# Stress axis : x y z
#
# Youngs Moduli (GPa) = 51.70845 68.92262 49.49523
#
# Poissons Ratio (x) = 0.78416 -0.03112
# Poissons Ratio (y) = 0.58831 0.17372
# Poissons Ratio (z) = -0.03251 0.24190
#
# Static dielectric constant tensor:
#      x y z
#    x 1.831900 0.000000 0.000000 
#    y 0.000000 1.998240 0.000000 
#    z 0.000000 0.000000 1.938240 
# 
# From -- ./inp_files/2116.got.cif
#   From: 2010.05.17/outbox.cif.g08.bks.cpg/sg29_2_cif.got.tgz:2116.got - 2010.06.04 01:19:37.
