data_PCOD9340148
_publ_section_title
;
Structure prediction by ZEFSAII (Michael W. Deem and Ramdas Pophale) SiO2 
 PCOD9340148
Probable space group: P C A 21
;
_chemical_formula_sum "Si O2"
_cell_formula_units_Z 28
_cell_length_a 9.930602
_cell_length_b 19.616268
_cell_length_c 5.036004
_cell_angle_alpha 90.000000
_cell_angle_beta 90.000000
_cell_angle_gamma 90.000000
_cell_volume 981.020379
_symmetry_space_group_name_H-M "P C A 21"
_symmetry_group_IT_number 29
_symmetry_cell_setting 'orthorhombic'
loop_
_space_group_symop_operation_xyz
x,y,z
-x,-y,1/2+z
1/2-x,y,1/2+z
1/2+x,-y,z
loop_
_atom_site_type_symbol
_atom_site_label
_atom_site_fract_x
_atom_site_fract_y
_atom_site_fract_z
Si Si1 0.172594 0.375475 0.286090
Si Si2 0.057632 0.515225 0.092962
Si Si3 0.846974 0.045372 0.705360
Si Si4 0.153242 0.810401 0.104090
Si Si5 0.156852 0.666342 0.215861
Si Si6 0.152231 0.097311 0.098013
Si Si7 0.150581 0.241918 0.123085
O O1 0.199492 0.365635 0.593600
O O2 0.134913 0.452557 0.230400
O O3 0.078766 0.314710 0.171645
O O4 0.091536 0.592826 0.159853
O O5 0.927416 0.499176 0.280467
O O6 0.775272 0.045829 0.990511
O O7 0.920511 0.117504 0.655774
O O8 0.922407 0.974202 0.647325
O O9 0.224406 0.810090 0.818651
O O10 0.419976 0.738212 0.659784
O O11 0.219575 0.667764 0.507189
O O12 0.227699 0.096130 0.816425
O O13 0.423241 0.169357 0.637904
O O14 0.261972 0.240836 0.357053
#
# Coordination Sequence:
#
# PCOD9340148 Si02
#       7
#     4   4   4   4   4   4   4
#     4  10  19  34  53  70  91 123 159 189 225 276
#     4  12  24  36  50  72  98 120 150 194 240 278
#     4   8  12  18  29  49  79 109 133 165 213 257
#     4   8  14  23  38  59  81 109 145 179 211 257
#     4  10  19  34  53  70  91 123 159 189 225 276
#     4   8  12  18  29  49  79 109 133 165 213 257
#     4   8  14  23  38  59  81 109 145 179 211 257
#
# _framework density 28.541710999999999
#
# number of rings (size 3 to 8) (size 9 to 14) (size 15 to 20)
#    0.000    2.857    0.000    2.571    0.000    0.000 
#    0.000    0.000    0.000    0.000    0.000    0.000 
#    0.000    2.286    0.000    0.000    0.000   18.286 
#
# Total GULP energy -156519.788888 kJ/mol
# GULP energy per Si atom -5589.992460 kJ/mol
# Density = 2.847675 g / cm^3
# Si number density = 28.541711 Si / 1000 Ang^3
#
#
#
# Elastic Constant Matrix: (Units=GPa)
#
#
# Indices 1 2 3 4 5 6 
#
# 1 55.5410 32.1493 32.0301 0.0000 0.0000 0.0000
# 2 32.1493 314.6140 1.0719 0.0000 0.0000 0.0000
# 3 32.0301 1.0719 166.0249 0.0000 0.0000 0.0000
# 4 0.0000 0.0000 0.0000 26.7254 0.0000 0.0000
# 5 0.0000 0.0000 0.0000 0.0000 24.3255 0.0000
# 6 0.0000 0.0000 0.0000 0.0000 0.0000 19.5261
#
#
#
# Elastic Compliance Matrix: (Units=1/GPa)
#
#
# Indices 1 2 3 4 5 6 
#
# 1 0.021683 -0.002202 -0.004169 0.000000 0.000000 0.000000
# 2 -0.002202 0.003402 0.000403 0.000000 0.000000 0.000000
# 3 -0.004169 0.000403 0.006825 0.000000 0.000000 0.000000
# 4 0.000000 0.000000 0.000000 0.037418 0.000000 0.000000
# 5 0.000000 0.000000 0.000000 0.000000 0.041109 0.000000
# 6 0.000000 0.000000 0.000000 0.000000 0.000000 0.051214
#
#
# Mechanical properties :
#
#
# Convention : Reuss Voigt Hill
#
# Bulk Modulus (GPa) = 50.06327 74.07584 62.06955
# Shear Modulus (GPa) = 27.74012 45.51063 36.62537
#
# Velocity S-wave (km/s) = 3.12094 3.99749 3.58610
# Velocity P-wave (km/s) = 5.52860 6.87869 6.24027
#
# Compressibility (1/GPa) = 0.01997473
#
# Stress axis : x y z
#
# Youngs Moduli (GPa) = 46.11845 293.93677 146.52242
#
# Poissons Ratio (x) = 0.64711 0.61085
# Poissons Ratio (y) = 0.10153 -0.05901
# Poissons Ratio (z) = 0.19227 -0.11839
#
# Static dielectric constant tensor:
#      x y z
#    x 2.281320 0.000000 0.000000 
#    y 0.000000 2.403460 0.000000 
#    z 0.000000 0.000000 2.397670 
# 
# From -- ./inp_files/108.got.cif
#   From: 2010.05.17/outbox.cif.g08.bks.cpg/sg29_1_cif.got.tgz:108.got - 2010.06.04 01:19:37.
