data_PCOD9340423
_publ_section_title
;
Structure prediction by ZEFSAII (Michael W. Deem and Ramdas Pophale) SiO2 
 PCOD9340423
Probable space group: P C A 21
;
_chemical_formula_sum "Si O2"
_cell_formula_units_Z 28
_cell_length_a 26.785515
_cell_length_b 5.324747
_cell_length_c 8.090826
_cell_angle_alpha 90.000000
_cell_angle_beta 90.000000
_cell_angle_gamma 90.000000
_cell_volume 1153.962882
_symmetry_space_group_name_H-M "P C A 21"
_symmetry_group_IT_number 29
_symmetry_cell_setting 'orthorhombic'
loop_
_space_group_symop_operation_xyz
x,y,z
-x,-y,1/2+z
1/2-x,y,1/2+z
1/2+x,-y,z
loop_
_atom_site_type_symbol
_atom_site_label
_atom_site_fract_x
_atom_site_fract_y
_atom_site_fract_z
Si Si1 0.227565 0.588426 0.208890
Si Si2 0.591279 0.241135 0.457260
Si Si3 0.021221 0.267665 0.929702
Si Si4 0.860207 0.739509 0.098824
Si Si5 0.726256 0.055563 0.472849
Si Si6 0.692028 0.712921 0.919895
Si Si7 0.955983 0.236704 0.614699
O O1 0.260607 0.413581 0.326153
O O2 0.270793 0.731109 0.108540
O O3 0.203336 0.812726 0.313676
O O4 0.190625 0.431876 0.093309
O O5 0.534062 0.281396 0.510383
O O6 0.621437 0.483473 0.517893
O O7 0.586180 0.227056 0.257532
O O8 0.608895 0.980528 0.537119
O O9 0.047043 0.519676 0.997418
O O10 0.044286 0.012702 0.003057
O O11 0.006119 0.251470 0.734487
O O12 0.805358 0.825037 0.037603
O O13 0.854392 0.713398 0.296894
O O14 0.784480 0.987198 0.447286
#
# Coordination Sequence:
#
# PCOD9340423 Si02
#       7
#     4   4   4   4   4   4   4
#     4  10  21  36  56  88 113 150 250 257 302 370
#     4  10  25  38  66 100 125 158 211 250 344 374
#     4  10  20  39  70  97 124 163 207 250 297 402
#     4  12  22  40  62  90 132 166 203 281 316 368
#     4  11  21  36  61  86 114 174 221 265 307 375
#     4  11  21  36  61  86 114 174 221 265 307 375
#     4  10  20  39  70  97 124 163 207 250 297 402
#
# _framework density 24.264211
#
# number of rings (size 3 to 8) (size 9 to 14) (size 15 to 20)
#    0.857    0.571    2.857    3.429    4.000    0.000 
#    0.000    0.000   12.571    0.000    0.000    0.000 
#    0.000    0.000    0.000    0.000    0.000    0.000 
#
# Total GULP energy -156338.451787 kJ/mol
# GULP energy per Si atom -5583.516135 kJ/mol
# Density = 2.420898 g / cm^3
# Si number density = 24.264211 Si / 1000 Ang^3
#
#
#
# Elastic Constant Matrix: (Units=GPa)
#
#
# Indices 1 2 3 4 5 6 
#
# 1 31.8860 12.8566 -3.0134 0.0000 0.0000 0.0000
# 2 12.8566 148.8471 44.7669 0.0000 0.0000 0.0000
# 3 -3.0134 44.7669 87.5330 0.0000 0.0000 0.0000
# 4 0.0000 0.0000 0.0000 54.5788 0.0000 0.0000
# 5 0.0000 0.0000 0.0000 0.0000 42.6527 0.0000
# 6 0.0000 0.0000 0.0000 0.0000 0.0000 31.2220
#
#
#
# Elastic Compliance Matrix: (Units=1/GPa)
#
#
# Indices 1 2 3 4 5 6 
#
# 1 0.033182 -0.003793 0.003082 0.000000 0.000000 0.000000
# 2 -0.003793 0.008373 -0.004413 0.000000 0.000000 0.000000
# 3 0.003082 -0.004413 0.013787 0.000000 0.000000 0.000000
# 4 0.000000 0.000000 0.000000 0.018322 0.000000 0.000000
# 5 0.000000 0.000000 0.000000 0.000000 0.023445 0.000000
# 6 0.000000 0.000000 0.000000 0.000000 0.000000 0.032029
#
#
# Mechanical properties :
#
#
# Convention : Reuss Voigt Hill
#
# Bulk Modulus (GPa) = 22.17523 41.94292 32.05907
# Shear Modulus (GPa) = 32.37965 39.93445 36.15705
#
# Velocity S-wave (km/s) = 3.65699 4.06127 3.86442
# Velocity P-wave (km/s) = 5.19522 6.27019 5.75785
#
# Compressibility (1/GPa) = 0.04509537
#
# Stress axis : x y z
#
# Youngs Moduli (GPa) = 30.13640 119.42973 72.53095
#
# Poissons Ratio (x) = 0.45301 -0.22356
# Poissons Ratio (y) = 0.11431 0.32007
# Poissons Ratio (z) = -0.09289 0.52702
#
# Static dielectric constant tensor:
#      x y z
#    x 2.009060 0.000000 0.000000 
#    y 0.000000 1.874930 0.000000 
#    z 0.000000 0.000000 1.988410 
# 
# From -- ./inp_files/2578.got.cif
#   From: 2010.05.17/outbox.cif.g08.bks.cpg/sg29_2_cif.got.tgz:2578.got - 2010.06.04 01:19:37.
