data_PCOD9340505
_publ_section_title
;
Structure prediction by ZEFSAII (Michael W. Deem and Ramdas Pophale) SiO2 
 PCOD9340505
Probable space group: P C A 21
;
_chemical_formula_sum "Si O2"
_cell_formula_units_Z 32
_cell_length_a 29.350992
_cell_length_b 5.702702
_cell_length_c 7.638115
_cell_angle_alpha 90.000000
_cell_angle_beta 90.000000
_cell_angle_gamma 90.000000
_cell_volume 1278.467389
_symmetry_space_group_name_H-M "P C A 21"
_symmetry_group_IT_number 29
_symmetry_cell_setting 'orthorhombic'
loop_
_space_group_symop_operation_xyz
x,y,z
-x,-y,1/2+z
1/2-x,y,1/2+z
1/2+x,-y,z
loop_
_atom_site_type_symbol
_atom_site_label
_atom_site_fract_x
_atom_site_fract_y
_atom_site_fract_z
Si Si1 0.813366 0.817163 0.551500
Si Si2 0.414765 0.604001 0.255991
Si Si3 0.147578 0.865056 0.313411
Si Si4 0.100395 0.472413 0.134151
Si Si5 0.446516 0.078848 0.696120
Si Si6 0.313150 0.670152 0.125142
Si Si7 0.956523 0.903265 0.277848
Si Si8 0.747078 0.570752 0.338413
O O1 0.863323 0.704369 0.542383
O O2 0.783761 0.776229 0.379938
O O3 0.785195 0.660240 0.686679
O O4 0.821190 0.062740 0.648021
O O5 0.415132 0.622460 0.468675
O O6 0.362507 0.596140 0.194201
O O7 0.438733 0.352700 0.213730
O O8 0.435515 0.855543 0.194783
O O9 0.129467 0.605255 0.278942
O O10 0.174717 0.886285 0.494709
O O11 0.100102 0.001936 0.291575
O O12 0.056578 0.358505 0.226697
O O13 0.446585 0.083773 0.485069
O O14 0.489527 0.935448 0.756457
O O15 0.277717 0.656406 0.286003
O O16 0.287128 0.494868 0.993688
#
# Coordination Sequence:
#
# PCOD9340505 Si02
#       8
#     4   4   4   4   4   4   4   4
#     4  10  21  41  63  91 134 179 225 295 361 427
#     4  11  25  45  70 103 145 189 238 295 367 436
#     4  11  23  41  68  97 134 187 235 297 370 436
#     4  10  20  44  67  92 135 179 229 292 356 428
#     4  10  25  43  69 102 141 183 239 297 363 437
#     4  11  24  41  70 103 138 186 238 303 371 433
#     4  11  26  45  72 106 144 190 241 302 360 445
#     4  10  22  42  65  98 139 173 241 301 356 452
#
# _framework density 25.029969999999999
#
# number of rings (size 3 to 8) (size 9 to 14) (size 15 to 20)
#    0.000    1.500    3.750    0.000    3.500    3.000 
#    0.000    2.500    0.000    0.000    0.000    0.000 
#    0.000    0.000    0.000    0.000    0.000    0.000 
#
# Total GULP energy -178371.272785 kJ/mol
# GULP energy per Si atom -5574.102275 kJ/mol
# Density = 2.497300 g / cm^3
# Si number density = 25.029970 Si / 1000 Ang^3
#
#
#
# Elastic Constant Matrix: (Units=GPa)
#
#
# Indices 1 2 3 4 5 6 
#
# 1 92.9012 33.9194 5.1010 0.0000 0.0000 0.0000
# 2 33.9194 88.5651 11.5833 0.0000 0.0000 0.0000
# 3 5.1010 11.5833 51.9450 0.0000 0.0000 0.0000
# 4 0.0000 0.0000 0.0000 22.5053 0.0000 0.0000
# 5 0.0000 0.0000 0.0000 0.0000 30.4939 0.0000
# 6 0.0000 0.0000 0.0000 0.0000 0.0000 29.7602
#
#
#
# Elastic Compliance Matrix: (Units=1/GPa)
#
#
# Indices 1 2 3 4 5 6 
#
# 1 0.012515 -0.004772 -0.000165 0.000000 0.000000 0.000000
# 2 -0.004772 0.013450 -0.002531 0.000000 0.000000 0.000000
# 3 -0.000165 -0.002531 0.019832 0.000000 0.000000 0.000000
# 4 0.000000 0.000000 0.000000 0.044434 0.000000 0.000000
# 5 0.000000 0.000000 0.000000 0.000000 0.032793 0.000000
# 6 0.000000 0.000000 0.000000 0.000000 0.000000 0.033602
#
#
# Mechanical properties :
#
#
# Convention : Reuss Voigt Hill
#
# Bulk Modulus (GPa) = 32.40210 37.17986 34.79098
# Shear Modulus (GPa) = 27.49551 28.73904 28.11728
#
# Velocity S-wave (km/s) = 3.31796 3.39216 3.35527
# Velocity P-wave (km/s) = 5.25851 5.49807 5.37962
#
# Compressibility (1/GPa) = 0.03086220
#
# Stress axis : x y z
#
# Youngs Moduli (GPa) = 79.90172 74.35172 50.42447
#
# Poissons Ratio (x) = 0.35478 0.00832
# Poissons Ratio (y) = 0.38126 0.12760
# Poissons Ratio (z) = 0.01318 0.18815
#
# Static dielectric constant tensor:
#      x y z
#    x 1.999020 0.000000 0.000000 
#    y 0.000000 2.190850 0.000000 
#    z 0.000000 0.000000 2.077080 
# 
# From -- ./inp_files/2605.got.cif
#   From: 2010.05.17/outbox.cif.g08.bks.cpg/sg29_2_cif.got.tgz:2605.got - 2010.06.04 01:19:37.
