data_PCOD9340885
_publ_section_title
;
Structure prediction by ZEFSAII (Michael W. Deem and Ramdas Pophale) SiO2 
 PCOD9340885
Probable space group: P C A 21
;
_chemical_formula_sum "Si O2"
_cell_formula_units_Z 20
_cell_length_a 13.397070
_cell_length_b 4.930715
_cell_length_c 11.483852
_cell_angle_alpha 90.000000
_cell_angle_beta 90.000000
_cell_angle_gamma 90.000000
_cell_volume 758.590350
_symmetry_space_group_name_H-M "P C A 21"
_symmetry_group_IT_number 29
_symmetry_cell_setting 'orthorhombic'
loop_
_space_group_symop_operation_xyz
x,y,z
-x,-y,1/2+z
1/2-x,y,1/2+z
1/2+x,-y,z
loop_
_atom_site_type_symbol
_atom_site_label
_atom_site_fract_x
_atom_site_fract_y
_atom_site_fract_z
Si Si1 0.786823 0.755480 0.401630
Si Si2 0.417594 0.750148 0.372253
Si Si3 0.703082 0.985826 0.160516
Si Si4 0.520993 0.907454 0.578742
Si Si5 0.620098 0.392967 0.634045
O O1 0.822957 0.445297 0.396529
O O2 0.883063 0.942503 0.382534
O O3 0.718949 0.841382 0.288475
O O4 0.767224 0.825639 0.538668
O O5 0.501562 0.719697 0.466262
O O6 0.448553 0.703065 0.242188
O O7 0.587314 0.064652 0.138563
O O8 0.771698 0.259479 0.157670
O O9 0.599455 0.710744 0.642361
O O10 0.572123 0.188505 0.540269
#
# Coordination Sequence:
#
# PCOD9340885 Si02
#       5
#     4   4   4   4   4
#     4  10  22  40  68  94 133 178 219 278 342 398
#     4  10  22  42  62  94 135 168 219 290 334 388
#     4  10  24  44  66 100 136 178 230 284 342 412
#     4  11  24  41  66  96 132 179 228 281 343 411
#     4  11  24  41  66  96 132 179 228 281 343 411
#
# _framework density 26.364688999999998
#
# number of rings (size 3 to 8) (size 9 to 14) (size 15 to 20)
#    0.000    1.600    0.000    4.800    0.000   17.600 
#    0.000    0.000    0.000    2.400    0.000    0.000 
#    0.000    0.000    0.000    0.000    0.000    0.000 
#
# Total GULP energy -111366.414595 kJ/mol
# GULP energy per Si atom -5568.320730 kJ/mol
# Density = 2.630468 g / cm^3
# Si number density = 26.364689 Si / 1000 Ang^3
#
#
#
# Elastic Constant Matrix: (Units=GPa)
#
#
# Indices 1 2 3 4 5 6 
#
# 1 99.5172 58.0073 20.4345 0.0000 0.0000 0.0000
# 2 58.0073 84.4881 17.3958 0.0000 0.0000 0.0000
# 3 20.4345 17.3958 114.6732 0.0000 0.0000 0.0000
# 4 0.0000 0.0000 0.0000 33.6083 0.0000 0.0000
# 5 0.0000 0.0000 0.0000 0.0000 28.2852 0.0000
# 6 0.0000 0.0000 0.0000 0.0000 0.0000 29.3555
#
#
#
# Elastic Compliance Matrix: (Units=1/GPa)
#
#
# Indices 1 2 3 4 5 6 
#
# 1 0.016937 -0.011362 -0.001295 0.000000 0.000000 0.000000
# 2 -0.011362 0.019840 -0.000985 0.000000 0.000000 0.000000
# 3 -0.001295 -0.000985 0.009101 0.000000 0.000000 0.000000
# 4 0.000000 0.000000 0.000000 0.029755 0.000000 0.000000
# 5 0.000000 0.000000 0.000000 0.000000 0.035354 0.000000
# 6 0.000000 0.000000 0.000000 0.000000 0.000000 0.034065
#
#
# Mechanical properties :
#
#
# Convention : Reuss Voigt Hill
#
# Bulk Modulus (GPa) = 53.78017 54.48375 54.13196
# Shear Modulus (GPa) = 28.00612 31.77253 29.88933
#
# Velocity S-wave (km/s) = 3.26277 3.47525 3.37068
# Velocity P-wave (km/s) = 5.88532 6.06740 5.97706
#
# Compressibility (1/GPa) = 0.01859421
#
# Stress axis : x y z
#
# Youngs Moduli (GPa) = 59.04189 50.40408 109.88366
#
# Poissons Ratio (x) = 0.57269 0.14225
# Poissons Ratio (y) = 0.67084 0.10823
# Poissons Ratio (z) = 0.07643 0.04965
#
# Static dielectric constant tensor:
#      x y z
#    x 2.056720 0.000000 0.000000 
#    y 0.000000 2.771510 0.000000 
#    z 0.000000 0.000000 2.367400 
# 
# From -- ./inp_files/3298.got.cif
#   From: 2010.05.17/outbox.cif.g08.bks.cpg/sg29_2_cif.got.tgz:3298.got - 2010.06.04 01:19:37.
