data_PCOD9340228
_publ_section_title
;
Structure prediction by ZEFSAII (Michael W. Deem and Ramdas Pophale) SiO2 
 PCOD9340228
Probable space group: P C A 21
;
_chemical_formula_sum "Si O2"
_cell_formula_units_Z 28
_cell_length_a 14.104307
_cell_length_b 7.294039
_cell_length_c 11.837164
_cell_angle_alpha 90.000000
_cell_angle_beta 90.000000
_cell_angle_gamma 90.000000
_cell_volume 1217.776245
_symmetry_space_group_name_H-M "P C A 21"
_symmetry_group_IT_number 29
_symmetry_cell_setting 'orthorhombic'
loop_
_space_group_symop_operation_xyz
x,y,z
-x,-y,1/2+z
1/2-x,y,1/2+z
1/2+x,-y,z
loop_
_atom_site_type_symbol
_atom_site_label
_atom_site_fract_x
_atom_site_fract_y
_atom_site_fract_z
Si Si1 0.182434 0.875403 0.074520
Si Si2 0.101358 0.847246 0.536758
Si Si3 0.068437 0.588284 0.951639
Si Si4 0.049828 0.854727 0.286505
Si Si5 0.028339 0.276896 0.240673
Si Si6 0.408671 0.268585 0.107717
Si Si7 0.690801 0.687504 0.086758
O O1 0.290053 0.810082 0.068099
O O2 0.125471 0.777030 0.975227
O O3 0.131510 0.822776 0.192253
O O4 0.178510 0.095014 0.064026
O O5 0.074909 0.786530 0.410679
O O6 0.032491 0.763013 0.629287
O O7 0.091561 0.068285 0.548030
O O8 0.140907 0.430047 0.988837
O O9 0.979851 0.604471 0.037506
O O10 0.026740 0.595720 0.827112
O O11 0.954524 0.776449 0.229446
O O12 0.041991 0.075642 0.294229
O O13 0.129426 0.352097 0.199398
O O14 0.302071 0.342918 0.105576
#
# Coordination Sequence:
#
# PCOD9340228 Si02
#       7
#     4   4   4   4   4   4   4
#     4   9  22  40  70 103 130 182 235 268 360 422
#     4  10  19  38  70 104 137 180 232 279 349 429
#     4  11  22  45  69  95 142 174 227 299 345 416
#     4   9  18  38  68 100 139 181 225 293 347 419
#     4  10  22  40  63 102 138 175 235 290 347 424
#     4   9  20  42  66 104 133 183 236 283 355 428
#     4  10  23  45  64 100 137 181 234 288 347 424
#
# _framework density 22.992729000000001
#
# number of rings (size 3 to 8) (size 9 to 14) (size 15 to 20)
#    0.000    2.286    1.429    0.857    2.000    1.143 
#    7.714    1.429    0.000    0.000    0.000    0.000 
#    0.000    0.000    0.000    0.000    0.000    0.000 
#
# Total GULP energy -156711.963480 kJ/mol
# GULP energy per Si atom -5596.855839 kJ/mol
# Density = 2.294040 g / cm^3
# Si number density = 22.992729 Si / 1000 Ang^3
#
#
#
# Elastic Constant Matrix: (Units=GPa)
#
#
# Indices 1 2 3 4 5 6 
#
# 1 194.4108 37.7335 60.9613 0.0000 0.0000 0.0000
# 2 37.7335 79.2667 30.5270 0.0000 0.0000 0.0000
# 3 60.9613 30.5270 122.2322 0.0000 0.0000 0.0000
# 4 0.0000 0.0000 0.0000 26.9022 0.0000 0.0000
# 5 0.0000 0.0000 0.0000 0.0000 18.5830 0.0000
# 6 0.0000 0.0000 0.0000 0.0000 0.0000 19.9996
#
#
#
# Elastic Compliance Matrix: (Units=1/GPa)
#
#
# Indices 1 2 3 4 5 6 
#
# 1 0.006372 -0.002002 -0.002678 0.000000 0.000000 0.000000
# 2 -0.002002 0.014587 -0.002645 0.000000 0.000000 0.000000
# 3 -0.002678 -0.002645 0.010177 0.000000 0.000000 0.000000
# 4 0.000000 0.000000 0.000000 0.037172 0.000000 0.000000
# 5 0.000000 0.000000 0.000000 0.000000 0.053813 0.000000
# 6 0.000000 0.000000 0.000000 0.000000 0.000000 0.050001
#
#
# Mechanical properties :
#
#
# Convention : Reuss Voigt Hill
#
# Bulk Modulus (GPa) = 60.65285 72.70592 66.67939
# Shear Modulus (GPa) = 26.00554 30.87614 28.44084
#
# Velocity S-wave (km/s) = 3.36673 3.66849 3.52084
# Velocity P-wave (km/s) = 6.44590 7.04512 6.75216
#
# Compressibility (1/GPa) = 0.01648727
#
# Stress axis : x y z
#
# Youngs Moduli (GPa) = 156.93561 68.55359 98.25857
#
# Poissons Ratio (x) = 0.13724 0.26313
# Poissons Ratio (y) = 0.31418 0.25986
# Poissons Ratio (z) = 0.42027 0.18130
#
# Static dielectric constant tensor:
#      x y z
#    x 1.855490 0.000000 0.000000 
#    y 0.000000 2.061760 0.000000 
#    z 0.000000 0.000000 1.823770 
# 
# From -- ./inp_files/3413.got.cif
#   From: 2010.05.17/outbox.cif.g08.bks.cpg/sg29_2_cif.got.tgz:3413.got - 2010.06.04 01:19:37.
