data_PCOD9340830
_publ_section_title
;
Structure prediction by ZEFSAII (Michael W. Deem and Ramdas Pophale) SiO2 
 PCOD9340830
Probable space group: P C A 21
;
_chemical_formula_sum "Si O2"
_cell_formula_units_Z 28
_cell_length_a 24.829877
_cell_length_b 9.986468
_cell_length_c 5.047527
_cell_angle_alpha 90.000000
_cell_angle_beta 90.000000
_cell_angle_gamma 90.000000
_cell_volume 1251.598787
_symmetry_space_group_name_H-M "P C A 21"
_symmetry_group_IT_number 29
_symmetry_cell_setting 'orthorhombic'
loop_
_space_group_symop_operation_xyz
x,y,z
-x,-y,1/2+z
1/2-x,y,1/2+z
1/2+x,-y,z
loop_
_atom_site_type_symbol
_atom_site_label
_atom_site_fract_x
_atom_site_fract_y
_atom_site_fract_z
Si Si1 0.942643 0.036886 0.194240
Si Si2 0.886745 0.677274 0.774254
Si Si3 0.288154 0.510669 0.845962
Si Si4 0.215414 0.814919 0.395016
Si Si5 0.126854 0.013489 0.186851
Si Si6 0.492640 0.221154 0.043344
Si Si7 0.966308 0.480953 0.533654
O O1 0.893725 0.035210 0.402995
O O2 0.981548 0.155169 0.282481
O O3 0.918088 0.025582 0.904251
O O4 0.976057 0.899509 0.232729
O O5 0.836356 0.594000 0.882111
O O6 0.935743 0.708330 0.976306
O O7 0.915768 0.577855 0.563791
O O8 0.868544 0.824805 0.679620
O O9 0.257675 0.493012 0.567855
O O10 0.308283 0.665148 0.856380
O O11 0.232778 0.822241 0.700670
O O12 0.178295 0.934379 0.292914
O O13 0.536436 0.328469 0.139405
O O14 0.012679 0.533772 0.734451
#
# Coordination Sequence:
#
# PCOD9340830 Si02
#       7
#     4   4   4   4   4   4   4
#     4  11  23  39  62  94 133 175 212 266 313 383
#     4  10  23  42  64  97 127 166 209 264 312 378
#     4  10  24  44  65  91 125 163 209 261 326 385
#     4  10  22  44  67  92 124 164 213 271 326 389
#     4  11  24  40  66  96 128 167 221 264 325 379
#     4  10  22  42  62  94 135 175 216 261 319 383
#     4  10  22  39  60  90 130 170 208 253 311 377
#
# _framework density 22.371386000000001
#
# number of rings (size 3 to 8) (size 9 to 14) (size 15 to 20)
#    0.000    1.714    0.000    3.429    2.000    9.143 
#    5.143    0.000    0.000    0.000    0.000    0.000 
#    0.000    0.000    0.000    0.000    0.000    0.000 
#
# Total GULP energy -156321.232685 kJ/mol
# GULP energy per Si atom -5582.901167 kJ/mol
# Density = 2.232047 g / cm^3
# Si number density = 22.371386 Si / 1000 Ang^3
#
#
#
# Elastic Constant Matrix: (Units=GPa)
#
#
# Indices 1 2 3 4 5 6 
#
# 1 67.7188 61.8808 -11.4251 0.0000 0.0000 0.0000
# 2 61.8808 128.7061 -2.0072 0.0000 0.0000 0.0000
# 3 -11.4251 -2.0072 42.5612 0.0000 0.0000 0.0000
# 4 0.0000 0.0000 0.0000 29.6416 0.0000 0.0000
# 5 0.0000 0.0000 0.0000 0.0000 19.6399 0.0000
# 6 0.0000 0.0000 0.0000 0.0000 0.0000 41.8306
#
#
#
# Elastic Compliance Matrix: (Units=1/GPa)
#
#
# Indices 1 2 3 4 5 6 
#
# 1 0.028253 -0.013475 0.006949 0.000000 0.000000 0.000000
# 2 -0.013475 0.014203 -0.002948 0.000000 0.000000 0.000000
# 3 0.006949 -0.002948 0.025222 0.000000 0.000000 0.000000
# 4 0.000000 0.000000 0.000000 0.033736 0.000000 0.000000
# 5 0.000000 0.000000 0.000000 0.000000 0.050917 0.000000
# 6 0.000000 0.000000 0.000000 0.000000 0.000000 0.023906
#
#
# Mechanical properties :
#
#
# Convention : Reuss Voigt Hill
#
# Bulk Modulus (GPa) = 20.52168 37.32033 28.92100
# Shear Modulus (GPa) = 23.64871 30.92493 27.28682
#
# Velocity S-wave (km/s) = 3.25483 3.72202 3.49624
# Velocity P-wave (km/s) = 4.82890 5.93209 5.40869
#
# Compressibility (1/GPa) = 0.04872895
#
# Stress axis : x y z
#
# Youngs Moduli (GPa) = 35.39441 70.40987 39.64809
#
# Poissons Ratio (x) = 0.94880 -0.27550
# Poissons Ratio (y) = 0.47696 0.11686
# Poissons Ratio (z) = -0.24595 0.20754
#
# Static dielectric constant tensor:
#      x y z
#    x 1.822300 0.000000 0.000000 
#    y 0.000000 1.900180 0.000000 
#    z 0.000000 0.000000 1.851190 
# 
# From -- ./inp_files/784.got.cif
#   From: 2010.05.17/outbox.cif.g08.bks.cpg/sg29_1_cif.got.tgz:784.got - 2010.06.04 01:19:37.
