data_PCOD9340610
_publ_section_title
;
Structure prediction by ZEFSAII (Michael W. Deem and Ramdas Pophale) SiO2 
 PCOD9340610
Probable space group: P C A 21
;
_chemical_formula_sum "Si O2"
_cell_formula_units_Z 32
_cell_length_a 5.443120
_cell_length_b 17.225314
_cell_length_c 13.574994
_cell_angle_alpha 90.000000
_cell_angle_beta 90.000000
_cell_angle_gamma 90.000000
_cell_volume 1272.783987
_symmetry_space_group_name_H-M "P C A 21"
_symmetry_group_IT_number 29
_symmetry_cell_setting 'orthorhombic'
loop_
_space_group_symop_operation_xyz
x,y,z
-x,-y,1/2+z
1/2-x,y,1/2+z
1/2+x,-y,z
loop_
_atom_site_type_symbol
_atom_site_label
_atom_site_fract_x
_atom_site_fract_y
_atom_site_fract_z
Si Si1 0.566284 0.048682 0.440790
Si Si2 0.485521 0.833904 0.116479
Si Si3 0.325352 0.680661 0.616634
Si Si4 0.642614 0.752148 0.476827
Si Si5 0.082263 0.513126 0.400081
Si Si6 0.469399 0.455968 0.680284
Si Si7 0.970630 0.315723 0.823409
Si Si8 0.847742 0.166466 0.329421
O O1 0.567643 0.094702 0.544477
O O2 0.618809 0.111621 0.354590
O O3 0.305328 0.006388 0.432857
O O4 0.273625 0.768843 0.112054
O O5 0.492715 0.856197 0.231261
O O6 0.713302 0.787912 0.069486
O O7 0.475141 0.680744 0.515014
O O8 0.096290 0.622778 0.637870
O O9 0.513865 0.672430 0.707528
O O10 0.823248 0.720151 0.392800
O O11 0.511385 0.825723 0.426338
O O12 0.828615 0.506034 0.455996
O O13 0.052655 0.459864 0.301322
O O14 0.093191 0.601221 0.365304
O O15 0.191907 0.483253 0.655990
O O16 0.748552 0.254676 0.821792
#
# Coordination Sequence:
#
# PCOD9340610 Si02
#       8
#     4   4   4   4   4   4   4   4
#     4  12  27  52  82 118 165 199 251 332 392 479
#     4  11  26  48  77 114 157 211 266 322 408 485
#     4  11  23  41  73 104 145 206 261 325 391 474
#     4  12  23  44  71 110 155 201 280 326 381 473
#     4  10  21  39  65 100 149 194 255 321 400 454
#     4  10  21  39  65 100 149 194 255 320 400 454
#     4  11  23  41  73 104 145 210 258 325 390 477
#     4  11  26  48  76 116 157 209 268 325 406 484
#
# _framework density 25.141735000000001
#
# number of rings (size 3 to 8) (size 9 to 14) (size 15 to 20)
#    0.000    1.000    5.000    1.500    3.500    2.000 
#    0.000    1.250    0.000    0.000    0.000    0.000 
#    0.000    0.000    0.000    0.000    0.000    0.000 
#
# Total GULP energy -178946.736425 kJ/mol
# GULP energy per Si atom -5592.085513 kJ/mol
# Density = 2.508451 g / cm^3
# Si number density = 25.141735 Si / 1000 Ang^3
#
#
#
# Elastic Constant Matrix: (Units=GPa)
#
#
# Indices 1 2 3 4 5 6 
#
# 1 126.8396 29.5734 23.0527 0.0000 0.0000 0.0000
# 2 29.5734 77.9818 7.3037 0.0000 0.0000 0.0000
# 3 23.0527 7.3037 103.9926 0.0000 0.0000 0.0000
# 4 0.0000 0.0000 0.0000 19.0869 0.0000 0.0000
# 5 0.0000 0.0000 0.0000 0.0000 29.1756 0.0000
# 6 0.0000 0.0000 0.0000 0.0000 0.0000 127.5512
#
#
#
# Elastic Compliance Matrix: (Units=1/GPa)
#
#
# Indices 1 2 3 4 5 6 
#
# 1 0.008957 -0.003232 -0.001759 0.000000 0.000000 0.000000
# 2 -0.003232 0.014075 -0.000272 0.000000 0.000000 0.000000
# 3 -0.001759 -0.000272 0.010025 0.000000 0.000000 0.000000
# 4 0.000000 0.000000 0.000000 0.052392 0.000000 0.000000
# 5 0.000000 0.000000 0.000000 0.000000 0.034275 0.000000
# 6 0.000000 0.000000 0.000000 0.000000 0.000000 0.007840
#
#
# Mechanical properties :
#
#
# Convention : Reuss Voigt Hill
#
# Bulk Modulus (GPa) = 44.38252 47.63040 46.00646
# Shear Modulus (GPa) = 34.34062 51.75503 43.04782
#
# Velocity S-wave (km/s) = 3.69979 4.54203 4.14237
# Velocity P-wave (km/s) = 5.99521 6.81854 6.42009
#
# Compressibility (1/GPa) = 0.02253139
#
# Stress axis : x y z
#
# Youngs Moduli (GPa) = 111.64216 71.04929 99.75052
#
# Poissons Ratio (x) = 0.22964 0.17542
# Poissons Ratio (y) = 0.36085 0.02713
# Poissons Ratio (z) = 0.19633 0.01933
#
# Static dielectric constant tensor:
#      x y z
#    x 2.071440 0.000000 0.000000 
#    y 0.000000 1.987810 0.000000 
#    z 0.000000 0.000000 2.032500 
# 
# From -- ./inp_files/4146.got.cif
#   From: 2010.05.17/outbox.cif.g08.bks.cpg/sg29_3_cif.got.tgz:4146.got - 2010.06.04 01:19:37.
