data_PCOD9340692
_publ_section_title
;
Structure prediction by ZEFSAII (Michael W. Deem and Ramdas Pophale) SiO2 
 PCOD9340692
Probable space group: P C A 21
;
_chemical_formula_sum "Si O2"
_cell_formula_units_Z 20
_cell_length_a 8.407405
_cell_length_b 11.178024
_cell_length_c 8.302584
_cell_angle_alpha 90.000000
_cell_angle_beta 90.000000
_cell_angle_gamma 90.000000
_cell_volume 780.261691
_symmetry_space_group_name_H-M "P C A 21"
_symmetry_group_IT_number 29
_symmetry_cell_setting 'orthorhombic'
loop_
_space_group_symop_operation_xyz
x,y,z
-x,-y,1/2+z
1/2-x,y,1/2+z
1/2+x,-y,z
loop_
_atom_site_type_symbol
_atom_site_label
_atom_site_fract_x
_atom_site_fract_y
_atom_site_fract_z
Si Si1 0.806992 0.609251 0.727270
Si Si2 0.426243 0.900527 0.918322
Si Si3 0.238526 0.770293 0.160884
Si Si4 0.396586 0.541561 0.035082
Si Si5 0.929873 0.849386 0.739679
O O1 0.641548 0.561243 0.663793
O O2 0.804182 0.747062 0.777294
O O3 0.932760 0.596803 0.577878
O O4 0.870127 0.521691 0.866032
O O5 0.406972 0.803323 0.775173
O O6 0.422399 0.030063 0.839913
O O7 0.273778 0.876223 0.034028
O O8 0.564659 0.880541 0.048763
O O9 0.400801 0.782382 0.267208
O O10 0.264004 0.644804 0.070874
#
# Coordination Sequence:
#
# PCOD9340692 Si02
#       5
#     4   4   4   4   4
#     4  11  24  46  67 105 135 187 224 298 342 427
#     4  10  21  41  66  92 135 174 231 275 346 420
#     4   9  22  40  67  93 131 183 220 280 347 423
#     4  11  23  45  71  99 143 177 240 275 363 405
#     4   9  24  42  65  99 132 177 231 286 346 405
#
# _framework density 25.632425000000001
#
# number of rings (size 3 to 8) (size 9 to 14) (size 15 to 20)
#    1.200    0.800    0.000    2.400    2.800    3.200 
#    3.600    0.000    0.000    0.000    0.000    0.000 
#    0.000    0.000    0.000    0.000    0.000    0.000 
#
# Total GULP energy -111685.992847 kJ/mol
# GULP energy per Si atom -5584.299642 kJ/mol
# Density = 2.557408 g / cm^3
# Si number density = 25.632425 Si / 1000 Ang^3
#
#
#
# Elastic Constant Matrix: (Units=GPa)
#
#
# Indices 1 2 3 4 5 6 
#
# 1 46.4708 25.5834 21.9028 0.0000 0.0000 0.0000
# 2 25.5834 157.6900 48.7157 0.0000 0.0000 0.0000
# 3 21.9028 48.7157 112.8661 0.0000 0.0000 0.0000
# 4 0.0000 0.0000 0.0000 42.9323 0.0000 0.0000
# 5 0.0000 0.0000 0.0000 0.0000 25.2191 0.0000
# 6 0.0000 0.0000 0.0000 0.0000 0.0000 15.6721
#
#
#
# Elastic Compliance Matrix: (Units=1/GPa)
#
#
# Indices 1 2 3 4 5 6 
#
# 1 0.024804 -0.002927 -0.003550 0.000000 0.000000 0.000000
# 2 -0.002927 0.007663 -0.002739 0.000000 0.000000 0.000000
# 3 -0.003550 -0.002739 0.010731 0.000000 0.000000 0.000000
# 4 0.000000 0.000000 0.000000 0.023292 0.000000 0.000000
# 5 0.000000 0.000000 0.000000 0.000000 0.039652 0.000000
# 6 0.000000 0.000000 0.000000 0.000000 0.000000 0.063808
#
#
# Mechanical properties :
#
#
# Convention : Reuss Voigt Hill
#
# Bulk Modulus (GPa) = 40.38043 56.60342 48.49192
# Shear Modulus (GPa) = 25.42737 31.48638 28.45688
#
# Velocity S-wave (km/s) = 3.15302 3.50863 3.33557
# Velocity P-wave (km/s) = 5.38918 6.20843 5.81326
#
# Compressibility (1/GPa) = 0.02476447
#
# Stress axis : x y z
#
# Youngs Moduli (GPa) = 40.31670 130.50111 93.18538
#
# Poissons Ratio (x) = 0.38203 0.33079
# Poissons Ratio (y) = 0.11802 0.25527
# Poissons Ratio (z) = 0.14312 0.35749
#
# Static dielectric constant tensor:
#      x y z
#    x 2.068790 0.000000 0.000000 
#    y 0.000000 2.021000 0.000000 
#    z 0.000000 0.000000 2.046930 
# 
# From -- ./inp_files/1101.got.cif
#   From: 2010.05.17/outbox.cif.g08.bks.cpg/sg29_1_cif.got.tgz:1101.got - 2010.06.04 01:19:37.
