data_PCOD9340508
_publ_section_title
;
Structure prediction by ZEFSAII (Michael W. Deem and Ramdas Pophale) SiO2 
 PCOD9340508
Probable space group: P C A 21
;
_chemical_formula_sum "Si O2"
_cell_formula_units_Z 32
_cell_length_a 21.280528
_cell_length_b 5.098430
_cell_length_c 12.204585
_cell_angle_alpha 90.000000
_cell_angle_beta 90.000000
_cell_angle_gamma 90.000000
_cell_volume 1324.164305
_symmetry_space_group_name_H-M "P C A 21"
_symmetry_group_IT_number 29
_symmetry_cell_setting 'orthorhombic'
loop_
_space_group_symop_operation_xyz
x,y,z
-x,-y,1/2+z
1/2-x,y,1/2+z
1/2+x,-y,z
loop_
_atom_site_type_symbol
_atom_site_label
_atom_site_fract_x
_atom_site_fract_y
_atom_site_fract_z
Si Si1 0.412909 0.269781 0.694660
Si Si2 0.441889 0.027876 0.492324
Si Si3 0.200373 0.875862 0.259538
Si Si4 0.116476 0.421265 0.839070
Si Si5 0.449346 0.348497 0.930638
Si Si6 0.841471 0.074783 0.223078
Si Si7 0.629401 0.168824 0.479267
Si Si8 0.839883 0.352124 0.544668
O O1 0.445045 0.383958 0.800478
O O2 0.393658 0.497245 0.612310
O O3 0.457479 0.095827 0.618156
O O4 0.350051 0.104928 0.728195
O O5 0.485756 0.792035 0.457308
O O6 0.370498 0.916960 0.501295
O O7 0.438522 0.269763 0.407388
O O8 0.272509 0.944214 0.277661
O O9 0.171808 0.759414 0.372471
O O10 0.204648 0.702428 0.147666
O O11 0.115179 0.702759 0.779887
O O12 0.131417 0.212321 0.745249
O O13 0.169344 0.476013 0.935352
O O14 0.425888 0.615368 0.985216
O O15 0.399597 0.117377 0.958092
O O16 0.836873 0.146593 0.095389
#
# Coordination Sequence:
#
# PCOD9340508 Si02
#       8
#     4   4   4   4   4   4   4   4
#     4   9  21  41  67  99 131 173 235 278 323 423
#     4  10  23  43  72  98 134 184 225 282 345 402
#     4  10  24  44  70  98 133 188 223 284 340 409
#     4  11  25  45  65 105 137 171 234 279 330 418
#     4  11  24  45  67  99 138 176 222 285 350 398
#     4  12  27  44  70 101 143 181 219 288 354 394
#     4  11  26  45  65 102 141 169 232 278 340 420
#     4  10  20  45  70  98 133 174 240 276 318 422
#
# _framework density 24.166184999999999
#
# number of rings (size 3 to 8) (size 9 to 14) (size 15 to 20)
#    0.000    1.500    2.500    0.750    7.000    2.000 
#    0.000    0.000    0.000    0.000    0.000    0.000 
#    0.000    0.000    0.000    0.000    0.000    0.000 
#
# Total GULP energy -178467.237098 kJ/mol
# GULP energy per Si atom -5577.101159 kJ/mol
# Density = 2.411118 g / cm^3
# Si number density = 24.166185 Si / 1000 Ang^3
#
#
#
# Elastic Constant Matrix: (Units=GPa)
#
#
# Indices 1 2 3 4 5 6 
#
# 1 52.2728 -7.2475 29.2534 0.0000 0.0000 0.0000
# 2 -7.2475 91.8018 36.4340 0.0000 0.0000 0.0000
# 3 29.2534 36.4340 126.3753 0.0000 0.0000 0.0000
# 4 0.0000 0.0000 0.0000 40.2163 0.0000 0.0000
# 5 0.0000 0.0000 0.0000 0.0000 24.8525 0.0000
# 6 0.0000 0.0000 0.0000 0.0000 0.0000 12.1580
#
#
#
# Elastic Compliance Matrix: (Units=1/GPa)
#
#
# Indices 1 2 3 4 5 6 
#
# 1 0.023542 0.004541 -0.006759 0.000000 0.000000 0.000000
# 2 0.004541 0.013176 -0.004850 0.000000 0.000000 0.000000
# 3 -0.006759 -0.004850 0.010876 0.000000 0.000000 0.000000
# 4 0.000000 0.000000 0.000000 0.024866 0.000000 0.000000
# 5 0.000000 0.000000 0.000000 0.000000 0.040237 0.000000
# 6 0.000000 0.000000 0.000000 0.000000 0.000000 0.082250
#
#
# Mechanical properties :
#
#
# Convention : Reuss Voigt Hill
#
# Bulk Modulus (GPa) = 29.88722 43.03663 36.46192
# Shear Modulus (GPa) = 22.70292 29.57937 26.14115
#
# Velocity S-wave (km/s) = 3.06837 3.50236 3.29253
# Velocity P-wave (km/s) = 4.99474 5.84831 5.43829
#
# Compressibility (1/GPa) = 0.03345912
#
# Stress axis : x y z
#
# Youngs Moduli (GPa) = 42.47656 75.89362 91.94831
#
# Poissons Ratio (x) = -0.34463 0.62146
# Poissons Ratio (y) = -0.19289 0.44594
# Poissons Ratio (z) = 0.28709 0.36808
#
# Static dielectric constant tensor:
#      x y z
#    x 1.969740 0.000000 0.000000 
#    y 0.000000 1.986980 0.000000 
#    z 0.000000 0.000000 1.943860 
# 
# From -- ./inp_files/3978.got.cif
#   From: 2010.05.17/outbox.cif.g08.bks.cpg/sg29_2_cif.got.tgz:3978.got - 2010.06.04 01:19:37.
