data_PCOD9340451
_publ_section_title
;
Structure prediction by ZEFSAII (Michael W. Deem and Ramdas Pophale) SiO2 
 PCOD9340451
Probable space group: P C A 21
;
_chemical_formula_sum "Si O2"
_cell_formula_units_Z 28
_cell_length_a 14.855055
_cell_length_b 13.885203
_cell_length_c 5.268046
_cell_angle_alpha 90.000000
_cell_angle_beta 90.000000
_cell_angle_gamma 90.000000
_cell_volume 1086.615901
_symmetry_space_group_name_H-M "P C A 21"
_symmetry_group_IT_number 29
_symmetry_cell_setting 'orthorhombic'
loop_
_space_group_symop_operation_xyz
x,y,z
-x,-y,1/2+z
1/2-x,y,1/2+z
1/2+x,-y,z
loop_
_atom_site_type_symbol
_atom_site_label
_atom_site_fract_x
_atom_site_fract_y
_atom_site_fract_z
Si Si1 0.963696 0.966246 0.097080
Si Si2 0.724399 0.997167 0.364391
Si Si3 0.486237 0.235234 0.885382
Si Si4 0.190371 0.274831 0.115978
Si Si5 0.701669 0.498083 0.187692
Si Si6 0.199628 0.786101 0.803979
Si Si7 0.519592 0.440348 0.044395
O O1 0.877264 0.007623 0.950179
O O2 0.968296 0.851988 0.076471
O O3 0.963309 0.999089 0.387480
O O4 0.729913 0.944128 0.098430
O O5 0.773790 0.099407 0.319750
O O6 0.591395 0.227516 0.797909
O O7 0.473645 0.337479 0.021403
O O8 0.408006 0.229507 0.672826
O O9 0.259073 0.255790 0.350920
O O10 0.173538 0.391220 0.132001
O O11 0.718518 0.485553 0.485506
O O12 0.624059 0.426900 0.102382
O O13 0.250307 0.747846 0.054314
O O14 0.486362 0.504016 0.278652
#
# Coordination Sequence:
#
# PCOD9340451 Si02
#       7
#     4   4   4   4   4   4   4
#     4  12  26  46  72 107 146 197 252 314 380 458
#     4  10  20  40  67  95 138 185 232 302 371 432
#     4  12  28  47  80 114 151 208 260 315 395 465
#     4  10  24  44  70 106 149 195 256 319 371 452
#     4  10  21  43  71 100 143 199 246 307 381 448
#     4  10  22  42  67 103 147 188 240 311 369 452
#     4  12  27  46  71 109 152 194 250 316 385 455
#
# _framework density 25.768072
#
# number of rings (size 3 to 8) (size 9 to 14) (size 15 to 20)
#    0.000    1.143    1.429    5.143    4.000    6.857 
#    0.000    0.000    0.000    0.000    0.000    0.000 
#    0.000    0.000    0.000    0.000    0.000    0.000 
#
# Total GULP energy -156694.557127 kJ/mol
# GULP energy per Si atom -5596.234183 kJ/mol
# Density = 2.570942 g / cm^3
# Si number density = 25.768072 Si / 1000 Ang^3
#
#
#
# Elastic Constant Matrix: (Units=GPa)
#
#
# Indices 1 2 3 4 5 6 
#
# 1 128.5908 7.4506 35.7404 0.0000 0.0000 0.0000
# 2 7.4506 133.2794 33.8678 0.0000 0.0000 0.0000
# 3 35.7404 33.8678 160.6056 0.0000 0.0000 0.0000
# 4 0.0000 0.0000 0.0000 12.5270 0.0000 0.0000
# 5 0.0000 0.0000 0.0000 0.0000 36.0831 0.0000
# 6 0.0000 0.0000 0.0000 0.0000 0.0000 34.9762
#
#
#
# Elastic Compliance Matrix: (Units=1/GPa)
#
#
# Indices 1 2 3 4 5 6 
#
# 1 0.008289 0.000006 -0.001846 0.000000 0.000000 0.000000
# 2 0.000006 0.007928 -0.001673 0.000000 0.000000 0.000000
# 3 -0.001846 -0.001673 0.006990 0.000000 0.000000 0.000000
# 4 0.000000 0.000000 0.000000 0.079827 0.000000 0.000000
# 5 0.000000 0.000000 0.000000 0.000000 0.027714 0.000000
# 6 0.000000 0.000000 0.000000 0.000000 0.000000 0.028591
#
#
# Mechanical properties :
#
#
# Convention : Reuss Voigt Hill
#
# Bulk Modulus (GPa) = 61.80208 64.06595 62.93402
# Shear Modulus (GPa) = 29.11048 39.74505 34.42777
#
# Velocity S-wave (km/s) = 3.36476 3.93162 3.65918
# Velocity P-wave (km/s) = 6.25552 6.74735 6.50608
#
# Compressibility (1/GPa) = 0.01618068
#
# Stress axis : x y z
#
# Youngs Moduli (GPa) = 120.63724 126.13741 143.06137
#
# Poissons Ratio (x) = -0.00071 0.26407
# Poissons Ratio (y) = -0.00068 0.23935
# Poissons Ratio (z) = 0.22268 0.21103
#
# Static dielectric constant tensor:
#      x y z
#    x 2.101950 0.000000 0.000000 
#    y 0.000000 2.056060 0.000000 
#    z 0.000000 0.000000 2.135960 
# 
# From -- ./inp_files/239.got.cif
#   From: 2010.05.17/outbox.cif.g08.bks.cpg/sg29_1_cif.got.tgz:239.got - 2010.06.04 01:19:37.
