data_PCOD9340584
_publ_section_title
;
Structure prediction by ZEFSAII (Michael W. Deem and Ramdas Pophale) SiO2 
 PCOD9340584
Probable space group: P C A 21
;
_chemical_formula_sum "Si O2"
_cell_formula_units_Z 32
_cell_length_a 13.647959
_cell_length_b 10.593997
_cell_length_c 8.873057
_cell_angle_alpha 90.000000
_cell_angle_beta 90.000000
_cell_angle_gamma 90.000000
_cell_volume 1282.923694
_symmetry_space_group_name_H-M "P C A 21"
_symmetry_group_IT_number 29
_symmetry_cell_setting 'orthorhombic'
loop_
_space_group_symop_operation_xyz
x,y,z
-x,-y,1/2+z
1/2-x,y,1/2+z
1/2+x,-y,z
loop_
_atom_site_type_symbol
_atom_site_label
_atom_site_fract_x
_atom_site_fract_y
_atom_site_fract_z
Si Si1 0.972065 0.989050 0.221290
Si Si2 0.860679 0.640157 0.193528
Si Si3 0.414411 0.233220 0.730199
Si Si4 0.497203 0.749535 0.912630
Si Si5 0.847502 0.116511 0.542129
Si Si6 0.772693 0.900012 0.120763
Si Si7 0.784567 0.265030 0.840604
Si Si8 0.312642 0.449881 0.886497
O O1 0.045227 0.929135 0.095504
O O2 0.978490 0.888852 0.354984
O O3 0.860987 0.988785 0.169899
O O4 0.006225 0.127528 0.269099
O O5 0.965544 0.660648 0.273809
O O6 0.830273 0.767713 0.101120
O O7 0.786243 0.621954 0.333297
O O8 0.838768 0.538473 0.063555
O O9 0.440793 0.275444 0.560989
O O10 0.314818 0.149278 0.728534
O O11 0.398634 0.361361 0.820671
O O12 0.381983 0.751584 0.943874
O O13 0.806491 0.180590 0.695424
O O14 0.814974 0.219001 0.418811
O O15 0.786892 0.988057 0.505657
O O16 0.793515 0.414055 0.813652
#
# Coordination Sequence:
#
# PCOD9340584 Si02
#       8
#     4   4   4   4   4   4   4   4
#     4   9  20  38  63  94 129 163 210 271 333 396
#     4  10  21  39  63  91 122 164 216 272 330 392
#     4  10  21  38  65  96 130 175 220 270 338 403
#     4  10  22  40  62  93 132 169 216 278 334 395
#     4  10  22  39  64  91 123 166 207 265 334 390
#     4   9  19  37  63  93 126 160 206 268 333 390
#     4  11  24  43  62  89 129 173 220 270 327 395
#     4  11  23  40  64  89 125 176 223 268 325 397
#
# _framework density 24.943024999999999
#
# number of rings (size 3 to 8) (size 9 to 14) (size 15 to 20)
#    0.000    2.000    0.000    3.000    0.000   11.000 
#    0.000    8.750    0.000    0.000    0.000    0.000 
#    0.000    0.000    0.000    0.000    0.000    0.000 
#
# Total GULP energy -178534.158693 kJ/mol
# GULP energy per Si atom -5579.192459 kJ/mol
# Density = 2.488625 g / cm^3
# Si number density = 24.943025 Si / 1000 Ang^3
#
#
#
# Elastic Constant Matrix: (Units=GPa)
#
#
# Indices 1 2 3 4 5 6 
#
# 1 123.6205 34.4599 35.3619 0.0000 0.0000 0.0000
# 2 34.4599 82.8521 20.5799 0.0000 0.0000 0.0000
# 3 35.3619 20.5799 114.5357 0.0000 0.0000 0.0000
# 4 0.0000 0.0000 0.0000 18.0880 0.0000 0.0000
# 5 0.0000 0.0000 0.0000 0.0000 32.6090 0.0000
# 6 0.0000 0.0000 0.0000 0.0000 0.0000 18.1959
#
#
#
# Elastic Compliance Matrix: (Units=1/GPa)
#
#
# Indices 1 2 3 4 5 6 
#
# 1 0.009735 -0.003457 -0.002384 0.000000 0.000000 0.000000
# 2 -0.003457 0.013861 -0.001423 0.000000 0.000000 0.000000
# 3 -0.002384 -0.001423 0.009723 0.000000 0.000000 0.000000
# 4 0.000000 0.000000 0.000000 0.055285 0.000000 0.000000
# 5 0.000000 0.000000 0.000000 0.000000 0.030666 0.000000
# 6 0.000000 0.000000 0.000000 0.000000 0.000000 0.054957
#
#
# Mechanical properties :
#
#
# Convention : Reuss Voigt Hill
#
# Bulk Modulus (GPa) = 53.22050 55.75685 54.48868
# Shear Modulus (GPa) = 25.63838 29.15235 27.39537
#
# Velocity S-wave (km/s) = 3.20953 3.42242 3.31768
# Velocity P-wave (km/s) = 5.92604 6.16599 6.04721
#
# Compressibility (1/GPa) = 0.01878975
#
# Stress axis : x y z
#
# Youngs Moduli (GPa) = 102.72299 72.14518 102.85061
#
# Poissons Ratio (x) = 0.24938 0.24524
# Poissons Ratio (y) = 0.35508 0.14639
# Poissons Ratio (z) = 0.24494 0.10269
#
# Static dielectric constant tensor:
#      x y z
#    x 2.007520 0.000000 0.000000 
#    y 0.000000 2.013280 0.000000 
#    z 0.000000 0.000000 2.042600 
# 
# From -- ./inp_files/1858.got.cif
#   From: 2010.05.17/outbox.cif.g08.bks.cpg/sg29_1_cif.got.tgz:1858.got - 2010.06.04 01:19:37.
