data_PCOD9340822
_publ_section_title
;
Structure prediction by ZEFSAII (Michael W. Deem and Ramdas Pophale) SiO2 
 PCOD9340822
Probable space group: P C A 21
;
_chemical_formula_sum "Si O2"
_cell_formula_units_Z 32
_cell_length_a 18.441389
_cell_length_b 8.552037
_cell_length_c 8.978996
_cell_angle_alpha 90.000000
_cell_angle_beta 90.000000
_cell_angle_gamma 90.000000
_cell_volume 1416.090398
_symmetry_space_group_name_H-M "P C A 21"
_symmetry_group_IT_number 29
_symmetry_cell_setting 'orthorhombic'
loop_
_space_group_symop_operation_xyz
x,y,z
-x,-y,1/2+z
1/2-x,y,1/2+z
1/2+x,-y,z
loop_
_atom_site_type_symbol
_atom_site_label
_atom_site_fract_x
_atom_site_fract_y
_atom_site_fract_z
Si Si1 0.517445 0.807389 0.014220
Si Si2 0.494881 0.363687 0.233211
Si Si3 0.999568 0.148993 0.458668
Si Si4 0.832802 0.913353 0.993959
Si Si5 0.378130 0.444275 0.664798
Si Si6 0.756578 0.752616 0.264883
Si Si7 0.353163 0.520238 0.354886
Si Si8 0.616873 0.202386 0.689283
O O1 0.575025 0.696300 0.092047
O O2 0.439764 0.742805 0.064492
O O3 0.523538 0.990761 0.046326
O O4 0.519247 0.785493 0.837284
O O5 0.498950 0.299925 0.065717
O O6 0.568209 0.457102 0.267011
O O7 0.429905 0.477527 0.279020
O O8 0.086153 0.121775 0.429311
O O9 0.940988 0.162552 0.324538
O O10 0.799393 0.791366 0.113431
O O11 0.842562 0.063569 0.101787
O O12 0.775512 0.899564 0.857604
O O13 0.310682 0.362178 0.737753
O O14 0.356749 0.557788 0.528652
O O15 0.810426 0.642081 0.354712
O O16 0.329449 0.668117 0.257091
#
# Coordination Sequence:
#
# PCOD9340822 Si02
#       8
#     4   4   4   4   4   4   4   4
#     4  10  22  38  65 104 136 167 231 297 352 423
#     4  11  22  40  71 102 134 178 238 299 359 416
#     4  11  22  42  71 102 134 176 236 299 356 414
#     4  11  26  44  68 103 141 196 232 297 369 448
#     4  11  23  42  70 103 136 189 234 302 362 432
#     4  12  25  46  68  97 146 195 244 280 373 460
#     4  11  23  43  67 103 139 183 240 299 360 435
#     4  11  23  43  66 100 142 176 235 307 359 416
#
# _framework density 22.597428000000001
#
# number of rings (size 3 to 8) (size 9 to 14) (size 15 to 20)
#    0.000    1.000    5.000    2.250    1.750    2.000 
#    2.250    2.500    0.000    0.000    0.000    0.000 
#    0.000    0.000    0.000    0.000    0.000    0.000 
#
# Total GULP energy -178384.146102 kJ/mol
# GULP energy per Si atom -5574.504566 kJ/mol
# Density = 2.254599 g / cm^3
# Si number density = 22.597428 Si / 1000 Ang^3
#
#
#
# Elastic Constant Matrix: (Units=GPa)
#
#
# Indices 1 2 3 4 5 6 
#
# 1 40.2083 6.0184 -1.9778 0.0000 0.0000 0.0000
# 2 6.0184 46.6708 16.9814 0.0000 0.0000 0.0000
# 3 -1.9778 16.9814 67.4265 0.0000 0.0000 0.0000
# 4 0.0000 0.0000 0.0000 38.0398 0.0000 0.0000
# 5 0.0000 0.0000 0.0000 0.0000 16.3375 0.0000
# 6 0.0000 0.0000 0.0000 0.0000 0.0000 28.3090
#
#
#
# Elastic Compliance Matrix: (Units=1/GPa)
#
#
# Indices 1 2 3 4 5 6 
#
# 1 0.025544 -0.003926 0.001738 0.000000 0.000000 0.000000
# 2 -0.003926 0.024192 -0.006208 0.000000 0.000000 0.000000
# 3 0.001738 -0.006208 0.016445 0.000000 0.000000 0.000000
# 4 0.000000 0.000000 0.000000 0.026288 0.000000 0.000000
# 5 0.000000 0.000000 0.000000 0.000000 0.061209 0.000000
# 6 0.000000 0.000000 0.000000 0.000000 0.000000 0.035324
#
#
# Mechanical properties :
#
#
# Convention : Reuss Voigt Hill
#
# Bulk Modulus (GPa) = 20.24761 21.81664 21.03213
# Shear Modulus (GPa) = 22.49643 25.42284 23.95963
#
# Velocity S-wave (km/s) = 3.15863 3.35779 3.25973
# Velocity P-wave (km/s) = 4.72040 4.97076 4.84719
#
# Compressibility (1/GPa) = 0.04938854
#
# Stress axis : x y z
#
# Youngs Moduli (GPa) = 39.14858 41.33639 60.80722
#
# Poissons Ratio (x) = 0.16230 -0.10569
# Poissons Ratio (y) = 0.15371 0.37748
# Poissons Ratio (z) = -0.06804 0.25661
#
# Static dielectric constant tensor:
#      x y z
#    x 1.868090 0.000000 0.000000 
#    y 0.000000 1.884370 0.000000 
#    z 0.000000 0.000000 1.891960 
# 
# From -- ./inp_files/2285.got.cif
#   From: 2010.05.17/outbox.cif.g08.bks.cpg/sg29_2_cif.got.tgz:2285.got - 2010.06.04 01:19:37.
