data_PCOD9340267
_publ_section_title
;
Structure prediction by ZEFSAII (Michael W. Deem and Ramdas Pophale) SiO2 
 PCOD9340267
Probable space group: P C A 21
;
_chemical_formula_sum "Si O2"
_cell_formula_units_Z 24
_cell_length_a 5.504179
_cell_length_b 12.895860
_cell_length_c 13.304147
_cell_angle_alpha 90.000000
_cell_angle_beta 90.000000
_cell_angle_gamma 90.000000
_cell_volume 944.343279
_symmetry_space_group_name_H-M "P C A 21"
_symmetry_group_IT_number 29
_symmetry_cell_setting 'orthorhombic'
loop_
_space_group_symop_operation_xyz
x,y,z
-x,-y,1/2+z
1/2-x,y,1/2+z
1/2+x,-y,z
loop_
_atom_site_type_symbol
_atom_site_label
_atom_site_fract_x
_atom_site_fract_y
_atom_site_fract_z
Si Si1 0.345486 0.757440 0.452880
Si Si2 0.414768 0.796353 0.138757
Si Si3 0.358638 0.535551 0.388211
Si Si4 0.077819 0.141491 0.613896
Si Si5 0.570275 0.950570 0.400468
Si Si6 0.101322 0.546410 0.654916
O O1 0.270492 0.652425 0.403787
O O2 0.834116 0.850261 0.665849
O O3 0.474084 0.834800 0.376544
O O4 0.122789 0.806879 0.515929
O O5 0.169821 0.853389 0.177140
O O6 0.416358 0.672036 0.154686
O O7 0.961233 0.752878 0.045693
O O8 0.633607 0.531000 0.426695
O O9 0.388302 0.510762 0.270798
O O10 0.072549 0.057006 0.524504
O O11 0.842254 0.978354 0.369207
O O12 0.359047 0.507290 0.612024
#
# Coordination Sequence:
#
# PCOD9340267 Si02
#       6
#     4   4   4   4   4   4
#     4   8  21  30  50  72 101 121 166 195 248 280
#     4   9  17  31  45  67  93 121 154 203 234 282
#     4  10  22  34  47  67 100 136 165 196 239 286
#     4   8  18  28  47  70  98 113 156 192 246 281
#     4   9  16  28  48  74  98 120 150 197 245 286
#     4  10  20  33  47  66  92 129 173 201 232 285
#
# _framework density 25.414486
#
# number of rings (size 3 to 8) (size 9 to 14) (size 15 to 20)
#    2.000    0.667    0.000    3.000    2.333    1.333 
#    0.000    0.000    0.000    0.000    0.000   16.333 
#    0.000    0.000    0.000    0.000    0.000    0.000 
#
# Total GULP energy -133630.597436 kJ/mol
# GULP energy per Si atom -5567.941560 kJ/mol
# Density = 2.535664 g / cm^3
# Si number density = 25.414486 Si / 1000 Ang^3
#
#
#
# Elastic Constant Matrix: (Units=GPa)
#
#
# Indices 1 2 3 4 5 6 
#
# 1 182.5836 10.9044 38.2189 0.0000 0.0000 0.0000
# 2 10.9044 45.7697 -18.4226 0.0000 0.0000 0.0000
# 3 38.2189 -18.4226 61.1578 0.0000 0.0000 0.0000
# 4 0.0000 0.0000 0.0000 92.5314 0.0000 0.0000
# 5 0.0000 0.0000 0.0000 0.0000 32.2369 0.0000
# 6 0.0000 0.0000 0.0000 0.0000 0.0000 33.4617
#
#
#
# Elastic Compliance Matrix: (Units=1/GPa)
#
#
# Indices 1 2 3 4 5 6 
#
# 1 0.006840 -0.003812 -0.005423 0.000000 0.000000 0.000000
# 2 -0.003812 0.026988 0.010512 0.000000 0.000000 0.000000
# 3 -0.005423 0.010512 0.022906 0.000000 0.000000 0.000000
# 4 0.000000 0.000000 0.000000 0.010807 0.000000 0.000000
# 5 0.000000 0.000000 0.000000 0.000000 0.031020 0.000000
# 6 0.000000 0.000000 0.000000 0.000000 0.000000 0.029885
#
#
# Mechanical properties :
#
#
# Convention : Reuss Voigt Hill
#
# Bulk Modulus (GPa) = 16.86681 38.99029 27.92855
# Shear Modulus (GPa) = 34.32774 48.90002 41.61388
#
# Velocity S-wave (km/s) = 3.67920 4.39122 4.05088
# Velocity P-wave (km/s) = 4.96988 6.40979 5.73521
#
# Compressibility (1/GPa) = 0.05928802
#
# Stress axis : x y z
#
# Youngs Moduli (GPa) = 146.20541 37.05374 43.65603
#
# Poissons Ratio (x) = 0.14125 0.23673
# Poissons Ratio (y) = 0.55736 -0.45891
# Poissons Ratio (z) = 0.79282 -0.38950
#
# Static dielectric constant tensor:
#      x y z
#    x 2.049270 0.000000 0.000000 
#    y 0.000000 1.966080 0.000000 
#    z 0.000000 0.000000 2.028750 
# 
# From -- ./inp_files/5342.got.cif
#   From: 2010.05.17/outbox.cif.g08.bks.cpg/sg29_3_cif.got.tgz:5342.got - 2010.06.04 01:19:37.
