data_PCOD9340288
_publ_section_title
;
Structure prediction by ZEFSAII (Michael W. Deem and Ramdas Pophale) SiO2 
 PCOD9340288
Probable space group: P C A 21
;
_chemical_formula_sum "Si O2"
_cell_formula_units_Z 32
_cell_length_a 18.648669
_cell_length_b 9.639276
_cell_length_c 8.714299
_cell_angle_alpha 90.000000
_cell_angle_beta 90.000000
_cell_angle_gamma 90.000000
_cell_volume 1566.479491
_symmetry_space_group_name_H-M "P C A 21"
_symmetry_group_IT_number 29
_symmetry_cell_setting 'orthorhombic'
loop_
_space_group_symop_operation_xyz
x,y,z
-x,-y,1/2+z
1/2-x,y,1/2+z
1/2+x,-y,z
loop_
_atom_site_type_symbol
_atom_site_label
_atom_site_fract_x
_atom_site_fract_y
_atom_site_fract_z
Si Si1 0.417329 0.655470 0.102910
Si Si2 0.842288 0.086553 0.176902
Si Si3 0.168745 0.463539 0.391470
Si Si4 0.831255 0.463539 0.391470
Si Si5 0.657712 0.913447 0.176902
Si Si6 0.806330 0.173652 0.523613
Si Si7 0.917329 0.655470 0.602910
Si Si8 0.806330 0.826347 0.023613
O O1 0.408354 0.820010 0.124683
O O2 0.378264 0.592553 0.252045
O O3 0.500000 0.615061 0.092038
O O4 0.371742 0.593674 0.963402
O O5 0.821465 0.114475 0.353169
O O6 0.775058 0.146379 0.077666
O O7 0.850147 0.924700 0.139416
O O8 0.250000 0.500000 0.344842
O O9 0.121736 0.407447 0.252045
O O10 0.175664 0.335961 0.513325
O O11 0.824335 0.335961 0.513325
O O12 0.871742 0.593674 0.463402
O O13 0.591647 0.820010 0.124683
O O14 0.678535 0.885525 0.353169
O O15 0.724942 0.853620 0.077666
O O16 0.649853 0.075299 0.139416
#
# Coordination Sequence:
#
# PCOD9340288 Si02
#       8
#     4   4   4   4   4   4   4   4
#     4  11  24  40  59  89 128 161 197 252 314 362
#     4  10  20  36  57  88 118 152 198 250 299 354
#     4  11  22  39  64  91 118 161 209 251 296 366
#     4  11  22  39  64  91 118 161 209 251 296 366
#     4  10  20  36  57  88 118 152 198 250 299 354
#     4  10  20  34  60  89 114 150 205 251 291 348
#     4  11  24  40  59  89 128 161 197 252 314 362
#     4  10  20  34  60  89 114 150 205 251 291 348
#
# _framework density 20.427972
#
# number of rings (size 3 to 8) (size 9 to 14) (size 15 to 20)
#    0.000    1.500    2.500    4.500    3.500    2.000 
#    0.000    6.250    0.000    0.000    0.000    0.000 
#    0.000    0.000    0.000    0.000    0.000    0.000 
#
# Total GULP energy -178686.743143 kJ/mol
# GULP energy per Si atom -5583.960723 kJ/mol
# Density = 2.038148 g / cm^3
# Si number density = 20.427972 Si / 1000 Ang^3
#
#
#
# Elastic Constant Matrix: (Units=GPa)
#
#
# Indices 1 2 3 4 5 6 
#
# 1 114.4955 3.4016 9.7178 0.0000 0.0000 0.0000
# 2 3.4016 53.4600 -8.0273 0.0000 0.0000 0.0000
# 3 9.7178 -8.0273 41.0496 0.0000 0.0000 0.0000
# 4 0.0000 0.0000 0.0000 30.3149 0.0000 0.0000
# 5 0.0000 0.0000 0.0000 0.0000 11.1455 0.0000
# 6 0.0000 0.0000 0.0000 0.0000 0.0000 20.0988
#
#
#
# Elastic Compliance Matrix: (Units=1/GPa)
#
#
# Indices 1 2 3 4 5 6 
#
# 1 0.008956 -0.000915 -0.002299 0.000000 0.000000 0.000000
# 2 -0.000915 0.019365 0.004003 0.000000 0.000000 0.000000
# 3 -0.002299 0.004003 0.025688 0.000000 0.000000 0.000000
# 4 0.000000 0.000000 0.000000 0.032987 0.000000 0.000000
# 5 0.000000 0.000000 0.000000 0.000000 0.089722 0.000000
# 6 0.000000 0.000000 0.000000 0.000000 0.000000 0.049754
#
#
# Mechanical properties :
#
#
# Convention : Reuss Voigt Hill
#
# Bulk Modulus (GPa) = 17.98965 24.35438 21.17202
# Shear Modulus (GPa) = 20.54031 25.90603 23.22317
#
# Velocity S-wave (km/s) = 3.17440 3.56499 3.37535
# Velocity P-wave (km/s) = 4.71818 5.37527 5.05741
#
# Compressibility (1/GPa) = 0.05558751
#
# Stress axis : x y z
#
# Youngs Moduli (GPa) = 111.65326 51.63969 38.92873
#
# Poissons Ratio (x) = 0.04726 0.08951
# Poissons Ratio (y) = 0.10218 -0.15585
# Poissons Ratio (z) = 0.25672 -0.20674
#
# Static dielectric constant tensor:
#      x y z
#    x 1.694210 0.000000 0.000000 
#    y 0.000000 1.847660 0.000000 
#    z 0.000000 0.000000 1.735590 
# 
# From -- ./inp_files/1829.got.cif
#   From: 2010.05.17/outbox.cif.g08.bks.cpg/sg29_1_cif.got.tgz:1829.got - 2010.06.04 01:19:37.
