data_PCOD9340625
_publ_section_title
;
Structure prediction by ZEFSAII (Michael W. Deem and Ramdas Pophale) SiO2 
 PCOD9340625
Probable space group: P C A 21
;
_chemical_formula_sum "Si O2"
_cell_formula_units_Z 16
_cell_length_a 12.052162
_cell_length_b 11.622744
_cell_length_c 4.881482
_cell_angle_alpha 90.000000
_cell_angle_beta 90.000000
_cell_angle_gamma 90.000000
_cell_volume 683.794062
_symmetry_space_group_name_H-M "P C A 21"
_symmetry_group_IT_number 29
_symmetry_cell_setting 'orthorhombic'
loop_
_space_group_symop_operation_xyz
x,y,z
-x,-y,1/2+z
1/2-x,y,1/2+z
1/2+x,-y,z
loop_
_atom_site_type_symbol
_atom_site_label
_atom_site_fract_x
_atom_site_fract_y
_atom_site_fract_z
Si Si1 0.504287 0.673121 0.503520
Si Si2 0.335199 0.514590 0.195895
Si Si3 0.021286 0.930092 0.995002
Si Si4 0.179866 0.789316 0.325094
O O1 0.442920 0.591481 0.283438
O O2 0.608540 0.608841 0.632929
O O3 0.527767 0.805121 0.411496
O O4 0.412356 0.697704 0.737444
O O5 0.248313 0.529904 0.442310
O O6 0.128385 0.903089 0.186230
O O7 0.951272 0.000499 0.220748
O O8 0.209631 0.777033 0.640936
#
# Coordination Sequence:
#
# PCOD9340625 Si02
#       4
#     4   4   4   4
#     4  10  26  44  74 101 154 182 245 308 360 422
#     4  12  26  45  72 106 145 194 244 297 374 438
#     4  10  23  42  69  99 144 182 231 300 357 420
#     4  10  21  39  69 102 131 182 238 281 347 430
#
# _framework density 23.398855999999999
#
# number of rings (size 3 to 8) (size 9 to 14) (size 15 to 20)
#    1.500    0.000    0.000    4.500    0.000   10.000 
#    0.000    7.500    0.000    0.000    0.000    0.000 
#    0.000    0.000    0.000    0.000    0.000    0.000 
#
# Total GULP energy -89156.819068 kJ/mol
# GULP energy per Si atom -5572.301192 kJ/mol
# Density = 2.334560 g / cm^3
# Si number density = 23.398856 Si / 1000 Ang^3
#
#
#
# Elastic Constant Matrix: (Units=GPa)
#
#
# Indices 1 2 3 4 5 6 
#
# 1 55.3226 25.2929 20.2386 0.0000 0.0000 0.0000
# 2 25.2929 134.2313 35.2043 0.0000 0.0000 0.0000
# 3 20.2386 35.2043 151.7807 0.0000 0.0000 0.0000
# 4 0.0000 0.0000 0.0000 24.4233 0.0000 0.0000
# 5 0.0000 0.0000 0.0000 0.0000 19.3777 0.0000
# 6 0.0000 0.0000 0.0000 0.0000 0.0000 39.3549
#
#
#
# Elastic Compliance Matrix: (Units=1/GPa)
#
#
# Indices 1 2 3 4 5 6 
#
# 1 0.020301 -0.003317 -0.001938 0.000000 0.000000 0.000000
# 2 -0.003317 0.008474 -0.001523 0.000000 0.000000 0.000000
# 3 -0.001938 -0.001523 0.007200 0.000000 0.000000 0.000000
# 4 0.000000 0.000000 0.000000 0.040944 0.000000 0.000000
# 5 0.000000 0.000000 0.000000 0.000000 0.051606 0.000000
# 6 0.000000 0.000000 0.000000 0.000000 0.000000 0.025410
#
#
# Mechanical properties :
#
#
# Convention : Reuss Voigt Hill
#
# Bulk Modulus (GPa) = 44.60363 55.86736 50.23549
# Shear Modulus (GPa) = 28.57715 34.00444 31.29080
#
# Velocity S-wave (km/s) = 3.49851 3.81629 3.66085
# Velocity P-wave (km/s) = 5.95173 6.58382 6.27574
#
# Compressibility (1/GPa) = 0.02241970
#
# Stress axis : x y z
#
# Youngs Moduli (GPa) = 49.25817 118.00298 138.88660
#
# Poissons Ratio (x) = 0.39143 0.26911
# Poissons Ratio (y) = 0.16340 0.21156
# Poissons Ratio (z) = 0.09544 0.17975
#
# Static dielectric constant tensor:
#      x y z
#    x 1.919100 0.000000 0.000000 
#    y 0.000000 2.100130 0.000000 
#    z 0.000000 0.000000 1.885260 
# 
# From -- ./inp_files/49.got.cif
#   From: 2010.05.17/outbox.cif.g08.bks.cpg/sg29_1_cif.got.tgz:49.got - 2010.06.04 01:19:37.
