data_PCOD9340435
_publ_section_title
;
Structure prediction by ZEFSAII (Michael W. Deem and Ramdas Pophale) SiO2 
 PCOD9340435
Probable space group: P C A 21
;
_chemical_formula_sum "Si O2"
_cell_formula_units_Z 32
_cell_length_a 21.802329
_cell_length_b 6.590718
_cell_length_c 10.613482
_cell_angle_alpha 90.000000
_cell_angle_beta 90.000000
_cell_angle_gamma 90.000000
_cell_volume 1525.083092
_symmetry_space_group_name_H-M "P C A 21"
_symmetry_group_IT_number 29
_symmetry_cell_setting 'orthorhombic'
loop_
_space_group_symop_operation_xyz
x,y,z
-x,-y,1/2+z
1/2-x,y,1/2+z
1/2+x,-y,z
loop_
_atom_site_type_symbol
_atom_site_label
_atom_site_fract_x
_atom_site_fract_y
_atom_site_fract_z
Si Si1 0.956728 0.100043 0.123180
Si Si2 0.655397 0.136877 0.242801
Si Si3 0.636622 0.422435 0.005171
Si Si4 0.777997 0.128840 0.363461
Si Si5 0.059349 0.501311 0.785143
Si Si6 0.846300 0.823384 0.176671
Si Si7 0.975301 0.150331 0.841365
Si Si8 0.217228 0.197804 0.082141
O O1 0.941018 0.320893 0.181740
O O2 0.897364 0.954654 0.101956
O O3 0.991656 0.116816 0.988925
O O4 0.994276 0.998995 0.238808
O O5 0.715000 0.219478 0.312834
O O6 0.597109 0.123248 0.330703
O O7 0.681091 0.921500 0.192528
O O8 0.635840 0.280114 0.127320
O O9 0.680193 0.309932 0.906997
O O10 0.573437 0.432148 0.928781
O O11 0.669821 0.633194 0.036233
O O12 0.814936 0.993793 0.264000
O O13 0.768538 0.976065 0.479618
O O14 0.113559 0.343229 0.749536
O O15 0.997237 0.371630 0.794743
O O16 0.785500 0.722679 0.115595
#
# Coordination Sequence:
#
# PCOD9340435 Si02
#       8
#     4   4   4   4   4   4   4   4
#     4  11  26  47  71  95 138 179 230 287 335 408
#     4  10  25  40  64  99 135 173 225 278 334 404
#     4  11  23  38  68  97 133 174 220 277 340 403
#     4  10  20  40  62  97 133 173 215 274 339 402
#     4  11  25  41  71  94 133 177 229 279 340 401
#     4  10  21  40  63  97 129 176 220 269 340 399
#     4  11  28  45  70 100 133 185 231 281 340 402
#     4  10  22  37  67  97 136 171 216 277 336 407
#
# _framework density 20.982462000000002
#
# number of rings (size 3 to 8) (size 9 to 14) (size 15 to 20)
#    0.000    1.500    2.500    0.750    7.000    3.000 
#    0.000    0.000    0.000    0.000    0.000    0.000 
#    0.000    0.000    0.000    0.000    0.000    0.000 
#
# Total GULP energy -178513.313371 kJ/mol
# GULP energy per Si atom -5578.541043 kJ/mol
# Density = 2.093471 g / cm^3
# Si number density = 20.982462 Si / 1000 Ang^3
#
#
#
# Elastic Constant Matrix: (Units=GPa)
#
#
# Indices 1 2 3 4 5 6 
#
# 1 48.3058 6.5643 19.5555 0.0000 0.0000 0.0000
# 2 6.5643 58.4332 16.8308 0.0000 0.0000 0.0000
# 3 19.5555 16.8308 77.7438 0.0000 0.0000 0.0000
# 4 0.0000 0.0000 0.0000 17.3697 0.0000 0.0000
# 5 0.0000 0.0000 0.0000 0.0000 -4.7572 0.0000
# 6 0.0000 0.0000 0.0000 0.0000 0.0000 53.6647
#
#
#
# Elastic Compliance Matrix: (Units=1/GPa)
#
#
# Indices 1 2 3 4 5 6 
#
# 1 0.023101 -0.000983 -0.005598 0.000000 0.000000 0.000000
# 2 -0.000983 0.018293 -0.003713 0.000000 0.000000 0.000000
# 3 -0.005598 -0.003713 0.015075 0.000000 0.000000 0.000000
# 4 0.000000 0.000000 0.000000 0.057571 0.000000 0.000000
# 5 0.000000 0.000000 0.000000 0.000000 -0.210207 0.000000
# 6 0.000000 0.000000 0.000000 0.000000 0.000000 0.018634
#
#
# Mechanical properties :
#
#
# Convention : Reuss Voigt Hill
#
# Bulk Modulus (GPa) = 27.86951 30.04268 28.95609
# Shear Modulus (GPa) = -111.15309 22.69092 -44.23109
#
# Velocity S-wave (km/s) = -7.28624 3.29207 -4.59628
# Velocity P-wave (km/s) = 7.58120 5.36650 3.78650
#
# Compressibility (1/GPa) = 0.03588151
#
# Stress axis : x y z
#
# Youngs Moduli (GPa) = 43.28774 54.66427 66.33602
#
# Poissons Ratio (x) = 0.05372 0.37135
# Poissons Ratio (y) = 0.04254 0.24632
# Poissons Ratio (z) = 0.24233 0.20298
#
# Static dielectric constant tensor:
#      x y z
#    x 1.766270 0.000000 0.000000 
#    y 0.000000 1.736940 0.000000 
#    z 0.000000 0.000000 1.818030 
# 
# From -- ./inp_files/3818.got.cif
#   From: 2010.05.17/outbox.cif.g08.bks.cpg/sg29_2_cif.got.tgz:3818.got - 2010.06.04 01:19:37.
