data_PCOD9340120
_publ_section_title
;
Structure prediction by ZEFSAII (Michael W. Deem and Ramdas Pophale) SiO2 
 PCOD9340120
Probable space group: P C A 21
;
_chemical_formula_sum "Si O2"
_cell_formula_units_Z 32
_cell_length_a 10.046373
_cell_length_b 14.199692
_cell_length_c 9.023964
_cell_angle_alpha 90.000000
_cell_angle_beta 90.000000
_cell_angle_gamma 90.000000
_cell_volume 1287.317215
_symmetry_space_group_name_H-M "P C A 21"
_symmetry_group_IT_number 29
_symmetry_cell_setting 'orthorhombic'
loop_
_space_group_symop_operation_xyz
x,y,z
-x,-y,1/2+z
1/2-x,y,1/2+z
1/2+x,-y,z
loop_
_atom_site_type_symbol
_atom_site_label
_atom_site_fract_x
_atom_site_fract_y
_atom_site_fract_z
Si Si1 0.142243 0.491392 0.619070
Si Si2 0.604129 0.579118 0.950292
Si Si3 0.482131 0.918595 0.956376
Si Si4 0.231164 0.692046 0.090268
Si Si5 0.086731 0.726066 0.340493
Si Si6 0.848823 0.119094 0.238420
Si Si7 0.072482 0.131047 0.446399
Si Si8 0.281435 0.093646 0.246416
O O1 0.254013 0.431241 0.530809
O O2 0.118488 0.451357 0.780921
O O3 0.206291 0.594341 0.642715
O O4 0.005388 0.511749 0.530033
O O5 0.533286 0.681394 0.935438
O O6 0.409321 0.836963 0.866566
O O7 0.627729 0.916850 0.892807
O O8 0.420223 0.018574 0.927135
O O9 0.474147 0.903624 0.130037
O O10 0.086929 0.696705 0.168492
O O11 0.290919 0.788194 0.160011
O O12 0.277994 0.690106 0.920554
O O13 0.917511 0.145782 0.397185
O O14 0.767581 0.020398 0.213194
O O15 0.170064 0.163855 0.314559
O O16 0.133794 0.141614 0.611604
#
# Coordination Sequence:
#
# PCOD9340120 Si02
#       8
#     4   4   4   4   4   4   4   4
#     4  11  22  41  65  93 123 161 201 253 312 376
#     4  11  23  41  66  93 127 162 204 249 309 375
#     4   9  19  35  52  75 109 145 191 241 293 353
#     4  10  20  36  60  86 116 149 195 247 299 357
#     4  10  21  37  59  88 119 155 197 251 305 367
#     4   9  19  34  53  78 107 146 194 244 294 351
#     4  10  19  32  52  76 107 148 193 242 296 353
#     4  10  19  32  51  75 108 150 191 241 298 354
#
# _framework density 24.857897000000001
#
# number of rings (size 3 to 8) (size 9 to 14) (size 15 to 20)
#    0.000    2.000    0.000    4.500    0.000    2.000 
#    0.000    6.250    0.000    0.000    0.000    0.000 
#    0.000    0.000    0.000    0.000    0.000    0.000 
#
# Total GULP energy -178201.446082 kJ/mol
# GULP energy per Si atom -5568.795190 kJ/mol
# Density = 2.480132 g / cm^3
# Si number density = 24.857897 Si / 1000 Ang^3
#
#
#
# Elastic Constant Matrix: (Units=GPa)
#
#
# Indices 1 2 3 4 5 6 
#
# 1 48.2598 -16.5146 26.2741 0.0000 0.0000 0.0000
# 2 -16.5146 46.7161 0.2975 0.0000 0.0000 0.0000
# 3 26.2741 0.2975 89.3074 0.0000 0.0000 0.0000
# 4 0.0000 0.0000 0.0000 22.9232 0.0000 0.0000
# 5 0.0000 0.0000 0.0000 0.0000 49.6214 0.0000
# 6 0.0000 0.0000 0.0000 0.0000 0.0000 23.8007
#
#
#
# Elastic Compliance Matrix: (Units=1/GPa)
#
#
# Indices 1 2 3 4 5 6 
#
# 1 0.028877 0.010263 -0.008530 0.000000 0.000000 0.000000
# 2 0.010263 0.025054 -0.003103 0.000000 0.000000 0.000000
# 3 -0.008530 -0.003103 0.013717 0.000000 0.000000 0.000000
# 4 0.000000 0.000000 0.000000 0.043624 0.000000 0.000000
# 5 0.000000 0.000000 0.000000 0.000000 0.020153 0.000000
# 6 0.000000 0.000000 0.000000 0.000000 0.000000 0.042016
#
#
# Mechanical properties :
#
#
# Convention : Reuss Voigt Hill
#
# Bulk Modulus (GPa) = 15.40647 22.71083 19.05865
# Shear Modulus (GPa) = 25.27610 30.88413 28.08011
#
# Velocity S-wave (km/s) = 3.19223 3.52863 3.36464
# Velocity P-wave (km/s) = 4.44953 5.07521 4.77264
#
# Compressibility (1/GPa) = 0.06490778
#
# Stress axis : x y z
#
# Youngs Moduli (GPa) = 34.62975 39.91449 72.90196
#
# Poissons Ratio (x) = -0.40963 0.62183
# Poissons Ratio (y) = -0.35539 0.22619
# Poissons Ratio (z) = 0.29538 0.12384
#
# Static dielectric constant tensor:
#      x y z
#    x 2.321720 0.000000 0.000000 
#    y 0.000000 1.967200 0.000000 
#    z 0.000000 0.000000 2.027600 
# 
# From -- ./inp_files/1586.got.cif
#   From: 2010.05.17/outbox.cif.g08.bks.cpg/sg29_1_cif.got.tgz:1586.got - 2010.06.04 01:19:37.
