data_PCOD9340031
_publ_section_title
;
Structure prediction by ZEFSAII (Michael W. Deem and Ramdas Pophale) SiO2 
 PCOD9340031
Probable space group: P C A 21
;
_chemical_formula_sum "Si O2"
_cell_formula_units_Z 32
_cell_length_a 12.857917
_cell_length_b 7.282336
_cell_length_c 15.629872
_cell_angle_alpha 90.000000
_cell_angle_beta 90.000000
_cell_angle_gamma 90.000000
_cell_volume 1463.513566
_symmetry_space_group_name_H-M "P C A 21"
_symmetry_group_IT_number 29
_symmetry_cell_setting 'orthorhombic'
loop_
_space_group_symop_operation_xyz
x,y,z
-x,-y,1/2+z
1/2-x,y,1/2+z
1/2+x,-y,z
loop_
_atom_site_type_symbol
_atom_site_label
_atom_site_fract_x
_atom_site_fract_y
_atom_site_fract_z
Si Si1 0.769258 0.764440 0.145700
Si Si2 0.411487 0.144443 0.548578
Si Si3 0.538928 0.650665 0.738796
Si Si4 0.607436 0.319904 0.614302
Si Si5 0.158734 0.426711 0.907465
Si Si6 0.909730 0.239056 0.479294
Si Si7 0.137295 0.371998 0.475520
Si Si8 0.174226 0.647943 0.164312
O O1 0.668001 0.885385 0.127432
O O2 0.870798 0.788922 0.204032
O O3 0.819780 0.757007 0.051128
O O4 0.716129 0.564511 0.168708
O O5 0.525071 0.168053 0.587934
O O6 0.383650 0.327178 0.493812
O O7 0.402398 0.977290 0.483327
O O8 0.555222 0.469773 0.678193
O O9 0.578707 0.614101 0.833388
O O10 0.416427 0.692970 0.731862
O O11 0.633502 0.433739 0.526890
O O12 0.713989 0.252137 0.657451
O O13 0.165059 0.645538 0.919211
O O14 0.278336 0.365516 0.900377
O O15 0.884284 0.309012 0.575116
O O16 0.023836 0.305759 0.453015
#
# Coordination Sequence:
#
# PCOD9340031 Si02
#       8
#     4   4   4   4   4   4   4   4
#     4   9  17  36  62  84 114 152 205 257 301 360
#     4  11  22  38  63  91 119 160 211 263 303 367
#     4  10  19  35  67  87 121 168 198 252 329 374
#     4  10  18  37  60  86 114 151 210 253 296 363
#     4  11  22  39  59  91 130 159 200 261 319 380
#     4  12  20  36  66  89 117 163 209 253 309 372
#     4   9  17  35  59  83 117 153 204 247 302 359
#     4  10  17  36  62  87 112 154 209 246 303 369
#
# _framework density 21.865189000000001
#
# number of rings (size 3 to 8) (size 9 to 14) (size 15 to 20)
#    0.000    2.000    8.750    0.000    0.000    4.000 
#    0.000    1.250    2.750    0.000    0.000    0.000 
#    0.000    0.000    0.000    0.000    0.000    0.000 
#
# Total GULP energy -178197.381099 kJ/mol
# GULP energy per Si atom -5568.668159 kJ/mol
# Density = 2.181542 g / cm^3
# Si number density = 21.865189 Si / 1000 Ang^3
#
#
#
# Elastic Constant Matrix: (Units=GPa)
#
#
# Indices 1 2 3 4 5 6 
#
# 1 136.1791 24.3697 -6.4160 0.0000 0.0000 0.0000
# 2 24.3697 57.5929 1.8351 0.0000 0.0000 0.0000
# 3 -6.4160 1.8351 22.6666 0.0000 0.0000 0.0000
# 4 0.0000 0.0000 0.0000 10.1824 0.0000 0.0000
# 5 0.0000 0.0000 0.0000 0.0000 15.0434 0.0000
# 6 0.0000 0.0000 0.0000 0.0000 0.0000 13.1441
#
#
#
# Elastic Compliance Matrix: (Units=1/GPa)
#
#
# Indices 1 2 3 4 5 6 
#
# 1 0.008092 -0.003506 0.002574 0.000000 0.000000 0.000000
# 2 -0.003506 0.018927 -0.002525 0.000000 0.000000 0.000000
# 3 0.002574 -0.002525 0.045051 0.000000 0.000000 0.000000
# 4 0.000000 0.000000 0.000000 0.098209 0.000000 0.000000
# 5 0.000000 0.000000 0.000000 0.000000 0.066474 0.000000
# 6 0.000000 0.000000 0.000000 0.000000 0.000000 0.076080
#
#
# Mechanical properties :
#
#
# Convention : Reuss Voigt Hill
#
# Bulk Modulus (GPa) = 15.34750 28.44624 21.89687
# Shear Modulus (GPa) = 14.64282 20.78399 17.71341
#
# Velocity S-wave (km/s) = 2.59064 3.08645 2.84935
# Velocity P-wave (km/s) = 3.99786 5.07342 4.56741
#
# Compressibility (1/GPa) = 0.06515720
#
# Stress axis : x y z
#
# Youngs Moduli (GPa) = 123.57928 52.83397 22.19714
#
# Poissons Ratio (x) = 0.18524 -0.05714
# Poissons Ratio (y) = 0.43327 0.05604
# Poissons Ratio (z) = -0.31814 0.13339
#
# Static dielectric constant tensor:
#      x y z
#    x 1.898230 0.000000 0.000000 
#    y 0.000000 1.853830 0.000000 
#    z 0.000000 0.000000 1.796490 
# 
# From -- ./inp_files/5149.got.cif
#   From: 2010.05.17/outbox.cif.g08.bks.cpg/sg29_3_cif.got.tgz:5149.got - 2010.06.04 01:19:37.
