data_PCOD9340694
_publ_section_title
;
Structure prediction by ZEFSAII (Michael W. Deem and Ramdas Pophale) SiO2 
 PCOD9340694
Probable space group: P C A 21
;
_chemical_formula_sum "Si O2"
_cell_formula_units_Z 32
_cell_length_a 14.393624
_cell_length_b 10.779212
_cell_length_c 9.152446
_cell_angle_alpha 90.000000
_cell_angle_beta 90.000000
_cell_angle_gamma 90.000000
_cell_volume 1420.019611
_symmetry_space_group_name_H-M "P C A 21"
_symmetry_group_IT_number 29
_symmetry_cell_setting 'orthorhombic'
loop_
_space_group_symop_operation_xyz
x,y,z
-x,-y,1/2+z
1/2-x,y,1/2+z
1/2+x,-y,z
loop_
_atom_site_type_symbol
_atom_site_label
_atom_site_fract_x
_atom_site_fract_y
_atom_site_fract_z
Si Si1 0.673374 0.582123 0.194260
Si Si2 0.543039 0.047918 0.983839
Si Si3 0.461564 0.332158 0.209148
Si Si4 0.423391 0.866487 0.812580
Si Si5 0.002659 0.313515 0.380624
Si Si6 0.253744 0.000933 0.930254
Si Si7 0.283186 0.172186 0.188229
Si Si8 0.659738 0.472452 0.879892
O O1 0.577648 0.629022 0.269079
O O2 0.725295 0.707870 0.138610
O O3 0.742453 0.510885 0.306567
O O4 0.663465 0.497189 0.052172
O O5 0.492145 0.165723 0.909350
O O6 0.488703 0.925216 0.937044
O O7 0.647619 0.039038 0.926502
O O8 0.554049 0.067187 0.157527
O O9 0.554060 0.276299 0.280299
O O10 0.387277 0.219499 0.207698
O O11 0.414410 0.433432 0.308495
O O12 0.475250 0.369890 0.041606
O O13 0.320767 0.898280 0.864834
O O14 0.894356 0.344340 0.347969
O O15 0.261791 0.127808 0.838359
O O16 0.280380 0.049754 0.089826
#
# Coordination Sequence:
#
# PCOD9340694 Si02
#       8
#     4   4   4   4   4   4   4   4
#     4  11  23  42  72  97 126 170 220 270 321 375
#     4  11  25  42  62  97 131 172 214 260 326 383
#     4  10  21  41  66  93 127 167 219 270 318 380
#     4  11  23  40  64  91 134 168 210 267 320 384
#     4  11  24  45  65  95 131 170 215 272 320 388
#     4  12  22  38  60  95 130 171 206 258 321 383
#     4  11  20  38  65  93 128 166 218 261 306 384
#     4  11  24  44  68  99 123 168 220 268 324 383
#
# _framework density 22.5349
#
# number of rings (size 3 to 8) (size 9 to 14) (size 15 to 20)
#    0.000    1.000    2.500    6.750    0.000    0.000 
#    6.750    0.000    0.000    0.000    0.000    0.000 
#    0.000    0.000    0.000    0.000    0.000    0.000 
#
# Total GULP energy -178828.918848 kJ/mol
# GULP energy per Si atom -5588.403714 kJ/mol
# Density = 2.248361 g / cm^3
# Si number density = 22.534900 Si / 1000 Ang^3
#
#
#
# Elastic Constant Matrix: (Units=GPa)
#
#
# Indices 1 2 3 4 5 6 
#
# 1 72.8553 5.1594 -3.3295 0.0000 0.0000 0.0000
# 2 5.1594 24.0469 4.1220 0.0000 0.0000 0.0000
# 3 -3.3295 4.1220 56.5027 0.0000 0.0000 0.0000
# 4 0.0000 0.0000 0.0000 19.5693 0.0000 0.0000
# 5 0.0000 0.0000 0.0000 0.0000 27.5168 0.0000
# 6 0.0000 0.0000 0.0000 0.0000 0.0000 43.2595
#
#
#
# Elastic Compliance Matrix: (Units=1/GPa)
#
#
# Indices 1 2 3 4 5 6 
#
# 1 0.014000 -0.003185 0.001057 0.000000 0.000000 0.000000
# 2 -0.003185 0.042837 -0.003313 0.000000 0.000000 0.000000
# 3 0.001057 -0.003313 0.018002 0.000000 0.000000 0.000000
# 4 0.000000 0.000000 0.000000 0.051100 0.000000 0.000000
# 5 0.000000 0.000000 0.000000 0.000000 0.036341 0.000000
# 6 0.000000 0.000000 0.000000 0.000000 0.000000 0.023116
#
#
# Mechanical properties :
#
#
# Convention : Reuss Voigt Hill
#
# Bulk Modulus (GPa) = 15.63528 18.36763 17.00146
# Shear Modulus (GPa) = 22.97828 27.89932 25.43880
#
# Velocity S-wave (km/s) = 3.19670 3.52241 3.36350
# Velocity P-wave (km/s) = 4.53635 4.97108 4.75868
#
# Compressibility (1/GPa) = 0.06395790
#
# Stress axis : x y z
#
# Youngs Moduli (GPa) = 71.43008 23.34449 55.54865
#
# Poissons Ratio (x) = 0.07435 -0.05873
# Poissons Ratio (y) = 0.22750 0.18402
# Poissons Ratio (z) = -0.07552 0.07733
#
# Static dielectric constant tensor:
#      x y z
#    x 1.856040 0.000000 0.000000 
#    y 0.000000 1.871590 0.000000 
#    z 0.000000 0.000000 1.808670 
# 
# From -- ./inp_files/1825.got.cif
#   From: 2010.05.17/outbox.cif.g08.bks.cpg/sg29_1_cif.got.tgz:1825.got - 2010.06.04 01:19:37.
