data_PCOD9340291
_publ_section_title
;
Structure prediction by ZEFSAII (Michael W. Deem and Ramdas Pophale) SiO2 
 PCOD9340291
Probable space group: P C A 21
;
_chemical_formula_sum "Si O2"
_cell_formula_units_Z 28
_cell_length_a 15.905492
_cell_length_b 8.926726
_cell_length_c 8.593946
_cell_angle_alpha 90.000000
_cell_angle_beta 90.000000
_cell_angle_gamma 90.000000
_cell_volume 1220.202562
_symmetry_space_group_name_H-M "P C A 21"
_symmetry_group_IT_number 29
_symmetry_cell_setting 'orthorhombic'
loop_
_space_group_symop_operation_xyz
x,y,z
-x,-y,1/2+z
1/2-x,y,1/2+z
1/2+x,-y,z
loop_
_atom_site_type_symbol
_atom_site_label
_atom_site_fract_x
_atom_site_fract_y
_atom_site_fract_z
Si Si1 0.452939 0.578817 0.449770
Si Si2 0.671707 0.177441 0.930965
Si Si3 0.375269 0.272737 0.833734
Si Si4 0.148558 0.913207 0.294152
Si Si5 0.496138 0.701980 0.775416
Si Si6 0.641273 0.909058 0.757084
Si Si7 0.269163 0.242055 0.547756
O O1 0.364423 0.656750 0.409239
O O2 0.532767 0.664680 0.370014
O O3 0.463001 0.602687 0.633531
O O4 0.460339 0.409634 0.394731
O O5 0.654464 0.125326 0.108676
O O6 0.766476 0.141555 0.878693
O O7 0.619734 0.074363 0.809909
O O8 0.329276 0.319584 0.672647
O O9 0.372434 0.088787 0.824908
O O10 0.308224 0.327084 0.965535
O O11 0.074292 0.805110 0.352654
O O12 0.561866 0.817991 0.700802
O O13 0.718034 0.888300 0.639687
O O14 0.675539 0.829384 0.912864
#
# Coordination Sequence:
#
# PCOD9340291 Si02
#       7
#     4   4   4   4   4   4   4
#     4  11  27  45  60  89 131 171 211 253 311 374
#     4  11  22  42  66  97 124 159 207 262 312 369
#     4  11  19  42  65  97 123 159 205 265 309 372
#     4  11  22  42  66  97 124 159 207 262 312 369
#     4  11  27  45  60  89 131 171 211 253 311 374
#     4  11  19  42  65  97 123 159 205 265 309 372
#     4  10  20  34  70  98 124 152 208 256 320 366
#
# _framework density 22.947009999999999
#
# number of rings (size 3 to 8) (size 9 to 14) (size 15 to 20)
#    0.000    1.143    5.714    0.857    2.000    1.143 
#    5.143    0.000    0.000    0.000    0.000    0.000 
#    0.000    0.000    0.000    0.000    0.000    0.000 
#
# Total GULP energy -156396.233293 kJ/mol
# GULP energy per Si atom -5585.579760 kJ/mol
# Density = 2.289478 g / cm^3
# Si number density = 22.947010 Si / 1000 Ang^3
#
#
#
# Elastic Constant Matrix: (Units=GPa)
#
#
# Indices 1 2 3 4 5 6 
#
# 1 79.3070 50.8560 3.4840 0.0000 0.0000 0.0000
# 2 50.8560 87.4231 5.6516 0.0000 0.0000 0.0000
# 3 3.4840 5.6516 72.1054 0.0000 0.0000 0.0000
# 4 0.0000 0.0000 0.0000 26.9318 0.0000 0.0000
# 5 0.0000 0.0000 0.0000 0.0000 28.4052 0.0000
# 6 0.0000 0.0000 0.0000 0.0000 0.0000 32.1141
#
#
#
# Elastic Compliance Matrix: (Units=1/GPa)
#
#
# Indices 1 2 3 4 5 6 
#
# 1 0.020112 -0.011696 -0.000055 0.000000 0.000000 0.000000
# 2 -0.011696 0.018299 -0.000869 0.000000 0.000000 0.000000
# 3 -0.000055 -0.000869 0.013939 0.000000 0.000000 0.000000
# 4 0.000000 0.000000 0.000000 0.037131 0.000000 0.000000
# 5 0.000000 0.000000 0.000000 0.000000 0.035205 0.000000
# 6 0.000000 0.000000 0.000000 0.000000 0.000000 0.031139
#
#
# Mechanical properties :
#
#
# Convention : Reuss Voigt Hill
#
# Bulk Modulus (GPa) = 36.88737 39.86877 38.37807
# Shear Modulus (GPa) = 26.30185 29.41315 27.85750
#
# Velocity S-wave (km/s) = 3.38923 3.58409 3.48802
# Velocity P-wave (km/s) = 5.60587 5.87704 5.74305
#
# Compressibility (1/GPa) = 0.02710955
#
# Stress axis : x y z
#
# Youngs Moduli (GPa) = 49.72241 54.64917 71.73931
#
# Poissons Ratio (x) = 0.63917 0.00395
# Poissons Ratio (y) = 0.58155 0.06235
# Poissons Ratio (z) = 0.00274 0.04750
#
# Static dielectric constant tensor:
#      x y z
#    x 1.876300 0.000000 0.000000 
#    y 0.000000 1.868050 0.000000 
#    z 0.000000 0.000000 1.901100 
# 
# From -- ./inp_files/2091.got.cif
#   From: 2010.05.17/outbox.cif.g08.bks.cpg/sg29_2_cif.got.tgz:2091.got - 2010.06.04 01:19:37.
