data_PCOD9340833
_publ_section_title
;
Structure prediction by ZEFSAII (Michael W. Deem and Ramdas Pophale) SiO2 
 PCOD9340833
Probable space group: P C A 21
;
_chemical_formula_sum "Si O2"
_cell_formula_units_Z 28
_cell_length_a 12.822202
_cell_length_b 10.139654
_cell_length_c 9.066930
_cell_angle_alpha 90.000000
_cell_angle_beta 90.000000
_cell_angle_gamma 90.000000
_cell_volume 1178.815976
_symmetry_space_group_name_H-M "P C A 21"
_symmetry_group_IT_number 29
_symmetry_cell_setting 'orthorhombic'
loop_
_space_group_symop_operation_xyz
x,y,z
-x,-y,1/2+z
1/2-x,y,1/2+z
1/2+x,-y,z
loop_
_atom_site_type_symbol
_atom_site_label
_atom_site_fract_x
_atom_site_fract_y
_atom_site_fract_z
Si Si1 0.685563 0.050466 0.181860
Si Si2 0.114713 0.357690 0.693937
Si Si3 0.443899 0.226574 0.682162
Si Si4 0.496417 0.845229 0.864219
Si Si5 0.243658 0.483826 0.448969
Si Si6 0.112186 0.523875 0.199178
Si Si7 0.615692 0.106872 0.865307
O O1 0.613826 0.140201 0.287047
O O2 0.802028 0.060261 0.242477
O O3 0.634641 0.901147 0.187436
O O4 0.676011 0.112793 0.019367
O O5 0.180943 0.375888 0.545936
O O6 0.078094 0.214833 0.746635
O O7 0.004986 0.432199 0.675561
O O8 0.178399 0.421417 0.829336
O O9 0.492564 0.229568 0.518001
O O10 0.386395 0.364222 0.704902
O O11 0.539923 0.217480 0.797695
O O12 0.533070 0.991948 0.898219
O O13 0.160554 0.566120 0.354909
O O14 0.312272 0.563554 0.566201
#
# Coordination Sequence:
#
# PCOD9340833 Si02
#       7
#     4   4   4   4   4   4   4
#     4  10  22  39  61  90 123 163 208 254 314 376
#     4  11  23  43  64  95 129 160 212 265 311 382
#     4  10  22  40  63  90 124 163 203 262 311 364
#     4  10  22  40  63  90 124 163 203 262 311 364
#     4  10  24  40  66  94 118 174 212 250 326 370
#     4  11  23  43  64  95 129 160 212 265 311 382
#     4  10  22  39  61  90 123 163 208 254 314 376
#
# _framework density 23.752645999999999
#
# number of rings (size 3 to 8) (size 9 to 14) (size 15 to 20)
#    0.000    1.714    1.429    1.714    6.000    1.143 
#    5.143    0.000    0.000    0.000    0.000    0.000 
#    0.000    0.000    0.000    0.000    0.000    0.000 
#
# Total GULP energy -156540.030835 kJ/mol
# GULP energy per Si atom -5590.715387 kJ/mol
# Density = 2.369858 g / cm^3
# Si number density = 23.752646 Si / 1000 Ang^3
#
#
#
# Elastic Constant Matrix: (Units=GPa)
#
#
# Indices 1 2 3 4 5 6 
#
# 1 96.5961 11.5016 37.6708 0.0000 0.0000 0.0000
# 2 11.5016 56.3225 18.7634 0.0000 0.0000 0.0000
# 3 37.6708 18.7634 125.6169 0.0000 0.0000 0.0000
# 4 0.0000 0.0000 0.0000 3.4844 0.0000 0.0000
# 5 0.0000 0.0000 0.0000 0.0000 48.4586 0.0000
# 6 0.0000 0.0000 0.0000 0.0000 0.0000 14.6320
#
#
#
# Elastic Compliance Matrix: (Units=1/GPa)
#
#
# Indices 1 2 3 4 5 6 
#
# 1 0.011813 -0.001297 -0.003349 0.000000 0.000000 0.000000
# 2 -0.001297 0.018827 -0.002423 0.000000 0.000000 0.000000
# 3 -0.003349 -0.002423 0.009327 0.000000 0.000000 0.000000
# 4 0.000000 0.000000 0.000000 0.286994 0.000000 0.000000
# 5 0.000000 0.000000 0.000000 0.000000 0.020636 0.000000
# 6 0.000000 0.000000 0.000000 0.000000 0.000000 0.068343
#
#
# Mechanical properties :
#
#
# Convention : Reuss Voigt Hill
#
# Bulk Modulus (GPa) = 38.71602 46.04524 42.38063
# Shear Modulus (GPa) = 11.39763 27.35498 19.37631
#
# Velocity S-wave (km/s) = 2.19292 3.39729 2.85924
# Velocity P-wave (km/s) = 4.76937 5.90053 5.36484
#
# Compressibility (1/GPa) = 0.02582910
#
# Stress axis : x y z
#
# Youngs Moduli (GPa) = 84.65429 53.11525 107.21619
#
# Poissons Ratio (x) = 0.06887 0.35905
# Poissons Ratio (y) = 0.10977 0.25982
# Poissons Ratio (z) = 0.28349 0.12872
#
# Static dielectric constant tensor:
#      x y z
#    x 1.895780 0.000000 0.000000 
#    y 0.000000 1.930560 0.000000 
#    z 0.000000 0.000000 1.937290 
# 
# From -- ./inp_files/1451.got.cif
#   From: 2010.05.17/outbox.cif.g08.bks.cpg/sg29_1_cif.got.tgz:1451.got - 2010.06.04 01:19:37.
