data_PCOD9340958
_publ_section_title
;
Structure prediction by ZEFSAII (Michael W. Deem and Ramdas Pophale) SiO2 
 PCOD9340958
Probable space group: P C A 21
;
_chemical_formula_sum "Si O2"
_cell_formula_units_Z 28
_cell_length_a 9.531182
_cell_length_b 13.801834
_cell_length_c 8.790787
_cell_angle_alpha 90.000000
_cell_angle_beta 90.000000
_cell_angle_gamma 90.000000
_cell_volume 1156.408618
_symmetry_space_group_name_H-M "P C A 21"
_symmetry_group_IT_number 29
_symmetry_cell_setting 'orthorhombic'
loop_
_space_group_symop_operation_xyz
x,y,z
-x,-y,1/2+z
1/2-x,y,1/2+z
1/2+x,-y,z
loop_
_atom_site_type_symbol
_atom_site_label
_atom_site_fract_x
_atom_site_fract_y
_atom_site_fract_z
Si Si1 0.643540 0.162466 0.373100
Si Si2 0.378930 0.177346 0.569073
Si Si3 0.563414 0.527629 0.784070
Si Si4 0.305283 0.498009 0.590179
Si Si5 0.417290 0.200461 0.923466
Si Si6 0.162091 0.666879 0.891672
Si Si7 0.882456 0.055203 0.560853
O O1 0.509591 0.202824 0.461813
O O2 0.740906 0.251685 0.320679
O O3 0.741732 0.099340 0.485511
O O4 0.602062 0.098514 0.229222
O O5 0.401375 0.209008 0.742280
O O6 0.231102 0.211987 0.503221
O O7 0.376030 0.059794 0.565186
O O8 0.408546 0.536775 0.721416
O O9 0.680524 0.562376 0.664379
O O10 0.587564 0.410971 0.784771
O O11 0.606490 0.554902 0.956005
O O12 0.255633 0.595466 0.504680
O O13 0.535487 0.276858 0.974918
O O14 0.487031 0.096772 0.964189
#
# Coordination Sequence:
#
# PCOD9340958 Si02
#       7
#     4   4   4   4   4   4   4
#     4  11  23  39  66  94 125 170 216 266 325 369
#     4  12  23  40  61  92 126 175 215 264 314 376
#     4  10  22  42  69  97 127 160 210 255 322 390
#     4  10  22  42  69  95 127 160 210 255 322 390
#     4  11  25  41  58  92 130 163 214 263 318 368
#     4   9  25  41  67  93 131 161 216 257 323 381
#     4  11  22  39  64  89 128 169 221 262 316 380
#
# _framework density 24.212895
#
# number of rings (size 3 to 8) (size 9 to 14) (size 15 to 20)
#    0.857    0.571    0.000    6.000    6.000    0.000 
#    2.571    0.000    0.000    0.000    0.000    0.000 
#    0.000    0.000    0.000    0.000    0.000    0.000 
#
# Total GULP energy -156625.906663 kJ/mol
# GULP energy per Si atom -5593.782381 kJ/mol
# Density = 2.415779 g / cm^3
# Si number density = 24.212895 Si / 1000 Ang^3
#
#
#
# Elastic Constant Matrix: (Units=GPa)
#
#
# Indices 1 2 3 4 5 6 
#
# 1 117.2542 -3.5366 30.5618 0.0000 0.0000 0.0000
# 2 -3.5366 49.0537 6.2209 0.0000 0.0000 0.0000
# 3 30.5618 6.2209 105.1873 0.0000 0.0000 0.0000
# 4 0.0000 0.0000 0.0000 23.5922 0.0000 0.0000
# 5 0.0000 0.0000 0.0000 0.0000 49.9133 0.0000
# 6 0.0000 0.0000 0.0000 0.0000 0.0000 21.3079
#
#
#
# Elastic Compliance Matrix: (Units=1/GPa)
#
#
# Indices 1 2 3 4 5 6 
#
# 1 0.009277 0.001018 -0.002756 0.000000 0.000000 0.000000
# 2 0.001018 0.020652 -0.001517 0.000000 0.000000 0.000000
# 3 -0.002756 -0.001517 0.010397 0.000000 0.000000 0.000000
# 4 0.000000 0.000000 0.000000 0.042387 0.000000 0.000000
# 5 0.000000 0.000000 0.000000 0.000000 0.020035 0.000000
# 6 0.000000 0.000000 0.000000 0.000000 0.000000 0.046931
#
#
# Mechanical properties :
#
#
# Convention : Reuss Voigt Hill
#
# Bulk Modulus (GPa) = 29.57084 37.55415 33.56249
# Shear Modulus (GPa) = 29.85776 34.84596 32.35186
#
# Velocity S-wave (km/s) = 3.51541 3.79773 3.65929
# Velocity P-wave (km/s) = 5.35881 5.89694 5.63431
#
# Compressibility (1/GPa) = 0.03381710
#
# Stress axis : x y z
#
# Youngs Moduli (GPa) = 107.78802 48.42224 96.17923
#
# Poissons Ratio (x) = -0.04931 0.26505
# Poissons Ratio (y) = -0.10977 0.14593
# Poissons Ratio (z) = 0.29704 0.07347
#
# Static dielectric constant tensor:
#      x y z
#    x 1.929550 0.000000 0.000000 
#    y 0.000000 1.944380 0.000000 
#    z 0.000000 0.000000 1.913410 
# 
# From -- ./inp_files/1229.got.cif
#   From: 2010.05.17/outbox.cif.g08.bks.cpg/sg29_1_cif.got.tgz:1229.got - 2010.06.04 01:19:37.
