data_PCOD9340405
_publ_section_title
;
Structure prediction by ZEFSAII (Michael W. Deem and Ramdas Pophale) SiO2 
 PCOD9340405
Probable space group: P C A 21
;
_chemical_formula_sum "Si O2"
_cell_formula_units_Z 24
_cell_length_a 12.545714
_cell_length_b 10.112774
_cell_length_c 7.836911
_cell_angle_alpha 90.000000
_cell_angle_beta 90.000000
_cell_angle_gamma 90.000000
_cell_volume 994.284340
_symmetry_space_group_name_H-M "P C A 21"
_symmetry_group_IT_number 29
_symmetry_cell_setting 'orthorhombic'
loop_
_space_group_symop_operation_xyz
x,y,z
-x,-y,1/2+z
1/2-x,y,1/2+z
1/2+x,-y,z
loop_
_atom_site_type_symbol
_atom_site_label
_atom_site_fract_x
_atom_site_fract_y
_atom_site_fract_z
Si Si1 0.467426 0.462168 0.094210
Si Si2 0.689792 0.950065 0.837485
Si Si3 0.319810 0.857777 0.612467
Si Si4 0.666569 0.550109 0.935270
Si Si5 0.831783 0.331946 0.897561
Si Si6 0.664054 0.766788 0.533606
O O1 0.415406 0.433004 0.277471
O O2 0.430728 0.332969 0.986217
O O3 0.592208 0.484174 0.078468
O O4 0.415550 0.597444 0.022445
O O5 0.641777 0.837778 0.714785
O O6 0.729118 0.063863 0.713951
O O7 0.798743 0.883159 0.909247
O O8 0.629242 0.026859 0.991806
O O9 0.253051 0.757792 0.497670
O O10 0.378459 0.766237 0.752578
O O11 0.755202 0.455310 0.852352
O O12 0.730416 0.671671 0.021641
#
# Coordination Sequence:
#
# PCOD9340405 Si02
#       6
#     4   4   4   4   4   4
#     4  11  24  36  59  91 121 158 195 248 314 363
#     4   9  18  34  62  88 108 157 201 239 294 356
#     4   9  18  34  62  88 108 157 201 239 294 356
#     4  11  24  36  59  91 121 158 195 248 314 363
#     4  10  20  39  60  87 123 151 201 249 301 365
#     4  10  20  39  60  87 123 151 201 249 301 365
#
# _framework density 24.137965999999999
#
# number of rings (size 3 to 8) (size 9 to 14) (size 15 to 20)
#    0.000    2.000    3.333    0.000    4.667    0.000 
#    0.000    0.000    0.000   30.000    0.000    0.000 
#    0.000    0.000    0.000    0.000    0.000    0.000 
#
# Total GULP energy -133689.968858 kJ/mol
# GULP energy per Si atom -5570.415369 kJ/mol
# Density = 2.408303 g / cm^3
# Si number density = 24.137966 Si / 1000 Ang^3
#
#
#
# Elastic Constant Matrix: (Units=GPa)
#
#
# Indices 1 2 3 4 5 6 
#
# 1 71.9918 13.9197 20.1904 0.0000 0.0000 0.0000
# 2 13.9197 119.9242 54.0345 0.0000 0.0000 0.0000
# 3 20.1904 54.0345 79.9574 0.0000 0.0000 0.0000
# 4 0.0000 0.0000 0.0000 57.0877 0.0000 0.0000
# 5 0.0000 0.0000 0.0000 0.0000 29.9197 0.0000
# 6 0.0000 0.0000 0.0000 0.0000 0.0000 9.1834
#
#
#
# Elastic Compliance Matrix: (Units=1/GPa)
#
#
# Indices 1 2 3 4 5 6 
#
# 1 0.014949 -0.000049 -0.003742 0.000000 0.000000 0.000000
# 2 -0.000049 0.011989 -0.008090 0.000000 0.000000 0.000000
# 3 -0.003742 -0.008090 0.018919 0.000000 0.000000 0.000000
# 4 0.000000 0.000000 0.000000 0.017517 0.000000 0.000000
# 5 0.000000 0.000000 0.000000 0.000000 0.033423 0.000000
# 6 0.000000 0.000000 0.000000 0.000000 0.000000 0.108893
#
#
# Mechanical properties :
#
#
# Convention : Reuss Voigt Hill
#
# Bulk Modulus (GPa) = 45.25770 49.79585 47.52677
# Shear Modulus (GPa) = 21.11340 31.48674 26.30007
#
# Velocity S-wave (km/s) = 2.96074 3.61563 3.30445
# Velocity P-wave (km/s) = 5.52071 6.17291 5.85590
#
# Compressibility (1/GPa) = 0.02209569
#
# Stress axis : x y z
#
# Youngs Moduli (GPa) = 66.89254 83.40710 52.85826
#
# Poissons Ratio (x) = 0.00411 0.19777
# Poissons Ratio (y) = 0.00330 0.42762
# Poissons Ratio (z) = 0.25029 0.67475
#
# Static dielectric constant tensor:
#      x y z
#    x 1.897840 0.000000 0.000000 
#    y 0.000000 1.983580 0.000000 
#    z 0.000000 0.000000 2.088830 
# 
# From -- ./inp_files/1435.got.cif
#   From: 2010.05.17/outbox.cif.g08.bks.cpg/sg29_1_cif.got.tgz:1435.got - 2010.06.04 01:19:37.
