data_PCOD9340948
_publ_section_title
;
Structure prediction by ZEFSAII (Michael W. Deem and Ramdas Pophale) SiO2 
 PCOD9340948
Probable space group: P C A 21
;
_chemical_formula_sum "Si O2"
_cell_formula_units_Z 28
_cell_length_a 10.794521
_cell_length_b 10.197040
_cell_length_c 10.372748
_cell_angle_alpha 90.000000
_cell_angle_beta 90.000000
_cell_angle_gamma 90.000000
_cell_volume 1141.750803
_symmetry_space_group_name_H-M "P C A 21"
_symmetry_group_IT_number 29
_symmetry_cell_setting 'orthorhombic'
loop_
_space_group_symop_operation_xyz
x,y,z
-x,-y,1/2+z
1/2-x,y,1/2+z
1/2+x,-y,z
loop_
_atom_site_type_symbol
_atom_site_label
_atom_site_fract_x
_atom_site_fract_y
_atom_site_fract_z
Si Si1 0.863639 0.769810 0.572900
Si Si2 0.425300 0.577789 0.121484
Si Si3 0.548872 0.050859 0.148792
Si Si4 0.621614 0.007181 0.418814
Si Si5 0.489300 0.597609 0.390377
Si Si6 0.757753 0.745948 0.823037
Si Si7 0.217082 0.752517 0.020274
O O1 0.752434 0.727179 0.669348
O O2 0.846367 0.721342 0.428238
O O3 0.990748 0.709297 0.625505
O O4 0.878928 0.924469 0.591346
O O5 0.439294 0.521597 0.264643
O O6 0.489511 0.486324 0.017521
O O7 0.292142 0.628321 0.075332
O O8 0.524680 0.033189 0.301029
O O9 0.638819 0.174137 0.130541
O O10 0.435302 0.054825 0.048965
O O11 0.690961 0.140617 0.457294
O O12 0.708469 0.897524 0.354411
O O13 0.622760 0.661058 0.363226
O O14 0.384348 0.705238 0.417938
#
# Coordination Sequence:
#
# PCOD9340948 Si02
#       7
#     4   4   4   4   4   4   4
#     4  10  22  42  66  99 137 178 225 283 344 414
#     4  11  27  48  69  99 139 186 242 293 345 415
#     4  11  23  40  67 102 140 177 218 278 347 418
#     4  11  23  40  67 102 140 177 218 278 347 418
#     4  11  27  48  69  99 139 186 242 293 345 415
#     4  10  22  42  66  99 137 178 225 283 344 414
#     4  12  24  46  74 106 140 184 236 290 358 426
#
# _framework density 24.523741999999999
#
# number of rings (size 3 to 8) (size 9 to 14) (size 15 to 20)
#    0.000    1.143    4.286    0.857    2.000    5.714 
#    0.000    0.000    0.000    0.000    0.000    0.000 
#    0.000    0.000    0.000    0.000    0.000    0.000 
#
# Total GULP energy -156539.622601 kJ/mol
# GULP energy per Si atom -5590.700807 kJ/mol
# Density = 2.446792 g / cm^3
# Si number density = 24.523742 Si / 1000 Ang^3
#
#
#
# Elastic Constant Matrix: (Units=GPa)
#
#
# Indices 1 2 3 4 5 6 
#
# 1 30.8586 0.1205 0.2862 0.0000 0.0000 0.0000
# 2 0.1205 46.3813 25.9959 0.0000 0.0000 0.0000
# 3 0.2862 25.9959 80.9419 0.0000 0.0000 0.0000
# 4 0.0000 0.0000 0.0000 29.2125 0.0000 0.0000
# 5 0.0000 0.0000 0.0000 0.0000 27.5107 0.0000
# 6 0.0000 0.0000 0.0000 0.0000 0.0000 36.0152
#
#
#
# Elastic Compliance Matrix: (Units=1/GPa)
#
#
# Indices 1 2 3 4 5 6 
#
# 1 0.032407 -0.000024 -0.000107 0.000000 0.000000 0.000000
# 2 -0.000024 0.026293 -0.008445 0.000000 0.000000 0.000000
# 3 -0.000107 -0.008445 0.015067 0.000000 0.000000 0.000000
# 4 0.000000 0.000000 0.000000 0.034232 0.000000 0.000000
# 5 0.000000 0.000000 0.000000 0.000000 0.036349 0.000000
# 6 0.000000 0.000000 0.000000 0.000000 0.000000 0.027766
#
#
# Mechanical properties :
#
#
# Convention : Reuss Voigt Hill
#
# Bulk Modulus (GPa) = 17.66281 23.44302 20.55291
# Shear Modulus (GPa) = 24.02250 27.33297 25.67773
#
# Velocity S-wave (km/s) = 3.13319 3.34211 3.23934
# Velocity P-wave (km/s) = 4.50634 4.94702 4.73181
#
# Compressibility (1/GPa) = 0.05661615
#
# Stress axis : x y z
#
# Youngs Moduli (GPa) = 30.85760 38.03225 66.37006
#
# Poissons Ratio (x) = 0.00092 0.00709
# Poissons Ratio (y) = 0.00075 0.56046
# Poissons Ratio (z) = 0.00330 0.32116
#
# Static dielectric constant tensor:
#      x y z
#    x 1.968590 0.000000 0.000000 
#    y 0.000000 1.969530 0.000000 
#    z 0.000000 0.000000 2.007850 
# 
# From -- ./inp_files/1480.got.cif
#   From: 2010.05.17/outbox.cif.g08.bks.cpg/sg29_1_cif.got.tgz:1480.got - 2010.06.04 01:19:37.
