data_PCOD9340317
_publ_section_title
;
Structure prediction by ZEFSAII (Michael W. Deem and Ramdas Pophale) SiO2 
 PCOD9340317
Probable space group: P C A 21
;
_chemical_formula_sum "Si O2"
_cell_formula_units_Z 24
_cell_length_a 16.211794
_cell_length_b 5.016788
_cell_length_c 14.021887
_cell_angle_alpha 90.000000
_cell_angle_beta 90.000000
_cell_angle_gamma 90.000000
_cell_volume 1140.415965
_symmetry_space_group_name_H-M "P C A 21"
_symmetry_group_IT_number 29
_symmetry_cell_setting 'orthorhombic'
loop_
_space_group_symop_operation_xyz
x,y,z
-x,-y,1/2+z
1/2-x,y,1/2+z
1/2+x,-y,z
loop_
_atom_site_type_symbol
_atom_site_label
_atom_site_fract_x
_atom_site_fract_y
_atom_site_fract_z
Si Si1 0.582253 0.622815 0.013200
Si Si2 0.666954 0.124567 0.068544
Si Si3 0.168216 0.118157 0.622898
Si Si4 0.813929 0.641324 0.317230
Si Si5 0.892200 0.381768 0.009412
Si Si6 0.770706 0.146359 0.872337
O O1 0.629869 0.416044 0.082451
O O2 0.487585 0.544786 0.002766
O O3 0.593295 0.917086 0.055046
O O4 0.626569 0.628891 0.909308
O O5 0.737334 0.984846 0.130771
O O6 0.715544 0.152204 0.968461
O O7 0.142460 0.240452 0.724113
O O8 0.158763 0.361497 0.547204
O O9 0.119399 0.861975 0.584177
O O10 0.774583 0.351678 0.302057
O O11 0.738844 0.844334 0.340094
O O12 0.856418 0.264492 0.910139
#
# Coordination Sequence:
#
# PCOD9340317 Si02
#       6
#     4   4   4   4   4   4
#     4  10  20  36  57  80 112 150 185 225 283 344
#     4   9  18  34  55  77 106 148 190 220 267 342
#     4  11  21  36  58  85 113 147 194 241 278 327
#     4  10  20  36  57  81 109 146 190 236 276 324
#     4  11  21  36  58  84 114 150 188 232 288 348
#     4   9  18  34  55  77 104 145 189 222 270 343
#
# _framework density 21.044951000000001
#
# number of rings (size 3 to 8) (size 9 to 14) (size 15 to 20)
#    0.000    2.000    0.000    7.000    0.000    0.000 
#    0.000    5.000    0.000    0.000    0.000    0.000 
#    0.000    0.000    0.000    0.000    0.000    0.000 
#
# Total GULP energy -133809.179736 kJ/mol
# GULP energy per Si atom -5575.382489 kJ/mol
# Density = 2.099705 g / cm^3
# Si number density = 21.044951 Si / 1000 Ang^3
#
#
#
# Elastic Constant Matrix: (Units=GPa)
#
#
# Indices 1 2 3 4 5 6 
#
# 1 88.0491 17.5941 8.6949 0.0000 0.0000 0.0000
# 2 17.5941 104.4262 21.5187 0.0000 0.0000 0.0000
# 3 8.6949 21.5187 59.6190 0.0000 0.0000 0.0000
# 4 0.0000 0.0000 0.0000 26.8260 0.0000 0.0000
# 5 0.0000 0.0000 0.0000 0.0000 9.8015 0.0000
# 6 0.0000 0.0000 0.0000 0.0000 0.0000 24.1726
#
#
#
# Elastic Compliance Matrix: (Units=1/GPa)
#
#
# Indices 1 2 3 4 5 6 
#
# 1 0.011818 -0.001767 -0.001086 0.000000 0.000000 0.000000
# 2 -0.001767 0.010610 -0.003572 0.000000 0.000000 0.000000
# 3 -0.001086 -0.003572 0.018221 0.000000 0.000000 0.000000
# 4 0.000000 0.000000 0.000000 0.037277 0.000000 0.000000
# 5 0.000000 0.000000 0.000000 0.000000 0.102025 0.000000
# 6 0.000000 0.000000 0.000000 0.000000 0.000000 0.041369
#
#
# Mechanical properties :
#
#
# Convention : Reuss Voigt Hill
#
# Bulk Modulus (GPa) = 35.97277 38.63442 37.30359
# Shear Modulus (GPa) = 20.53929 25.77913 23.15921
#
# Velocity S-wave (km/s) = 3.12744 3.50373 3.32092
# Velocity P-wave (km/s) = 5.49287 5.89628 5.69815
#
# Compressibility (1/GPa) = 0.02779881
#
# Stress axis : x y z
#
# Youngs Moduli (GPa) = 84.61913 94.25134 54.88274
#
# Poissons Ratio (x) = 0.16658 0.05958
# Poissons Ratio (y) = 0.14955 0.19603
# Poissons Ratio (z) = 0.09186 0.33664
#
# Static dielectric constant tensor:
#      x y z
#    x 1.745850 0.000000 0.000000 
#    y 0.000000 1.759230 0.000000 
#    z 0.000000 0.000000 1.812070 
# 
# From -- ./inp_files/4748.got.cif
#   From: 2010.05.17/outbox.cif.g08.bks.cpg/sg29_3_cif.got.tgz:4748.got - 2010.06.04 01:19:37.
