data_PCOD9340756
_publ_section_title
;
Structure prediction by ZEFSAII (Michael W. Deem and Ramdas Pophale) SiO2 
 PCOD9340756
Probable space group: P C A 21
;
_chemical_formula_sum "Si O2"
_cell_formula_units_Z 32
_cell_length_a 20.640894
_cell_length_b 5.341941
_cell_length_c 11.152377
_cell_angle_alpha 90.000000
_cell_angle_beta 90.000000
_cell_angle_gamma 90.000000
_cell_volume 1229.688277
_symmetry_space_group_name_H-M "P C A 21"
_symmetry_group_IT_number 29
_symmetry_cell_setting 'orthorhombic'
loop_
_space_group_symop_operation_xyz
x,y,z
-x,-y,1/2+z
1/2-x,y,1/2+z
1/2+x,-y,z
loop_
_atom_site_type_symbol
_atom_site_label
_atom_site_fract_x
_atom_site_fract_y
_atom_site_fract_z
Si Si1 0.982717 0.102858 0.608060
Si Si2 0.123084 0.993338 0.583743
Si Si3 0.112268 0.140238 0.948473
Si Si4 0.518535 0.488038 0.902807
Si Si5 0.761518 0.403375 0.864143
Si Si6 0.618131 0.348587 0.777078
Si Si7 0.103107 0.796356 0.331910
Si Si8 0.750586 0.895403 0.516905
O O1 0.970807 0.345252 0.525084
O O2 0.934413 0.099347 0.718000
O O3 0.956860 0.887839 0.515931
O O4 0.058438 0.117646 0.635027
O O5 0.121218 0.713553 0.633859
O O6 0.114379 0.991165 0.440046
O O7 0.193575 0.102086 0.614580
O O8 0.094315 0.395075 0.875545
O O9 0.172989 0.157406 0.036669
O O10 0.124268 0.913946 0.859333
O O11 0.533640 0.328966 0.785044
O O12 0.449648 0.605633 0.886117
O O13 0.695945 0.425880 0.790535
O O14 0.828495 0.328801 0.798997
O O15 0.768459 0.669986 0.928562
O O16 0.752924 0.173539 0.959159
#
# Coordination Sequence:
#
# PCOD9340756 Si02
#       8
#     4   4   4   4   4   4   4   4
#     4  11  25  42  69  99 140 187 244 297 374 426
#     4  11  24  44  70 103 145 187 239 304 366 437
#     4  10  21  44  68 100 139 185 234 297 360 437
#     4  11  22  43  69 100 136 187 244 299 359 440
#     4  10  22  46  68 105 143 190 235 300 354 428
#     4  10  23  42  73 100 140 190 238 294 367 438
#     4  11  25  43  69 103 143 182 246 299 366 432
#     4  10  22  44  72 102 148 184 244 292 358 430
#
# _framework density 26.022853000000001
#
# number of rings (size 3 to 8) (size 9 to 14) (size 15 to 20)
#    0.000    1.500    2.500    1.500    5.250    0.000 
#    9.000    0.000    0.000    0.000    0.000    0.000 
#    0.000    0.000    0.000    0.000    0.000    0.000 
#
# Total GULP energy -178226.416317 kJ/mol
# GULP energy per Si atom -5569.575510 kJ/mol
# Density = 2.596362 g / cm^3
# Si number density = 26.022853 Si / 1000 Ang^3
#
#
#
# Elastic Constant Matrix: (Units=GPa)
#
#
# Indices 1 2 3 4 5 6 
#
# 1 200.2750 36.9671 34.2374 0.0000 0.0000 0.0000
# 2 36.9671 92.9968 18.1279 0.0000 0.0000 0.0000
# 3 34.2374 18.1279 67.4495 0.0000 0.0000 0.0000
# 4 0.0000 0.0000 0.0000 28.7577 0.0000 0.0000
# 5 0.0000 0.0000 0.0000 0.0000 20.9557 0.0000
# 6 0.0000 0.0000 0.0000 0.0000 0.0000 39.9228
#
#
#
# Elastic Compliance Matrix: (Units=1/GPa)
#
#
# Indices 1 2 3 4 5 6 
#
# 1 0.005742 -0.001809 -0.002429 0.000000 0.000000 0.000000
# 2 -0.001809 0.011918 -0.002285 0.000000 0.000000 0.000000
# 3 -0.002429 -0.002285 0.016673 0.000000 0.000000 0.000000
# 4 0.000000 0.000000 0.000000 0.034773 0.000000 0.000000
# 5 0.000000 0.000000 0.000000 0.000000 0.047720 0.000000
# 6 0.000000 0.000000 0.000000 0.000000 0.000000 0.025048
#
#
# Mechanical properties :
#
#
# Convention : Reuss Voigt Hill
#
# Bulk Modulus (GPa) = 46.97540 59.93178 53.45359
# Shear Modulus (GPa) = 30.86142 36.01982 33.44062
#
# Velocity S-wave (km/s) = 3.44748 3.72447 3.58865
# Velocity P-wave (km/s) = 5.82560 6.44794 6.14465
#
# Compressibility (1/GPa) = 0.02128774
#
# Stress axis : x y z
#
# Youngs Moduli (GPa) = 174.14807 83.90964 59.97844
#
# Poissons Ratio (x) = 0.15181 0.14566
# Poissons Ratio (y) = 0.31507 0.13703
# Poissons Ratio (z) = 0.42292 0.19170
#
# Static dielectric constant tensor:
#      x y z
#    x 2.237070 0.000000 0.000000 
#    y 0.000000 2.468490 0.000000 
#    z 0.000000 0.000000 2.064470 
# 
# From -- ./inp_files/3819.got.cif
#   From: 2010.05.17/outbox.cif.g08.bks.cpg/sg29_2_cif.got.tgz:3819.got - 2010.06.04 01:19:37.
