data_PCOD9340372
_publ_section_title
;
Structure prediction by ZEFSAII (Michael W. Deem and Ramdas Pophale) SiO2 
 PCOD9340372
Probable space group: P C A 21
;
_chemical_formula_sum "Si O2"
_cell_formula_units_Z 24
_cell_length_a 10.227518
_cell_length_b 9.200543
_cell_length_c 9.706516
_cell_angle_alpha 90.000000
_cell_angle_beta 90.000000
_cell_angle_gamma 90.000000
_cell_volume 913.370723
_symmetry_space_group_name_H-M "P C A 21"
_symmetry_group_IT_number 29
_symmetry_cell_setting 'orthorhombic'
loop_
_space_group_symop_operation_xyz
x,y,z
-x,-y,1/2+z
1/2-x,y,1/2+z
1/2+x,-y,z
loop_
_atom_site_type_symbol
_atom_site_label
_atom_site_fract_x
_atom_site_fract_y
_atom_site_fract_z
Si Si1 0.727530 0.881138 0.751980
Si Si2 0.953539 0.280040 0.819339
Si Si3 0.046462 0.780040 0.019615
Si Si4 0.727530 0.618861 0.586972
Si Si5 0.882147 0.036445 0.996113
Si Si6 0.382146 0.536445 0.342840
O O1 0.595874 0.800598 0.805978
O O2 0.799926 0.750000 0.669476
O O3 0.807886 0.953621 0.872488
O O4 0.683851 0.999905 0.640330
O O5 0.892312 0.250000 0.669477
O O6 0.979729 0.450191 0.835915
O O7 0.890419 0.201626 0.948958
O O8 0.904127 0.699402 0.032974
O O9 0.109582 0.701626 0.889995
O O10 0.020272 0.950191 0.003038
O O11 0.683851 0.500094 0.698622
O O12 0.807884 0.546379 0.466464
#
# Coordination Sequence:
#
# PCOD9340372 Si02
#       6
#     4   4   4   4   4   4
#     4   9  19  35  58  82 109 153 191 223 280 347
#     4   9  20  37  57  85 114 148 193 234 278 337
#     4   9  20  37  57  85 114 148 193 234 278 337
#     4   9  19  35  58  82 109 153 191 223 280 347
#     4  10  20  38  60  83 112 149 190 233 279 334
#     4  10  20  38  60  83 112 149 190 233 279 334
#
# _framework density 26.276297
#
# number of rings (size 3 to 8) (size 9 to 14) (size 15 to 20)
#    0.000    3.333    0.000    4.000    0.000   10.667 
#    0.000    6.667    0.000    0.000    0.000    0.000 
#    0.000    0.000    0.000    0.000    0.000    0.000 
#
# Total GULP energy -134349.697681 kJ/mol
# GULP energy per Si atom -5597.904070 kJ/mol
# Density = 2.621649 g / cm^3
# Si number density = 26.276297 Si / 1000 Ang^3
#
#
#
# Elastic Constant Matrix: (Units=GPa)
#
#
# Indices 1 2 3 4 5 6 
#
# 1 30.2000 28.4526 10.7200 0.0000 0.0000 0.0000
# 2 28.4526 69.1545 33.1422 0.0000 0.0000 0.0000
# 3 10.7200 33.1422 116.0522 0.0000 0.0000 0.0000
# 4 0.0000 0.0000 0.0000 58.2286 0.0000 0.0000
# 5 0.0000 0.0000 0.0000 0.0000 17.2316 0.0000
# 6 0.0000 0.0000 0.0000 0.0000 0.0000 40.0446
#
#
#
# Elastic Compliance Matrix: (Units=1/GPa)
#
#
# Indices 1 2 3 4 5 6 
#
# 1 0.054322 -0.023108 0.001581 0.000000 0.000000 0.000000
# 2 -0.023108 0.026583 -0.005457 0.000000 0.000000 0.000000
# 3 0.001581 -0.005457 0.010029 0.000000 0.000000 0.000000
# 4 0.000000 0.000000 0.000000 0.017174 0.000000 0.000000
# 5 0.000000 0.000000 0.000000 0.000000 0.058033 0.000000
# 6 0.000000 0.000000 0.000000 0.000000 0.000000 0.024972
#
#
# Mechanical properties :
#
#
# Convention : Reuss Voigt Hill
#
# Bulk Modulus (GPa) = 27.05109 40.00403 33.52756
# Shear Modulus (GPa) = 19.42481 32.64041 26.03261
#
# Velocity S-wave (km/s) = 2.72187 3.52831 3.15099
# Velocity P-wave (km/s) = 4.49392 5.64412 5.10154
#
# Compressibility (1/GPa) = 0.03696709
#
# Stress axis : x y z
#
# Youngs Moduli (GPa) = 18.40870 37.61798 99.70911
#
# Poissons Ratio (x) = 0.86927 -0.15767
# Poissons Ratio (y) = 0.42539 0.54412
# Poissons Ratio (z) = -0.02911 0.20528
#
# Static dielectric constant tensor:
#      x y z
#    x 2.131210 0.000000 0.000000 
#    y 0.000000 2.096180 0.000000 
#    z 0.000000 0.000000 1.995210 
# 
# From -- ./inp_files/1423.got.cif
#   From: 2010.05.17/outbox.cif.g08.bks.cpg/sg29_1_cif.got.tgz:1423.got - 2010.06.04 01:19:37.
