data_PCOD9340916
_publ_section_title
;
Structure prediction by ZEFSAII (Michael W. Deem and Ramdas Pophale) SiO2 
 PCOD9340916
Probable space group: P C A 21
;
_chemical_formula_sum "Si O2"
_cell_formula_units_Z 32
_cell_length_a 12.359865
_cell_length_b 8.982623
_cell_length_c 14.001090
_cell_angle_alpha 90.000000
_cell_angle_beta 90.000000
_cell_angle_gamma 90.000000
_cell_volume 1554.457123
_symmetry_space_group_name_H-M "P C A 21"
_symmetry_group_IT_number 29
_symmetry_cell_setting 'orthorhombic'
loop_
_space_group_symop_operation_xyz
x,y,z
-x,-y,1/2+z
1/2-x,y,1/2+z
1/2+x,-y,z
loop_
_atom_site_type_symbol
_atom_site_label
_atom_site_fract_x
_atom_site_fract_y
_atom_site_fract_z
Si Si1 0.340917 0.573751 0.373800
Si Si2 0.130897 0.758568 0.182469
Si Si3 0.710392 0.578728 0.228499
Si Si4 0.019895 0.690837 0.695801
Si Si5 0.028808 0.513503 0.496367
Si Si6 0.146473 0.774840 0.396583
Si Si7 0.836104 0.077244 0.094392
Si Si8 0.111940 0.262875 0.600555
O O1 0.262154 0.447419 0.332341
O O2 0.418884 0.618970 0.285995
O O3 0.407938 0.522583 0.464413
O O4 0.269133 0.716097 0.398271
O O5 0.174237 0.588427 0.195981
O O6 0.123924 0.826324 0.289503
O O7 0.220760 0.849193 0.122861
O O8 0.010786 0.752002 0.140232
O O9 0.606564 0.684532 0.220770
O O10 0.806380 0.641860 0.164523
O O11 0.033783 0.591449 0.599816
O O12 0.076663 0.845606 0.665953
O O13 0.074628 0.629419 0.419909
O O14 0.094663 0.360151 0.504954
O O15 0.131644 0.881339 0.486027
O O16 0.838795 0.900685 0.097863
#
# Coordination Sequence:
#
# PCOD9340916 Si02
#       8
#     4   4   4   4   4   4   4   4
#     4  11  20  39  69 100 128 173 232 293 335 394
#     4  11  22  46  71  96 139 181 234 289 337 408
#     4  11  20  40  70  99 131 172 241 283 333 407
#     4  11  22  42  67  95 135 179 228 280 346 409
#     4  11  22  38  67  99 129 175 231 293 333 400
#     4  10  22  41  68  93 132 178 233 282 336 405
#     4  11  25  45  64 100 144 186 222 278 358 424
#     4  12  25  41  68 102 138 184 225 280 360 411
#
# _framework density 20.585965000000002
#
# number of rings (size 3 to 8) (size 9 to 14) (size 15 to 20)
#    0.000    1.000    5.000    3.750    3.500    0.000 
#    2.250    2.500    0.000    0.000    0.000    0.000 
#    0.000    0.000    0.000    0.000    0.000    0.000 
#
# Total GULP energy -178742.068632 kJ/mol
# GULP energy per Si atom -5585.689645 kJ/mol
# Density = 2.053911 g / cm^3
# Si number density = 20.585965 Si / 1000 Ang^3
#
#
#
# Elastic Constant Matrix: (Units=GPa)
#
#
# Indices 1 2 3 4 5 6 
#
# 1 81.9351 7.5176 -5.0786 0.0000 0.0000 0.0000
# 2 7.5176 42.9324 11.0133 0.0000 0.0000 0.0000
# 3 -5.0786 11.0133 52.1928 0.0000 0.0000 0.0000
# 4 0.0000 0.0000 0.0000 11.6008 0.0000 0.0000
# 5 0.0000 0.0000 0.0000 0.0000 41.8659 0.0000
# 6 0.0000 0.0000 0.0000 0.0000 0.0000 16.0054
#
#
#
# Elastic Compliance Matrix: (Units=1/GPa)
#
#
# Indices 1 2 3 4 5 6 
#
# 1 0.012559 -0.002656 0.001783 0.000000 0.000000 0.000000
# 2 -0.002656 0.025187 -0.005573 0.000000 0.000000 0.000000
# 3 0.001783 -0.005573 0.020509 0.000000 0.000000 0.000000
# 4 0.000000 0.000000 0.000000 0.086201 0.000000 0.000000
# 5 0.000000 0.000000 0.000000 0.000000 0.023886 0.000000
# 6 0.000000 0.000000 0.000000 0.000000 0.000000 0.062479
#
#
# Mechanical properties :
#
#
# Convention : Reuss Voigt Hill
#
# Bulk Modulus (GPa) = 22.04523 22.66275 22.35399
# Shear Modulus (GPa) = 19.31723 24.80160 22.05941
#
# Velocity S-wave (km/s) = 3.06660 3.47476 3.27704
# Velocity P-wave (km/s) = 4.82399 5.20878 5.02007
#
# Compressibility (1/GPa) = 0.04536129
#
# Stress axis : x y z
#
# Youngs Moduli (GPa) = 79.62420 39.70256 48.75856
#
# Poissons Ratio (x) = 0.10547 -0.08692
# Poissons Ratio (y) = 0.21151 0.27175
# Poissons Ratio (z) = -0.14194 0.22127
#
# Static dielectric constant tensor:
#      x y z
#    x 1.755670 0.000000 0.000000 
#    y 0.000000 1.724540 0.000000 
#    z 0.000000 0.000000 1.748420 
# 
# From -- ./inp_files/4563.got.cif
#   From: 2010.05.17/outbox.cif.g08.bks.cpg/sg29_3_cif.got.tgz:4563.got - 2010.06.04 01:19:37.
