data_PCOD9340837
_publ_section_title
;
Structure prediction by ZEFSAII (Michael W. Deem and Ramdas Pophale) SiO2 
 PCOD9340837
Probable space group: P C A 21
;
_chemical_formula_sum "Si O2"
_cell_formula_units_Z 28
_cell_length_a 13.801355
_cell_length_b 10.588195
_cell_length_c 9.054783
_cell_angle_alpha 90.000000
_cell_angle_beta 90.000000
_cell_angle_gamma 90.000000
_cell_volume 1323.188461
_symmetry_space_group_name_H-M "P C A 21"
_symmetry_group_IT_number 29
_symmetry_cell_setting 'orthorhombic'
loop_
_space_group_symop_operation_xyz
x,y,z
-x,-y,1/2+z
1/2-x,y,1/2+z
1/2+x,-y,z
loop_
_atom_site_type_symbol
_atom_site_label
_atom_site_fract_x
_atom_site_fract_y
_atom_site_fract_z
Si Si1 0.750000 0.500000 0.412410
Si Si2 0.883954 0.166825 0.203096
Si Si3 0.615953 0.916782 0.534571
Si Si4 0.794337 0.675116 0.162863
Si Si5 0.294337 0.675116 0.662863
Si Si6 0.383954 0.166825 0.703096
Si Si7 0.384047 0.916782 0.534571
O O1 0.812035 0.591446 0.306842
O O2 0.688229 0.589532 0.519660
O O3 0.687965 0.408554 0.306843
O O4 0.811771 0.410469 0.519660
O O5 0.819758 0.288536 0.168396
O O6 0.856265 0.117880 0.367187
O O7 1.000000 0.187108 0.198135
O O8 0.855997 0.056071 0.088417
O O9 0.652500 0.807680 0.644353
O O10 0.643735 0.882120 0.367187
O O11 0.500000 0.915230 0.539181
O O12 0.680242 0.711464 0.168396
O O13 0.347500 0.807680 0.644353
O O14 0.355997 0.056071 0.588417
#
# Coordination Sequence:
#
# PCOD9340837 Si02
#       7
#     4   4   4   4   4   4   4
#     4  10  24  38  60  86 116 156 208 236 282 342
#     4  10  22  39  62  91 119 150 193 243 299 354
#     4  10  22  39  62  91 119 150 193 243 299 354
#     4  11  21  42  60  84 119 159 192 248 286 345
#     4  11  21  42  60  84 119 159 192 248 286 345
#     4  10  22  39  62  91 119 150 193 243 299 354
#     4  10  22  39  62  91 119 150 193 243 299 354
#
# _framework density 21.161006
#
# number of rings (size 3 to 8) (size 9 to 14) (size 15 to 20)
#    0.000    1.714    2.857    0.857    4.000    2.286 
#    0.000    8.571    0.000    0.000    0.000    0.000 
#    0.000    0.000    0.000    0.000    0.000    0.000 
#
# Total GULP energy -156400.372360 kJ/mol
# GULP energy per Si atom -5585.727584 kJ/mol
# Density = 2.111284 g / cm^3
# Si number density = 21.161006 Si / 1000 Ang^3
#
#
#
# Elastic Constant Matrix: (Units=GPa)
#
#
# Indices 1 2 3 4 5 6 
#
# 1 34.0593 20.4663 17.7733 0.0000 0.0000 0.0000
# 2 20.4663 95.3765 29.7927 0.0000 0.0000 0.0000
# 3 17.7733 29.7927 98.6533 0.0000 0.0000 0.0000
# 4 0.0000 0.0000 0.0000 39.6852 0.0000 0.0000
# 5 0.0000 0.0000 0.0000 0.0000 16.0656 0.0000
# 6 0.0000 0.0000 0.0000 0.0000 0.0000 13.5911
#
#
#
# Elastic Compliance Matrix: (Units=1/GPa)
#
#
# Indices 1 2 3 4 5 6 
#
# 1 0.035438 -0.006195 -0.004514 0.000000 0.000000 0.000000
# 2 -0.006195 0.012660 -0.002707 0.000000 0.000000 0.000000
# 3 -0.004514 -0.002707 0.011767 0.000000 0.000000 0.000000
# 4 0.000000 0.000000 0.000000 0.025198 0.000000 0.000000
# 5 0.000000 0.000000 0.000000 0.000000 0.062245 0.000000
# 6 0.000000 0.000000 0.000000 0.000000 0.000000 0.073578
#
#
# Mechanical properties :
#
#
# Convention : Reuss Voigt Hill
#
# Bulk Modulus (GPa) = 30.27161 40.46152 35.36656
# Shear Modulus (GPa) = 19.32527 24.53882 21.93204
#
# Velocity S-wave (km/s) = 3.02528 3.40902 3.22287
# Velocity P-wave (km/s) = 5.15165 5.88706 5.53159
#
# Compressibility (1/GPa) = 0.03303426
#
# Stress axis : x y z
#
# Youngs Moduli (GPa) = 28.21798 78.99115 84.98153
#
# Poissons Ratio (x) = 0.48931 0.38359
# Poissons Ratio (y) = 0.17480 0.23006
# Poissons Ratio (z) = 0.12737 0.21384
#
# Static dielectric constant tensor:
#      x y z
#    x 1.754980 0.000000 0.000000 
#    y 0.000000 1.740490 0.000000 
#    z 0.000000 0.000000 1.785310 
# 
# From -- ./inp_files/1794.got.cif
#   From: 2010.05.17/outbox.cif.g08.bks.cpg/sg29_1_cif.got.tgz:1794.got - 2010.06.04 01:19:37.
