data_PCOD9340918
_publ_section_title
;
Structure prediction by ZEFSAII (Michael W. Deem and Ramdas Pophale) SiO2 
 PCOD9340918
Probable space group: P C A 21
;
_chemical_formula_sum "Si O2"
_cell_formula_units_Z 32
_cell_length_a 14.358478
_cell_length_b 7.241747
_cell_length_c 12.964402
_cell_angle_alpha 90.000000
_cell_angle_beta 90.000000
_cell_angle_gamma 90.000000
_cell_volume 1348.044548
_symmetry_space_group_name_H-M "P C A 21"
_symmetry_group_IT_number 29
_symmetry_cell_setting 'orthorhombic'
loop_
_space_group_symop_operation_xyz
x,y,z
-x,-y,1/2+z
1/2-x,y,1/2+z
1/2+x,-y,z
loop_
_atom_site_type_symbol
_atom_site_label
_atom_site_fract_x
_atom_site_fract_y
_atom_site_fract_z
Si Si1 0.347613 0.488650 0.372950
Si Si2 0.291128 0.212652 0.940092
Si Si3 0.890261 0.457649 0.049255
Si Si4 0.091532 0.611322 0.091427
Si Si5 0.012608 0.744804 0.370969
Si Si6 0.121624 0.033011 0.254427
Si Si7 0.114374 0.041185 0.034904
Si Si8 0.757988 0.275607 0.213505
O O1 0.273128 0.327550 0.360534
O O2 0.359957 0.512342 0.494374
O O3 0.446229 0.419053 0.332030
O O4 0.308090 0.665895 0.317861
O O5 0.368099 0.128587 0.864672
O O6 0.335894 0.355089 0.020275
O O7 0.220408 0.072328 0.996301
O O8 0.830751 0.326841 0.124055
O O9 0.989488 0.522940 0.095436
O O10 0.908607 0.347889 0.942182
O O11 0.090213 0.826965 0.054986
O O12 0.164857 0.606041 0.185299
O O13 0.047444 0.872358 0.279278
O O14 0.951295 0.867769 0.449713
O O15 0.098596 0.134648 0.147882
O O16 0.219080 0.929773 0.227373
#
# Coordination Sequence:
#
# PCOD9340918 Si02
#       8
#     4   4   4   4   4   4   4   4
#     4  10  22  41  68  95 132 179 230 288 347 418
#     4  11  23  42  68  97 140 185 235 294 362 424
#     4  11  24  43  73  98 139 190 233 305 356 429
#     4  10  22  45  67 103 139 182 231 298 353 430
#     4  10  24  47  64 100 142 177 239 296 356 432
#     4  11  25  42  69 101 140 188 231 297 369 440
#     4  10  24  45  69 100 145 182 238 294 361 443
#     4  11  24  41  70 100 133 185 237 288 358 424
#
# _framework density 23.738088000000001
#
# number of rings (size 3 to 8) (size 9 to 14) (size 15 to 20)
#    0.000    1.500    1.250    2.250    8.750    0.000 
#   11.250    0.000    0.000    0.000    0.000    0.000 
#    0.000    0.000    0.000    0.000    0.000    0.000 
#
# Total GULP energy -178846.100039 kJ/mol
# GULP energy per Si atom -5588.940626 kJ/mol
# Density = 2.368406 g / cm^3
# Si number density = 23.738088 Si / 1000 Ang^3
#
#
#
# Elastic Constant Matrix: (Units=GPa)
#
#
# Indices 1 2 3 4 5 6 
#
# 1 87.7685 9.9391 28.5905 0.0000 0.0000 0.0000
# 2 9.9391 44.0430 -2.8955 0.0000 0.0000 0.0000
# 3 28.5905 -2.8955 85.1815 0.0000 0.0000 0.0000
# 4 0.0000 0.0000 0.0000 29.5921 0.0000 0.0000
# 5 0.0000 0.0000 0.0000 0.0000 37.1795 0.0000
# 6 0.0000 0.0000 0.0000 0.0000 0.0000 35.5438
#
#
#
# Elastic Compliance Matrix: (Units=1/GPa)
#
#
# Indices 1 2 3 4 5 6 
#
# 1 0.013251 -0.003290 -0.004560 0.000000 0.000000 0.000000
# 2 -0.003290 0.023573 0.001906 0.000000 0.000000 0.000000
# 3 -0.004560 0.001906 0.013335 0.000000 0.000000 0.000000
# 4 0.000000 0.000000 0.000000 0.033793 0.000000 0.000000
# 5 0.000000 0.000000 0.000000 0.000000 0.026897 0.000000
# 6 0.000000 0.000000 0.000000 0.000000 0.000000 0.028134
#
#
# Mechanical properties :
#
#
# Convention : Reuss Voigt Hill
#
# Bulk Modulus (GPa) = 26.12960 32.02903 29.07931
# Shear Modulus (GPa) = 30.55710 32.55367 31.55539
#
# Velocity S-wave (km/s) = 3.59173 3.70722 3.64993
# Velocity P-wave (km/s) = 5.31339 5.64328 5.48081
#
# Compressibility (1/GPa) = 0.03827078
#
# Stress axis : x y z
#
# Youngs Moduli (GPa) = 75.46328 42.42173 74.99175
#
# Poissons Ratio (x) = 0.13958 0.34193
# Poissons Ratio (y) = 0.24829 -0.14291
# Poissons Ratio (z) = 0.34408 -0.08084
#
# Static dielectric constant tensor:
#      x y z
#    x 1.919320 0.000000 0.000000 
#    y 0.000000 1.933540 0.000000 
#    z 0.000000 0.000000 1.913060 
# 
# From -- ./inp_files/3450.got.cif
#   From: 2010.05.17/outbox.cif.g08.bks.cpg/sg29_2_cif.got.tgz:3450.got - 2010.06.04 01:19:37.
