data_PCOD9340486
_publ_section_title
;
Structure prediction by ZEFSAII (Michael W. Deem and Ramdas Pophale) SiO2 
 PCOD9340486
Probable space group: P C A 21
;
_chemical_formula_sum "Si O2"
_cell_formula_units_Z 28
_cell_length_a 12.548766
_cell_length_b 9.244941
_cell_length_c 9.097722
_cell_angle_alpha 90.000000
_cell_angle_beta 90.000000
_cell_angle_gamma 90.000000
_cell_volume 1055.450395
_symmetry_space_group_name_H-M "P C A 21"
_symmetry_group_IT_number 29
_symmetry_cell_setting 'orthorhombic'
loop_
_space_group_symop_operation_xyz
x,y,z
-x,-y,1/2+z
1/2-x,y,1/2+z
1/2+x,-y,z
loop_
_atom_site_type_symbol
_atom_site_label
_atom_site_fract_x
_atom_site_fract_y
_atom_site_fract_z
Si Si1 0.781957 0.525560 0.537060
Si Si2 0.562897 0.224650 0.403034
Si Si3 0.183748 0.788604 0.137299
Si Si4 0.624713 0.646212 0.733494
Si Si5 0.720733 0.944622 0.709181
Si Si6 0.950648 0.077140 0.417255
Si Si7 0.569292 0.745603 0.194714
O O1 0.804050 0.357308 0.549389
O O2 0.662002 0.545824 0.599964
O O3 0.806871 0.599181 0.379868
O O4 0.859154 0.606768 0.654688
O O5 0.672083 0.236986 0.311702
O O6 0.491098 0.333649 0.301208
O O7 0.517747 0.256720 0.564312
O O8 0.531260 0.054881 0.399386
O O9 0.275038 0.908711 0.115976
O O10 0.078700 0.868674 0.077801
O O11 0.653211 0.804485 0.669042
O O12 0.838383 0.871177 0.704471
O O13 0.657832 0.003325 0.852366
O O14 0.997172 0.216925 0.334197
#
# Coordination Sequence:
#
# PCOD9340486 Si02
#       7
#     4   4   4   4   4   4   4
#     4  10  24  44  63  97 137 177 226 280 354 423
#     4  10  20  42  67  94 129 175 229 279 333 415
#     4  12  25  41  66 105 137 165 236 299 335 416
#     4   9  22  44  68  88 136 185 220 273 351 425
#     4  10  22  40  69  97 130 177 235 282 328 414
#     4  11  22  40  68  98 131 174 227 286 342 400
#     4  10  21  45  65  91 138 179 221 277 353 419
#
# _framework density 26.528956999999998
#
# number of rings (size 3 to 8) (size 9 to 14) (size 15 to 20)
#    0.000    1.714    2.857    0.000    4.000    5.714 
#    5.143    0.000    0.000    0.000    0.000    0.000 
#    0.000    0.000    0.000    0.000    0.000    0.000 
#
# Total GULP energy -156085.043957 kJ/mol
# GULP energy per Si atom -5574.465856 kJ/mol
# Density = 2.646858 g / cm^3
# Si number density = 26.528957 Si / 1000 Ang^3
#
#
#
# Elastic Constant Matrix: (Units=GPa)
#
#
# Indices 1 2 3 4 5 6 
#
# 1 75.3537 46.2715 36.8985 0.0000 0.0000 0.0000
# 2 46.2715 129.5640 27.7210 0.0000 0.0000 0.0000
# 3 36.8985 27.7210 73.0496 0.0000 0.0000 0.0000
# 4 0.0000 0.0000 0.0000 5.1128 0.0000 0.0000
# 5 0.0000 0.0000 0.0000 0.0000 48.1231 0.0000
# 6 0.0000 0.0000 0.0000 0.0000 0.0000 32.4843
#
#
#
# Elastic Compliance Matrix: (Units=1/GPa)
#
#
# Indices 1 2 3 4 5 6 
#
# 1 0.020847 -0.005651 -0.008386 0.000000 0.000000 0.000000
# 2 -0.005651 0.009932 -0.000915 0.000000 0.000000 0.000000
# 3 -0.008386 -0.000915 0.018272 0.000000 0.000000 0.000000
# 4 0.000000 0.000000 0.000000 0.195587 0.000000 0.000000
# 5 0.000000 0.000000 0.000000 0.000000 0.020780 0.000000
# 6 0.000000 0.000000 0.000000 0.000000 0.000000 0.030784
#
#
# Mechanical properties :
#
#
# Convention : Reuss Voigt Hill
#
# Bulk Modulus (GPa) = 52.22318 55.52768 53.87543
# Shear Modulus (GPa) = 15.03813 28.28246 21.66029
#
# Velocity S-wave (km/s) = 2.38346 3.26866 2.86051
# Velocity P-wave (km/s) = 5.22519 5.93480 5.59127
#
# Compressibility (1/GPa) = 0.01914859
#
# Stress axis : x y z
#
# Youngs Moduli (GPa) = 47.96858 100.68445 54.72803
#
# Poissons Ratio (x) = 0.56896 0.45893
# Poissons Ratio (y) = 0.27107 0.05006
# Poissons Ratio (z) = 0.40225 0.09209
#
# Static dielectric constant tensor:
#      x y z
#    x 2.190090 0.000000 0.000000 
#    y 0.000000 2.089960 0.000000 
#    z 0.000000 0.000000 2.019720 
# 
# From -- ./inp_files/2115.got.cif
#   From: 2010.05.17/outbox.cif.g08.bks.cpg/sg29_2_cif.got.tgz:2115.got - 2010.06.04 01:19:37.
