data_PCOD9340452
_publ_section_title
;
Structure prediction by ZEFSAII (Michael W. Deem and Ramdas Pophale) SiO2 
 PCOD9340452
Probable space group: P C A 21
;
_chemical_formula_sum "Si O2"
_cell_formula_units_Z 32
_cell_length_a 11.781705
_cell_length_b 14.028311
_cell_length_c 8.115566
_cell_angle_alpha 90.000000
_cell_angle_beta 90.000000
_cell_angle_gamma 90.000000
_cell_volume 1341.319825
_symmetry_space_group_name_H-M "P C A 21"
_symmetry_group_IT_number 29
_symmetry_cell_setting 'orthorhombic'
loop_
_space_group_symop_operation_xyz
x,y,z
-x,-y,1/2+z
1/2-x,y,1/2+z
1/2+x,-y,z
loop_
_atom_site_type_symbol
_atom_site_label
_atom_site_fract_x
_atom_site_fract_y
_atom_site_fract_z
Si Si1 0.328583 0.332584 0.319070
Si Si2 0.560117 0.276499 0.895355
Si Si3 0.627990 0.841103 0.567074
Si Si4 0.174453 0.762596 0.381514
Si Si5 0.450060 0.592798 0.714428
Si Si6 0.686629 0.959281 0.855291
Si Si7 0.702621 0.103829 0.111171
Si Si8 0.601122 0.625537 0.176633
O O1 0.345485 0.248835 0.186680
O O2 0.417044 0.413451 0.260801
O O3 0.362901 0.322913 0.508562
O O4 0.196697 0.354151 0.312740
O O5 0.690109 0.250788 0.867684
O O6 0.514835 0.328445 0.734111
O O7 0.470433 0.193735 0.944030
O O8 0.558511 0.351460 0.043823
O O9 0.605054 0.916132 0.715768
O O10 0.734624 0.883746 0.458890
O O11 0.111810 0.660025 0.355043
O O12 0.185682 0.840446 0.532134
O O13 0.136040 0.817907 0.216585
O O14 0.404181 0.488272 0.678050
O O15 0.766879 0.025255 0.745409
O O16 0.638322 0.038660 0.978517
#
# Coordination Sequence:
#
# PCOD9340452 Si02
#       8
#     4   4   4   4   4   4   4   4
#     4  11  25  44  67 102 138 180 236 292 346 421
#     4  11  25  44  65 104 139 184 233 287 346 424
#     4  10  20  40  67  98 136 177 227 285 355 407
#     4  11  22  43  68  94 141 185 223 284 346 418
#     4  11  26  43  70  94 139 191 234 286 345 421
#     4   9  18  38  71  97 132 178 223 285 343 412
#     4   9  20  38  68  99 132 173 230 283 338 417
#     4  12  26  42  68 100 141 178 238 296 341 408
#
# _framework density 23.857099000000002
#
# number of rings (size 3 to 8) (size 9 to 14) (size 15 to 20)
#    0.000    1.500    1.250    3.750    5.250    1.000 
#    0.000    3.750    8.250    0.000    0.000    0.000 
#    0.000    0.000    0.000    0.000    0.000    0.000 
#
# Total GULP energy -178254.450522 kJ/mol
# GULP energy per Si atom -5570.451579 kJ/mol
# Density = 2.380280 g / cm^3
# Si number density = 23.857099 Si / 1000 Ang^3
#
#
#
# Elastic Constant Matrix: (Units=GPa)
#
#
# Indices 1 2 3 4 5 6 
#
# 1 70.6294 20.5092 9.6058 0.0000 0.0000 0.0000
# 2 20.5092 103.6884 27.2172 0.0000 0.0000 0.0000
# 3 9.6058 27.2172 119.2980 0.0000 0.0000 0.0000
# 4 0.0000 0.0000 0.0000 29.5226 0.0000 0.0000
# 5 0.0000 0.0000 0.0000 0.0000 32.9167 0.0000
# 6 0.0000 0.0000 0.0000 0.0000 0.0000 22.2516
#
#
#
# Elastic Compliance Matrix: (Units=1/GPa)
#
#
# Indices 1 2 3 4 5 6 
#
# 1 0.015057 -0.002829 -0.000567 0.000000 0.000000 0.000000
# 2 -0.002829 0.010790 -0.002234 0.000000 0.000000 0.000000
# 3 -0.000567 -0.002234 0.008938 0.000000 0.000000 0.000000
# 4 0.000000 0.000000 0.000000 0.033872 0.000000 0.000000
# 5 0.000000 0.000000 0.000000 0.000000 0.030380 0.000000
# 6 0.000000 0.000000 0.000000 0.000000 0.000000 0.044941
#
#
# Mechanical properties :
#
#
# Convention : Reuss Voigt Hill
#
# Bulk Modulus (GPa) = 42.50865 45.36447 43.93656
# Shear Modulus (GPa) = 30.65981 32.69040 31.67510
#
# Velocity S-wave (km/s) = 3.58878 3.70572 3.64772
# Velocity P-wave (km/s) = 5.91854 6.11278 6.01645
#
# Compressibility (1/GPa) = 0.02352462
#
# Stress axis : x y z
#
# Youngs Moduli (GPa) = 66.41380 92.67564 111.88594
#
# Poissons Ratio (x) = 0.26222 0.06342
# Poissons Ratio (y) = 0.18791 0.24995
# Poissons Ratio (z) = 0.03765 0.20703
#
# Static dielectric constant tensor:
#      x y z
#    x 1.917920 0.000000 0.000000 
#    y 0.000000 1.978110 0.000000 
#    z 0.000000 0.000000 1.984660 
# 
# From -- ./inp_files/1598.got.cif
#   From: 2010.05.17/outbox.cif.g08.bks.cpg/sg29_1_cif.got.tgz:1598.got - 2010.06.04 01:19:37.
