data_PCOD9340651
_publ_section_title
;
Structure prediction by ZEFSAII (Michael W. Deem and Ramdas Pophale) SiO2 
 PCOD9340651
Probable space group: P C A 21
;
_chemical_formula_sum "Si O2"
_cell_formula_units_Z 28
_cell_length_a 9.415053
_cell_length_b 9.464816
_cell_length_c 14.032472
_cell_angle_alpha 90.000000
_cell_angle_beta 90.000000
_cell_angle_gamma 90.000000
_cell_volume 1250.458056
_symmetry_space_group_name_H-M "P C A 21"
_symmetry_group_IT_number 29
_symmetry_cell_setting 'orthorhombic'
loop_
_space_group_symop_operation_xyz
x,y,z
-x,-y,1/2+z
1/2-x,y,1/2+z
1/2+x,-y,z
loop_
_atom_site_type_symbol
_atom_site_label
_atom_site_fract_x
_atom_site_fract_y
_atom_site_fract_z
Si Si1 0.543248 0.096224 0.393540
Si Si2 0.006386 0.211976 0.338615
Si Si3 0.139280 0.497190 0.397933
Si Si4 0.396882 0.345440 0.481912
Si Si5 0.801689 0.270696 0.747754
Si Si6 0.696478 0.114555 0.580426
Si Si7 0.371641 0.155660 0.644506
O O1 0.414025 0.197330 0.425171
O O2 0.595237 0.150052 0.290902
O O3 0.673580 0.121389 0.467254
O O4 0.502126 0.933462 0.396054
O O5 0.057512 0.349654 0.392448
O O6 0.122916 0.185598 0.255758
O O7 0.854768 0.244249 0.291194
O O8 0.295024 0.455149 0.431157
O O9 0.143864 0.584679 0.297956
O O10 0.054852 0.591446 0.474488
O O11 0.344164 0.298990 0.585210
O O12 0.780518 0.240295 0.635415
O O13 0.533212 0.114540 0.616247
O O14 0.768921 0.969125 0.612686
#
# Coordination Sequence:
#
# PCOD9340651 Si02
#       7
#     4   4   4   4   4   4   4
#     4  10  22  38  70  94 127 167 218 279 325 392
#     4  11  22  39  66  95 128 169 217 274 330 389
#     4  11  22  44  64  90 131 178 221 259 340 402
#     4  10  23  43  64  93 129 175 222 266 327 405
#     4  10  22  41  61  93 129 170 211 274 325 389
#     4  10  21  40  64  93 132 159 216 274 326 383
#     4  10  22  41  61  96 130 162 219 274 323 392
#
# _framework density 22.391795999999999
#
# number of rings (size 3 to 8) (size 9 to 14) (size 15 to 20)
#    0.000    1.714    2.857    0.857    6.000    0.000 
#   10.286    0.000    0.000    0.000    0.000    0.000 
#    0.000    0.000    0.000    0.000    0.000    0.000 
#
# Total GULP energy -156333.307288 kJ/mol
# GULP energy per Si atom -5583.332403 kJ/mol
# Density = 2.234083 g / cm^3
# Si number density = 22.391796 Si / 1000 Ang^3
#
#
#
# Elastic Constant Matrix: (Units=GPa)
#
#
# Indices 1 2 3 4 5 6 
#
# 1 31.8560 15.1472 -12.9203 0.0000 0.0000 0.0000
# 2 15.1472 130.3160 8.5598 0.0000 0.0000 0.0000
# 3 -12.9203 8.5598 44.9223 0.0000 0.0000 0.0000
# 4 0.0000 0.0000 0.0000 32.1604 0.0000 0.0000
# 5 0.0000 0.0000 0.0000 0.0000 20.4416 0.0000
# 6 0.0000 0.0000 0.0000 0.0000 0.0000 35.5168
#
#
#
# Elastic Compliance Matrix: (Units=1/GPa)
#
#
# Indices 1 2 3 4 5 6 
#
# 1 0.038865 -0.005318 0.012191 0.000000 0.000000 0.000000
# 2 -0.005318 0.008499 -0.003149 0.000000 0.000000 0.000000
# 3 0.012191 -0.003149 0.026367 0.000000 0.000000 0.000000
# 4 0.000000 0.000000 0.000000 0.031094 0.000000 0.000000
# 5 0.000000 0.000000 0.000000 0.000000 0.048920 0.000000
# 6 0.000000 0.000000 0.000000 0.000000 0.000000 0.028156
#
#
# Mechanical properties :
#
#
# Convention : Reuss Voigt Hill
#
# Bulk Modulus (GPa) = 12.31848 25.40753 18.86300
# Shear Modulus (GPa) = 24.81249 30.71091 27.76170
#
# Velocity S-wave (km/s) = 3.33243 3.70743 3.52492
# Velocity P-wave (km/s) = 4.50778 5.44960 5.00091
#
# Compressibility (1/GPa) = 0.08117885
#
# Stress axis : x y z
#
# Youngs Moduli (GPa) = 25.73034 117.66564 37.92599
#
# Poissons Ratio (x) = 0.62577 -0.46237
# Poissons Ratio (y) = 0.13684 0.11943
# Poissons Ratio (z) = -0.31369 0.37053
#
# Static dielectric constant tensor:
#      x y z
#    x 1.833030 0.000000 0.000000 
#    y 0.000000 1.827770 0.000000 
#    z 0.000000 0.000000 1.945920 
# 
# From -- ./inp_files/4489.got.cif
#   From: 2010.05.17/outbox.cif.g08.bks.cpg/sg29_3_cif.got.tgz:4489.got - 2010.06.04 01:19:37.
