data_PCOD9340878
_publ_section_title
;
Structure prediction by ZEFSAII (Michael W. Deem and Ramdas Pophale) SiO2 
 PCOD9340878
Probable space group: P C A 21
;
_chemical_formula_sum "Si O2"
_cell_formula_units_Z 32
_cell_length_a 12.844957
_cell_length_b 9.467629
_cell_length_c 12.773679
_cell_angle_alpha 90.000000
_cell_angle_beta 90.000000
_cell_angle_gamma 90.000000
_cell_volume 1553.423548
_symmetry_space_group_name_H-M "P C A 21"
_symmetry_group_IT_number 29
_symmetry_cell_setting 'orthorhombic'
loop_
_space_group_symop_operation_xyz
x,y,z
-x,-y,1/2+z
1/2-x,y,1/2+z
1/2+x,-y,z
loop_
_atom_site_type_symbol
_atom_site_label
_atom_site_fract_x
_atom_site_fract_y
_atom_site_fract_z
Si Si1 0.801879 0.454092 0.087600
Si Si2 0.945048 0.351981 0.901607
Si Si3 0.104800 0.960150 0.322443
Si Si4 0.869913 0.689031 0.558808
Si Si5 0.752451 0.159204 0.663757
Si Si6 0.913552 0.165062 0.349863
Si Si7 0.991310 0.423327 0.245119
Si Si8 0.272479 0.017633 0.485263
O O1 0.728455 0.587150 0.073066
O O2 0.735764 0.316451 0.120877
O O3 0.890885 0.469876 0.176910
O O4 0.859397 0.416078 0.979484
O O5 0.917924 0.189667 0.877896
O O6 0.952555 0.442447 0.795690
O O7 0.054135 0.356788 0.964113
O O8 0.145673 0.916576 0.208426
O O9 0.196351 0.040034 0.386698
O O10 0.004079 0.056131 0.321797
O O11 0.938167 0.668733 0.664838
O O12 0.828018 0.843661 0.528734
O O13 0.673558 0.166995 0.760009
O O14 0.706217 0.057328 0.575677
O O15 0.959197 0.322397 0.342530
O O16 0.856753 0.101125 0.450875
#
# Coordination Sequence:
#
# PCOD9340878 Si02
#       8
#     4   4   4   4   4   4   4   4
#     4  10  23  43  63  93 128 171 215 266 320 382
#     4  11  23  42  67  93 133 169 213 271 317 385
#     4  11  22  40  66  96 127 170 213 261 326 379
#     4  11  24  42  66  96 131 168 220 268 318 384
#     4  10  22  40  66  90 126 171 212 256 327 383
#     4  10  23  41  63  96 128 165 216 263 323 383
#     4  10  24  43  66  96 129 172 216 268 323 383
#     4  11  23  41  65  96 128 170 211 269 320 383
#
# _framework density 20.599661999999999
#
# number of rings (size 3 to 8) (size 9 to 14) (size 15 to 20)
#    0.000    1.500    2.500    1.500    3.500    4.000 
#    0.000    0.000    0.000    0.000    0.000    0.000 
#    0.000    0.000    0.000    0.000    0.000    0.000 
#
# Total GULP energy -178703.781771 kJ/mol
# GULP energy per Si atom -5584.493180 kJ/mol
# Density = 2.055278 g / cm^3
# Si number density = 20.599662 Si / 1000 Ang^3
#
#
#
# Elastic Constant Matrix: (Units=GPa)
#
#
# Indices 1 2 3 4 5 6 
#
# 1 55.5075 43.0592 8.0883 0.0000 0.0000 0.0000
# 2 43.0592 91.7298 43.6753 0.0000 0.0000 0.0000
# 3 8.0883 43.6753 68.1255 0.0000 0.0000 0.0000
# 4 0.0000 0.0000 0.0000 38.8796 0.0000 0.0000
# 5 0.0000 0.0000 0.0000 0.0000 9.0160 0.0000
# 6 0.0000 0.0000 0.0000 0.0000 0.0000 33.9784
#
#
#
# Elastic Compliance Matrix: (Units=1/GPa)
#
#
# Indices 1 2 3 4 5 6 
#
# 1 0.031212 -0.018549 0.008186 0.000000 0.000000 0.000000
# 2 -0.018549 0.026715 -0.014925 0.000000 0.000000 0.000000
# 3 0.008186 -0.014925 0.023275 0.000000 0.000000 0.000000
# 4 0.000000 0.000000 0.000000 0.025720 0.000000 0.000000
# 5 0.000000 0.000000 0.000000 0.000000 0.110914 0.000000
# 6 0.000000 0.000000 0.000000 0.000000 0.000000 0.029430
#
#
# Mechanical properties :
#
#
# Convention : Reuss Voigt Hill
#
# Bulk Modulus (GPa) = 32.65124 45.00093 38.82608
# Shear Modulus (GPa) = 16.23112 24.41080 20.32096
#
# Velocity S-wave (km/s) = 2.81006 3.44613 3.14422
# Velocity P-wave (km/s) = 5.13939 6.14226 5.66307
#
# Compressibility (1/GPa) = 0.03062671
#
# Stress axis : x y z
#
# Youngs Moduli (GPa) = 32.03919 37.43257 42.96450
#
# Poissons Ratio (x) = 0.69433 -0.35171
# Poissons Ratio (y) = 0.59429 0.64123
# Poissons Ratio (z) = -0.26227 0.55866
#
# Static dielectric constant tensor:
#      x y z
#    x 1.738220 0.000000 0.000000 
#    y 0.000000 1.709290 0.000000 
#    z 0.000000 0.000000 1.788990 
# 
# From -- ./inp_files/3480.got.cif
#   From: 2010.05.17/outbox.cif.g08.bks.cpg/sg29_2_cif.got.tgz:3480.got - 2010.06.04 01:19:37.
