data_PCOD9340729
_publ_section_title
;
Structure prediction by ZEFSAII (Michael W. Deem and Ramdas Pophale) SiO2 
 PCOD9340729
Probable space group: P C A 21
;
_chemical_formula_sum "Si O2"
_cell_formula_units_Z 32
_cell_length_a 9.413139
_cell_length_b 8.585394
_cell_length_c 14.141990
_cell_angle_alpha 90.000000
_cell_angle_beta 90.000000
_cell_angle_gamma 90.000000
_cell_volume 1142.892093
_symmetry_space_group_name_H-M "P C A 21"
_symmetry_group_IT_number 29
_symmetry_cell_setting 'orthorhombic'
loop_
_space_group_symop_operation_xyz
x,y,z
-x,-y,1/2+z
1/2-x,y,1/2+z
1/2+x,-y,z
loop_
_atom_site_type_symbol
_atom_site_label
_atom_site_fract_x
_atom_site_fract_y
_atom_site_fract_z
Si Si1 0.270115 0.507444 0.682100
Si Si2 0.233322 0.374294 0.872387
Si Si3 0.614290 0.161665 0.231361
Si Si4 0.274096 0.648083 0.991097
Si Si5 0.027427 0.778329 0.875581
Si Si6 0.902276 0.078849 0.179559
Si Si7 0.144923 0.214047 0.048169
Si Si8 0.640469 0.014667 0.438157
O O1 0.186553 0.444500 0.772993
O O2 0.372302 0.649695 0.721287
O O3 0.193702 0.595478 0.596759
O O4 0.321989 0.354749 0.623369
O O5 0.361277 0.253726 0.855786
O O6 0.321952 0.509032 0.925160
O O7 0.121641 0.305580 0.947018
O O8 0.659824 0.070107 0.327582
O O9 0.735134 0.094057 0.161439
O O10 0.457694 0.093503 0.210074
O O11 0.334960 0.815265 0.977050
O O12 0.112962 0.669070 0.947478
O O13 0.085688 0.804517 0.770903
O O14 0.018025 0.943108 0.930289
O O15 0.021010 0.125970 0.103759
O O16 0.274783 0.104461 0.008855
#
# Coordination Sequence:
#
# PCOD9340729 Si02
#       8
#     4   4   4   4   4   4   4   4
#     4  11  22  45  70 107 147 205 259 321 403 493
#     4  10  21  44  68 102 146 191 253 324 397 485
#     4  11  24  46  78 109 155 200 264 326 407 480
#     4  11  22  44  70 105 143 197 258 326 395 480
#     4  10  21  42  71  98 151 192 250 326 390 476
#     4  11  22  47  73 111 145 204 259 327 395 492
#     4  10  23  43  71 107 146 199 261 318 404 474
#     4  10  21  43  69 107 145 196 250 330 389 480
#
# _framework density 27.999146
#
# number of rings (size 3 to 8) (size 9 to 14) (size 15 to 20)
#    0.000    1.500    3.750    0.750    0.000    0.000 
#   27.000    6.250    0.000    0.000    0.000    0.000 
#    0.000    0.000    0.000    0.000    0.000    0.000 
#
# Total GULP energy -178343.257266 kJ/mol
# GULP energy per Si atom -5573.226790 kJ/mol
# Density = 2.793542 g / cm^3
# Si number density = 27.999146 Si / 1000 Ang^3
#
#
#
# Elastic Constant Matrix: (Units=GPa)
#
#
# Indices 1 2 3 4 5 6 
#
# 1 89.4032 17.4661 17.8664 0.0000 0.0000 0.0000
# 2 17.4661 124.8848 44.8854 0.0000 0.0000 0.0000
# 3 17.8664 44.8854 179.1193 0.0000 0.0000 0.0000
# 4 0.0000 0.0000 0.0000 60.1867 0.0000 0.0000
# 5 0.0000 0.0000 0.0000 0.0000 28.8264 0.0000
# 6 0.0000 0.0000 0.0000 0.0000 0.0000 36.0574
#
#
#
# Elastic Compliance Matrix: (Units=1/GPa)
#
#
# Indices 1 2 3 4 5 6 
#
# 1 0.011609 -0.001327 -0.000825 0.000000 0.000000 0.000000
# 2 -0.001327 0.008952 -0.002111 0.000000 0.000000 0.000000
# 3 -0.000825 -0.002111 0.006194 0.000000 0.000000 0.000000
# 4 0.000000 0.000000 0.000000 0.016615 0.000000 0.000000
# 5 0.000000 0.000000 0.000000 0.000000 0.034690 0.000000
# 6 0.000000 0.000000 0.000000 0.000000 0.000000 0.027734
#
#
# Mechanical properties :
#
#
# Convention : Reuss Voigt Hill
#
# Bulk Modulus (GPa) = 54.85848 61.53811 58.19830
# Shear Modulus (GPa) = 41.52925 45.89338 43.71132
#
# Velocity S-wave (km/s) = 3.85545 4.05297 3.95545
# Velocity P-wave (km/s) = 6.28131 6.62785 6.45690
#
# Compressibility (1/GPa) = 0.01822872
#
# Stress axis : x y z
#
# Youngs Moduli (GPa) = 86.13642 111.71152 161.44245
#
# Poissons Ratio (x) = 0.14824 0.13327
# Poissons Ratio (y) = 0.11430 0.34078
# Poissons Ratio (z) = 0.07110 0.23580
#
# Static dielectric constant tensor:
#      x y z
#    x 2.240600 0.000000 0.000000 
#    y 0.000000 2.455010 0.000000 
#    z 0.000000 0.000000 2.373030 
# 
# From -- ./inp_files/4579.got.cif
#   From: 2010.05.17/outbox.cif.g08.bks.cpg/sg29_3_cif.got.tgz:4579.got - 2010.06.04 01:19:37.
